
*** ChampSim Multicore Out-of-Order Simulator ***

Warmup Instructions: 100000000
Simulation Instructions: 500000000
Number of CPUs: 1
LLC sets: 2048
LLC ways: 16
Clean RRIP Policies: 1213030012130300 Dirty RRIP Policies: 2213030022130300 PSEL Width: 10 Track Set: 4294967295 PSEL Mask: 1 Demote Mask: 1340021413400214DS Algo: 0Window size: 0
Off-chip DRAM Size: 4096 MB Channels: 1 Width: 64-bit Data Rate: 1600 MT/s

CPU 0 runs /mnt/beegfs/iconst01/spec2017/Lbm.trace.gz
NOT SORTED
TRACE STRING: /mnt/beegfs/iconst01/spec2017/Lbm.trace.gz
SORTED
TRACE STRING: /mnt/beegfs/iconst01/spec2017/Lbm.trace.gz
INITIAL
TRACE STRING: /mnt/beegfs/iconst01/spec2017/Lbm.trace.gz

champsim_seed used: 283

CPU 0 L1D next line prefetcher
CPU 0 L2C IP-based stride prefetcher
Initialize DRRIP state
Assign rand_sets[0]: 454  LLC: 2048
rand_sets[0]: 454
Assign rand_sets[1]: 1662  LLC: 2048
rand_sets[1]: 1662
Assign rand_sets[2]: 1921  LLC: 2048
rand_sets[2]: 1921
Assign rand_sets[3]: 1131  LLC: 2048
rand_sets[3]: 1131
Assign rand_sets[4]: 331  LLC: 2048
rand_sets[4]: 331
Assign rand_sets[5]: 1531  LLC: 2048
rand_sets[5]: 1531
Assign rand_sets[6]: 482  LLC: 2048
rand_sets[6]: 482
Assign rand_sets[7]: 1275  LLC: 2048
rand_sets[7]: 1275
Assign rand_sets[8]: 1876  LLC: 2048
rand_sets[8]: 1876
Assign rand_sets[9]: 2038  LLC: 2048
rand_sets[9]: 2038
Assign rand_sets[10]: 701  LLC: 2048
rand_sets[10]: 701
Assign rand_sets[11]: 479  LLC: 2048
rand_sets[11]: 479
Assign rand_sets[12]: 892  LLC: 2048
rand_sets[12]: 892
Assign rand_sets[13]: 1820  LLC: 2048
rand_sets[13]: 1820
Assign rand_sets[14]: 1505  LLC: 2048
rand_sets[14]: 1505
Assign rand_sets[15]: 1159  LLC: 2048
rand_sets[15]: 1159
Assign rand_sets[16]: 513  LLC: 2048
rand_sets[16]: 513
Assign rand_sets[17]: 703  LLC: 2048
rand_sets[17]: 703
Assign rand_sets[18]: 561  LLC: 2048
rand_sets[18]: 561
Assign rand_sets[19]: 990  LLC: 2048
rand_sets[19]: 990
Assign rand_sets[20]: 342  LLC: 2048
rand_sets[20]: 342
Assign rand_sets[21]: 882  LLC: 2048
rand_sets[21]: 882
Assign rand_sets[22]: 15  LLC: 2048
rand_sets[22]: 15
Assign rand_sets[23]: 71  LLC: 2048
rand_sets[23]: 71
Assign rand_sets[24]: 1127  LLC: 2048
rand_sets[24]: 1127
Assign rand_sets[25]: 1382  LLC: 2048
rand_sets[25]: 1382
Assign rand_sets[26]: 647  LLC: 2048
rand_sets[26]: 647
Assign rand_sets[27]: 857  LLC: 2048
rand_sets[27]: 857
Assign rand_sets[28]: 1450  LLC: 2048
rand_sets[28]: 1450
Assign rand_sets[29]: 1160  LLC: 2048
rand_sets[29]: 1160
Assign rand_sets[30]: 1852  LLC: 2048
rand_sets[30]: 1852
Assign rand_sets[31]: 1881  LLC: 2048
rand_sets[31]: 1881
Assign rand_sets[32]: 1770  LLC: 2048
rand_sets[32]: 1770
Assign rand_sets[33]: 1622  LLC: 2048
rand_sets[33]: 1622
Assign rand_sets[34]: 275  LLC: 2048
rand_sets[34]: 275
Assign rand_sets[35]: 635  LLC: 2048
rand_sets[35]: 635
Assign rand_sets[36]: 466  LLC: 2048
rand_sets[36]: 466
Assign rand_sets[37]: 1413  LLC: 2048
rand_sets[37]: 1413
Assign rand_sets[38]: 417  LLC: 2048
rand_sets[38]: 417
Assign rand_sets[39]: 472  LLC: 2048
rand_sets[39]: 472
Assign rand_sets[40]: 1340  LLC: 2048
rand_sets[40]: 1340
Assign rand_sets[41]: 852  LLC: 2048
rand_sets[41]: 852
Assign rand_sets[42]: 1365  LLC: 2048
rand_sets[42]: 1365
Assign rand_sets[43]: 47  LLC: 2048
rand_sets[43]: 47
Assign rand_sets[44]: 823  LLC: 2048
rand_sets[44]: 823
Assign rand_sets[45]: 686  LLC: 2048
rand_sets[45]: 686
Assign rand_sets[46]: 1637  LLC: 2048
rand_sets[46]: 1637
Assign rand_sets[47]: 1115  LLC: 2048
rand_sets[47]: 1115
Assign rand_sets[48]: 986  LLC: 2048
rand_sets[48]: 986
Assign rand_sets[49]: 258  LLC: 2048
rand_sets[49]: 258
Assign rand_sets[50]: 633  LLC: 2048
rand_sets[50]: 633
Assign rand_sets[51]: 920  LLC: 2048
rand_sets[51]: 920
Assign rand_sets[52]: 204  LLC: 2048
rand_sets[52]: 204
Assign rand_sets[53]: 227  LLC: 2048
rand_sets[53]: 227
Assign rand_sets[54]: 1818  LLC: 2048
rand_sets[54]: 1818
Assign rand_sets[55]: 886  LLC: 2048
rand_sets[55]: 886
Assign rand_sets[56]: 1422  LLC: 2048
rand_sets[56]: 1422
Assign rand_sets[57]: 607  LLC: 2048
rand_sets[57]: 607
Assign rand_sets[58]: 217  LLC: 2048
rand_sets[58]: 217
Assign rand_sets[59]: 1945  LLC: 2048
rand_sets[59]: 1945
Assign rand_sets[60]: 143  LLC: 2048
rand_sets[60]: 143
Assign rand_sets[61]: 1311  LLC: 2048
rand_sets[61]: 1311
Assign rand_sets[62]: 319  LLC: 2048
rand_sets[62]: 319
Assign rand_sets[63]: 1846  LLC: 2048
rand_sets[63]: 1846
 CLEAN-RRIP-POLICY-1: 1-2-1-3-0-3-0-0- CLEAN-RRIP-POLICY-2: 1-2-1-3-0-3-0-0-
 DIRTY-RRIP-POLICY-1: 2-2-1-3-0-3-0-0- DIRTY-RRIP-POLICY-2: 2-2-1-3-0-3-0-0-
 PSEL width: 10
Heartbeat CPU 0 instructions: 10000000 cycles: 4321544 heartbeat IPC: 2.31399 cumulative IPC: 2.31399 (Simulation time: 0 hr 0 min 18 sec) 
Heartbeat CPU 0 instructions: 20000000 cycles: 8643520 heartbeat IPC: 2.31376 cumulative IPC: 2.31387 (Simulation time: 0 hr 0 min 36 sec) 
Heartbeat CPU 0 instructions: 30000000 cycles: 12965306 heartbeat IPC: 2.31386 cumulative IPC: 2.31387 (Simulation time: 0 hr 0 min 54 sec) 
Heartbeat CPU 0 instructions: 40000000 cycles: 17291266 heartbeat IPC: 2.31163 cumulative IPC: 2.31331 (Simulation time: 0 hr 1 min 12 sec) 
Heartbeat CPU 0 instructions: 50000000 cycles: 21613138 heartbeat IPC: 2.31381 cumulative IPC: 2.31341 (Simulation time: 0 hr 1 min 30 sec) 
Heartbeat CPU 0 instructions: 60000000 cycles: 25934995 heartbeat IPC: 2.31382 cumulative IPC: 2.31348 (Simulation time: 0 hr 1 min 48 sec) 
Heartbeat CPU 0 instructions: 70000000 cycles: 30256504 heartbeat IPC: 2.31401 cumulative IPC: 2.31355 (Simulation time: 0 hr 2 min 7 sec) 
Heartbeat CPU 0 instructions: 80000000 cycles: 34582672 heartbeat IPC: 2.31151 cumulative IPC: 2.3133 (Simulation time: 0 hr 2 min 25 sec) 
Heartbeat CPU 0 instructions: 90000003 cycles: 38904700 heartbeat IPC: 2.31373 cumulative IPC: 2.31335 (Simulation time: 0 hr 2 min 43 sec) 
Heartbeat CPU 0 instructions: 100000000 cycles: 43226093 heartbeat IPC: 2.31407 cumulative IPC: 2.31342 (Simulation time: 0 hr 3 min 2 sec) 

Warmup complete CPU 0 instructions: 100000001 cycles: 43226094 (Simulation time: 0 hr 3 min 2 sec) 

Heartbeat CPU 0 instructions: 110000000 cycles: 57543837 heartbeat IPC: 0.698434 cumulative IPC: 0.698434 (Simulation time: 0 hr 3 min 28 sec) 
Heartbeat CPU 0 instructions: 120000000 cycles: 71946222 heartbeat IPC: 0.694329 cumulative IPC: 0.696376 (Simulation time: 0 hr 3 min 54 sec) 
Heartbeat CPU 0 instructions: 130000000 cycles: 86166715 heartbeat IPC: 0.70321 cumulative IPC: 0.698639 (Simulation time: 0 hr 4 min 20 sec) 
Heartbeat CPU 0 instructions: 140000000 cycles: 100266380 heartbeat IPC: 0.709237 cumulative IPC: 0.701259 (Simulation time: 0 hr 4 min 46 sec) 
Heartbeat CPU 0 instructions: 150000003 cycles: 114024211 heartbeat IPC: 0.726859 cumulative IPC: 0.706234 (Simulation time: 0 hr 5 min 12 sec) 
Heartbeat CPU 0 instructions: 160000000 cycles: 127839733 heartbeat IPC: 0.723823 cumulative IPC: 0.709106 (Simulation time: 0 hr 5 min 38 sec) 
Heartbeat CPU 0 instructions: 170000002 cycles: 142162604 heartbeat IPC: 0.698184 cumulative IPC: 0.707524 (Simulation time: 0 hr 6 min 4 sec) 
Heartbeat CPU 0 instructions: 180000000 cycles: 156200488 heartbeat IPC: 0.712358 cumulative IPC: 0.708125 (Simulation time: 0 hr 6 min 31 sec) 
Heartbeat CPU 0 instructions: 190000003 cycles: 172923929 heartbeat IPC: 0.597963 cumulative IPC: 0.693921 (Simulation time: 0 hr 6 min 59 sec) 
Heartbeat CPU 0 instructions: 200000000 cycles: 193451267 heartbeat IPC: 0.487155 cumulative IPC: 0.665667 (Simulation time: 0 hr 7 min 32 sec) 
Heartbeat CPU 0 instructions: 210000001 cycles: 207494335 heartbeat IPC: 0.712095 cumulative IPC: 0.669636 (Simulation time: 0 hr 7 min 58 sec) 
Heartbeat CPU 0 instructions: 220000000 cycles: 221413389 heartbeat IPC: 0.71844 cumulative IPC: 0.673449 (Simulation time: 0 hr 8 min 24 sec) 
Heartbeat CPU 0 instructions: 230000001 cycles: 235459404 heartbeat IPC: 0.711946 cumulative IPC: 0.676262 (Simulation time: 0 hr 8 min 50 sec) 
Heartbeat CPU 0 instructions: 240000000 cycles: 249778245 heartbeat IPC: 0.69838 cumulative IPC: 0.677795 (Simulation time: 0 hr 9 min 16 sec) 
Heartbeat CPU 0 instructions: 250000000 cycles: 264298130 heartbeat IPC: 0.688711 cumulative IPC: 0.678512 (Simulation time: 0 hr 9 min 43 sec) 
Heartbeat CPU 0 instructions: 260000000 cycles: 279039839 heartbeat IPC: 0.678347 cumulative IPC: 0.678502 (Simulation time: 0 hr 10 min 10 sec) 
Heartbeat CPU 0 instructions: 270000002 cycles: 293835606 heartbeat IPC: 0.675869 cumulative IPC: 0.678346 (Simulation time: 0 hr 10 min 36 sec) 
Heartbeat CPU 0 instructions: 280000000 cycles: 308594927 heartbeat IPC: 0.677538 cumulative IPC: 0.678301 (Simulation time: 0 hr 11 min 3 sec) 
Heartbeat CPU 0 instructions: 290000003 cycles: 324329249 heartbeat IPC: 0.635553 cumulative IPC: 0.675908 (Simulation time: 0 hr 11 min 31 sec) 
Heartbeat CPU 0 instructions: 300000000 cycles: 339374942 heartbeat IPC: 0.664642 cumulative IPC: 0.675336 (Simulation time: 0 hr 11 min 58 sec) 
Heartbeat CPU 0 instructions: 310000000 cycles: 355240452 heartbeat IPC: 0.630298 cumulative IPC: 0.673046 (Simulation time: 0 hr 12 min 25 sec) 
Heartbeat CPU 0 instructions: 320000000 cycles: 370873123 heartbeat IPC: 0.639686 cumulative IPC: 0.671454 (Simulation time: 0 hr 12 min 52 sec) 
Heartbeat CPU 0 instructions: 330000002 cycles: 385880374 heartbeat IPC: 0.666345 cumulative IPC: 0.67123 (Simulation time: 0 hr 13 min 19 sec) 
Heartbeat CPU 0 instructions: 340000000 cycles: 401943996 heartbeat IPC: 0.622524 cumulative IPC: 0.669049 (Simulation time: 0 hr 13 min 46 sec) 
Heartbeat CPU 0 instructions: 350000001 cycles: 416700773 heartbeat IPC: 0.677655 cumulative IPC: 0.669389 (Simulation time: 0 hr 14 min 12 sec) 
Heartbeat CPU 0 instructions: 360000000 cycles: 432065167 heartbeat IPC: 0.650855 cumulative IPC: 0.668657 (Simulation time: 0 hr 14 min 39 sec) 
Heartbeat CPU 0 instructions: 370000000 cycles: 446761740 heartbeat IPC: 0.680431 cumulative IPC: 0.669086 (Simulation time: 0 hr 15 min 5 sec) 
Heartbeat CPU 0 instructions: 380000000 cycles: 461769945 heartbeat IPC: 0.666302 cumulative IPC: 0.668986 (Simulation time: 0 hr 15 min 32 sec) 
Heartbeat CPU 0 instructions: 390000000 cycles: 476100099 heartbeat IPC: 0.697829 cumulative IPC: 0.669941 (Simulation time: 0 hr 15 min 58 sec) 
Heartbeat CPU 0 instructions: 400000000 cycles: 490638077 heartbeat IPC: 0.687854 cumulative IPC: 0.670523 (Simulation time: 0 hr 16 min 23 sec) 
Heartbeat CPU 0 instructions: 410000000 cycles: 504952907 heartbeat IPC: 0.698576 cumulative IPC: 0.671393 (Simulation time: 0 hr 16 min 49 sec) 
Heartbeat CPU 0 instructions: 420000000 cycles: 519134358 heartbeat IPC: 0.705146 cumulative IPC: 0.672399 (Simulation time: 0 hr 17 min 14 sec) 
Heartbeat CPU 0 instructions: 430000002 cycles: 532898660 heartbeat IPC: 0.726517 cumulative IPC: 0.67392 (Simulation time: 0 hr 17 min 40 sec) 
Heartbeat CPU 0 instructions: 440000000 cycles: 546540343 heartbeat IPC: 0.733047 cumulative IPC: 0.675522 (Simulation time: 0 hr 18 min 5 sec) 
Heartbeat CPU 0 instructions: 450000000 cycles: 560613931 heartbeat IPC: 0.710551 cumulative IPC: 0.676475 (Simulation time: 0 hr 18 min 30 sec) 
Heartbeat CPU 0 instructions: 460000000 cycles: 575299989 heartbeat IPC: 0.680918 cumulative IPC: 0.676598 (Simulation time: 0 hr 18 min 56 sec) 
Heartbeat CPU 0 instructions: 470000000 cycles: 589322330 heartbeat IPC: 0.713148 cumulative IPC: 0.677536 (Simulation time: 0 hr 19 min 21 sec) 
Heartbeat CPU 0 instructions: 480000000 cycles: 603370405 heartbeat IPC: 0.711841 cumulative IPC: 0.678397 (Simulation time: 0 hr 19 min 47 sec) 
Heartbeat CPU 0 instructions: 490000001 cycles: 617651627 heartbeat IPC: 0.70022 cumulative IPC: 0.678939 (Simulation time: 0 hr 20 min 12 sec) 
Heartbeat CPU 0 instructions: 500000000 cycles: 631889280 heartbeat IPC: 0.702363 cumulative IPC: 0.679506 (Simulation time: 0 hr 20 min 38 sec) 
Heartbeat CPU 0 instructions: 510000002 cycles: 645857257 heartbeat IPC: 0.715923 cumulative IPC: 0.68035 (Simulation time: 0 hr 21 min 3 sec) 
Heartbeat CPU 0 instructions: 520000000 cycles: 659719066 heartbeat IPC: 0.721406 cumulative IPC: 0.681273 (Simulation time: 0 hr 21 min 28 sec) 
Heartbeat CPU 0 instructions: 530000001 cycles: 673618387 heartbeat IPC: 0.71946 cumulative IPC: 0.682115 (Simulation time: 0 hr 21 min 53 sec) 
Heartbeat CPU 0 instructions: 540000000 cycles: 687996476 heartbeat IPC: 0.695503 cumulative IPC: 0.682413 (Simulation time: 0 hr 22 min 19 sec) 
Heartbeat CPU 0 instructions: 550000003 cycles: 701907345 heartbeat IPC: 0.718863 cumulative IPC: 0.683183 (Simulation time: 0 hr 22 min 44 sec) 
Heartbeat CPU 0 instructions: 560000000 cycles: 716345800 heartbeat IPC: 0.692595 cumulative IPC: 0.683385 (Simulation time: 0 hr 23 min 10 sec) 
Heartbeat CPU 0 instructions: 570000001 cycles: 730473417 heartbeat IPC: 0.707834 cumulative IPC: 0.683888 (Simulation time: 0 hr 23 min 35 sec) 
Heartbeat CPU 0 instructions: 580000000 cycles: 744201730 heartbeat IPC: 0.728422 cumulative IPC: 0.68476 (Simulation time: 0 hr 24 min 1 sec) 
Heartbeat CPU 0 instructions: 590000003 cycles: 757442864 heartbeat IPC: 0.755223 cumulative IPC: 0.686066 (Simulation time: 0 hr 24 min 25 sec) 
Heartbeat CPU 0 instructions: 600000000 cycles: 771357134 heartbeat IPC: 0.718686 cumulative IPC: 0.68669 (Simulation time: 0 hr 24 min 51 sec) 
Finished CPU 0 instructions: 500000000 cycles: 728131048 cumulative IPC: 0.68669 (Simulation time: 0 hr 24 min 51 sec) 

CPU 0 Branch Prediction Accuracy: 99.5915% MPKI: 0.037126
Number of Branches: 4544106 Number of Mispredictions: 18563
Number of LOAD Instructions: 149787067
Number of LOAD Instructions (ROI): 149787067
Number of STORE Instructions: 77239062
Number of STORE Instructions (ROI): 77239062
Total Destination Memory Operands: 77239062
Total Destination Memory Operands (ROI): 77239062
Total Source Memory Operands: 149787067
Total Source Memory Operands (ROI): 149787067
Number of DEPENDED LOADS: 19247557
Number of DEPENDED LOADS (ROI): 19247557
Number of SQ_ADDED: 77239036
Number of SQ_ADDED (ROI): 77239036
Number of LQ_ADDED: 149787020
Number of LQ_ADDED (ROI): 149787020
Number of Instructions read from trace: 600000256

ChampSim completed all CPUs

Region of Interest Statistics

CPU 0 cumulative IPC: 0.68669 instructions: 500000000 cycles: 728131048
ITLB TOTAL     ACCESS:   86451839  HIT:   86451838  MISS:          1
ITLB LOAD      ACCESS:   86451839  HIT:   86451838  MISS:          1
ITLB RFO       ACCESS:          0  HIT:          0  MISS:          0
ITLB PREFETCH  ACCESS:          0  HIT:          0  MISS:          0
ITLB WRITEBACK ACCESS:          0  HIT:          0  MISS:          0
ITLB PREFETCH  REQUESTED:          0  ISSUED:          0  USEFUL:          0  USELESS:          0
ITLB TOTAL MSHR MERGED:          1
ITLB LOAD MSHR MERGED:          1
ITLB RFO MSHR MERGED:          0
ITLB PREFETCH MSHR MERGED:          0
ITLB WRITEBACK MSHR MERGED:          0
ITLB TOTAL ACCESSES:   86451840 HITS:   86451838 MISSES:          2
ITLB LOAD ACCESSES:   86451840 HITS:   86451838 MISSES:          2
ITLB RFO ACCESSES:          0 HITS:          0 MISSES:          0
ITLB PREFETCH ACCESSES:          0 HITS:          0 MISSES:          0
ITLB WRITEBACK ACCESSES:          0 HITS:          0 MISSES:          0
ITLB RQ ACCESS:  500000002
ITLB RQ TO_CACHE:   86451840
ITLB RQ MERGED:  413548162
ITLB RQ FORWARD:          0
ITLB WQ ACCESS:          0
ITLB WQ TO_CACHE:          0
ITLB WQ MERGED:          0
ITLB WQ FORWARD:          0
DTLB TOTAL     ACCESS:   98107670  HIT:   97922409  MISS:     185261
DTLB LOAD      ACCESS:   55039622  HIT:   54993311  MISS:      46311
DTLB RFO       ACCESS:   43068048  HIT:   42929098  MISS:     138950
DTLB PREFETCH  ACCESS:          0  HIT:          0  MISS:          0
DTLB WRITEBACK ACCESS:          0  HIT:          0  MISS:          0
DTLB PREFETCH  REQUESTED:          0  ISSUED:          0  USEFUL:          0  USELESS:          0
DTLB TOTAL MSHR MERGED:      83572
DTLB LOAD MSHR MERGED:      83566
DTLB RFO MSHR MERGED:          6
DTLB PREFETCH MSHR MERGED:          0
DTLB WRITEBACK MSHR MERGED:          0
DTLB TOTAL ACCESSES:   98191242 HITS:   97922409 MISSES:     268833
DTLB LOAD ACCESSES:   55123188 HITS:   54993311 MISSES:     129877
DTLB RFO ACCESSES:   43068054 HITS:   42929098 MISSES:     138956
DTLB PREFETCH ACCESSES:          0 HITS:          0 MISSES:          0
DTLB WRITEBACK ACCESSES:          0 HITS:          0 MISSES:          0
DTLB RQ ACCESS:  173634970
DTLB RQ TO_CACHE:   98191242
DTLB RQ MERGED:   75443728
DTLB RQ FORWARD:          0
DTLB WQ ACCESS:          0
DTLB WQ TO_CACHE:          0
DTLB WQ MERGED:          0
DTLB WQ FORWARD:          0
L1D TOTAL     ACCESS:  164590528  HIT:  145017978  MISS:   19572550
L1D LOAD      ACCESS:   60554774  HIT:   58702494  MISS:    1852280
L1D RFO       ACCESS:   64513842  HIT:   47911697  MISS:   16602145
L1D PREFETCH  ACCESS:   39521912  HIT:   38403787  MISS:    1118125
L1D WRITEBACK ACCESS:          0  HIT:          0  MISS:          0
L1D PREFETCH  REQUESTED:   61746303  ISSUED:   61453794  USEFUL:    1116210  USELESS:       1915
L1D TOTAL MSHR MERGED:    3533657
L1D LOAD MSHR MERGED:    1263422
L1D RFO MSHR MERGED:      11510
L1D PREFETCH MSHR MERGED:    2258725
L1D WRITEBACK MSHR MERGED:          0
L1D TOTAL ACCESSES:  168686774 HITS:  145580568 MISSES:   23106206
L1D LOAD ACCESSES:   62001649 HITS:   58957840 MISSES:    3043809
L1D RFO ACCESSES:   64525326 HITS:   47911697 MISSES:   16613629
L1D PREFETCH ACCESSES:   42159799 HITS:   38711031 MISSES:    3448768
L1D WRITEBACK ACCESSES:          0 HITS:          0 MISSES:          0
L1D RQ ACCESS:  109093655
L1D RQ TO_CACHE:   61746303
L1D RQ MERGED:   47092006
L1D RQ FORWARD:          0
L1D WQ ACCESS:   64541313
L1D WQ TO_CACHE:   64525327
L1D WQ MERGED:      15986
L1D WQ FORWARD:     562590
L1I TOTAL     ACCESS:  107760104  HIT:  107760096  MISS:          8
L1I LOAD      ACCESS:  107760104  HIT:  107760096  MISS:          8
L1I RFO       ACCESS:          0  HIT:          0  MISS:          0
L1I PREFETCH  ACCESS:          0  HIT:          0  MISS:          0
L1I WRITEBACK ACCESS:          0  HIT:          0  MISS:          0
L1I PREFETCH  REQUESTED:          0  ISSUED:          0  USEFUL:          0  USELESS:          0
L1I TOTAL MSHR MERGED:          3
L1I LOAD MSHR MERGED:          3
L1I RFO MSHR MERGED:          0
L1I PREFETCH MSHR MERGED:          0
L1I WRITEBACK MSHR MERGED:          0
L1I TOTAL ACCESSES:  107760107 HITS:  107760096 MISSES:         11
L1I LOAD ACCESSES:  107760107 HITS:  107760096 MISSES:         11
L1I RFO ACCESSES:          0 HITS:          0 MISSES:          0
L1I PREFETCH ACCESSES:          0 HITS:          0 MISSES:          0
L1I WRITEBACK ACCESSES:          0 HITS:          0 MISSES:          0
L1I RQ ACCESS:  500000007
L1I RQ TO_CACHE:  107760107
L1I RQ MERGED:  392239900
L1I RQ FORWARD:          0
L1I WQ ACCESS:          0
L1I WQ TO_CACHE:          0
L1I WQ MERGED:          0
L1I WQ FORWARD:          0
L2C TOTAL     ACCESS:   36812250  HIT:   24854666  MISS:   11957584
L2C LOAD      ACCESS:    1780395  HIT:     256919  MISS:    1523476
L2C RFO       ACCESS:   16602115  HIT:    7610739  MISS:    8991376
L2C PREFETCH  ACCESS:    1827557  HIT:     386056  MISS:    1441501
L2C WRITEBACK ACCESS:   16602183  HIT:   16600952  MISS:       1231
L2C PREFETCH  REQUESTED:     815280  ISSUED:     815280  USEFUL:     254608  USELESS:    1187176
L2C TOTAL MSHR MERGED:       2673
L2C LOAD MSHR MERGED:        599
L2C RFO MSHR MERGED:          0
L2C PREFETCH MSHR MERGED:       2074
L2C WRITEBACK MSHR MERGED:          0
L2C TOTAL ACCESSES:   36989919 HITS:   24854671 MISSES:   12135248
L2C LOAD ACCESSES:    1780395 HITS:     256919 MISSES:    1523476
L2C RFO ACCESSES:   16602119 HITS:    7610744 MISSES:    8991375
L2C PREFETCH ACCESSES:    2005222 HITS:     386056 MISSES:    1619166
L2C WRITEBACK ACCESSES:   16602183 HITS:   16600952 MISSES:       1231
L2C RQ ACCESS:   18382514
L2C RQ TO_CACHE:   18382509
L2C RQ MERGED:          0
L2C RQ FORWARD:          0
L2C WQ ACCESS:   16602184
L2C WQ TO_CACHE:   16602184
L2C WQ MERGED:          0
L2C WQ FORWARD:          5
LLC TOTAL     ACCESS:   21120523  HIT:    1847426  MISS:   19273097
LLC LOAD      ACCESS:    1522877  HIT:      63373  MISS:    1459504
LLC RFO       ACCESS:    8991365  HIT:     738818  MISS:    8252547
LLC PREFETCH  ACCESS:    1614081  HIT:     108320  MISS:    1505761
LLC WRITEBACK ACCESS:    8992200  HIT:     936915  MISS:    8055285
LLC PREFETCH  REQUESTED:          0  ISSUED:          0  USEFUL:      63166  USELESS:    1442469
LLC TOTAL MSHR MERGED:       2610
LLC LOAD MSHR MERGED:        209
LLC RFO MSHR MERGED:          0
LLC PREFETCH MSHR MERGED:       2401
LLC WRITEBACK MSHR MERGED:          0
LLC TOTAL ACCESSES:   21123143 HITS:    1847437 MISSES:   19275706
LLC LOAD ACCESSES:    1522877 HITS:      63373 MISSES:    1459504
LLC RFO ACCESSES:    8991375 HITS:     738829 MISSES:    8252546
LLC PREFETCH ACCESSES:    1616691 HITS:     108320 MISSES:    1508371
LLC WRITEBACK ACCESSES:    8992200 HITS:     936915 MISSES:    8055285
LLC 0 RQ ACCESS:   10514252
LLC 0 RQ TO_CACHE:   10514241
LLC 0 RQ MERGED:          0
LLC 0 RQ FORWARD:          0
LLC WQ ACCESS:    8992200
LLC WQ TO_CACHE:    8992200
LLC WQ MERGED:          0
LLC WQ FORWARD:         11
Major fault: 0 Minor fault: 102360
CPU 0 L1D next line prefetcher final stats
CPU 0 L2C PC-based stride prefetcher final stats
All Misses: 22920406
All Hits: 2175628
SD Algo Stats - Switches: 0 SRR-Repls: 1638103 BRR-Repls: 0

DRAM Statistics
 CHANNEL 0
 RQ ROW_BUFFER_HIT:    3701497  ROW_BUFFER_MISS:    7514966
 DBUS_CONGESTED:   13329005
 WQ ROW_BUFFER_HIT:    1234763  ROW_BUFFER_MISS:    7016303  FULL:          0

 AVG_CONGESTED_CYCLE: 13
LOADS RETIRED: 124982196
INSTR RETIRED: 500000000
