
*** ChampSim Multicore Out-of-Order Simulator ***

Warmup Instructions: 100000000
Simulation Instructions: 500000000
Number of CPUs: 1
LLC sets: 2048
LLC ways: 16
Clean RRIP Policies: 1113120111131201 Dirty RRIP Policies: 1103120111031201 PSEL Width: 10 Track Set: 4294967295 PSEL Mask: 1 Demote Mask: 4003114440031144DS Algo: 0Window size: 0
Off-chip DRAM Size: 4096 MB Channels: 1 Width: 64-bit Data Rate: 1600 MT/s

CPU 0 runs /mnt/beegfs/iconst01/spec2017/Gcc.trace.gz
NOT SORTED
TRACE STRING: /mnt/beegfs/iconst01/spec2017/Gcc.trace.gz
SORTED
TRACE STRING: /mnt/beegfs/iconst01/spec2017/Gcc.trace.gz
INITIAL
TRACE STRING: /mnt/beegfs/iconst01/spec2017/Gcc.trace.gz

champsim_seed used: 269

CPU 0 L1D next line prefetcher
CPU 0 L2C IP-based stride prefetcher
Initialize DRRIP state
Assign rand_sets[0]: 454  LLC: 2048
rand_sets[0]: 454
Assign rand_sets[1]: 1662  LLC: 2048
rand_sets[1]: 1662
Assign rand_sets[2]: 1921  LLC: 2048
rand_sets[2]: 1921
Assign rand_sets[3]: 1131  LLC: 2048
rand_sets[3]: 1131
Assign rand_sets[4]: 331  LLC: 2048
rand_sets[4]: 331
Assign rand_sets[5]: 1531  LLC: 2048
rand_sets[5]: 1531
Assign rand_sets[6]: 482  LLC: 2048
rand_sets[6]: 482
Assign rand_sets[7]: 1275  LLC: 2048
rand_sets[7]: 1275
Assign rand_sets[8]: 1876  LLC: 2048
rand_sets[8]: 1876
Assign rand_sets[9]: 2038  LLC: 2048
rand_sets[9]: 2038
Assign rand_sets[10]: 701  LLC: 2048
rand_sets[10]: 701
Assign rand_sets[11]: 479  LLC: 2048
rand_sets[11]: 479
Assign rand_sets[12]: 892  LLC: 2048
rand_sets[12]: 892
Assign rand_sets[13]: 1820  LLC: 2048
rand_sets[13]: 1820
Assign rand_sets[14]: 1505  LLC: 2048
rand_sets[14]: 1505
Assign rand_sets[15]: 1159  LLC: 2048
rand_sets[15]: 1159
Assign rand_sets[16]: 513  LLC: 2048
rand_sets[16]: 513
Assign rand_sets[17]: 703  LLC: 2048
rand_sets[17]: 703
Assign rand_sets[18]: 561  LLC: 2048
rand_sets[18]: 561
Assign rand_sets[19]: 990  LLC: 2048
rand_sets[19]: 990
Assign rand_sets[20]: 342  LLC: 2048
rand_sets[20]: 342
Assign rand_sets[21]: 882  LLC: 2048
rand_sets[21]: 882
Assign rand_sets[22]: 15  LLC: 2048
rand_sets[22]: 15
Assign rand_sets[23]: 71  LLC: 2048
rand_sets[23]: 71
Assign rand_sets[24]: 1127  LLC: 2048
rand_sets[24]: 1127
Assign rand_sets[25]: 1382  LLC: 2048
rand_sets[25]: 1382
Assign rand_sets[26]: 647  LLC: 2048
rand_sets[26]: 647
Assign rand_sets[27]: 857  LLC: 2048
rand_sets[27]: 857
Assign rand_sets[28]: 1450  LLC: 2048
rand_sets[28]: 1450
Assign rand_sets[29]: 1160  LLC: 2048
rand_sets[29]: 1160
Assign rand_sets[30]: 1852  LLC: 2048
rand_sets[30]: 1852
Assign rand_sets[31]: 1881  LLC: 2048
rand_sets[31]: 1881
Assign rand_sets[32]: 1770  LLC: 2048
rand_sets[32]: 1770
Assign rand_sets[33]: 1622  LLC: 2048
rand_sets[33]: 1622
Assign rand_sets[34]: 275  LLC: 2048
rand_sets[34]: 275
Assign rand_sets[35]: 635  LLC: 2048
rand_sets[35]: 635
Assign rand_sets[36]: 466  LLC: 2048
rand_sets[36]: 466
Assign rand_sets[37]: 1413  LLC: 2048
rand_sets[37]: 1413
Assign rand_sets[38]: 417  LLC: 2048
rand_sets[38]: 417
Assign rand_sets[39]: 472  LLC: 2048
rand_sets[39]: 472
Assign rand_sets[40]: 1340  LLC: 2048
rand_sets[40]: 1340
Assign rand_sets[41]: 852  LLC: 2048
rand_sets[41]: 852
Assign rand_sets[42]: 1365  LLC: 2048
rand_sets[42]: 1365
Assign rand_sets[43]: 47  LLC: 2048
rand_sets[43]: 47
Assign rand_sets[44]: 823  LLC: 2048
rand_sets[44]: 823
Assign rand_sets[45]: 686  LLC: 2048
rand_sets[45]: 686
Assign rand_sets[46]: 1637  LLC: 2048
rand_sets[46]: 1637
Assign rand_sets[47]: 1115  LLC: 2048
rand_sets[47]: 1115
Assign rand_sets[48]: 986  LLC: 2048
rand_sets[48]: 986
Assign rand_sets[49]: 258  LLC: 2048
rand_sets[49]: 258
Assign rand_sets[50]: 633  LLC: 2048
rand_sets[50]: 633
Assign rand_sets[51]: 920  LLC: 2048
rand_sets[51]: 920
Assign rand_sets[52]: 204  LLC: 2048
rand_sets[52]: 204
Assign rand_sets[53]: 227  LLC: 2048
rand_sets[53]: 227
Assign rand_sets[54]: 1818  LLC: 2048
rand_sets[54]: 1818
Assign rand_sets[55]: 886  LLC: 2048
rand_sets[55]: 886
Assign rand_sets[56]: 1422  LLC: 2048
rand_sets[56]: 1422
Assign rand_sets[57]: 607  LLC: 2048
rand_sets[57]: 607
Assign rand_sets[58]: 217  LLC: 2048
rand_sets[58]: 217
Assign rand_sets[59]: 1945  LLC: 2048
rand_sets[59]: 1945
Assign rand_sets[60]: 143  LLC: 2048
rand_sets[60]: 143
Assign rand_sets[61]: 1311  LLC: 2048
rand_sets[61]: 1311
Assign rand_sets[62]: 319  LLC: 2048
rand_sets[62]: 319
Assign rand_sets[63]: 1846  LLC: 2048
rand_sets[63]: 1846
 CLEAN-RRIP-POLICY-1: 1-1-1-3-1-2-0-1- CLEAN-RRIP-POLICY-2: 1-1-1-3-1-2-0-1-
 DIRTY-RRIP-POLICY-1: 1-1-0-3-1-2-0-1- DIRTY-RRIP-POLICY-2: 1-1-0-3-1-2-0-1-
 PSEL width: 10
Heartbeat CPU 0 instructions: 10000001 cycles: 7315978 heartbeat IPC: 1.36687 cumulative IPC: 1.36687 (Simulation time: 0 hr 0 min 15 sec) 
Heartbeat CPU 0 instructions: 20000000 cycles: 14307466 heartbeat IPC: 1.43031 cumulative IPC: 1.39787 (Simulation time: 0 hr 0 min 30 sec) 
Heartbeat CPU 0 instructions: 30000001 cycles: 21020255 heartbeat IPC: 1.48969 cumulative IPC: 1.42719 (Simulation time: 0 hr 0 min 47 sec) 
Heartbeat CPU 0 instructions: 40000000 cycles: 27481013 heartbeat IPC: 1.54781 cumulative IPC: 1.45555 (Simulation time: 0 hr 1 min 3 sec) 
Heartbeat CPU 0 instructions: 50000001 cycles: 33582646 heartbeat IPC: 1.63891 cumulative IPC: 1.48886 (Simulation time: 0 hr 1 min 19 sec) 
Heartbeat CPU 0 instructions: 60000000 cycles: 40063729 heartbeat IPC: 1.54295 cumulative IPC: 1.49761 (Simulation time: 0 hr 1 min 36 sec) 
Heartbeat CPU 0 instructions: 70000000 cycles: 47100917 heartbeat IPC: 1.42102 cumulative IPC: 1.48617 (Simulation time: 0 hr 1 min 51 sec) 
Heartbeat CPU 0 instructions: 80000000 cycles: 54190164 heartbeat IPC: 1.41059 cumulative IPC: 1.47628 (Simulation time: 0 hr 2 min 7 sec) 
Heartbeat CPU 0 instructions: 90000003 cycles: 61194254 heartbeat IPC: 1.42774 cumulative IPC: 1.47073 (Simulation time: 0 hr 2 min 22 sec) 
Heartbeat CPU 0 instructions: 100000000 cycles: 68361140 heartbeat IPC: 1.39531 cumulative IPC: 1.46282 (Simulation time: 0 hr 2 min 37 sec) 

Warmup complete CPU 0 instructions: 100000004 cycles: 68361141 (Simulation time: 0 hr 2 min 37 sec) 

Heartbeat CPU 0 instructions: 110000003 cycles: 95939277 heartbeat IPC: 0.362606 cumulative IPC: 0.362606 (Simulation time: 0 hr 3 min 7 sec) 
Heartbeat CPU 0 instructions: 120000000 cycles: 123364184 heartbeat IPC: 0.364632 cumulative IPC: 0.363616 (Simulation time: 0 hr 3 min 37 sec) 
Heartbeat CPU 0 instructions: 130000000 cycles: 148307632 heartbeat IPC: 0.400907 cumulative IPC: 0.375251 (Simulation time: 0 hr 4 min 6 sec) 
Heartbeat CPU 0 instructions: 140000000 cycles: 177627719 heartbeat IPC: 0.341063 cumulative IPC: 0.366077 (Simulation time: 0 hr 4 min 35 sec) 
Heartbeat CPU 0 instructions: 150000000 cycles: 207407492 heartbeat IPC: 0.335798 cumulative IPC: 0.359592 (Simulation time: 0 hr 5 min 5 sec) 
Heartbeat CPU 0 instructions: 160000000 cycles: 234780968 heartbeat IPC: 0.365317 cumulative IPC: 0.360534 (Simulation time: 0 hr 5 min 34 sec) 
Heartbeat CPU 0 instructions: 170000001 cycles: 262737352 heartbeat IPC: 0.3577 cumulative IPC: 0.360126 (Simulation time: 0 hr 6 min 5 sec) 
Heartbeat CPU 0 instructions: 180000000 cycles: 291111156 heartbeat IPC: 0.352438 cumulative IPC: 0.359147 (Simulation time: 0 hr 6 min 35 sec) 
Heartbeat CPU 0 instructions: 190000002 cycles: 319007040 heartbeat IPC: 0.358476 cumulative IPC: 0.359072 (Simulation time: 0 hr 7 min 4 sec) 
Heartbeat CPU 0 instructions: 200000000 cycles: 347282638 heartbeat IPC: 0.353662 cumulative IPC: 0.358524 (Simulation time: 0 hr 7 min 34 sec) 
Heartbeat CPU 0 instructions: 210000002 cycles: 375033874 heartbeat IPC: 0.360344 cumulative IPC: 0.358689 (Simulation time: 0 hr 8 min 4 sec) 
Heartbeat CPU 0 instructions: 220000000 cycles: 404016080 heartbeat IPC: 0.345039 cumulative IPC: 0.35751 (Simulation time: 0 hr 8 min 32 sec) 
Heartbeat CPU 0 instructions: 230000000 cycles: 431490744 heartbeat IPC: 0.363972 cumulative IPC: 0.357999 (Simulation time: 0 hr 9 min 1 sec) 
Heartbeat CPU 0 instructions: 240000000 cycles: 457396393 heartbeat IPC: 0.386016 cumulative IPC: 0.359865 (Simulation time: 0 hr 9 min 29 sec) 
Heartbeat CPU 0 instructions: 250000000 cycles: 487462548 heartbeat IPC: 0.3326 cumulative IPC: 0.357909 (Simulation time: 0 hr 10 min 0 sec) 
Heartbeat CPU 0 instructions: 260000000 cycles: 514516807 heartbeat IPC: 0.369628 cumulative IPC: 0.358619 (Simulation time: 0 hr 10 min 29 sec) 
Heartbeat CPU 0 instructions: 270000003 cycles: 542845444 heartbeat IPC: 0.353 cumulative IPC: 0.358284 (Simulation time: 0 hr 10 min 59 sec) 
Heartbeat CPU 0 instructions: 280000000 cycles: 570895467 heartbeat IPC: 0.356506 cumulative IPC: 0.358184 (Simulation time: 0 hr 11 min 30 sec) 
Heartbeat CPU 0 instructions: 290000000 cycles: 599682031 heartbeat IPC: 0.347384 cumulative IPC: 0.357599 (Simulation time: 0 hr 12 min 0 sec) 
Heartbeat CPU 0 instructions: 300000000 cycles: 629370117 heartbeat IPC: 0.336835 cumulative IPC: 0.356501 (Simulation time: 0 hr 12 min 29 sec) 
Heartbeat CPU 0 instructions: 310000001 cycles: 658657415 heartbeat IPC: 0.341445 cumulative IPC: 0.355754 (Simulation time: 0 hr 12 min 59 sec) 
Heartbeat CPU 0 instructions: 320000000 cycles: 686742178 heartbeat IPC: 0.356065 cumulative IPC: 0.355768 (Simulation time: 0 hr 13 min 27 sec) 
Heartbeat CPU 0 instructions: 330000000 cycles: 715280186 heartbeat IPC: 0.35041 cumulative IPC: 0.355531 (Simulation time: 0 hr 13 min 57 sec) 
Heartbeat CPU 0 instructions: 340000000 cycles: 744466655 heartbeat IPC: 0.342625 cumulative IPC: 0.354974 (Simulation time: 0 hr 14 min 26 sec) 
Heartbeat CPU 0 instructions: 350000003 cycles: 771409745 heartbeat IPC: 0.371153 cumulative IPC: 0.355594 (Simulation time: 0 hr 14 min 55 sec) 
Heartbeat CPU 0 instructions: 360000000 cycles: 799427954 heartbeat IPC: 0.356911 cumulative IPC: 0.355645 (Simulation time: 0 hr 15 min 23 sec) 
Heartbeat CPU 0 instructions: 370000000 cycles: 827585520 heartbeat IPC: 0.355144 cumulative IPC: 0.355626 (Simulation time: 0 hr 15 min 51 sec) 
Heartbeat CPU 0 instructions: 380000000 cycles: 856074873 heartbeat IPC: 0.351008 cumulative IPC: 0.355459 (Simulation time: 0 hr 16 min 19 sec) 
Heartbeat CPU 0 instructions: 390000001 cycles: 883675690 heartbeat IPC: 0.362308 cumulative IPC: 0.355691 (Simulation time: 0 hr 16 min 47 sec) 
Heartbeat CPU 0 instructions: 400000000 cycles: 912297602 heartbeat IPC: 0.349383 cumulative IPC: 0.355477 (Simulation time: 0 hr 17 min 15 sec) 
Heartbeat CPU 0 instructions: 410000001 cycles: 939598983 heartbeat IPC: 0.366282 cumulative IPC: 0.355816 (Simulation time: 0 hr 17 min 43 sec) 
Heartbeat CPU 0 instructions: 420000000 cycles: 966906665 heartbeat IPC: 0.366197 cumulative IPC: 0.356131 (Simulation time: 0 hr 18 min 11 sec) 
Heartbeat CPU 0 instructions: 430000002 cycles: 994572370 heartbeat IPC: 0.361458 cumulative IPC: 0.35629 (Simulation time: 0 hr 18 min 39 sec) 
Heartbeat CPU 0 instructions: 440000000 cycles: 1024014600 heartbeat IPC: 0.339648 cumulative IPC: 0.355778 (Simulation time: 0 hr 19 min 7 sec) 
Heartbeat CPU 0 instructions: 450000002 cycles: 1053223106 heartbeat IPC: 0.342366 cumulative IPC: 0.35538 (Simulation time: 0 hr 19 min 36 sec) 
Heartbeat CPU 0 instructions: 460000000 cycles: 1080905433 heartbeat IPC: 0.361241 cumulative IPC: 0.35554 (Simulation time: 0 hr 20 min 4 sec) 
Heartbeat CPU 0 instructions: 470000000 cycles: 1108535223 heartbeat IPC: 0.361928 cumulative IPC: 0.35571 (Simulation time: 0 hr 20 min 32 sec) 
Heartbeat CPU 0 instructions: 480000000 cycles: 1136418323 heartbeat IPC: 0.35864 cumulative IPC: 0.355786 (Simulation time: 0 hr 21 min 0 sec) 
Heartbeat CPU 0 instructions: 490000000 cycles: 1164011647 heartbeat IPC: 0.362406 cumulative IPC: 0.355953 (Simulation time: 0 hr 21 min 28 sec) 
Heartbeat CPU 0 instructions: 500000000 cycles: 1192271898 heartbeat IPC: 0.353854 cumulative IPC: 0.3559 (Simulation time: 0 hr 21 min 57 sec) 
Heartbeat CPU 0 instructions: 510000000 cycles: 1227483178 heartbeat IPC: 0.284 cumulative IPC: 0.353716 (Simulation time: 0 hr 22 min 29 sec) 
Heartbeat CPU 0 instructions: 520000000 cycles: 1255462421 heartbeat IPC: 0.357408 cumulative IPC: 0.353803 (Simulation time: 0 hr 22 min 58 sec) 
Heartbeat CPU 0 instructions: 530000001 cycles: 1284635133 heartbeat IPC: 0.342786 cumulative IPC: 0.353539 (Simulation time: 0 hr 23 min 27 sec) 
Heartbeat CPU 0 instructions: 540000000 cycles: 1312601025 heartbeat IPC: 0.357578 cumulative IPC: 0.35363 (Simulation time: 0 hr 23 min 56 sec) 
Heartbeat CPU 0 instructions: 550000001 cycles: 1341757239 heartbeat IPC: 0.34298 cumulative IPC: 0.353386 (Simulation time: 0 hr 24 min 27 sec) 
Heartbeat CPU 0 instructions: 560000000 cycles: 1367085394 heartbeat IPC: 0.394818 cumulative IPC: 0.354194 (Simulation time: 0 hr 24 min 55 sec) 
Heartbeat CPU 0 instructions: 570000000 cycles: 1396403637 heartbeat IPC: 0.341085 cumulative IPC: 0.353904 (Simulation time: 0 hr 25 min 25 sec) 
Heartbeat CPU 0 instructions: 580000000 cycles: 1424276761 heartbeat IPC: 0.358769 cumulative IPC: 0.354004 (Simulation time: 0 hr 25 min 54 sec) 
Heartbeat CPU 0 instructions: 590000001 cycles: 1449053816 heartbeat IPC: 0.403599 cumulative IPC: 0.354894 (Simulation time: 0 hr 26 min 22 sec) 
Heartbeat CPU 0 instructions: 600000000 cycles: 1475184307 heartbeat IPC: 0.382695 cumulative IPC: 0.355411 (Simulation time: 0 hr 26 min 50 sec) 
Finished CPU 0 instructions: 500000000 cycles: 1406823188 cumulative IPC: 0.355411 (Simulation time: 0 hr 26 min 50 sec) 

CPU 0 Branch Prediction Accuracy: 86.4311% MPKI: 26.2662
Number of Branches: 96788573 Number of Mispredictions: 13133102
Number of LOAD Instructions: 164682285
Number of LOAD Instructions (ROI): 164682285
Number of STORE Instructions: 78194750
Number of STORE Instructions (ROI): 78194750
Total Destination Memory Operands: 83268534
Total Destination Memory Operands (ROI): 83268534
Total Source Memory Operands: 164712438
Total Source Memory Operands (ROI): 164712438
Number of DEPENDED LOADS: 7061979
Number of DEPENDED LOADS (ROI): 7061979
Number of SQ_ADDED: 83268522
Number of SQ_ADDED (ROI): 83268522
Number of LQ_ADDED: 236724266
Number of LQ_ADDED (ROI): 236724266
Number of Instructions read from trace: 600000066

ChampSim completed all CPUs

Region of Interest Statistics

CPU 0 cumulative IPC: 0.355411 instructions: 500000000 cycles: 1406823188
ITLB TOTAL     ACCESS:  100508990  HIT:  100304544  MISS:     204446
ITLB LOAD      ACCESS:  100508990  HIT:  100304544  MISS:     204446
ITLB RFO       ACCESS:          0  HIT:          0  MISS:          0
ITLB PREFETCH  ACCESS:          0  HIT:          0  MISS:          0
ITLB WRITEBACK ACCESS:          0  HIT:          0  MISS:          0
ITLB PREFETCH  REQUESTED:          0  ISSUED:          0  USEFUL:          0  USELESS:          0
ITLB TOTAL MSHR MERGED:     172423
ITLB LOAD MSHR MERGED:     172423
ITLB RFO MSHR MERGED:          0
ITLB PREFETCH MSHR MERGED:          0
ITLB WRITEBACK MSHR MERGED:          0
ITLB TOTAL ACCESSES:  100681413 HITS:  100304544 MISSES:     376869
ITLB LOAD ACCESSES:  100681413 HITS:  100304544 MISSES:     376869
ITLB RFO ACCESSES:          0 HITS:          0 MISSES:          0
ITLB PREFETCH ACCESSES:          0 HITS:          0 MISSES:          0
ITLB WRITEBACK ACCESSES:          0 HITS:          0 MISSES:          0
ITLB RQ ACCESS:  500000057
ITLB RQ TO_CACHE:  100681413
ITLB RQ MERGED:  399318644
ITLB RQ FORWARD:          0
ITLB WQ ACCESS:          0
ITLB WQ TO_CACHE:          0
ITLB WQ MERGED:          0
ITLB WQ FORWARD:          0
DTLB TOTAL     ACCESS:  165333593  HIT:  164699247  MISS:     634346
DTLB LOAD      ACCESS:  106290051  HIT:  105720047  MISS:     570004
DTLB RFO       ACCESS:   59043542  HIT:   58979200  MISS:      64342
DTLB PREFETCH  ACCESS:          0  HIT:          0  MISS:          0
DTLB WRITEBACK ACCESS:          0  HIT:          0  MISS:          0
DTLB PREFETCH  REQUESTED:          0  ISSUED:          0  USEFUL:          0  USELESS:          0
DTLB TOTAL MSHR MERGED:     100027
DTLB LOAD MSHR MERGED:      59478
DTLB RFO MSHR MERGED:      40549
DTLB PREFETCH MSHR MERGED:          0
DTLB WRITEBACK MSHR MERGED:          0
DTLB TOTAL ACCESSES:  165433620 HITS:  164699247 MISSES:     734373
DTLB LOAD ACCESSES:  106349529 HITS:  105720047 MISSES:     629482
DTLB RFO ACCESSES:   59084091 HITS:   58979200 MISSES:     104891
DTLB PREFETCH ACCESSES:          0 HITS:          0 MISSES:          0
DTLB WRITEBACK ACCESSES:          0 HITS:          0 MISSES:          0
DTLB RQ ACCESS:  200308926
DTLB RQ TO_CACHE:  165433620
DTLB RQ MERGED:   34875306
DTLB RQ FORWARD:          0
DTLB WQ ACCESS:          0
DTLB WQ TO_CACHE:          0
DTLB WQ MERGED:          0
DTLB WQ FORWARD:          0
L1D TOTAL     ACCESS:  281808448  HIT:  273899168  MISS:    7909280
L1D LOAD      ACCESS:  110412741  HIT:  107134478  MISS:    3278263
L1D RFO       ACCESS:   67105215  HIT:   66214136  MISS:     891079
L1D PREFETCH  ACCESS:  104290492  HIT:  100550554  MISS:    3739938
L1D WRITEBACK ACCESS:          0  HIT:          0  MISS:          0
L1D PREFETCH  REQUESTED:  110814287  ISSUED:  109115043  USEFUL:    1660743  USELESS:    2079159
L1D TOTAL MSHR MERGED:    2889863
L1D LOAD MSHR MERGED:     499245
L1D RFO MSHR MERGED:    1881176
L1D PREFETCH MSHR MERGED:     509442
L1D WRITEBACK MSHR MERGED:          0
L1D TOTAL ACCESSES:  284725853 HITS:  273926710 MISSES:   10799143
L1D LOAD ACCESSES:  110815822 HITS:  107136013 MISSES:    3679809
L1D RFO ACCESSES:   68974105 HITS:   66214136 MISSES:    2759969
L1D PREFETCH ACCESSES:  104935926 HITS:  100576561 MISSES:    4359365
L1D WRITEBACK ACCESSES:          0 HITS:          0 MISSES:          0
L1D RQ ACCESS:  130756323
L1D RQ TO_CACHE:  110814290
L1D RQ MERGED:   19940498
L1D RQ FORWARD:          0
L1D WQ ACCESS:   69552603
L1D WQ TO_CACHE:   68974106
L1D WQ MERGED:     578497
L1D WQ FORWARD:      27542
L1I TOTAL     ACCESS:  126556874  HIT:  122318321  MISS:    4238553
L1I LOAD      ACCESS:  126556874  HIT:  122318321  MISS:    4238553
L1I RFO       ACCESS:          0  HIT:          0  MISS:          0
L1I PREFETCH  ACCESS:          0  HIT:          0  MISS:          0
L1I WRITEBACK ACCESS:          0  HIT:          0  MISS:          0
L1I PREFETCH  REQUESTED:          0  ISSUED:          0  USEFUL:          0  USELESS:          0
L1I TOTAL MSHR MERGED:    1834389
L1I LOAD MSHR MERGED:    1834389
L1I RFO MSHR MERGED:          0
L1I PREFETCH MSHR MERGED:          0
L1I WRITEBACK MSHR MERGED:          0
L1I TOTAL ACCESSES:  128391266 HITS:  122318321 MISSES:    6072945
L1I LOAD ACCESSES:  128391266 HITS:  122318321 MISSES:    6072945
L1I RFO ACCESSES:          0 HITS:          0 MISSES:          0
L1I PREFETCH ACCESSES:          0 HITS:          0 MISSES:          0
L1I WRITEBACK ACCESSES:          0 HITS:          0 MISSES:          0
L1I RQ ACCESS:  500000057
L1I RQ TO_CACHE:  128391266
L1I RQ MERGED:  371608791
L1I RQ FORWARD:          0
L1I WQ ACCESS:          0
L1I WQ TO_CACHE:          0
L1I WQ MERGED:          0
L1I WQ FORWARD:          0
L2C TOTAL     ACCESS:   14904604  HIT:   11158217  MISS:    3746387
L2C LOAD      ACCESS:    7418908  HIT:    5098779  MISS:    2320129
L2C RFO       ACCESS:     878694  HIT:     409905  MISS:     468789
L2C PREFETCH  ACCESS:    4567771  HIT:    3627559  MISS:     940212
L2C WRITEBACK ACCESS:    2039231  HIT:    2021974  MISS:      17257
L2C PREFETCH  REQUESTED:     842762  ISSUED:     842762  USEFUL:     203240  USELESS:     736678
L2C TOTAL MSHR MERGED:       7563
L2C LOAD MSHR MERGED:        904
L2C RFO MSHR MERGED:          0
L2C PREFETCH MSHR MERGED:       6659
L2C WRITEBACK MSHR MERGED:          0
L2C TOTAL ACCESSES:   14913098 HITS:   11158667 MISSES:    3754431
L2C LOAD ACCESSES:    7419117 HITS:    5098988 MISSES:    2320129
L2C RFO ACCESSES:     878793 HITS:     410004 MISSES:     468789
L2C PREFETCH ACCESSES:    4575957 HITS:    3627701 MISSES:     948256
L2C WRITEBACK ACCESSES:    2039231 HITS:    2021974 MISSES:      17257
L2C RQ ACCESS:    8297913
L2C RQ TO_CACHE:    8297605
L2C RQ MERGED:          0
L2C RQ FORWARD:          0
L2C WQ ACCESS:    2039231
L2C WQ TO_CACHE:    2039231
L2C WQ MERGED:          0
L2C WQ FORWARD:        450
LLC TOTAL     ACCESS:    4609701  HIT:    3958980  MISS:     650721
LLC LOAD      ACCESS:    2319212  HIT:    2104577  MISS:     214635
LLC RFO       ACCESS:     468778  HIT:     384482  MISS:      84296
LLC PREFETCH  ACCESS:     941454  HIT:     641446  MISS:     300008
LLC WRITEBACK ACCESS:     880257  HIT:     828475  MISS:      51782
LLC PREFETCH  REQUESTED:          0  ISSUED:          0  USEFUL:      16535  USELESS:     284295
LLC TOTAL MSHR MERGED:        122
LLC LOAD MSHR MERGED:         37
LLC RFO MSHR MERGED:          0
LLC PREFETCH MSHR MERGED:         85
LLC WRITEBACK MSHR MERGED:          0
LLC TOTAL ACCESSES:    4609857 HITS:    3959014 MISSES:     650843
LLC LOAD ACCESSES:    2319225 HITS:    2104590 MISSES:     214635
LLC RFO ACCESSES:     468789 HITS:     384493 MISSES:      84296
LLC PREFETCH ACCESSES:     941586 HITS:     641456 MISSES:     300130
LLC WRITEBACK ACCESSES:     880257 HITS:     828475 MISSES:      51782
LLC 0 RQ ACCESS:    2788014
LLC 0 RQ TO_CACHE:    2787990
LLC 0 RQ MERGED:          0
LLC 0 RQ FORWARD:          0
LLC WQ ACCESS:     880257
LLC WQ TO_CACHE:     880257
LLC WQ MERGED:          0
LLC WQ FORWARD:         34
Major fault: 0 Minor fault: 12862
CPU 0 L1D next line prefetcher final stats
CPU 0 L2C PC-based stride prefetcher final stats
All Misses: 764826
All Hits: 4661881
SD Algo Stats - Switches: 0 SRR-Repls: 251026 BRR-Repls: 0

DRAM Statistics
 CHANNEL 0
 RQ ROW_BUFFER_HIT:     117229  ROW_BUFFER_MISS:     480467
 DBUS_CONGESTED:     394428
 WQ ROW_BUFFER_HIT:      20208  ROW_BUFFER_MISS:     207258  FULL:          0

 AVG_CONGESTED_CYCLE: 13
LOADS RETIRED: 136549171
INSTR RETIRED: 500000000
