
*** ChampSim Multicore Out-of-Order Simulator ***

Warmup Instructions: 100000000
Simulation Instructions: 500000000
Number of CPUs: 1
LLC sets: 2048
LLC ways: 16
Clean RRIP Policies: 2213230222132302 Dirty RRIP Policies: 1203130212031302 PSEL Width: 10 Track Set: 4294967295 PSEL Mask: 1 Demote Mask: 1440100014401000DS Algo: 0Window size: 0
Off-chip DRAM Size: 4096 MB Channels: 1 Width: 64-bit Data Rate: 1600 MT/s

CPU 0 runs /mnt/beegfs/iconst01/spec2017/Parest.trace.gz
NOT SORTED
TRACE STRING: /mnt/beegfs/iconst01/spec2017/Parest.trace.gz
SORTED
TRACE STRING: /mnt/beegfs/iconst01/spec2017/Parest.trace.gz
INITIAL
TRACE STRING: /mnt/beegfs/iconst01/spec2017/Parest.trace.gz

champsim_seed used: 623

CPU 0 L1D next line prefetcher
CPU 0 L2C IP-based stride prefetcher
Initialize DRRIP state
Assign rand_sets[0]: 454  LLC: 2048
rand_sets[0]: 454
Assign rand_sets[1]: 1662  LLC: 2048
rand_sets[1]: 1662
Assign rand_sets[2]: 1921  LLC: 2048
rand_sets[2]: 1921
Assign rand_sets[3]: 1131  LLC: 2048
rand_sets[3]: 1131
Assign rand_sets[4]: 331  LLC: 2048
rand_sets[4]: 331
Assign rand_sets[5]: 1531  LLC: 2048
rand_sets[5]: 1531
Assign rand_sets[6]: 482  LLC: 2048
rand_sets[6]: 482
Assign rand_sets[7]: 1275  LLC: 2048
rand_sets[7]: 1275
Assign rand_sets[8]: 1876  LLC: 2048
rand_sets[8]: 1876
Assign rand_sets[9]: 2038  LLC: 2048
rand_sets[9]: 2038
Assign rand_sets[10]: 701  LLC: 2048
rand_sets[10]: 701
Assign rand_sets[11]: 479  LLC: 2048
rand_sets[11]: 479
Assign rand_sets[12]: 892  LLC: 2048
rand_sets[12]: 892
Assign rand_sets[13]: 1820  LLC: 2048
rand_sets[13]: 1820
Assign rand_sets[14]: 1505  LLC: 2048
rand_sets[14]: 1505
Assign rand_sets[15]: 1159  LLC: 2048
rand_sets[15]: 1159
Assign rand_sets[16]: 513  LLC: 2048
rand_sets[16]: 513
Assign rand_sets[17]: 703  LLC: 2048
rand_sets[17]: 703
Assign rand_sets[18]: 561  LLC: 2048
rand_sets[18]: 561
Assign rand_sets[19]: 990  LLC: 2048
rand_sets[19]: 990
Assign rand_sets[20]: 342  LLC: 2048
rand_sets[20]: 342
Assign rand_sets[21]: 882  LLC: 2048
rand_sets[21]: 882
Assign rand_sets[22]: 15  LLC: 2048
rand_sets[22]: 15
Assign rand_sets[23]: 71  LLC: 2048
rand_sets[23]: 71
Assign rand_sets[24]: 1127  LLC: 2048
rand_sets[24]: 1127
Assign rand_sets[25]: 1382  LLC: 2048
rand_sets[25]: 1382
Assign rand_sets[26]: 647  LLC: 2048
rand_sets[26]: 647
Assign rand_sets[27]: 857  LLC: 2048
rand_sets[27]: 857
Assign rand_sets[28]: 1450  LLC: 2048
rand_sets[28]: 1450
Assign rand_sets[29]: 1160  LLC: 2048
rand_sets[29]: 1160
Assign rand_sets[30]: 1852  LLC: 2048
rand_sets[30]: 1852
Assign rand_sets[31]: 1881  LLC: 2048
rand_sets[31]: 1881
Assign rand_sets[32]: 1770  LLC: 2048
rand_sets[32]: 1770
Assign rand_sets[33]: 1622  LLC: 2048
rand_sets[33]: 1622
Assign rand_sets[34]: 275  LLC: 2048
rand_sets[34]: 275
Assign rand_sets[35]: 635  LLC: 2048
rand_sets[35]: 635
Assign rand_sets[36]: 466  LLC: 2048
rand_sets[36]: 466
Assign rand_sets[37]: 1413  LLC: 2048
rand_sets[37]: 1413
Assign rand_sets[38]: 417  LLC: 2048
rand_sets[38]: 417
Assign rand_sets[39]: 472  LLC: 2048
rand_sets[39]: 472
Assign rand_sets[40]: 1340  LLC: 2048
rand_sets[40]: 1340
Assign rand_sets[41]: 852  LLC: 2048
rand_sets[41]: 852
Assign rand_sets[42]: 1365  LLC: 2048
rand_sets[42]: 1365
Assign rand_sets[43]: 47  LLC: 2048
rand_sets[43]: 47
Assign rand_sets[44]: 823  LLC: 2048
rand_sets[44]: 823
Assign rand_sets[45]: 686  LLC: 2048
rand_sets[45]: 686
Assign rand_sets[46]: 1637  LLC: 2048
rand_sets[46]: 1637
Assign rand_sets[47]: 1115  LLC: 2048
rand_sets[47]: 1115
Assign rand_sets[48]: 986  LLC: 2048
rand_sets[48]: 986
Assign rand_sets[49]: 258  LLC: 2048
rand_sets[49]: 258
Assign rand_sets[50]: 633  LLC: 2048
rand_sets[50]: 633
Assign rand_sets[51]: 920  LLC: 2048
rand_sets[51]: 920
Assign rand_sets[52]: 204  LLC: 2048
rand_sets[52]: 204
Assign rand_sets[53]: 227  LLC: 2048
rand_sets[53]: 227
Assign rand_sets[54]: 1818  LLC: 2048
rand_sets[54]: 1818
Assign rand_sets[55]: 886  LLC: 2048
rand_sets[55]: 886
Assign rand_sets[56]: 1422  LLC: 2048
rand_sets[56]: 1422
Assign rand_sets[57]: 607  LLC: 2048
rand_sets[57]: 607
Assign rand_sets[58]: 217  LLC: 2048
rand_sets[58]: 217
Assign rand_sets[59]: 1945  LLC: 2048
rand_sets[59]: 1945
Assign rand_sets[60]: 143  LLC: 2048
rand_sets[60]: 143
Assign rand_sets[61]: 1311  LLC: 2048
rand_sets[61]: 1311
Assign rand_sets[62]: 319  LLC: 2048
rand_sets[62]: 319
Assign rand_sets[63]: 1846  LLC: 2048
rand_sets[63]: 1846
 CLEAN-RRIP-POLICY-1: 2-2-1-3-2-3-0-2- CLEAN-RRIP-POLICY-2: 2-2-1-3-2-3-0-2-
 DIRTY-RRIP-POLICY-1: 1-2-0-3-1-3-0-2- DIRTY-RRIP-POLICY-2: 1-2-0-3-1-3-0-2-
 PSEL width: 10
Heartbeat CPU 0 instructions: 10000001 cycles: 4387143 heartbeat IPC: 2.27939 cumulative IPC: 2.27939 (Simulation time: 0 hr 0 min 15 sec) 
Heartbeat CPU 0 instructions: 20000000 cycles: 8781328 heartbeat IPC: 2.27573 cumulative IPC: 2.27756 (Simulation time: 0 hr 0 min 30 sec) 
Heartbeat CPU 0 instructions: 30000003 cycles: 13213265 heartbeat IPC: 2.25635 cumulative IPC: 2.27045 (Simulation time: 0 hr 0 min 45 sec) 
Heartbeat CPU 0 instructions: 40000000 cycles: 17643888 heartbeat IPC: 2.25702 cumulative IPC: 2.26707 (Simulation time: 0 hr 1 min 0 sec) 
Heartbeat CPU 0 instructions: 50000000 cycles: 22052166 heartbeat IPC: 2.26846 cumulative IPC: 2.26735 (Simulation time: 0 hr 1 min 14 sec) 
Heartbeat CPU 0 instructions: 60000000 cycles: 26457921 heartbeat IPC: 2.26976 cumulative IPC: 2.26775 (Simulation time: 0 hr 1 min 29 sec) 
Heartbeat CPU 0 instructions: 70000000 cycles: 30858847 heartbeat IPC: 2.27225 cumulative IPC: 2.26839 (Simulation time: 0 hr 1 min 44 sec) 
Heartbeat CPU 0 instructions: 80000000 cycles: 35254453 heartbeat IPC: 2.275 cumulative IPC: 2.26922 (Simulation time: 0 hr 1 min 58 sec) 
Heartbeat CPU 0 instructions: 90000000 cycles: 39648750 heartbeat IPC: 2.27568 cumulative IPC: 2.26993 (Simulation time: 0 hr 2 min 13 sec) 
Heartbeat CPU 0 instructions: 100000000 cycles: 44046102 heartbeat IPC: 2.2741 cumulative IPC: 2.27035 (Simulation time: 0 hr 2 min 28 sec) 

Warmup complete CPU 0 instructions: 100000002 cycles: 44046112 (Simulation time: 0 hr 2 min 28 sec) 

Heartbeat CPU 0 instructions: 110000000 cycles: 53983844 heartbeat IPC: 1.00626 cumulative IPC: 1.00627 (Simulation time: 0 hr 2 min 47 sec) 
Heartbeat CPU 0 instructions: 120000000 cycles: 62984744 heartbeat IPC: 1.111 cumulative IPC: 1.05604 (Simulation time: 0 hr 3 min 5 sec) 
Heartbeat CPU 0 instructions: 130000000 cycles: 72019390 heartbeat IPC: 1.10685 cumulative IPC: 1.07245 (Simulation time: 0 hr 3 min 23 sec) 
Heartbeat CPU 0 instructions: 140000000 cycles: 81110738 heartbeat IPC: 1.09995 cumulative IPC: 1.0792 (Simulation time: 0 hr 3 min 42 sec) 
Heartbeat CPU 0 instructions: 150000000 cycles: 92313352 heartbeat IPC: 0.892649 cumulative IPC: 1.0359 (Simulation time: 0 hr 4 min 1 sec) 
Heartbeat CPU 0 instructions: 160000000 cycles: 102780173 heartbeat IPC: 0.9554 cumulative IPC: 1.02155 (Simulation time: 0 hr 4 min 20 sec) 
Heartbeat CPU 0 instructions: 170000000 cycles: 112992204 heartbeat IPC: 0.979237 cumulative IPC: 1.01529 (Simulation time: 0 hr 4 min 39 sec) 
Heartbeat CPU 0 instructions: 180000000 cycles: 122992459 heartbeat IPC: 0.999974 cumulative IPC: 1.01335 (Simulation time: 0 hr 4 min 58 sec) 
Heartbeat CPU 0 instructions: 190000002 cycles: 133020829 heartbeat IPC: 0.997171 cumulative IPC: 1.01152 (Simulation time: 0 hr 5 min 17 sec) 
Heartbeat CPU 0 instructions: 200000000 cycles: 142382878 heartbeat IPC: 1.06814 cumulative IPC: 1.01691 (Simulation time: 0 hr 5 min 35 sec) 
Heartbeat CPU 0 instructions: 210000000 cycles: 152115933 heartbeat IPC: 1.02743 cumulative IPC: 1.01786 (Simulation time: 0 hr 5 min 54 sec) 
Heartbeat CPU 0 instructions: 220000000 cycles: 160995526 heartbeat IPC: 1.12618 cumulative IPC: 1.02608 (Simulation time: 0 hr 6 min 12 sec) 
Heartbeat CPU 0 instructions: 230000001 cycles: 172995421 heartbeat IPC: 0.833341 cumulative IPC: 1.00815 (Simulation time: 0 hr 6 min 32 sec) 
Heartbeat CPU 0 instructions: 240000000 cycles: 183748096 heartbeat IPC: 0.930001 cumulative IPC: 1.00213 (Simulation time: 0 hr 6 min 51 sec) 
Heartbeat CPU 0 instructions: 250000002 cycles: 193914082 heartbeat IPC: 0.983673 cumulative IPC: 1.00088 (Simulation time: 0 hr 7 min 9 sec) 
Heartbeat CPU 0 instructions: 260000000 cycles: 203731943 heartbeat IPC: 1.01855 cumulative IPC: 1.00197 (Simulation time: 0 hr 7 min 28 sec) 
Heartbeat CPU 0 instructions: 270000001 cycles: 213274415 heartbeat IPC: 1.04795 cumulative IPC: 1.00456 (Simulation time: 0 hr 7 min 46 sec) 
Heartbeat CPU 0 instructions: 280000000 cycles: 223098686 heartbeat IPC: 1.01789 cumulative IPC: 1.00529 (Simulation time: 0 hr 8 min 4 sec) 
Heartbeat CPU 0 instructions: 290000002 cycles: 232160670 heartbeat IPC: 1.10351 cumulative IPC: 1.01002 (Simulation time: 0 hr 8 min 23 sec) 
Heartbeat CPU 0 instructions: 300000000 cycles: 241677549 heartbeat IPC: 1.05076 cumulative IPC: 1.01198 (Simulation time: 0 hr 8 min 41 sec) 
Heartbeat CPU 0 instructions: 310000000 cycles: 250539977 heartbeat IPC: 1.12836 cumulative IPC: 1.01698 (Simulation time: 0 hr 8 min 59 sec) 
Heartbeat CPU 0 instructions: 320000000 cycles: 259509709 heartbeat IPC: 1.11486 cumulative IPC: 1.02105 (Simulation time: 0 hr 9 min 17 sec) 
Heartbeat CPU 0 instructions: 330000003 cycles: 268646040 heartbeat IPC: 1.09453 cumulative IPC: 1.02404 (Simulation time: 0 hr 9 min 35 sec) 
Heartbeat CPU 0 instructions: 340000000 cycles: 278466109 heartbeat IPC: 1.01832 cumulative IPC: 1.0238 (Simulation time: 0 hr 9 min 54 sec) 
Heartbeat CPU 0 instructions: 350000000 cycles: 289059377 heartbeat IPC: 0.943996 cumulative IPC: 1.02035 (Simulation time: 0 hr 10 min 12 sec) 
Heartbeat CPU 0 instructions: 360000000 cycles: 299273585 heartbeat IPC: 0.979028 cumulative IPC: 1.0187 (Simulation time: 0 hr 10 min 31 sec) 
Heartbeat CPU 0 instructions: 370000000 cycles: 309137359 heartbeat IPC: 1.01381 cumulative IPC: 1.01852 (Simulation time: 0 hr 10 min 49 sec) 
Heartbeat CPU 0 instructions: 380000000 cycles: 318704545 heartbeat IPC: 1.04524 cumulative IPC: 1.01945 (Simulation time: 0 hr 11 min 7 sec) 
Heartbeat CPU 0 instructions: 390000002 cycles: 327972042 heartbeat IPC: 1.07904 cumulative IPC: 1.02139 (Simulation time: 0 hr 11 min 25 sec) 
Heartbeat CPU 0 instructions: 400000000 cycles: 337616771 heartbeat IPC: 1.03684 cumulative IPC: 1.0219 (Simulation time: 0 hr 11 min 43 sec) 
Heartbeat CPU 0 instructions: 410000000 cycles: 346484132 heartbeat IPC: 1.12773 cumulative IPC: 1.025 (Simulation time: 0 hr 12 min 1 sec) 
Heartbeat CPU 0 instructions: 420000000 cycles: 357206182 heartbeat IPC: 0.932657 cumulative IPC: 1.02184 (Simulation time: 0 hr 12 min 20 sec) 
Heartbeat CPU 0 instructions: 430000000 cycles: 368250680 heartbeat IPC: 0.905428 cumulative IPC: 1.01788 (Simulation time: 0 hr 12 min 39 sec) 
Heartbeat CPU 0 instructions: 440000000 cycles: 378387799 heartbeat IPC: 0.986474 cumulative IPC: 1.01692 (Simulation time: 0 hr 12 min 58 sec) 
Heartbeat CPU 0 instructions: 450000000 cycles: 388356273 heartbeat IPC: 1.00316 cumulative IPC: 1.01653 (Simulation time: 0 hr 13 min 16 sec) 
Heartbeat CPU 0 instructions: 460000000 cycles: 398186605 heartbeat IPC: 1.01726 cumulative IPC: 1.01655 (Simulation time: 0 hr 13 min 34 sec) 
Heartbeat CPU 0 instructions: 470000001 cycles: 408017202 heartbeat IPC: 1.01723 cumulative IPC: 1.01656 (Simulation time: 0 hr 13 min 52 sec) 
Heartbeat CPU 0 instructions: 480000000 cycles: 417150150 heartbeat IPC: 1.09494 cumulative IPC: 1.01848 (Simulation time: 0 hr 14 min 11 sec) 
Heartbeat CPU 0 instructions: 490000002 cycles: 426778958 heartbeat IPC: 1.03855 cumulative IPC: 1.01899 (Simulation time: 0 hr 14 min 29 sec) 
Heartbeat CPU 0 instructions: 500000000 cycles: 435911059 heartbeat IPC: 1.09504 cumulative IPC: 1.02076 (Simulation time: 0 hr 14 min 47 sec) 
Heartbeat CPU 0 instructions: 510000000 cycles: 444806886 heartbeat IPC: 1.12412 cumulative IPC: 1.02305 (Simulation time: 0 hr 15 min 5 sec) 
Heartbeat CPU 0 instructions: 520000000 cycles: 453998002 heartbeat IPC: 1.08801 cumulative IPC: 1.02451 (Simulation time: 0 hr 15 min 23 sec) 
Heartbeat CPU 0 instructions: 530000001 cycles: 464016595 heartbeat IPC: 0.998144 cumulative IPC: 1.02388 (Simulation time: 0 hr 15 min 42 sec) 
Heartbeat CPU 0 instructions: 540000000 cycles: 474707514 heartbeat IPC: 0.935373 cumulative IPC: 1.02168 (Simulation time: 0 hr 16 min 0 sec) 
Heartbeat CPU 0 instructions: 550000003 cycles: 485059412 heartbeat IPC: 0.966007 cumulative IPC: 1.02038 (Simulation time: 0 hr 16 min 19 sec) 
Heartbeat CPU 0 instructions: 560000000 cycles: 495078617 heartbeat IPC: 0.998083 cumulative IPC: 1.01988 (Simulation time: 0 hr 16 min 37 sec) 
Heartbeat CPU 0 instructions: 570000002 cycles: 504791440 heartbeat IPC: 1.02957 cumulative IPC: 1.02009 (Simulation time: 0 hr 16 min 55 sec) 
Heartbeat CPU 0 instructions: 580000000 cycles: 514218535 heartbeat IPC: 1.06077 cumulative IPC: 1.0209 (Simulation time: 0 hr 17 min 13 sec) 
Heartbeat CPU 0 instructions: 590000002 cycles: 523952673 heartbeat IPC: 1.02731 cumulative IPC: 1.02103 (Simulation time: 0 hr 17 min 32 sec) 
Heartbeat CPU 0 instructions: 600000000 cycles: 533097905 heartbeat IPC: 1.09347 cumulative IPC: 1.02239 (Simulation time: 0 hr 17 min 50 sec) 
Finished CPU 0 instructions: 500000000 cycles: 489051807 cumulative IPC: 1.02239 (Simulation time: 0 hr 17 min 50 sec) 

CPU 0 Branch Prediction Accuracy: 97.8526% MPKI: 2.66709
Number of Branches: 62099103 Number of Mispredictions: 1333545
Number of LOAD Instructions: 210576465
Number of LOAD Instructions (ROI): 210576465
Number of STORE Instructions: 16915507
Number of STORE Instructions (ROI): 16915507
Total Destination Memory Operands: 16918869
Total Destination Memory Operands (ROI): 16918869
Total Source Memory Operands: 210576465
Total Source Memory Operands (ROI): 210576465
Number of DEPENDED LOADS: 346083
Number of DEPENDED LOADS (ROI): 346083
Number of SQ_ADDED: 16918826
Number of SQ_ADDED (ROI): 16918826
Number of LQ_ADDED: 210615776
Number of LQ_ADDED (ROI): 210615776
Number of Instructions read from trace: 600000257

ChampSim completed all CPUs

Region of Interest Statistics

CPU 0 cumulative IPC: 1.02239 instructions: 500000000 cycles: 489051807
ITLB TOTAL     ACCESS:   76475323  HIT:   76475285  MISS:         38
ITLB LOAD      ACCESS:   76475323  HIT:   76475285  MISS:         38
ITLB RFO       ACCESS:          0  HIT:          0  MISS:          0
ITLB PREFETCH  ACCESS:          0  HIT:          0  MISS:          0
ITLB WRITEBACK ACCESS:          0  HIT:          0  MISS:          0
ITLB PREFETCH  REQUESTED:          0  ISSUED:          0  USEFUL:          0  USELESS:          0
ITLB TOTAL MSHR MERGED:         37
ITLB LOAD MSHR MERGED:         37
ITLB RFO MSHR MERGED:          0
ITLB PREFETCH MSHR MERGED:          0
ITLB WRITEBACK MSHR MERGED:          0
ITLB TOTAL ACCESSES:   76475360 HITS:   76475285 MISSES:         75
ITLB LOAD ACCESSES:   76475360 HITS:   76475285 MISSES:         75
ITLB RFO ACCESSES:          0 HITS:          0 MISSES:          0
ITLB PREFETCH ACCESSES:          0 HITS:          0 MISSES:          0
ITLB WRITEBACK ACCESSES:          0 HITS:          0 MISSES:          0
ITLB RQ ACCESS:  500000188
ITLB RQ TO_CACHE:   76475361
ITLB RQ MERGED:  423524827
ITLB RQ FORWARD:          0
ITLB WQ ACCESS:          0
ITLB WQ TO_CACHE:          0
ITLB WQ MERGED:          0
ITLB WQ FORWARD:          0
DTLB TOTAL     ACCESS:  136613544  HIT:  136410751  MISS:     202793
DTLB LOAD      ACCESS:  128550788  HIT:  128350716  MISS:     200072
DTLB RFO       ACCESS:    8062756  HIT:    8060035  MISS:       2721
DTLB PREFETCH  ACCESS:          0  HIT:          0  MISS:          0
DTLB WRITEBACK ACCESS:          0  HIT:          0  MISS:          0
DTLB PREFETCH  REQUESTED:          0  ISSUED:          0  USEFUL:          0  USELESS:          0
DTLB TOTAL MSHR MERGED:     446598
DTLB LOAD MSHR MERGED:     442609
DTLB RFO MSHR MERGED:       3989
DTLB PREFETCH MSHR MERGED:          0
DTLB WRITEBACK MSHR MERGED:          0
DTLB TOTAL ACCESSES:  137060142 HITS:  136410751 MISSES:     649391
DTLB LOAD ACCESSES:  128993397 HITS:  128350716 MISSES:     642681
DTLB RFO ACCESSES:    8066745 HITS:    8060035 MISSES:       6710
DTLB PREFETCH ACCESSES:          0 HITS:          0 MISSES:          0
DTLB WRITEBACK ACCESSES:          0 HITS:          0 MISSES:          0
DTLB RQ ACCESS:  189418473
DTLB RQ TO_CACHE:  137060142
DTLB RQ MERGED:   52358331
DTLB RQ FORWARD:          0
DTLB WQ ACCESS:          0
DTLB WQ TO_CACHE:          0
DTLB WQ MERGED:          0
DTLB WQ FORWARD:          0
L1D TOTAL     ACCESS:  124770953  HIT:  107213886  MISS:   17557067
L1D LOAD      ACCESS:   72072474  HIT:   61694785  MISS:   10377689
L1D RFO       ACCESS:   14015379  HIT:   13862547  MISS:     152832
L1D PREFETCH  ACCESS:   38683100  HIT:   31656554  MISS:    7026546
L1D WRITEBACK ACCESS:          0  HIT:          0  MISS:          0
L1D PREFETCH  REQUESTED:   85515519  ISSUED:   84194500  USEFUL:    5767069  USELESS:    1259488
L1D TOTAL MSHR MERGED:   32405688
L1D LOAD MSHR MERGED:   18736532
L1D RFO MSHR MERGED:     263748
L1D PREFETCH MSHR MERGED:   13405408
L1D WRITEBACK MSHR MERGED:          0
L1D TOTAL ACCESSES:  157177124 HITS:  107214370 MISSES:   49962754
L1D LOAD ACCESSES:   85515523 HITS:   61694789 MISSES:   23820734
L1D RFO ACCESSES:   14279109 HITS:   13862547 MISSES:     416562
L1D PREFETCH ACCESSES:   57382492 HITS:   31657034 MISSES:   25725458
L1D WRITEBACK ACCESSES:          0 HITS:          0 MISSES:          0
L1D RQ ACCESS:  175129451
L1D RQ TO_CACHE:   85515519
L1D RQ MERGED:   89613928
L1D RQ FORWARD:          0
L1D WQ ACCESS:   14289037
L1D WQ TO_CACHE:   14279109
L1D WQ MERGED:       9928
L1D WQ FORWARD:        484
L1I TOTAL     ACCESS:   93515063  HIT:   93513267  MISS:       1796
L1I LOAD      ACCESS:   93515063  HIT:   93513267  MISS:       1796
L1I RFO       ACCESS:          0  HIT:          0  MISS:          0
L1I PREFETCH  ACCESS:          0  HIT:          0  MISS:          0
L1I WRITEBACK ACCESS:          0  HIT:          0  MISS:          0
L1I PREFETCH  REQUESTED:          0  ISSUED:          0  USEFUL:          0  USELESS:          0
L1I TOTAL MSHR MERGED:       2362
L1I LOAD MSHR MERGED:       2362
L1I RFO MSHR MERGED:          0
L1I PREFETCH MSHR MERGED:          0
L1I WRITEBACK MSHR MERGED:          0
L1I TOTAL ACCESSES:   93517425 HITS:   93513267 MISSES:       4158
L1I LOAD ACCESSES:   93517425 HITS:   93513267 MISSES:       4158
L1I RFO ACCESSES:          0 HITS:          0 MISSES:          0
L1I PREFETCH ACCESSES:          0 HITS:          0 MISSES:          0
L1I WRITEBACK ACCESSES:          0 HITS:          0 MISSES:          0
L1I RQ ACCESS:  500000187
L1I RQ TO_CACHE:   93517425
L1I RQ MERGED:  406482762
L1I RQ FORWARD:          0
L1I WQ ACCESS:          0
L1I WQ TO_CACHE:          0
L1I WQ MERGED:          0
L1I WQ FORWARD:          0
L2C TOTAL     ACCESS:   20886253  HIT:    8658159  MISS:   12228094
L2C LOAD      ACCESS:    5085974  HIT:    2134780  MISS:    2951194
L2C RFO       ACCESS:     152813  HIT:       6517  MISS:     146296
L2C PREFETCH  ACCESS:   13874706  HIT:    4744212  MISS:    9130494
L2C WRITEBACK ACCESS:    1772760  HIT:    1772650  MISS:        110
L2C PREFETCH  REQUESTED:    1795507  ISSUED:    1795507  USEFUL:    1057481  USELESS:    8074680
L2C TOTAL MSHR MERGED:     100327
L2C LOAD MSHR MERGED:      24268
L2C RFO MSHR MERGED:          0
L2C PREFETCH MSHR MERGED:      76059
L2C WRITEBACK MSHR MERGED:          0
L2C TOTAL ACCESSES:   21008810 HITS:    8658203 MISSES:   12350607
L2C LOAD ACCESSES:    5085998 HITS:    2134804 MISSES:    2951194
L2C RFO ACCESSES:     152814 HITS:       6518 MISSES:     146296
L2C PREFETCH ACCESSES:   13997238 HITS:    4744231 MISSES:    9253007
L2C WRITEBACK ACCESSES:    1772760 HITS:    1772650 MISSES:        110
L2C RQ ACCESS:    5238812
L2C RQ TO_CACHE:    5238787
L2C RQ MERGED:          0
L2C RQ FORWARD:          0
L2C WQ ACCESS:    1772760
L2C WQ TO_CACHE:    1772760
L2C WQ MERGED:          0
L2C WQ FORWARD:         44
LLC TOTAL     ACCESS:   12530549  HIT:    6256706  MISS:    6273843
LLC LOAD      ACCESS:    2926906  HIT:    2345802  MISS:     581104
LLC RFO       ACCESS:     146296  HIT:     118990  MISS:      27306
LLC PREFETCH  ACCESS:    9171347  HIT:    3528055  MISS:    5643292
LLC WRITEBACK ACCESS:     286000  HIT:     263859  MISS:      22141
LLC PREFETCH  REQUESTED:          0  ISSUED:          0  USEFUL:       2101  USELESS:    5641352
LLC TOTAL MSHR MERGED:       1018
LLC LOAD MSHR MERGED:        160
LLC RFO MSHR MERGED:          0
LLC PREFETCH MSHR MERGED:        858
LLC WRITEBACK MSHR MERGED:          0
LLC TOTAL ACCESSES:   12531599 HITS:    6256738 MISSES:    6274861
LLC LOAD ACCESSES:    2926926 HITS:    2345822 MISSES:     581104
LLC RFO ACCESSES:     146296 HITS:     118990 MISSES:      27306
LLC PREFETCH ACCESSES:    9172377 HITS:    3528067 MISSES:    5644310
LLC WRITEBACK ACCESSES:     286000 HITS:     263859 MISSES:      22141
LLC 0 RQ ACCESS:    3073222
LLC 0 RQ TO_CACHE:    3073202
LLC 0 RQ MERGED:          0
LLC 0 RQ FORWARD:          0
LLC WQ ACCESS:     286000
LLC WQ TO_CACHE:     286000
LLC WQ MERGED:          0
LLC WQ FORWARD:         32
Major fault: 0 Minor fault: 6524
CPU 0 L1D next line prefetcher final stats
CPU 0 L2C PC-based stride prefetcher final stats
All Misses: 8072956
All Hits: 6982607
SD Algo Stats - Switches: 0 SRR-Repls: 607978 BRR-Repls: 0

DRAM Statistics
 CHANNEL 0
 RQ ROW_BUFFER_HIT:    5483557  ROW_BUFFER_MISS:     764859
 DBUS_CONGESTED:    2359564
 WQ ROW_BUFFER_HIT:       4160  ROW_BUFFER_MISS:      28736  FULL:          0

 AVG_CONGESTED_CYCLE: 12
LOADS RETIRED: 175418235
INSTR RETIRED: 500000000
