
*** ChampSim Multicore Out-of-Order Simulator ***

Warmup Instructions: 100000000
Simulation Instructions: 500000000
Number of CPUs: 1
LLC sets: 2048
LLC ways: 16
Clean RRIP Policies: 2213230222132302 Dirty RRIP Policies: 1203130212031302 PSEL Width: 10 Track Set: 4294967295 PSEL Mask: 1 Demote Mask: 1440100014401000DS Algo: 0Window size: 0
Off-chip DRAM Size: 4096 MB Channels: 1 Width: 64-bit Data Rate: 1600 MT/s

CPU 0 runs /mnt/beegfs/iconst01/spec2017/Roms.trace.gz
NOT SORTED
TRACE STRING: /mnt/beegfs/iconst01/spec2017/Roms.trace.gz
SORTED
TRACE STRING: /mnt/beegfs/iconst01/spec2017/Roms.trace.gz
INITIAL
TRACE STRING: /mnt/beegfs/iconst01/spec2017/Roms.trace.gz

champsim_seed used: 417

CPU 0 L1D next line prefetcher
CPU 0 L2C IP-based stride prefetcher
Initialize DRRIP state
Assign rand_sets[0]: 454  LLC: 2048
rand_sets[0]: 454
Assign rand_sets[1]: 1662  LLC: 2048
rand_sets[1]: 1662
Assign rand_sets[2]: 1921  LLC: 2048
rand_sets[2]: 1921
Assign rand_sets[3]: 1131  LLC: 2048
rand_sets[3]: 1131
Assign rand_sets[4]: 331  LLC: 2048
rand_sets[4]: 331
Assign rand_sets[5]: 1531  LLC: 2048
rand_sets[5]: 1531
Assign rand_sets[6]: 482  LLC: 2048
rand_sets[6]: 482
Assign rand_sets[7]: 1275  LLC: 2048
rand_sets[7]: 1275
Assign rand_sets[8]: 1876  LLC: 2048
rand_sets[8]: 1876
Assign rand_sets[9]: 2038  LLC: 2048
rand_sets[9]: 2038
Assign rand_sets[10]: 701  LLC: 2048
rand_sets[10]: 701
Assign rand_sets[11]: 479  LLC: 2048
rand_sets[11]: 479
Assign rand_sets[12]: 892  LLC: 2048
rand_sets[12]: 892
Assign rand_sets[13]: 1820  LLC: 2048
rand_sets[13]: 1820
Assign rand_sets[14]: 1505  LLC: 2048
rand_sets[14]: 1505
Assign rand_sets[15]: 1159  LLC: 2048
rand_sets[15]: 1159
Assign rand_sets[16]: 513  LLC: 2048
rand_sets[16]: 513
Assign rand_sets[17]: 703  LLC: 2048
rand_sets[17]: 703
Assign rand_sets[18]: 561  LLC: 2048
rand_sets[18]: 561
Assign rand_sets[19]: 990  LLC: 2048
rand_sets[19]: 990
Assign rand_sets[20]: 342  LLC: 2048
rand_sets[20]: 342
Assign rand_sets[21]: 882  LLC: 2048
rand_sets[21]: 882
Assign rand_sets[22]: 15  LLC: 2048
rand_sets[22]: 15
Assign rand_sets[23]: 71  LLC: 2048
rand_sets[23]: 71
Assign rand_sets[24]: 1127  LLC: 2048
rand_sets[24]: 1127
Assign rand_sets[25]: 1382  LLC: 2048
rand_sets[25]: 1382
Assign rand_sets[26]: 647  LLC: 2048
rand_sets[26]: 647
Assign rand_sets[27]: 857  LLC: 2048
rand_sets[27]: 857
Assign rand_sets[28]: 1450  LLC: 2048
rand_sets[28]: 1450
Assign rand_sets[29]: 1160  LLC: 2048
rand_sets[29]: 1160
Assign rand_sets[30]: 1852  LLC: 2048
rand_sets[30]: 1852
Assign rand_sets[31]: 1881  LLC: 2048
rand_sets[31]: 1881
Assign rand_sets[32]: 1770  LLC: 2048
rand_sets[32]: 1770
Assign rand_sets[33]: 1622  LLC: 2048
rand_sets[33]: 1622
Assign rand_sets[34]: 275  LLC: 2048
rand_sets[34]: 275
Assign rand_sets[35]: 635  LLC: 2048
rand_sets[35]: 635
Assign rand_sets[36]: 466  LLC: 2048
rand_sets[36]: 466
Assign rand_sets[37]: 1413  LLC: 2048
rand_sets[37]: 1413
Assign rand_sets[38]: 417  LLC: 2048
rand_sets[38]: 417
Assign rand_sets[39]: 472  LLC: 2048
rand_sets[39]: 472
Assign rand_sets[40]: 1340  LLC: 2048
rand_sets[40]: 1340
Assign rand_sets[41]: 852  LLC: 2048
rand_sets[41]: 852
Assign rand_sets[42]: 1365  LLC: 2048
rand_sets[42]: 1365
Assign rand_sets[43]: 47  LLC: 2048
rand_sets[43]: 47
Assign rand_sets[44]: 823  LLC: 2048
rand_sets[44]: 823
Assign rand_sets[45]: 686  LLC: 2048
rand_sets[45]: 686
Assign rand_sets[46]: 1637  LLC: 2048
rand_sets[46]: 1637
Assign rand_sets[47]: 1115  LLC: 2048
rand_sets[47]: 1115
Assign rand_sets[48]: 986  LLC: 2048
rand_sets[48]: 986
Assign rand_sets[49]: 258  LLC: 2048
rand_sets[49]: 258
Assign rand_sets[50]: 633  LLC: 2048
rand_sets[50]: 633
Assign rand_sets[51]: 920  LLC: 2048
rand_sets[51]: 920
Assign rand_sets[52]: 204  LLC: 2048
rand_sets[52]: 204
Assign rand_sets[53]: 227  LLC: 2048
rand_sets[53]: 227
Assign rand_sets[54]: 1818  LLC: 2048
rand_sets[54]: 1818
Assign rand_sets[55]: 886  LLC: 2048
rand_sets[55]: 886
Assign rand_sets[56]: 1422  LLC: 2048
rand_sets[56]: 1422
Assign rand_sets[57]: 607  LLC: 2048
rand_sets[57]: 607
Assign rand_sets[58]: 217  LLC: 2048
rand_sets[58]: 217
Assign rand_sets[59]: 1945  LLC: 2048
rand_sets[59]: 1945
Assign rand_sets[60]: 143  LLC: 2048
rand_sets[60]: 143
Assign rand_sets[61]: 1311  LLC: 2048
rand_sets[61]: 1311
Assign rand_sets[62]: 319  LLC: 2048
rand_sets[62]: 319
Assign rand_sets[63]: 1846  LLC: 2048
rand_sets[63]: 1846
 CLEAN-RRIP-POLICY-1: 2-2-1-3-2-3-0-2- CLEAN-RRIP-POLICY-2: 2-2-1-3-2-3-0-2-
 DIRTY-RRIP-POLICY-1: 1-2-0-3-1-3-0-2- DIRTY-RRIP-POLICY-2: 1-2-0-3-1-3-0-2-
 PSEL width: 10
Heartbeat CPU 0 instructions: 10000000 cycles: 4688066 heartbeat IPC: 2.13308 cumulative IPC: 2.13308 (Simulation time: 0 hr 0 min 17 sec) 
Heartbeat CPU 0 instructions: 20000000 cycles: 9325334 heartbeat IPC: 2.15644 cumulative IPC: 2.1447 (Simulation time: 0 hr 0 min 35 sec) 
Heartbeat CPU 0 instructions: 30000003 cycles: 14019722 heartbeat IPC: 2.1302 cumulative IPC: 2.13984 (Simulation time: 0 hr 0 min 53 sec) 
Heartbeat CPU 0 instructions: 40000000 cycles: 18670140 heartbeat IPC: 2.15034 cumulative IPC: 2.14246 (Simulation time: 0 hr 1 min 10 sec) 
Heartbeat CPU 0 instructions: 50000003 cycles: 23323497 heartbeat IPC: 2.14899 cumulative IPC: 2.14376 (Simulation time: 0 hr 1 min 28 sec) 
Heartbeat CPU 0 instructions: 60000000 cycles: 27976129 heartbeat IPC: 2.14932 cumulative IPC: 2.14469 (Simulation time: 0 hr 1 min 45 sec) 
Heartbeat CPU 0 instructions: 70000002 cycles: 32367317 heartbeat IPC: 2.27729 cumulative IPC: 2.16268 (Simulation time: 0 hr 2 min 0 sec) 
Heartbeat CPU 0 instructions: 80000000 cycles: 36304196 heartbeat IPC: 2.54008 cumulative IPC: 2.2036 (Simulation time: 0 hr 2 min 12 sec) 
Heartbeat CPU 0 instructions: 90000000 cycles: 40249464 heartbeat IPC: 2.53468 cumulative IPC: 2.23605 (Simulation time: 0 hr 2 min 25 sec) 
Heartbeat CPU 0 instructions: 100000000 cycles: 44211787 heartbeat IPC: 2.52377 cumulative IPC: 2.26184 (Simulation time: 0 hr 2 min 37 sec) 

Warmup complete CPU 0 instructions: 100000002 cycles: 44211788 (Simulation time: 0 hr 2 min 37 sec) 

Heartbeat CPU 0 instructions: 110000000 cycles: 52818065 heartbeat IPC: 1.16194 cumulative IPC: 1.16194 (Simulation time: 0 hr 2 min 56 sec) 
Heartbeat CPU 0 instructions: 120000000 cycles: 61456627 heartbeat IPC: 1.1576 cumulative IPC: 1.15977 (Simulation time: 0 hr 3 min 15 sec) 
Heartbeat CPU 0 instructions: 130000002 cycles: 70150225 heartbeat IPC: 1.15027 cumulative IPC: 1.15658 (Simulation time: 0 hr 3 min 34 sec) 
Heartbeat CPU 0 instructions: 140000000 cycles: 78701270 heartbeat IPC: 1.16945 cumulative IPC: 1.15977 (Simulation time: 0 hr 3 min 53 sec) 
Heartbeat CPU 0 instructions: 150000003 cycles: 87411851 heartbeat IPC: 1.14803 cumulative IPC: 1.15741 (Simulation time: 0 hr 4 min 12 sec) 
Heartbeat CPU 0 instructions: 160000000 cycles: 97763244 heartbeat IPC: 0.966053 cumulative IPC: 1.12042 (Simulation time: 0 hr 4 min 33 sec) 
Heartbeat CPU 0 instructions: 170000002 cycles: 110220784 heartbeat IPC: 0.802727 cumulative IPC: 1.06046 (Simulation time: 0 hr 4 min 57 sec) 
Heartbeat CPU 0 instructions: 180000000 cycles: 122724524 heartbeat IPC: 0.799761 cumulative IPC: 1.01894 (Simulation time: 0 hr 5 min 22 sec) 
Heartbeat CPU 0 instructions: 190000000 cycles: 135498763 heartbeat IPC: 0.782825 cumulative IPC: 0.985902 (Simulation time: 0 hr 5 min 46 sec) 
Heartbeat CPU 0 instructions: 200000000 cycles: 149393573 heartbeat IPC: 0.719693 cumulative IPC: 0.950735 (Simulation time: 0 hr 6 min 10 sec) 
Heartbeat CPU 0 instructions: 210000001 cycles: 163318446 heartbeat IPC: 0.718139 cumulative IPC: 0.923542 (Simulation time: 0 hr 6 min 34 sec) 
Heartbeat CPU 0 instructions: 220000000 cycles: 177124043 heartbeat IPC: 0.724344 cumulative IPC: 0.902851 (Simulation time: 0 hr 6 min 58 sec) 
Heartbeat CPU 0 instructions: 230000000 cycles: 190730957 heartbeat IPC: 0.734921 cumulative IPC: 0.887256 (Simulation time: 0 hr 7 min 23 sec) 
Heartbeat CPU 0 instructions: 240000000 cycles: 204452232 heartbeat IPC: 0.728795 cumulative IPC: 0.873687 (Simulation time: 0 hr 7 min 48 sec) 
Heartbeat CPU 0 instructions: 250000003 cycles: 215605735 heartbeat IPC: 0.89658 cumulative IPC: 0.875177 (Simulation time: 0 hr 8 min 10 sec) 
Heartbeat CPU 0 instructions: 260000000 cycles: 223460527 heartbeat IPC: 1.27311 cumulative IPC: 0.892614 (Simulation time: 0 hr 8 min 30 sec) 
Heartbeat CPU 0 instructions: 270000003 cycles: 231956629 heartbeat IPC: 1.17701 cumulative IPC: 0.905484 (Simulation time: 0 hr 8 min 50 sec) 
Heartbeat CPU 0 instructions: 280000000 cycles: 241574700 heartbeat IPC: 1.03971 cumulative IPC: 0.912025 (Simulation time: 0 hr 9 min 12 sec) 
Heartbeat CPU 0 instructions: 290000000 cycles: 250912018 heartbeat IPC: 1.07097 cumulative IPC: 0.919206 (Simulation time: 0 hr 9 min 33 sec) 
Heartbeat CPU 0 instructions: 300000000 cycles: 260110267 heartbeat IPC: 1.08716 cumulative IPC: 0.926361 (Simulation time: 0 hr 9 min 54 sec) 
Heartbeat CPU 0 instructions: 310000000 cycles: 269342091 heartbeat IPC: 1.08321 cumulative IPC: 0.932793 (Simulation time: 0 hr 10 min 16 sec) 
Heartbeat CPU 0 instructions: 320000000 cycles: 278512402 heartbeat IPC: 1.09048 cumulative IPC: 0.938965 (Simulation time: 0 hr 10 min 38 sec) 
Heartbeat CPU 0 instructions: 330000002 cycles: 287650582 heartbeat IPC: 1.09431 cumulative IPC: 0.944796 (Simulation time: 0 hr 10 min 59 sec) 
Heartbeat CPU 0 instructions: 340000000 cycles: 298037608 heartbeat IPC: 0.962739 cumulative IPC: 0.94553 (Simulation time: 0 hr 11 min 22 sec) 
Heartbeat CPU 0 instructions: 350000001 cycles: 307041636 heartbeat IPC: 1.11061 cumulative IPC: 0.951186 (Simulation time: 0 hr 11 min 43 sec) 
Heartbeat CPU 0 instructions: 360000000 cycles: 315978504 heartbeat IPC: 1.11896 cumulative IPC: 0.956703 (Simulation time: 0 hr 12 min 5 sec) 
Heartbeat CPU 0 instructions: 370000001 cycles: 324867813 heartbeat IPC: 1.12495 cumulative IPC: 0.962032 (Simulation time: 0 hr 12 min 26 sec) 
Heartbeat CPU 0 instructions: 380000000 cycles: 333643751 heartbeat IPC: 1.13948 cumulative IPC: 0.967412 (Simulation time: 0 hr 12 min 46 sec) 
Heartbeat CPU 0 instructions: 390000001 cycles: 342195313 heartbeat IPC: 1.16938 cumulative IPC: 0.973208 (Simulation time: 0 hr 13 min 7 sec) 
Heartbeat CPU 0 instructions: 400000000 cycles: 350788715 heartbeat IPC: 1.16368 cumulative IPC: 0.978547 (Simulation time: 0 hr 13 min 28 sec) 
Heartbeat CPU 0 instructions: 410000003 cycles: 359269978 heartbeat IPC: 1.17907 cumulative IPC: 0.983945 (Simulation time: 0 hr 13 min 48 sec) 
Heartbeat CPU 0 instructions: 420000000 cycles: 367809216 heartbeat IPC: 1.17106 cumulative IPC: 0.988883 (Simulation time: 0 hr 14 min 9 sec) 
Heartbeat CPU 0 instructions: 430000001 cycles: 376235794 heartbeat IPC: 1.18672 cumulative IPC: 0.993904 (Simulation time: 0 hr 14 min 30 sec) 
Heartbeat CPU 0 instructions: 440000000 cycles: 384583928 heartbeat IPC: 1.19787 cumulative IPC: 0.998907 (Simulation time: 0 hr 14 min 50 sec) 
Heartbeat CPU 0 instructions: 450000001 cycles: 394213362 heartbeat IPC: 1.03848 cumulative IPC: 0.999996 (Simulation time: 0 hr 15 min 12 sec) 
Heartbeat CPU 0 instructions: 460000000 cycles: 402574628 heartbeat IPC: 1.19599 cumulative IPC: 1.00457 (Simulation time: 0 hr 15 min 33 sec) 
Heartbeat CPU 0 instructions: 470000003 cycles: 410791792 heartbeat IPC: 1.21697 cumulative IPC: 1.00933 (Simulation time: 0 hr 15 min 53 sec) 
Heartbeat CPU 0 instructions: 480000000 cycles: 419033021 heartbeat IPC: 1.21341 cumulative IPC: 1.01382 (Simulation time: 0 hr 16 min 14 sec) 
Heartbeat CPU 0 instructions: 490000000 cycles: 427235797 heartbeat IPC: 1.2191 cumulative IPC: 1.01821 (Simulation time: 0 hr 16 min 34 sec) 
Heartbeat CPU 0 instructions: 500000000 cycles: 435433803 heartbeat IPC: 1.21981 cumulative IPC: 1.02244 (Simulation time: 0 hr 16 min 54 sec) 
Heartbeat CPU 0 instructions: 510000001 cycles: 443579639 heartbeat IPC: 1.22762 cumulative IPC: 1.02662 (Simulation time: 0 hr 17 min 15 sec) 
Heartbeat CPU 0 instructions: 520000000 cycles: 451758322 heartbeat IPC: 1.22269 cumulative IPC: 1.03056 (Simulation time: 0 hr 17 min 35 sec) 
Heartbeat CPU 0 instructions: 530000001 cycles: 459924456 heartbeat IPC: 1.22457 cumulative IPC: 1.03437 (Simulation time: 0 hr 17 min 55 sec) 
Heartbeat CPU 0 instructions: 540000000 cycles: 468270012 heartbeat IPC: 1.19824 cumulative IPC: 1.03759 (Simulation time: 0 hr 18 min 16 sec) 
Heartbeat CPU 0 instructions: 550000001 cycles: 476644137 heartbeat IPC: 1.19415 cumulative IPC: 1.04063 (Simulation time: 0 hr 18 min 36 sec) 
Heartbeat CPU 0 instructions: 560000000 cycles: 484787016 heartbeat IPC: 1.22807 cumulative IPC: 1.04409 (Simulation time: 0 hr 18 min 56 sec) 
Heartbeat CPU 0 instructions: 570000001 cycles: 495956780 heartbeat IPC: 0.895274 cumulative IPC: 1.04041 (Simulation time: 0 hr 19 min 19 sec) 
Heartbeat CPU 0 instructions: 580000000 cycles: 506717297 heartbeat IPC: 0.929323 cumulative IPC: 1.03783 (Simulation time: 0 hr 19 min 41 sec) 
Heartbeat CPU 0 instructions: 590000001 cycles: 517666172 heartbeat IPC: 0.913336 cumulative IPC: 1.03495 (Simulation time: 0 hr 20 min 3 sec) 
Heartbeat CPU 0 instructions: 600000000 cycles: 528266109 heartbeat IPC: 0.943402 cumulative IPC: 1.03294 (Simulation time: 0 hr 20 min 25 sec) 
Finished CPU 0 instructions: 500000001 cycles: 484054334 cumulative IPC: 1.03294 (Simulation time: 0 hr 20 min 25 sec) 

CPU 0 Branch Prediction Accuracy: 99.7422% MPKI: 0.173296
Number of Branches: 33608403 Number of Mispredictions: 86648
Number of LOAD Instructions: 180215231
Number of LOAD Instructions (ROI): 180215231
Number of STORE Instructions: 36067263
Number of STORE Instructions (ROI): 36067263
Total Destination Memory Operands: 38428915
Total Destination Memory Operands (ROI): 38428915
Total Source Memory Operands: 180215231
Total Source Memory Operands (ROI): 180215231
Number of DEPENDED LOADS: 3041528
Number of DEPENDED LOADS (ROI): 3041528
Number of SQ_ADDED: 38428892
Number of SQ_ADDED (ROI): 38428892
Number of LQ_ADDED: 207785154
Number of LQ_ADDED (ROI): 207785154
Number of Instructions read from trace: 600000257

ChampSim completed all CPUs

Region of Interest Statistics

CPU 0 cumulative IPC: 1.03294 instructions: 500000001 cycles: 484054334
ITLB TOTAL     ACCESS:   91934543  HIT:   91934524  MISS:         19
ITLB LOAD      ACCESS:   91934543  HIT:   91934524  MISS:         19
ITLB RFO       ACCESS:          0  HIT:          0  MISS:          0
ITLB PREFETCH  ACCESS:          0  HIT:          0  MISS:          0
ITLB WRITEBACK ACCESS:          0  HIT:          0  MISS:          0
ITLB PREFETCH  REQUESTED:          0  ISSUED:          0  USEFUL:          0  USELESS:          0
ITLB TOTAL MSHR MERGED:         40
ITLB LOAD MSHR MERGED:         40
ITLB RFO MSHR MERGED:          0
ITLB PREFETCH MSHR MERGED:          0
ITLB WRITEBACK MSHR MERGED:          0
ITLB TOTAL ACCESSES:   91934583 HITS:   91934524 MISSES:         59
ITLB LOAD ACCESSES:   91934583 HITS:   91934524 MISSES:         59
ITLB RFO ACCESSES:          0 HITS:          0 MISSES:          0
ITLB PREFETCH ACCESSES:          0 HITS:          0 MISSES:          0
ITLB WRITEBACK ACCESSES:          0 HITS:          0 MISSES:          0
ITLB RQ ACCESS:  500000003
ITLB RQ TO_CACHE:   91934583
ITLB RQ MERGED:  408065420
ITLB RQ FORWARD:          0
ITLB WQ ACCESS:          0
ITLB WQ TO_CACHE:          0
ITLB WQ MERGED:          0
ITLB WQ FORWARD:          0
DTLB TOTAL     ACCESS:  142039150  HIT:  141672689  MISS:     366461
DTLB LOAD      ACCESS:  119400893  HIT:  119087308  MISS:     313585
DTLB RFO       ACCESS:   22638257  HIT:   22585381  MISS:      52876
DTLB PREFETCH  ACCESS:          0  HIT:          0  MISS:          0
DTLB WRITEBACK ACCESS:          0  HIT:          0  MISS:          0
DTLB PREFETCH  REQUESTED:          0  ISSUED:          0  USEFUL:          0  USELESS:          0
DTLB TOTAL MSHR MERGED:     285723
DTLB LOAD MSHR MERGED:     238073
DTLB RFO MSHR MERGED:      47650
DTLB PREFETCH MSHR MERGED:          0
DTLB WRITEBACK MSHR MERGED:          0
DTLB TOTAL ACCESSES:  142324873 HITS:  141672689 MISSES:     652184
DTLB LOAD ACCESSES:  119638966 HITS:  119087308 MISSES:     551658
DTLB RFO ACCESSES:   22685907 HITS:   22585381 MISSES:     100526
DTLB PREFETCH ACCESSES:          0 HITS:          0 MISSES:          0
DTLB WRITEBACK ACCESSES:          0 HITS:          0 MISSES:          0
DTLB RQ ACCESS:  184791449
DTLB RQ TO_CACHE:  142324873
DTLB RQ MERGED:   42466576
DTLB RQ FORWARD:          0
DTLB WQ ACCESS:          0
DTLB WQ TO_CACHE:          0
DTLB WQ MERGED:          0
DTLB WQ FORWARD:          0
L1D TOTAL     ACCESS:  189106166  HIT:  175658111  MISS:   13448055
L1D LOAD      ACCESS:  111825178  HIT:  108464284  MISS:    3360894
L1D RFO       ACCESS:   18685403  HIT:   15903648  MISS:    2781755
L1D PREFETCH  ACCESS:   58595585  HIT:   51290179  MISS:    7305406
L1D WRITEBACK ACCESS:          0  HIT:          0  MISS:          0
L1D PREFETCH  REQUESTED:  116508588  ISSUED:  115148058  USEFUL:    7095911  USELESS:     209495
L1D TOTAL MSHR MERGED:   32645009
L1D LOAD MSHR MERGED:    7488083
L1D RFO MSHR MERGED:    9567312
L1D PREFETCH MSHR MERGED:   15589614
L1D WRITEBACK MSHR MERGED:          0
L1D TOTAL ACCESSES:  221751582 HITS:  175658517 MISSES:   46093065
L1D LOAD ACCESSES:  116508637 HITS:  108464333 MISSES:    8044304
L1D RFO ACCESSES:   28252663 HITS:   15903648 MISSES:   12349015
L1D PREFETCH ACCESSES:   76990282 HITS:   51290536 MISSES:   25699746
L1D WRITEBACK ACCESSES:          0 HITS:          0 MISSES:          0
L1D RQ ACCESS:  156535383
L1D RQ TO_CACHE:  116508591
L1D RQ MERGED:   40026743
L1D RQ FORWARD:          0
L1D WQ ACCESS:   28256066
L1D WQ TO_CACHE:   28252663
L1D WQ MERGED:       3403
L1D WQ FORWARD:        406
L1I TOTAL     ACCESS:  115916868  HIT:  115915920  MISS:        948
L1I LOAD      ACCESS:  115916868  HIT:  115915920  MISS:        948
L1I RFO       ACCESS:          0  HIT:          0  MISS:          0
L1I PREFETCH  ACCESS:          0  HIT:          0  MISS:          0
L1I WRITEBACK ACCESS:          0  HIT:          0  MISS:          0
L1I PREFETCH  REQUESTED:          0  ISSUED:          0  USEFUL:          0  USELESS:          0
L1I TOTAL MSHR MERGED:       1589
L1I LOAD MSHR MERGED:       1589
L1I RFO MSHR MERGED:          0
L1I PREFETCH MSHR MERGED:          0
L1I WRITEBACK MSHR MERGED:          0
L1I TOTAL ACCESSES:  115918457 HITS:  115915920 MISSES:       2537
L1I LOAD ACCESSES:  115918457 HITS:  115915920 MISSES:       2537
L1I RFO ACCESSES:          0 HITS:          0 MISSES:          0
L1I PREFETCH ACCESSES:          0 HITS:          0 MISSES:          0
L1I WRITEBACK ACCESSES:          0 HITS:          0 MISSES:          0
L1I RQ ACCESS:  500000007
L1I RQ TO_CACHE:  115918457
L1I RQ MERGED:  384081550
L1I RQ FORWARD:          0
L1I WQ ACCESS:          0
L1I WQ TO_CACHE:          0
L1I WQ MERGED:          0
L1I WQ FORWARD:          0
L2C TOTAL     ACCESS:   16693724  HIT:    4849112  MISS:   11844612
L2C LOAD      ACCESS:     557138  HIT:      95347  MISS:     461791
L2C RFO       ACCESS:    2781703  HIT:     266669  MISS:    2515034
L2C PREFETCH  ACCESS:   10134256  HIT:    1268740  MISS:    8865516
L2C WRITEBACK ACCESS:    3220627  HIT:    3218356  MISS:       2271
L2C PREFETCH  REQUESTED:      26040  ISSUED:      26040  USEFUL:      92972  USELESS:    8770599
L2C TOTAL MSHR MERGED:        444
L2C LOAD MSHR MERGED:          5
L2C RFO MSHR MERGED:          0
L2C PREFETCH MSHR MERGED:        439
L2C WRITEBACK MSHR MERGED:          0
L2C TOTAL ACCESSES:   16694307 HITS:    4849163 MISSES:   11845144
L2C LOAD ACCESSES:     557169 HITS:      95378 MISSES:     461791
L2C RFO ACCESSES:    2781703 HITS:     266669 MISSES:    2515034
L2C PREFETCH ACCESSES:   10134808 HITS:    1268760 MISSES:    8866048
L2C WRITEBACK ACCESSES:    3220627 HITS:    3218356 MISSES:       2271
L2C RQ ACCESS:    3338872
L2C RQ TO_CACHE:    3338841
L2C RQ MERGED:          0
L2C RQ FORWARD:          0
L2C WQ ACCESS:    3220627
L2C WQ TO_CACHE:    3220627
L2C WQ MERGED:          0
L2C WQ FORWARD:         51
LLC TOTAL     ACCESS:   14742735  HIT:    6985814  MISS:    7756921
LLC LOAD      ACCESS:     461783  HIT:     182717  MISS:     279066
LLC RFO       ACCESS:    2515019  HIT:    1783890  MISS:     731129
LLC PREFETCH  ACCESS:    8865546  HIT:    2932988  MISS:    5932558
LLC WRITEBACK ACCESS:    2900387  HIT:    2086219  MISS:     814168
LLC PREFETCH  REQUESTED:          0  ISSUED:          0  USEFUL:       2809  USELESS:    5929544
LLC TOTAL MSHR MERGED:          4
LLC LOAD MSHR MERGED:          0
LLC RFO MSHR MERGED:          0
LLC PREFETCH MSHR MERGED:          4
LLC WRITEBACK MSHR MERGED:          0
LLC TOTAL ACCESSES:   14742809 HITS:    6985883 MISSES:    7756926
LLC LOAD ACCESSES:     461786 HITS:     182720 MISSES:     279066
LLC RFO ACCESSES:    2515034 HITS:    1783905 MISSES:     731129
LLC PREFETCH ACCESSES:    8865602 HITS:    2933039 MISSES:    5932563
LLC WRITEBACK ACCESSES:    2900387 HITS:    2086219 MISSES:     814168
LLC 0 RQ ACCESS:    2976820
LLC 0 RQ TO_CACHE:    2976802
LLC 0 RQ MERGED:          0
LLC 0 RQ FORWARD:          0
LLC WQ ACCESS:    2900387
LLC WQ TO_CACHE:    2900387
LLC WQ MERGED:          0
LLC WQ FORWARD:         69
Major fault: 0 Minor fault: 57518
CPU 0 L1D next line prefetcher final stats
CPU 0 L2C PC-based stride prefetcher final stats
All Misses: 8362501
All Hits: 7876415
SD Algo Stats - Switches: 0 SRR-Repls: 285577 BRR-Repls: 0

DRAM Statistics
 CHANNEL 0
 RQ ROW_BUFFER_HIT:    3835405  ROW_BUFFER_MISS:    3105151
 DBUS_CONGESTED:    3248109
 WQ ROW_BUFFER_HIT:     152433  ROW_BUFFER_MISS:     853358  FULL:          0

 AVG_CONGESTED_CYCLE: 12
LOADS RETIRED: 157818985
INSTR RETIRED: 500000000
