
*** ChampSim Multicore Out-of-Order Simulator ***

Warmup Instructions: 100000000
Simulation Instructions: 500000000
Number of CPUs: 1
LLC sets: 2048
LLC ways: 16
Clean RRIP Policies: 1113230211132302 Dirty RRIP Policies: 1103130211031302 PSEL Width: 10 Track Set: 4294967295 PSEL Mask: 1 Demote Mask: 3430043034300430DS Algo: 0Window size: 0
Off-chip DRAM Size: 4096 MB Channels: 1 Width: 64-bit Data Rate: 1600 MT/s

CPU 0 runs /mnt/beegfs/iconst01/spec2017/Omnetpp.trace.gz
NOT SORTED
TRACE STRING: /mnt/beegfs/iconst01/spec2017/Omnetpp.trace.gz
SORTED
TRACE STRING: /mnt/beegfs/iconst01/spec2017/Omnetpp.trace.gz
INITIAL
TRACE STRING: /mnt/beegfs/iconst01/spec2017/Omnetpp.trace.gz

champsim_seed used: 739

CPU 0 L1D next line prefetcher
CPU 0 L2C IP-based stride prefetcher
Initialize DRRIP state
Assign rand_sets[0]: 454  LLC: 2048
rand_sets[0]: 454
Assign rand_sets[1]: 1662  LLC: 2048
rand_sets[1]: 1662
Assign rand_sets[2]: 1921  LLC: 2048
rand_sets[2]: 1921
Assign rand_sets[3]: 1131  LLC: 2048
rand_sets[3]: 1131
Assign rand_sets[4]: 331  LLC: 2048
rand_sets[4]: 331
Assign rand_sets[5]: 1531  LLC: 2048
rand_sets[5]: 1531
Assign rand_sets[6]: 482  LLC: 2048
rand_sets[6]: 482
Assign rand_sets[7]: 1275  LLC: 2048
rand_sets[7]: 1275
Assign rand_sets[8]: 1876  LLC: 2048
rand_sets[8]: 1876
Assign rand_sets[9]: 2038  LLC: 2048
rand_sets[9]: 2038
Assign rand_sets[10]: 701  LLC: 2048
rand_sets[10]: 701
Assign rand_sets[11]: 479  LLC: 2048
rand_sets[11]: 479
Assign rand_sets[12]: 892  LLC: 2048
rand_sets[12]: 892
Assign rand_sets[13]: 1820  LLC: 2048
rand_sets[13]: 1820
Assign rand_sets[14]: 1505  LLC: 2048
rand_sets[14]: 1505
Assign rand_sets[15]: 1159  LLC: 2048
rand_sets[15]: 1159
Assign rand_sets[16]: 513  LLC: 2048
rand_sets[16]: 513
Assign rand_sets[17]: 703  LLC: 2048
rand_sets[17]: 703
Assign rand_sets[18]: 561  LLC: 2048
rand_sets[18]: 561
Assign rand_sets[19]: 990  LLC: 2048
rand_sets[19]: 990
Assign rand_sets[20]: 342  LLC: 2048
rand_sets[20]: 342
Assign rand_sets[21]: 882  LLC: 2048
rand_sets[21]: 882
Assign rand_sets[22]: 15  LLC: 2048
rand_sets[22]: 15
Assign rand_sets[23]: 71  LLC: 2048
rand_sets[23]: 71
Assign rand_sets[24]: 1127  LLC: 2048
rand_sets[24]: 1127
Assign rand_sets[25]: 1382  LLC: 2048
rand_sets[25]: 1382
Assign rand_sets[26]: 647  LLC: 2048
rand_sets[26]: 647
Assign rand_sets[27]: 857  LLC: 2048
rand_sets[27]: 857
Assign rand_sets[28]: 1450  LLC: 2048
rand_sets[28]: 1450
Assign rand_sets[29]: 1160  LLC: 2048
rand_sets[29]: 1160
Assign rand_sets[30]: 1852  LLC: 2048
rand_sets[30]: 1852
Assign rand_sets[31]: 1881  LLC: 2048
rand_sets[31]: 1881
Assign rand_sets[32]: 1770  LLC: 2048
rand_sets[32]: 1770
Assign rand_sets[33]: 1622  LLC: 2048
rand_sets[33]: 1622
Assign rand_sets[34]: 275  LLC: 2048
rand_sets[34]: 275
Assign rand_sets[35]: 635  LLC: 2048
rand_sets[35]: 635
Assign rand_sets[36]: 466  LLC: 2048
rand_sets[36]: 466
Assign rand_sets[37]: 1413  LLC: 2048
rand_sets[37]: 1413
Assign rand_sets[38]: 417  LLC: 2048
rand_sets[38]: 417
Assign rand_sets[39]: 472  LLC: 2048
rand_sets[39]: 472
Assign rand_sets[40]: 1340  LLC: 2048
rand_sets[40]: 1340
Assign rand_sets[41]: 852  LLC: 2048
rand_sets[41]: 852
Assign rand_sets[42]: 1365  LLC: 2048
rand_sets[42]: 1365
Assign rand_sets[43]: 47  LLC: 2048
rand_sets[43]: 47
Assign rand_sets[44]: 823  LLC: 2048
rand_sets[44]: 823
Assign rand_sets[45]: 686  LLC: 2048
rand_sets[45]: 686
Assign rand_sets[46]: 1637  LLC: 2048
rand_sets[46]: 1637
Assign rand_sets[47]: 1115  LLC: 2048
rand_sets[47]: 1115
Assign rand_sets[48]: 986  LLC: 2048
rand_sets[48]: 986
Assign rand_sets[49]: 258  LLC: 2048
rand_sets[49]: 258
Assign rand_sets[50]: 633  LLC: 2048
rand_sets[50]: 633
Assign rand_sets[51]: 920  LLC: 2048
rand_sets[51]: 920
Assign rand_sets[52]: 204  LLC: 2048
rand_sets[52]: 204
Assign rand_sets[53]: 227  LLC: 2048
rand_sets[53]: 227
Assign rand_sets[54]: 1818  LLC: 2048
rand_sets[54]: 1818
Assign rand_sets[55]: 886  LLC: 2048
rand_sets[55]: 886
Assign rand_sets[56]: 1422  LLC: 2048
rand_sets[56]: 1422
Assign rand_sets[57]: 607  LLC: 2048
rand_sets[57]: 607
Assign rand_sets[58]: 217  LLC: 2048
rand_sets[58]: 217
Assign rand_sets[59]: 1945  LLC: 2048
rand_sets[59]: 1945
Assign rand_sets[60]: 143  LLC: 2048
rand_sets[60]: 143
Assign rand_sets[61]: 1311  LLC: 2048
rand_sets[61]: 1311
Assign rand_sets[62]: 319  LLC: 2048
rand_sets[62]: 319
Assign rand_sets[63]: 1846  LLC: 2048
rand_sets[63]: 1846
 CLEAN-RRIP-POLICY-1: 1-1-1-3-2-3-0-2- CLEAN-RRIP-POLICY-2: 1-1-1-3-2-3-0-2-
 DIRTY-RRIP-POLICY-1: 1-1-0-3-1-3-0-2- DIRTY-RRIP-POLICY-2: 1-1-0-3-1-3-0-2-
 PSEL width: 10
Heartbeat CPU 0 instructions: 10000000 cycles: 7319986 heartbeat IPC: 1.36612 cumulative IPC: 1.36612 (Simulation time: 0 hr 0 min 19 sec) 
Heartbeat CPU 0 instructions: 20000000 cycles: 14623768 heartbeat IPC: 1.36915 cumulative IPC: 1.36764 (Simulation time: 0 hr 0 min 39 sec) 
Heartbeat CPU 0 instructions: 30000003 cycles: 21925171 heartbeat IPC: 1.3696 cumulative IPC: 1.36829 (Simulation time: 0 hr 0 min 58 sec) 
Heartbeat CPU 0 instructions: 40000000 cycles: 29213513 heartbeat IPC: 1.37205 cumulative IPC: 1.36923 (Simulation time: 0 hr 1 min 18 sec) 
Heartbeat CPU 0 instructions: 50000000 cycles: 36489945 heartbeat IPC: 1.3743 cumulative IPC: 1.37024 (Simulation time: 0 hr 1 min 38 sec) 
Heartbeat CPU 0 instructions: 60000000 cycles: 43769978 heartbeat IPC: 1.37362 cumulative IPC: 1.3708 (Simulation time: 0 hr 1 min 57 sec) 
Heartbeat CPU 0 instructions: 70000001 cycles: 51055365 heartbeat IPC: 1.37261 cumulative IPC: 1.37106 (Simulation time: 0 hr 2 min 17 sec) 
Heartbeat CPU 0 instructions: 80000000 cycles: 58330467 heartbeat IPC: 1.37455 cumulative IPC: 1.3715 (Simulation time: 0 hr 2 min 37 sec) 
Heartbeat CPU 0 instructions: 90000000 cycles: 65636894 heartbeat IPC: 1.36866 cumulative IPC: 1.37118 (Simulation time: 0 hr 2 min 56 sec) 
Heartbeat CPU 0 instructions: 100000000 cycles: 72929028 heartbeat IPC: 1.37134 cumulative IPC: 1.3712 (Simulation time: 0 hr 3 min 16 sec) 

Warmup complete CPU 0 instructions: 100000002 cycles: 72929029 (Simulation time: 0 hr 3 min 16 sec) 

Heartbeat CPU 0 instructions: 110000002 cycles: 113405583 heartbeat IPC: 0.247057 cumulative IPC: 0.247057 (Simulation time: 0 hr 3 min 55 sec) 
Heartbeat CPU 0 instructions: 120000000 cycles: 153603801 heartbeat IPC: 0.248767 cumulative IPC: 0.247909 (Simulation time: 0 hr 4 min 35 sec) 
Heartbeat CPU 0 instructions: 130000002 cycles: 194017875 heartbeat IPC: 0.247439 cumulative IPC: 0.247752 (Simulation time: 0 hr 5 min 14 sec) 
Heartbeat CPU 0 instructions: 140000000 cycles: 234545312 heartbeat IPC: 0.246746 cumulative IPC: 0.2475 (Simulation time: 0 hr 5 min 54 sec) 
Heartbeat CPU 0 instructions: 150000002 cycles: 274635051 heartbeat IPC: 0.24944 cumulative IPC: 0.247886 (Simulation time: 0 hr 6 min 33 sec) 
Heartbeat CPU 0 instructions: 160000000 cycles: 314747868 heartbeat IPC: 0.249297 cumulative IPC: 0.24812 (Simulation time: 0 hr 7 min 12 sec) 
Heartbeat CPU 0 instructions: 170000001 cycles: 354130879 heartbeat IPC: 0.253917 cumulative IPC: 0.248931 (Simulation time: 0 hr 7 min 51 sec) 
Heartbeat CPU 0 instructions: 180000000 cycles: 394233058 heartbeat IPC: 0.249363 cumulative IPC: 0.248985 (Simulation time: 0 hr 8 min 30 sec) 
Heartbeat CPU 0 instructions: 190000002 cycles: 434321037 heartbeat IPC: 0.249451 cumulative IPC: 0.249037 (Simulation time: 0 hr 9 min 9 sec) 
Heartbeat CPU 0 instructions: 200000000 cycles: 475616411 heartbeat IPC: 0.242158 cumulative IPC: 0.248332 (Simulation time: 0 hr 9 min 49 sec) 
Heartbeat CPU 0 instructions: 210000003 cycles: 515758826 heartbeat IPC: 0.249113 cumulative IPC: 0.248402 (Simulation time: 0 hr 10 min 29 sec) 
Heartbeat CPU 0 instructions: 220000000 cycles: 556134225 heartbeat IPC: 0.247675 cumulative IPC: 0.248342 (Simulation time: 0 hr 11 min 8 sec) 
Heartbeat CPU 0 instructions: 230000000 cycles: 596443596 heartbeat IPC: 0.248081 cumulative IPC: 0.248322 (Simulation time: 0 hr 11 min 47 sec) 
Heartbeat CPU 0 instructions: 240000000 cycles: 636517018 heartbeat IPC: 0.249542 cumulative IPC: 0.248408 (Simulation time: 0 hr 12 min 26 sec) 
Heartbeat CPU 0 instructions: 250000000 cycles: 676633314 heartbeat IPC: 0.249275 cumulative IPC: 0.248466 (Simulation time: 0 hr 13 min 5 sec) 
Heartbeat CPU 0 instructions: 260000000 cycles: 716834078 heartbeat IPC: 0.248751 cumulative IPC: 0.248484 (Simulation time: 0 hr 13 min 44 sec) 
Heartbeat CPU 0 instructions: 270000000 cycles: 757132194 heartbeat IPC: 0.248151 cumulative IPC: 0.248464 (Simulation time: 0 hr 14 min 23 sec) 
Heartbeat CPU 0 instructions: 280000000 cycles: 797775719 heartbeat IPC: 0.246042 cumulative IPC: 0.248328 (Simulation time: 0 hr 15 min 3 sec) 
Heartbeat CPU 0 instructions: 290000001 cycles: 837644894 heartbeat IPC: 0.25082 cumulative IPC: 0.248458 (Simulation time: 0 hr 15 min 41 sec) 
Heartbeat CPU 0 instructions: 300000000 cycles: 878167941 heartbeat IPC: 0.246773 cumulative IPC: 0.248373 (Simulation time: 0 hr 16 min 20 sec) 
Heartbeat CPU 0 instructions: 310000000 cycles: 918617321 heartbeat IPC: 0.247223 cumulative IPC: 0.248318 (Simulation time: 0 hr 17 min 0 sec) 
Heartbeat CPU 0 instructions: 320000000 cycles: 958806606 heartbeat IPC: 0.248823 cumulative IPC: 0.248341 (Simulation time: 0 hr 17 min 39 sec) 
Heartbeat CPU 0 instructions: 330000000 cycles: 998983793 heartbeat IPC: 0.248897 cumulative IPC: 0.248365 (Simulation time: 0 hr 18 min 18 sec) 
Heartbeat CPU 0 instructions: 340000000 cycles: 1039749569 heartbeat IPC: 0.245304 cumulative IPC: 0.248236 (Simulation time: 0 hr 18 min 57 sec) 
Heartbeat CPU 0 instructions: 350000001 cycles: 1079990572 heartbeat IPC: 0.248503 cumulative IPC: 0.248247 (Simulation time: 0 hr 19 min 36 sec) 
Heartbeat CPU 0 instructions: 360000000 cycles: 1120521366 heartbeat IPC: 0.246726 cumulative IPC: 0.248188 (Simulation time: 0 hr 20 min 15 sec) 
Heartbeat CPU 0 instructions: 370000000 cycles: 1160161825 heartbeat IPC: 0.252268 cumulative IPC: 0.248337 (Simulation time: 0 hr 20 min 54 sec) 
Heartbeat CPU 0 instructions: 380000000 cycles: 1200692998 heartbeat IPC: 0.246724 cumulative IPC: 0.248279 (Simulation time: 0 hr 21 min 33 sec) 
Heartbeat CPU 0 instructions: 390000001 cycles: 1240756786 heartbeat IPC: 0.249602 cumulative IPC: 0.248324 (Simulation time: 0 hr 22 min 11 sec) 
Heartbeat CPU 0 instructions: 400000000 cycles: 1280915799 heartbeat IPC: 0.24901 cumulative IPC: 0.248347 (Simulation time: 0 hr 22 min 50 sec) 
Heartbeat CPU 0 instructions: 410000000 cycles: 1320919283 heartbeat IPC: 0.249978 cumulative IPC: 0.248399 (Simulation time: 0 hr 23 min 29 sec) 
Heartbeat CPU 0 instructions: 420000000 cycles: 1360971041 heartbeat IPC: 0.249677 cumulative IPC: 0.248439 (Simulation time: 0 hr 24 min 7 sec) 
Heartbeat CPU 0 instructions: 430000000 cycles: 1401064411 heartbeat IPC: 0.249418 cumulative IPC: 0.248469 (Simulation time: 0 hr 24 min 46 sec) 
Heartbeat CPU 0 instructions: 440000000 cycles: 1441224308 heartbeat IPC: 0.249005 cumulative IPC: 0.248484 (Simulation time: 0 hr 25 min 25 sec) 
Heartbeat CPU 0 instructions: 450000002 cycles: 1481248304 heartbeat IPC: 0.24985 cumulative IPC: 0.248523 (Simulation time: 0 hr 26 min 4 sec) 
Heartbeat CPU 0 instructions: 460000000 cycles: 1520692215 heartbeat IPC: 0.253525 cumulative IPC: 0.248659 (Simulation time: 0 hr 26 min 42 sec) 
Heartbeat CPU 0 instructions: 470000000 cycles: 1560993175 heartbeat IPC: 0.248133 cumulative IPC: 0.248645 (Simulation time: 0 hr 27 min 21 sec) 
Heartbeat CPU 0 instructions: 480000000 cycles: 1600928663 heartbeat IPC: 0.250404 cumulative IPC: 0.248691 (Simulation time: 0 hr 28 min 0 sec) 
Heartbeat CPU 0 instructions: 490000001 cycles: 1641002810 heartbeat IPC: 0.249537 cumulative IPC: 0.248713 (Simulation time: 0 hr 28 min 39 sec) 
Heartbeat CPU 0 instructions: 500000000 cycles: 1681307219 heartbeat IPC: 0.248112 cumulative IPC: 0.248698 (Simulation time: 0 hr 29 min 17 sec) 
Heartbeat CPU 0 instructions: 510000000 cycles: 1721074849 heartbeat IPC: 0.251461 cumulative IPC: 0.248764 (Simulation time: 0 hr 29 min 55 sec) 
Heartbeat CPU 0 instructions: 520000000 cycles: 1761580983 heartbeat IPC: 0.246876 cumulative IPC: 0.248719 (Simulation time: 0 hr 30 min 33 sec) 
Heartbeat CPU 0 instructions: 530000000 cycles: 1801554168 heartbeat IPC: 0.250168 cumulative IPC: 0.248753 (Simulation time: 0 hr 31 min 9 sec) 
Heartbeat CPU 0 instructions: 540000000 cycles: 1841277218 heartbeat IPC: 0.251743 cumulative IPC: 0.24882 (Simulation time: 0 hr 31 min 46 sec) 
Heartbeat CPU 0 instructions: 550000001 cycles: 1881730546 heartbeat IPC: 0.247198 cumulative IPC: 0.248784 (Simulation time: 0 hr 32 min 23 sec) 
Heartbeat CPU 0 instructions: 560000000 cycles: 1922242675 heartbeat IPC: 0.24684 cumulative IPC: 0.248741 (Simulation time: 0 hr 33 min 0 sec) 
Heartbeat CPU 0 instructions: 570000003 cycles: 1962771443 heartbeat IPC: 0.246738 cumulative IPC: 0.248698 (Simulation time: 0 hr 33 min 38 sec) 
Heartbeat CPU 0 instructions: 580000000 cycles: 2003112388 heartbeat IPC: 0.247887 cumulative IPC: 0.248681 (Simulation time: 0 hr 34 min 16 sec) 
Heartbeat CPU 0 instructions: 590000001 cycles: 2043802958 heartbeat IPC: 0.245757 cumulative IPC: 0.248621 (Simulation time: 0 hr 34 min 53 sec) 
Heartbeat CPU 0 instructions: 600000000 cycles: 2084288677 heartbeat IPC: 0.247001 cumulative IPC: 0.248588 (Simulation time: 0 hr 35 min 31 sec) 
Finished CPU 0 instructions: 500000000 cycles: 2011359656 cumulative IPC: 0.248588 (Simulation time: 0 hr 35 min 31 sec) 

CPU 0 Branch Prediction Accuracy: 96.2429% MPKI: 5.85335
Number of Branches: 77897976 Number of Mispredictions: 2926674
Number of LOAD Instructions: 193081861
Number of LOAD Instructions (ROI): 193081861
Number of STORE Instructions: 97310749
Number of STORE Instructions (ROI): 97310749
Total Destination Memory Operands: 106368027
Total Destination Memory Operands (ROI): 106368027
Total Source Memory Operands: 193081861
Total Source Memory Operands (ROI): 193081861
Number of DEPENDED LOADS: 6426463
Number of DEPENDED LOADS (ROI): 6426463
Number of SQ_ADDED: 106367982
Number of SQ_ADDED (ROI): 106367982
Number of LQ_ADDED: 428558149
Number of LQ_ADDED (ROI): 428558149
Number of Instructions read from trace: 600000256

ChampSim completed all CPUs

Region of Interest Statistics

CPU 0 cumulative IPC: 0.248588 instructions: 500000000 cycles: 2011359656
ITLB TOTAL     ACCESS:  151378865  HIT:  151363034  MISS:      15831
ITLB LOAD      ACCESS:  151378865  HIT:  151363034  MISS:      15831
ITLB RFO       ACCESS:          0  HIT:          0  MISS:          0
ITLB PREFETCH  ACCESS:          0  HIT:          0  MISS:          0
ITLB WRITEBACK ACCESS:          0  HIT:          0  MISS:          0
ITLB PREFETCH  REQUESTED:          0  ISSUED:          0  USEFUL:          0  USELESS:          0
ITLB TOTAL MSHR MERGED:      17401
ITLB LOAD MSHR MERGED:      17401
ITLB RFO MSHR MERGED:          0
ITLB PREFETCH MSHR MERGED:          0
ITLB WRITEBACK MSHR MERGED:          0
ITLB TOTAL ACCESSES:  151396266 HITS:  151363034 MISSES:      33232
ITLB LOAD ACCESSES:  151396266 HITS:  151363034 MISSES:      33232
ITLB RFO ACCESSES:          0 HITS:          0 MISSES:          0
ITLB PREFETCH ACCESSES:          0 HITS:          0 MISSES:          0
ITLB WRITEBACK ACCESSES:          0 HITS:          0 MISSES:          0
ITLB RQ ACCESS:  500000242
ITLB RQ TO_CACHE:  151396266
ITLB RQ MERGED:  348603976
ITLB RQ FORWARD:          0
ITLB WQ ACCESS:          0
ITLB WQ TO_CACHE:          0
ITLB WQ MERGED:          0
ITLB WQ FORWARD:          0
DTLB TOTAL     ACCESS:  199577099  HIT:  194198019  MISS:    5379080
DTLB LOAD      ACCESS:  123150661  HIT:  118132072  MISS:    5018589
DTLB RFO       ACCESS:   76426438  HIT:   76065947  MISS:     360491
DTLB PREFETCH  ACCESS:          0  HIT:          0  MISS:          0
DTLB WRITEBACK ACCESS:          0  HIT:          0  MISS:          0
DTLB PREFETCH  REQUESTED:          0  ISSUED:          0  USEFUL:          0  USELESS:          0
DTLB TOTAL MSHR MERGED:     917686
DTLB LOAD MSHR MERGED:     807674
DTLB RFO MSHR MERGED:     110012
DTLB PREFETCH MSHR MERGED:          0
DTLB WRITEBACK MSHR MERGED:          0
DTLB TOTAL ACCESSES:  200494785 HITS:  194198019 MISSES:    6296766
DTLB LOAD ACCESSES:  123958335 HITS:  118132072 MISSES:    5826263
DTLB RFO ACCESSES:   76536450 HITS:   76065947 MISSES:     470503
DTLB PREFETCH ACCESSES:          0 HITS:          0 MISSES:          0
DTLB WRITEBACK ACCESSES:          0 HITS:          0 MISSES:          0
DTLB RQ ACCESS:  243899398
DTLB RQ TO_CACHE:  200494785
DTLB RQ MERGED:   43404613
DTLB RQ FORWARD:          0
DTLB WQ ACCESS:          0
DTLB WQ TO_CACHE:          0
DTLB WQ MERGED:          0
DTLB WQ FORWARD:          0
L1D TOTAL     ACCESS:  335680390  HIT:  317584250  MISS:   18096140
L1D LOAD      ACCESS:  127718851  HIT:  118777828  MISS:    8941023
L1D RFO       ACCESS:   87094729  HIT:   86319453  MISS:     775276
L1D PREFETCH  ACCESS:  120866810  HIT:  112486969  MISS:    8379841
L1D WRITEBACK ACCESS:          0  HIT:          0  MISS:          0
L1D PREFETCH  REQUESTED:  128491082  ISSUED:  126893108  USEFUL:    1745600  USELESS:    6634253
L1D TOTAL MSHR MERGED:    3804519
L1D LOAD MSHR MERGED:     934136
L1D RFO MSHR MERGED:    1045761
L1D PREFETCH MSHR MERGED:    1824622
L1D WRITEBACK MSHR MERGED:          0
L1D TOTAL ACCESSES:  339571972 HITS:  317671313 MISSES:   21900659
L1D LOAD ACCESSES:  128491521 HITS:  118778267 MISSES:    9713254
L1D RFO ACCESSES:   88085640 HITS:   86319453 MISSES:    1766187
L1D PREFETCH ACCESSES:  122994811 HITS:  112573593 MISSES:   10421218
L1D WRITEBACK ACCESSES:          0 HITS:          0 MISSES:          0
L1D RQ ACCESS:  155268013
L1D RQ TO_CACHE:  128491082
L1D RQ MERGED:   26776492
L1D RQ FORWARD:          0
L1D WQ ACCESS:   88631385
L1D WQ TO_CACHE:   88085639
L1D WQ MERGED:     545746
L1D WQ FORWARD:      87063
L1I TOTAL     ACCESS:  175675858  HIT:  175409395  MISS:     266463
L1I LOAD      ACCESS:  175675858  HIT:  175409395  MISS:     266463
L1I RFO       ACCESS:          0  HIT:          0  MISS:          0
L1I PREFETCH  ACCESS:          0  HIT:          0  MISS:          0
L1I WRITEBACK ACCESS:          0  HIT:          0  MISS:          0
L1I PREFETCH  REQUESTED:          0  ISSUED:          0  USEFUL:          0  USELESS:          0
L1I TOTAL MSHR MERGED:     213124
L1I LOAD MSHR MERGED:     213124
L1I RFO MSHR MERGED:          0
L1I PREFETCH MSHR MERGED:          0
L1I WRITEBACK MSHR MERGED:          0
L1I TOTAL ACCESSES:  175888982 HITS:  175409395 MISSES:     479587
L1I LOAD ACCESSES:  175888982 HITS:  175409395 MISSES:     479587
L1I RFO ACCESSES:          0 HITS:          0 MISSES:          0
L1I PREFETCH ACCESSES:          0 HITS:          0 MISSES:          0
L1I WRITEBACK ACCESSES:          0 HITS:          0 MISSES:          0
L1I RQ ACCESS:  500000242
L1I RQ TO_CACHE:  175888982
L1I RQ MERGED:  324111260
L1I RQ FORWARD:          0
L1I WQ ACCESS:          0
L1I WQ TO_CACHE:          0
L1I WQ MERGED:          0
L1I WQ FORWARD:          0
L2C TOTAL     ACCESS:   23738702  HIT:   12112863  MISS:   11625839
L2C LOAD      ACCESS:    9044404  HIT:    3564907  MISS:    5479497
L2C RFO       ACCESS:     720368  HIT:     130135  MISS:     590233
L2C PREFETCH  ACCESS:    8613599  HIT:    3086182  MISS:    5527417
L2C WRITEBACK ACCESS:    5360331  HIT:    5331639  MISS:      28692
L2C PREFETCH  REQUESTED:      18046  ISSUED:      18046  USEFUL:     323027  USELESS:    5204565
L2C TOTAL MSHR MERGED:         24
L2C LOAD MSHR MERGED:          2
L2C RFO MSHR MERGED:          0
L2C PREFETCH MSHR MERGED:         22
L2C WRITEBACK MSHR MERGED:          0
L2C TOTAL ACCESSES:   23740520 HITS:   12114651 MISSES:   11625869
L2C LOAD ACCESSES:    9045581 HITS:    3566084 MISSES:    5479497
L2C RFO ACCESSES:     720426 HITS:     130193 MISSES:     590233
L2C PREFETCH ACCESSES:    8614182 HITS:    3086735 MISSES:    5527447
L2C WRITEBACK ACCESSES:    5360331 HITS:    5331639 MISSES:      28692
L2C RQ ACCESS:    9766007
L2C RQ TO_CACHE:    9764772
L2C RQ MERGED:          0
L2C RQ FORWARD:          0
L2C WQ ACCESS:    5360331
L2C WQ TO_CACHE:    5360331
L2C WQ MERGED:          0
L2C WQ FORWARD:       1788
LLC TOTAL     ACCESS:   15448782  HIT:    6467437  MISS:    8981345
LLC LOAD      ACCESS:    5479465  HIT:    2047843  MISS:    3431622
LLC RFO       ACCESS:     590231  HIT:     304139  MISS:     286092
LLC PREFETCH  ACCESS:    5527409  HIT:    1096821  MISS:    4430588
LLC WRITEBACK ACCESS:    3851677  HIT:    3018634  MISS:     833043
LLC PREFETCH  REQUESTED:          0  ISSUED:          0  USEFUL:      24160  USELESS:    4406994
LLC TOTAL MSHR MERGED:          0
LLC LOAD MSHR MERGED:          0
LLC RFO MSHR MERGED:          0
LLC PREFETCH MSHR MERGED:          0
LLC WRITEBACK MSHR MERGED:          0
LLC TOTAL ACCESSES:   15448830 HITS:    6467485 MISSES:    8981345
LLC LOAD ACCESSES:    5479495 HITS:    2047873 MISSES:    3431622
LLC RFO ACCESSES:     590233 HITS:     304141 MISSES:     286092
LLC PREFETCH ACCESSES:    5527425 HITS:    1096837 MISSES:    4430588
LLC WRITEBACK ACCESSES:    3851677 HITS:    3018634 MISSES:     833043
LLC 0 RQ ACCESS:    6069728
LLC 0 RQ TO_CACHE:    6069696
LLC 0 RQ MERGED:          0
LLC 0 RQ FORWARD:          0
LLC WQ ACCESS:    3851677
LLC WQ TO_CACHE:    3851677
LLC WQ MERGED:          0
LLC WQ FORWARD:         48
Major fault: 0 Minor fault: 44814
CPU 0 L1D next line prefetcher final stats
CPU 0 L2C PC-based stride prefetcher final stats
All Misses: 10868083
All Hits: 7753185
SD Algo Stats - Switches: 0 SRR-Repls: 3917372 BRR-Repls: 0

DRAM Statistics
 CHANNEL 0
 RQ ROW_BUFFER_HIT:    1454420  ROW_BUFFER_MISS:    6693197
 DBUS_CONGESTED:    5354794
 WQ ROW_BUFFER_HIT:     156272  ROW_BUFFER_MISS:    1979598  FULL:          0

 AVG_CONGESTED_CYCLE: 13
LOADS RETIRED: 160808997
INSTR RETIRED: 500000000
