
*** ChampSim Multicore Out-of-Order Simulator ***

Warmup Instructions: 100000000
Simulation Instructions: 500000000
Number of CPUs: 1
LLC sets: 2048
LLC ways: 16
Clean RRIP Policies: 2213230222132302 Dirty RRIP Policies: 2203130222031302 PSEL Width: 10 Track Set: 4294967295 PSEL Mask: 1 Demote Mask: 3044100030441000DS Algo: 0Window size: 0
Off-chip DRAM Size: 4096 MB Channels: 1 Width: 64-bit Data Rate: 1600 MT/s

CPU 0 runs /mnt/beegfs/iconst01/spec2017/Roms.trace.gz
NOT SORTED
TRACE STRING: /mnt/beegfs/iconst01/spec2017/Roms.trace.gz
SORTED
TRACE STRING: /mnt/beegfs/iconst01/spec2017/Roms.trace.gz
INITIAL
TRACE STRING: /mnt/beegfs/iconst01/spec2017/Roms.trace.gz

champsim_seed used: 417

CPU 0 L1D next line prefetcher
CPU 0 L2C IP-based stride prefetcher
Initialize DRRIP state
Assign rand_sets[0]: 454  LLC: 2048
rand_sets[0]: 454
Assign rand_sets[1]: 1662  LLC: 2048
rand_sets[1]: 1662
Assign rand_sets[2]: 1921  LLC: 2048
rand_sets[2]: 1921
Assign rand_sets[3]: 1131  LLC: 2048
rand_sets[3]: 1131
Assign rand_sets[4]: 331  LLC: 2048
rand_sets[4]: 331
Assign rand_sets[5]: 1531  LLC: 2048
rand_sets[5]: 1531
Assign rand_sets[6]: 482  LLC: 2048
rand_sets[6]: 482
Assign rand_sets[7]: 1275  LLC: 2048
rand_sets[7]: 1275
Assign rand_sets[8]: 1876  LLC: 2048
rand_sets[8]: 1876
Assign rand_sets[9]: 2038  LLC: 2048
rand_sets[9]: 2038
Assign rand_sets[10]: 701  LLC: 2048
rand_sets[10]: 701
Assign rand_sets[11]: 479  LLC: 2048
rand_sets[11]: 479
Assign rand_sets[12]: 892  LLC: 2048
rand_sets[12]: 892
Assign rand_sets[13]: 1820  LLC: 2048
rand_sets[13]: 1820
Assign rand_sets[14]: 1505  LLC: 2048
rand_sets[14]: 1505
Assign rand_sets[15]: 1159  LLC: 2048
rand_sets[15]: 1159
Assign rand_sets[16]: 513  LLC: 2048
rand_sets[16]: 513
Assign rand_sets[17]: 703  LLC: 2048
rand_sets[17]: 703
Assign rand_sets[18]: 561  LLC: 2048
rand_sets[18]: 561
Assign rand_sets[19]: 990  LLC: 2048
rand_sets[19]: 990
Assign rand_sets[20]: 342  LLC: 2048
rand_sets[20]: 342
Assign rand_sets[21]: 882  LLC: 2048
rand_sets[21]: 882
Assign rand_sets[22]: 15  LLC: 2048
rand_sets[22]: 15
Assign rand_sets[23]: 71  LLC: 2048
rand_sets[23]: 71
Assign rand_sets[24]: 1127  LLC: 2048
rand_sets[24]: 1127
Assign rand_sets[25]: 1382  LLC: 2048
rand_sets[25]: 1382
Assign rand_sets[26]: 647  LLC: 2048
rand_sets[26]: 647
Assign rand_sets[27]: 857  LLC: 2048
rand_sets[27]: 857
Assign rand_sets[28]: 1450  LLC: 2048
rand_sets[28]: 1450
Assign rand_sets[29]: 1160  LLC: 2048
rand_sets[29]: 1160
Assign rand_sets[30]: 1852  LLC: 2048
rand_sets[30]: 1852
Assign rand_sets[31]: 1881  LLC: 2048
rand_sets[31]: 1881
Assign rand_sets[32]: 1770  LLC: 2048
rand_sets[32]: 1770
Assign rand_sets[33]: 1622  LLC: 2048
rand_sets[33]: 1622
Assign rand_sets[34]: 275  LLC: 2048
rand_sets[34]: 275
Assign rand_sets[35]: 635  LLC: 2048
rand_sets[35]: 635
Assign rand_sets[36]: 466  LLC: 2048
rand_sets[36]: 466
Assign rand_sets[37]: 1413  LLC: 2048
rand_sets[37]: 1413
Assign rand_sets[38]: 417  LLC: 2048
rand_sets[38]: 417
Assign rand_sets[39]: 472  LLC: 2048
rand_sets[39]: 472
Assign rand_sets[40]: 1340  LLC: 2048
rand_sets[40]: 1340
Assign rand_sets[41]: 852  LLC: 2048
rand_sets[41]: 852
Assign rand_sets[42]: 1365  LLC: 2048
rand_sets[42]: 1365
Assign rand_sets[43]: 47  LLC: 2048
rand_sets[43]: 47
Assign rand_sets[44]: 823  LLC: 2048
rand_sets[44]: 823
Assign rand_sets[45]: 686  LLC: 2048
rand_sets[45]: 686
Assign rand_sets[46]: 1637  LLC: 2048
rand_sets[46]: 1637
Assign rand_sets[47]: 1115  LLC: 2048
rand_sets[47]: 1115
Assign rand_sets[48]: 986  LLC: 2048
rand_sets[48]: 986
Assign rand_sets[49]: 258  LLC: 2048
rand_sets[49]: 258
Assign rand_sets[50]: 633  LLC: 2048
rand_sets[50]: 633
Assign rand_sets[51]: 920  LLC: 2048
rand_sets[51]: 920
Assign rand_sets[52]: 204  LLC: 2048
rand_sets[52]: 204
Assign rand_sets[53]: 227  LLC: 2048
rand_sets[53]: 227
Assign rand_sets[54]: 1818  LLC: 2048
rand_sets[54]: 1818
Assign rand_sets[55]: 886  LLC: 2048
rand_sets[55]: 886
Assign rand_sets[56]: 1422  LLC: 2048
rand_sets[56]: 1422
Assign rand_sets[57]: 607  LLC: 2048
rand_sets[57]: 607
Assign rand_sets[58]: 217  LLC: 2048
rand_sets[58]: 217
Assign rand_sets[59]: 1945  LLC: 2048
rand_sets[59]: 1945
Assign rand_sets[60]: 143  LLC: 2048
rand_sets[60]: 143
Assign rand_sets[61]: 1311  LLC: 2048
rand_sets[61]: 1311
Assign rand_sets[62]: 319  LLC: 2048
rand_sets[62]: 319
Assign rand_sets[63]: 1846  LLC: 2048
rand_sets[63]: 1846
 CLEAN-RRIP-POLICY-1: 2-2-1-3-2-3-0-2- CLEAN-RRIP-POLICY-2: 2-2-1-3-2-3-0-2-
 DIRTY-RRIP-POLICY-1: 2-2-0-3-1-3-0-2- DIRTY-RRIP-POLICY-2: 2-2-0-3-1-3-0-2-
 PSEL width: 10
Heartbeat CPU 0 instructions: 10000000 cycles: 4688066 heartbeat IPC: 2.13308 cumulative IPC: 2.13308 (Simulation time: 0 hr 0 min 17 sec) 
Heartbeat CPU 0 instructions: 20000000 cycles: 9325334 heartbeat IPC: 2.15644 cumulative IPC: 2.1447 (Simulation time: 0 hr 0 min 33 sec) 
Heartbeat CPU 0 instructions: 30000003 cycles: 14019725 heartbeat IPC: 2.1302 cumulative IPC: 2.13984 (Simulation time: 0 hr 0 min 50 sec) 
Heartbeat CPU 0 instructions: 40000000 cycles: 18670142 heartbeat IPC: 2.15034 cumulative IPC: 2.14246 (Simulation time: 0 hr 1 min 7 sec) 
Heartbeat CPU 0 instructions: 50000003 cycles: 23323503 heartbeat IPC: 2.14898 cumulative IPC: 2.14376 (Simulation time: 0 hr 1 min 23 sec) 
Heartbeat CPU 0 instructions: 60000000 cycles: 27976150 heartbeat IPC: 2.14931 cumulative IPC: 2.14468 (Simulation time: 0 hr 1 min 40 sec) 
Heartbeat CPU 0 instructions: 70000002 cycles: 32367358 heartbeat IPC: 2.27728 cumulative IPC: 2.16267 (Simulation time: 0 hr 1 min 54 sec) 
Heartbeat CPU 0 instructions: 80000000 cycles: 36304238 heartbeat IPC: 2.54008 cumulative IPC: 2.2036 (Simulation time: 0 hr 2 min 6 sec) 
Heartbeat CPU 0 instructions: 90000000 cycles: 40249515 heartbeat IPC: 2.53468 cumulative IPC: 2.23605 (Simulation time: 0 hr 2 min 18 sec) 
Heartbeat CPU 0 instructions: 100000000 cycles: 44211837 heartbeat IPC: 2.52377 cumulative IPC: 2.26184 (Simulation time: 0 hr 2 min 30 sec) 

Warmup complete CPU 0 instructions: 100000002 cycles: 44211838 (Simulation time: 0 hr 2 min 30 sec) 

Heartbeat CPU 0 instructions: 110000000 cycles: 52900197 heartbeat IPC: 1.15097 cumulative IPC: 1.15097 (Simulation time: 0 hr 2 min 48 sec) 
Heartbeat CPU 0 instructions: 120000000 cycles: 61649373 heartbeat IPC: 1.14296 cumulative IPC: 1.14695 (Simulation time: 0 hr 3 min 6 sec) 
Heartbeat CPU 0 instructions: 130000002 cycles: 70450164 heartbeat IPC: 1.13626 cumulative IPC: 1.14337 (Simulation time: 0 hr 3 min 25 sec) 
Heartbeat CPU 0 instructions: 140000000 cycles: 79101203 heartbeat IPC: 1.15593 cumulative IPC: 1.14648 (Simulation time: 0 hr 3 min 43 sec) 
Heartbeat CPU 0 instructions: 150000003 cycles: 87917220 heartbeat IPC: 1.1343 cumulative IPC: 1.14402 (Simulation time: 0 hr 4 min 2 sec) 
Heartbeat CPU 0 instructions: 160000000 cycles: 98261154 heartbeat IPC: 0.96675 cumulative IPC: 1.1101 (Simulation time: 0 hr 4 min 22 sec) 
Heartbeat CPU 0 instructions: 170000000 cycles: 110759603 heartbeat IPC: 0.800099 cumulative IPC: 1.05188 (Simulation time: 0 hr 4 min 45 sec) 
Heartbeat CPU 0 instructions: 180000000 cycles: 123282535 heartbeat IPC: 0.798535 cumulative IPC: 1.01175 (Simulation time: 0 hr 5 min 8 sec) 
Heartbeat CPU 0 instructions: 190000000 cycles: 136065085 heartbeat IPC: 0.782317 cumulative IPC: 0.979824 (Simulation time: 0 hr 5 min 31 sec) 
Heartbeat CPU 0 instructions: 200000000 cycles: 149978269 heartbeat IPC: 0.718743 cumulative IPC: 0.94548 (Simulation time: 0 hr 5 min 54 sec) 
Heartbeat CPU 0 instructions: 210000001 cycles: 163929444 heartbeat IPC: 0.716786 cumulative IPC: 0.918829 (Simulation time: 0 hr 6 min 17 sec) 
Heartbeat CPU 0 instructions: 220000000 cycles: 177709329 heartbeat IPC: 0.725695 cumulative IPC: 0.898893 (Simulation time: 0 hr 6 min 40 sec) 
Heartbeat CPU 0 instructions: 230000000 cycles: 191342904 heartbeat IPC: 0.733483 cumulative IPC: 0.883566 (Simulation time: 0 hr 7 min 5 sec) 
Heartbeat CPU 0 instructions: 240000000 cycles: 205057075 heartbeat IPC: 0.729173 cumulative IPC: 0.870402 (Simulation time: 0 hr 7 min 29 sec) 
Heartbeat CPU 0 instructions: 250000003 cycles: 216190446 heartbeat IPC: 0.898201 cumulative IPC: 0.872202 (Simulation time: 0 hr 7 min 51 sec) 
Heartbeat CPU 0 instructions: 260000000 cycles: 224027219 heartbeat IPC: 1.27604 cumulative IPC: 0.889802 (Simulation time: 0 hr 8 min 10 sec) 
Heartbeat CPU 0 instructions: 270000003 cycles: 232354021 heartbeat IPC: 1.20094 cumulative IPC: 0.903572 (Simulation time: 0 hr 8 min 29 sec) 
Heartbeat CPU 0 instructions: 280000000 cycles: 240879884 heartbeat IPC: 1.1729 cumulative IPC: 0.915248 (Simulation time: 0 hr 8 min 49 sec) 
Heartbeat CPU 0 instructions: 290000000 cycles: 249547189 heartbeat IPC: 1.15376 cumulative IPC: 0.925316 (Simulation time: 0 hr 9 min 9 sec) 
Heartbeat CPU 0 instructions: 300000000 cycles: 258258468 heartbeat IPC: 1.14794 cumulative IPC: 0.934376 (Simulation time: 0 hr 9 min 29 sec) 
Heartbeat CPU 0 instructions: 310000000 cycles: 267008620 heartbeat IPC: 1.14284 cumulative IPC: 0.942563 (Simulation time: 0 hr 9 min 50 sec) 
Heartbeat CPU 0 instructions: 320000000 cycles: 275804274 heartbeat IPC: 1.13693 cumulative IPC: 0.949945 (Simulation time: 0 hr 10 min 11 sec) 
Heartbeat CPU 0 instructions: 330000002 cycles: 284583729 heartbeat IPC: 1.13902 cumulative IPC: 0.956851 (Simulation time: 0 hr 10 min 32 sec) 
Heartbeat CPU 0 instructions: 340000000 cycles: 294611814 heartbeat IPC: 0.997199 cumulative IPC: 0.958467 (Simulation time: 0 hr 10 min 55 sec) 
Heartbeat CPU 0 instructions: 350000001 cycles: 303069542 heartbeat IPC: 1.18235 cumulative IPC: 0.965782 (Simulation time: 0 hr 11 min 15 sec) 
Heartbeat CPU 0 instructions: 360000000 cycles: 311541369 heartbeat IPC: 1.18038 cumulative IPC: 0.972582 (Simulation time: 0 hr 11 min 35 sec) 
Heartbeat CPU 0 instructions: 370000001 cycles: 320019543 heartbeat IPC: 1.1795 cumulative IPC: 0.978943 (Simulation time: 0 hr 11 min 55 sec) 
Heartbeat CPU 0 instructions: 380000000 cycles: 328466797 heartbeat IPC: 1.18382 cumulative IPC: 0.985031 (Simulation time: 0 hr 12 min 15 sec) 
Heartbeat CPU 0 instructions: 390000001 cycles: 336756891 heartbeat IPC: 1.20626 cumulative IPC: 0.9913 (Simulation time: 0 hr 12 min 35 sec) 
Heartbeat CPU 0 instructions: 400000000 cycles: 345112148 heartbeat IPC: 1.19685 cumulative IPC: 0.997008 (Simulation time: 0 hr 12 min 54 sec) 
Heartbeat CPU 0 instructions: 410000003 cycles: 353401579 heartbeat IPC: 1.20636 cumulative IPC: 1.00262 (Simulation time: 0 hr 13 min 14 sec) 
Heartbeat CPU 0 instructions: 420000000 cycles: 361773466 heartbeat IPC: 1.19447 cumulative IPC: 1.00768 (Simulation time: 0 hr 13 min 34 sec) 
Heartbeat CPU 0 instructions: 430000001 cycles: 370077809 heartbeat IPC: 1.20419 cumulative IPC: 1.01269 (Simulation time: 0 hr 13 min 54 sec) 
Heartbeat CPU 0 instructions: 440000000 cycles: 378324714 heartbeat IPC: 1.21258 cumulative IPC: 1.01762 (Simulation time: 0 hr 14 min 13 sec) 
Heartbeat CPU 0 instructions: 450000001 cycles: 387860673 heartbeat IPC: 1.04866 cumulative IPC: 1.01848 (Simulation time: 0 hr 14 min 35 sec) 
Heartbeat CPU 0 instructions: 460000000 cycles: 396165037 heartbeat IPC: 1.20419 cumulative IPC: 1.02286 (Simulation time: 0 hr 14 min 54 sec) 
Heartbeat CPU 0 instructions: 470000003 cycles: 404349960 heartbeat IPC: 1.22176 cumulative IPC: 1.02738 (Simulation time: 0 hr 15 min 14 sec) 
Heartbeat CPU 0 instructions: 480000000 cycles: 412563506 heartbeat IPC: 1.2175 cumulative IPC: 1.03162 (Simulation time: 0 hr 15 min 34 sec) 
Heartbeat CPU 0 instructions: 490000000 cycles: 420748895 heartbeat IPC: 1.22169 cumulative IPC: 1.03575 (Simulation time: 0 hr 15 min 53 sec) 
Heartbeat CPU 0 instructions: 500000000 cycles: 428947684 heartbeat IPC: 1.21969 cumulative IPC: 1.03967 (Simulation time: 0 hr 16 min 13 sec) 
Heartbeat CPU 0 instructions: 510000001 cycles: 437099418 heartbeat IPC: 1.22673 cumulative IPC: 1.04356 (Simulation time: 0 hr 16 min 32 sec) 
Heartbeat CPU 0 instructions: 520000000 cycles: 445293546 heartbeat IPC: 1.22039 cumulative IPC: 1.04717 (Simulation time: 0 hr 16 min 52 sec) 
Heartbeat CPU 0 instructions: 530000001 cycles: 453486108 heartbeat IPC: 1.22062 cumulative IPC: 1.05064 (Simulation time: 0 hr 17 min 11 sec) 
Heartbeat CPU 0 instructions: 540000000 cycles: 461827574 heartbeat IPC: 1.19883 cumulative IPC: 1.0536 (Simulation time: 0 hr 17 min 31 sec) 
Heartbeat CPU 0 instructions: 550000001 cycles: 470252679 heartbeat IPC: 1.18693 cumulative IPC: 1.05624 (Simulation time: 0 hr 17 min 50 sec) 
Heartbeat CPU 0 instructions: 560000000 cycles: 478439443 heartbeat IPC: 1.22148 cumulative IPC: 1.05935 (Simulation time: 0 hr 18 min 10 sec) 
Heartbeat CPU 0 instructions: 570000001 cycles: 489705409 heartbeat IPC: 0.887629 cumulative IPC: 1.05501 (Simulation time: 0 hr 18 min 31 sec) 
Heartbeat CPU 0 instructions: 580000000 cycles: 500610550 heartbeat IPC: 0.916999 cumulative IPC: 1.05171 (Simulation time: 0 hr 18 min 52 sec) 
Heartbeat CPU 0 instructions: 590000001 cycles: 511797845 heartbeat IPC: 0.893871 cumulative IPC: 1.04794 (Simulation time: 0 hr 19 min 13 sec) 
Heartbeat CPU 0 instructions: 600000000 cycles: 522700329 heartbeat IPC: 0.917222 cumulative IPC: 1.04496 (Simulation time: 0 hr 19 min 34 sec) 
Finished CPU 0 instructions: 500000001 cycles: 478488504 cumulative IPC: 1.04496 (Simulation time: 0 hr 19 min 34 sec) 

CPU 0 Branch Prediction Accuracy: 99.7422% MPKI: 0.173296
Number of Branches: 33608403 Number of Mispredictions: 86648
Number of LOAD Instructions: 180215231
Number of LOAD Instructions (ROI): 180215231
Number of STORE Instructions: 36067263
Number of STORE Instructions (ROI): 36067263
Total Destination Memory Operands: 38428915
Total Destination Memory Operands (ROI): 38428915
Total Source Memory Operands: 180215231
Total Source Memory Operands (ROI): 180215231
Number of DEPENDED LOADS: 3041476
Number of DEPENDED LOADS (ROI): 3041476
Number of SQ_ADDED: 38428892
Number of SQ_ADDED (ROI): 38428892
Number of LQ_ADDED: 207634664
Number of LQ_ADDED (ROI): 207634664
Number of Instructions read from trace: 600000257

ChampSim completed all CPUs

Region of Interest Statistics

CPU 0 cumulative IPC: 1.04496 instructions: 500000001 cycles: 478488504
ITLB TOTAL     ACCESS:   91780891  HIT:   91780872  MISS:         19
ITLB LOAD      ACCESS:   91780891  HIT:   91780872  MISS:         19
ITLB RFO       ACCESS:          0  HIT:          0  MISS:          0
ITLB PREFETCH  ACCESS:          0  HIT:          0  MISS:          0
ITLB WRITEBACK ACCESS:          0  HIT:          0  MISS:          0
ITLB PREFETCH  REQUESTED:          0  ISSUED:          0  USEFUL:          0  USELESS:          0
ITLB TOTAL MSHR MERGED:         40
ITLB LOAD MSHR MERGED:         40
ITLB RFO MSHR MERGED:          0
ITLB PREFETCH MSHR MERGED:          0
ITLB WRITEBACK MSHR MERGED:          0
ITLB TOTAL ACCESSES:   91780931 HITS:   91780872 MISSES:         59
ITLB LOAD ACCESSES:   91780931 HITS:   91780872 MISSES:         59
ITLB RFO ACCESSES:          0 HITS:          0 MISSES:          0
ITLB PREFETCH ACCESSES:          0 HITS:          0 MISSES:          0
ITLB WRITEBACK ACCESSES:          0 HITS:          0 MISSES:          0
ITLB RQ ACCESS:  500000003
ITLB RQ TO_CACHE:   91780931
ITLB RQ MERGED:  408219072
ITLB RQ FORWARD:          0
ITLB WQ ACCESS:          0
ITLB WQ TO_CACHE:          0
ITLB WQ MERGED:          0
ITLB WQ FORWARD:          0
DTLB TOTAL     ACCESS:  142069834  HIT:  141703372  MISS:     366462
DTLB LOAD      ACCESS:  119424657  HIT:  119111071  MISS:     313586
DTLB RFO       ACCESS:   22645177  HIT:   22592301  MISS:      52876
DTLB PREFETCH  ACCESS:          0  HIT:          0  MISS:          0
DTLB WRITEBACK ACCESS:          0  HIT:          0  MISS:          0
DTLB PREFETCH  REQUESTED:          0  ISSUED:          0  USEFUL:          0  USELESS:          0
DTLB TOTAL MSHR MERGED:     288423
DTLB LOAD MSHR MERGED:     240648
DTLB RFO MSHR MERGED:      47775
DTLB PREFETCH MSHR MERGED:          0
DTLB WRITEBACK MSHR MERGED:          0
DTLB TOTAL ACCESSES:  142358257 HITS:  141703372 MISSES:     654885
DTLB LOAD ACCESSES:  119665305 HITS:  119111071 MISSES:     554234
DTLB RFO ACCESSES:   22692952 HITS:   22592301 MISSES:     100651
DTLB PREFETCH ACCESSES:          0 HITS:          0 MISSES:          0
DTLB WRITEBACK ACCESSES:          0 HITS:          0 MISSES:          0
DTLB RQ ACCESS:  184791501
DTLB RQ TO_CACHE:  142358257
DTLB RQ MERGED:   42433244
DTLB RQ FORWARD:          0
DTLB WQ ACCESS:          0
DTLB WQ TO_CACHE:          0
DTLB WQ MERGED:          0
DTLB WQ FORWARD:          0
L1D TOTAL     ACCESS:  190455630  HIT:  177002682  MISS:   13452948
L1D LOAD      ACCESS:  111991994  HIT:  108779295  MISS:    3212699
L1D RFO       ACCESS:   19054749  HIT:   16273008  MISS:    2781741
L1D PREFETCH  ACCESS:   59408887  HIT:   51950379  MISS:    7458508
L1D WRITEBACK ACCESS:          0  HIT:          0  MISS:          0
L1D PREFETCH  REQUESTED:  116519501  ISSUED:  115165783  USEFUL:    7248701  USELESS:     209808
L1D TOTAL MSHR MERGED:   31176608
L1D LOAD MSHR MERGED:    7183263
L1D RFO MSHR MERGED:    9198024
L1D PREFETCH MSHR MERGED:   14795321
L1D WRITEBACK MSHR MERGED:          0
L1D TOTAL ACCESSES:  221632635 HITS:  177003077 MISSES:   44629558
L1D LOAD ACCESSES:  116519525 HITS:  108779319 MISSES:    7740206
L1D RFO ACCESSES:   28252729 HITS:   16273008 MISSES:   11979721
L1D PREFETCH ACCESSES:   76860381 HITS:   51950750 MISSES:   24909631
L1D WRITEBACK ACCESSES:          0 HITS:          0 MISSES:          0
L1D RQ ACCESS:  156535435
L1D RQ TO_CACHE:  116519504
L1D RQ MERGED:   40015907
L1D RQ FORWARD:          0
L1D WQ ACCESS:   28256066
L1D WQ TO_CACHE:   28252729
L1D WQ MERGED:       3337
L1D WQ FORWARD:        395
L1I TOTAL     ACCESS:  115774825  HIT:  115773877  MISS:        948
L1I LOAD      ACCESS:  115774825  HIT:  115773877  MISS:        948
L1I RFO       ACCESS:          0  HIT:          0  MISS:          0
L1I PREFETCH  ACCESS:          0  HIT:          0  MISS:          0
L1I WRITEBACK ACCESS:          0  HIT:          0  MISS:          0
L1I PREFETCH  REQUESTED:          0  ISSUED:          0  USEFUL:          0  USELESS:          0
L1I TOTAL MSHR MERGED:       1584
L1I LOAD MSHR MERGED:       1584
L1I RFO MSHR MERGED:          0
L1I PREFETCH MSHR MERGED:          0
L1I WRITEBACK MSHR MERGED:          0
L1I TOTAL ACCESSES:  115776409 HITS:  115773877 MISSES:       2532
L1I LOAD ACCESSES:  115776409 HITS:  115773877 MISSES:       2532
L1I RFO ACCESSES:          0 HITS:          0 MISSES:          0
L1I PREFETCH ACCESSES:          0 HITS:          0 MISSES:          0
L1I WRITEBACK ACCESSES:          0 HITS:          0 MISSES:          0
L1I RQ ACCESS:  500000007
L1I RQ TO_CACHE:  115776409
L1I RQ MERGED:  384223598
L1I RQ FORWARD:          0
L1I WQ ACCESS:          0
L1I WQ TO_CACHE:          0
L1I WQ MERGED:          0
L1I WQ FORWARD:          0
L2C TOTAL     ACCESS:   16698950  HIT:    4854398  MISS:   11844552
L2C LOAD      ACCESS:     557863  HIT:      95448  MISS:     462415
L2C RFO       ACCESS:    2781697  HIT:     266610  MISS:    2515087
L2C PREFETCH  ACCESS:   10138757  HIT:    1273989  MISS:    8864768
L2C WRITEBACK ACCESS:    3220633  HIT:    3218351  MISS:       2282
L2C PREFETCH  REQUESTED:      26382  ISSUED:      26382  USEFUL:      92921  USELESS:    8769931
L2C TOTAL MSHR MERGED:        399
L2C LOAD MSHR MERGED:          5
L2C RFO MSHR MERGED:          0
L2C PREFETCH MSHR MERGED:        394
L2C WRITEBACK MSHR MERGED:          0
L2C TOTAL ACCESSES:   16699518 HITS:    4854444 MISSES:   11845074
L2C LOAD ACCESSES:     557891 HITS:      95476 MISSES:     462415
L2C RFO ACCESSES:    2781697 HITS:     266610 MISSES:    2515087
L2C PREFETCH ACCESSES:   10139297 HITS:    1274007 MISSES:    8865290
L2C WRITEBACK ACCESSES:    3220633 HITS:    3218351 MISSES:       2282
L2C RQ ACCESS:    3339588
L2C RQ TO_CACHE:    3339560
L2C RQ MERGED:          0
L2C RQ FORWARD:          0
L2C WQ ACCESS:    3220633
L2C WQ TO_CACHE:    3220633
L2C WQ MERGED:          0
L2C WQ FORWARD:         46
LLC TOTAL     ACCESS:   14742715  HIT:    7626889  MISS:    7115826
LLC LOAD      ACCESS:     462407  HIT:     193874  MISS:     268533
LLC RFO       ACCESS:    2515070  HIT:    1901938  MISS:     613132
LLC PREFETCH  ACCESS:    8864837  HIT:    3316431  MISS:    5548406
LLC WRITEBACK ACCESS:    2900401  HIT:    2214646  MISS:     685755
LLC PREFETCH  REQUESTED:          0  ISSUED:          0  USEFUL:       3532  USELESS:    5550739
LLC TOTAL MSHR MERGED:          3
LLC LOAD MSHR MERGED:          0
LLC RFO MSHR MERGED:          0
LLC PREFETCH MSHR MERGED:          3
LLC WRITEBACK MSHR MERGED:          0
LLC TOTAL ACCESSES:   14742780 HITS:    7626949 MISSES:    7115831
LLC LOAD ACCESSES:     462410 HITS:     193877 MISSES:     268533
LLC RFO ACCESSES:    2515087 HITS:    1901955 MISSES:     613132
LLC PREFETCH ACCESSES:    8864882 HITS:    3316471 MISSES:    5548411
LLC WRITEBACK ACCESSES:    2900401 HITS:    2214646 MISSES:     685755
LLC 0 RQ ACCESS:    2977497
LLC 0 RQ TO_CACHE:    2977477
LLC 0 RQ MERGED:          0
LLC 0 RQ FORWARD:          0
LLC WQ ACCESS:    2900401
LLC WQ TO_CACHE:    2900401
LLC WQ MERGED:          0
LLC WQ FORWARD:         60
Major fault: 0 Minor fault: 57518
CPU 0 L1D next line prefetcher final stats
CPU 0 L2C PC-based stride prefetcher final stats
All Misses: 7717437
All Hits: 8521451
SD Algo Stats - Switches: 0 SRR-Repls: 278072 BRR-Repls: 0

DRAM Statistics
 CHANNEL 0
 RQ ROW_BUFFER_HIT:    3672578  ROW_BUFFER_MISS:    2754337
 DBUS_CONGESTED:    2895474
 WQ ROW_BUFFER_HIT:      88087  ROW_BUFFER_MISS:     787692  FULL:          0

 AVG_CONGESTED_CYCLE: 12
LOADS RETIRED: 157818985
INSTR RETIRED: 500000000
