
*** ChampSim Multicore Out-of-Order Simulator ***

Warmup Instructions: 100000000
Simulation Instructions: 500000000
Number of CPUs: 1
LLC sets: 2048
LLC ways: 16
Clean RRIP Policies: 2213230222132302 Dirty RRIP Policies: 1203030212030302 PSEL Width: 10 Track Set: 4294967295 PSEL Mask: 1 Demote Mask: 3043100230431002DS Algo: 0Window size: 0
Off-chip DRAM Size: 4096 MB Channels: 1 Width: 64-bit Data Rate: 1600 MT/s

CPU 0 runs /mnt/beegfs/iconst01/spec2017/Mcf.trace.gz
NOT SORTED
TRACE STRING: /mnt/beegfs/iconst01/spec2017/Mcf.trace.gz
SORTED
TRACE STRING: /mnt/beegfs/iconst01/spec2017/Mcf.trace.gz
INITIAL
TRACE STRING: /mnt/beegfs/iconst01/spec2017/Mcf.trace.gz

champsim_seed used: 278

CPU 0 L1D next line prefetcher
CPU 0 L2C IP-based stride prefetcher
Initialize DRRIP state
Assign rand_sets[0]: 454  LLC: 2048
rand_sets[0]: 454
Assign rand_sets[1]: 1662  LLC: 2048
rand_sets[1]: 1662
Assign rand_sets[2]: 1921  LLC: 2048
rand_sets[2]: 1921
Assign rand_sets[3]: 1131  LLC: 2048
rand_sets[3]: 1131
Assign rand_sets[4]: 331  LLC: 2048
rand_sets[4]: 331
Assign rand_sets[5]: 1531  LLC: 2048
rand_sets[5]: 1531
Assign rand_sets[6]: 482  LLC: 2048
rand_sets[6]: 482
Assign rand_sets[7]: 1275  LLC: 2048
rand_sets[7]: 1275
Assign rand_sets[8]: 1876  LLC: 2048
rand_sets[8]: 1876
Assign rand_sets[9]: 2038  LLC: 2048
rand_sets[9]: 2038
Assign rand_sets[10]: 701  LLC: 2048
rand_sets[10]: 701
Assign rand_sets[11]: 479  LLC: 2048
rand_sets[11]: 479
Assign rand_sets[12]: 892  LLC: 2048
rand_sets[12]: 892
Assign rand_sets[13]: 1820  LLC: 2048
rand_sets[13]: 1820
Assign rand_sets[14]: 1505  LLC: 2048
rand_sets[14]: 1505
Assign rand_sets[15]: 1159  LLC: 2048
rand_sets[15]: 1159
Assign rand_sets[16]: 513  LLC: 2048
rand_sets[16]: 513
Assign rand_sets[17]: 703  LLC: 2048
rand_sets[17]: 703
Assign rand_sets[18]: 561  LLC: 2048
rand_sets[18]: 561
Assign rand_sets[19]: 990  LLC: 2048
rand_sets[19]: 990
Assign rand_sets[20]: 342  LLC: 2048
rand_sets[20]: 342
Assign rand_sets[21]: 882  LLC: 2048
rand_sets[21]: 882
Assign rand_sets[22]: 15  LLC: 2048
rand_sets[22]: 15
Assign rand_sets[23]: 71  LLC: 2048
rand_sets[23]: 71
Assign rand_sets[24]: 1127  LLC: 2048
rand_sets[24]: 1127
Assign rand_sets[25]: 1382  LLC: 2048
rand_sets[25]: 1382
Assign rand_sets[26]: 647  LLC: 2048
rand_sets[26]: 647
Assign rand_sets[27]: 857  LLC: 2048
rand_sets[27]: 857
Assign rand_sets[28]: 1450  LLC: 2048
rand_sets[28]: 1450
Assign rand_sets[29]: 1160  LLC: 2048
rand_sets[29]: 1160
Assign rand_sets[30]: 1852  LLC: 2048
rand_sets[30]: 1852
Assign rand_sets[31]: 1881  LLC: 2048
rand_sets[31]: 1881
Assign rand_sets[32]: 1770  LLC: 2048
rand_sets[32]: 1770
Assign rand_sets[33]: 1622  LLC: 2048
rand_sets[33]: 1622
Assign rand_sets[34]: 275  LLC: 2048
rand_sets[34]: 275
Assign rand_sets[35]: 635  LLC: 2048
rand_sets[35]: 635
Assign rand_sets[36]: 466  LLC: 2048
rand_sets[36]: 466
Assign rand_sets[37]: 1413  LLC: 2048
rand_sets[37]: 1413
Assign rand_sets[38]: 417  LLC: 2048
rand_sets[38]: 417
Assign rand_sets[39]: 472  LLC: 2048
rand_sets[39]: 472
Assign rand_sets[40]: 1340  LLC: 2048
rand_sets[40]: 1340
Assign rand_sets[41]: 852  LLC: 2048
rand_sets[41]: 852
Assign rand_sets[42]: 1365  LLC: 2048
rand_sets[42]: 1365
Assign rand_sets[43]: 47  LLC: 2048
rand_sets[43]: 47
Assign rand_sets[44]: 823  LLC: 2048
rand_sets[44]: 823
Assign rand_sets[45]: 686  LLC: 2048
rand_sets[45]: 686
Assign rand_sets[46]: 1637  LLC: 2048
rand_sets[46]: 1637
Assign rand_sets[47]: 1115  LLC: 2048
rand_sets[47]: 1115
Assign rand_sets[48]: 986  LLC: 2048
rand_sets[48]: 986
Assign rand_sets[49]: 258  LLC: 2048
rand_sets[49]: 258
Assign rand_sets[50]: 633  LLC: 2048
rand_sets[50]: 633
Assign rand_sets[51]: 920  LLC: 2048
rand_sets[51]: 920
Assign rand_sets[52]: 204  LLC: 2048
rand_sets[52]: 204
Assign rand_sets[53]: 227  LLC: 2048
rand_sets[53]: 227
Assign rand_sets[54]: 1818  LLC: 2048
rand_sets[54]: 1818
Assign rand_sets[55]: 886  LLC: 2048
rand_sets[55]: 886
Assign rand_sets[56]: 1422  LLC: 2048
rand_sets[56]: 1422
Assign rand_sets[57]: 607  LLC: 2048
rand_sets[57]: 607
Assign rand_sets[58]: 217  LLC: 2048
rand_sets[58]: 217
Assign rand_sets[59]: 1945  LLC: 2048
rand_sets[59]: 1945
Assign rand_sets[60]: 143  LLC: 2048
rand_sets[60]: 143
Assign rand_sets[61]: 1311  LLC: 2048
rand_sets[61]: 1311
Assign rand_sets[62]: 319  LLC: 2048
rand_sets[62]: 319
Assign rand_sets[63]: 1846  LLC: 2048
rand_sets[63]: 1846
 CLEAN-RRIP-POLICY-1: 2-2-1-3-2-3-0-2- CLEAN-RRIP-POLICY-2: 2-2-1-3-2-3-0-2-
 DIRTY-RRIP-POLICY-1: 1-2-0-3-0-3-0-2- DIRTY-RRIP-POLICY-2: 1-2-0-3-0-3-0-2-
 PSEL width: 10
Heartbeat CPU 0 instructions: 10000002 cycles: 6248402 heartbeat IPC: 1.60041 cumulative IPC: 1.60041 (Simulation time: 0 hr 0 min 13 sec) 
Heartbeat CPU 0 instructions: 20000000 cycles: 12468904 heartbeat IPC: 1.60759 cumulative IPC: 1.60399 (Simulation time: 0 hr 0 min 25 sec) 
Heartbeat CPU 0 instructions: 30000000 cycles: 18679017 heartbeat IPC: 1.61028 cumulative IPC: 1.60608 (Simulation time: 0 hr 0 min 38 sec) 
Heartbeat CPU 0 instructions: 40000000 cycles: 24889479 heartbeat IPC: 1.61019 cumulative IPC: 1.6071 (Simulation time: 0 hr 0 min 51 sec) 
Heartbeat CPU 0 instructions: 50000003 cycles: 31101832 heartbeat IPC: 1.6097 cumulative IPC: 1.60762 (Simulation time: 0 hr 1 min 5 sec) 
Heartbeat CPU 0 instructions: 60000000 cycles: 37297918 heartbeat IPC: 1.61392 cumulative IPC: 1.60867 (Simulation time: 0 hr 1 min 18 sec) 
Heartbeat CPU 0 instructions: 70000003 cycles: 43516216 heartbeat IPC: 1.60816 cumulative IPC: 1.6086 (Simulation time: 0 hr 1 min 31 sec) 
Heartbeat CPU 0 instructions: 80000000 cycles: 49746573 heartbeat IPC: 1.60504 cumulative IPC: 1.60815 (Simulation time: 0 hr 1 min 44 sec) 
Heartbeat CPU 0 instructions: 90000000 cycles: 55975410 heartbeat IPC: 1.60544 cumulative IPC: 1.60785 (Simulation time: 0 hr 1 min 57 sec) 
Heartbeat CPU 0 instructions: 100000000 cycles: 62194291 heartbeat IPC: 1.60801 cumulative IPC: 1.60786 (Simulation time: 0 hr 2 min 10 sec) 

Warmup complete CPU 0 instructions: 100000001 cycles: 62194292 (Simulation time: 0 hr 2 min 10 sec) 

Heartbeat CPU 0 instructions: 110000000 cycles: 86812160 heartbeat IPC: 0.406209 cumulative IPC: 0.406209 (Simulation time: 0 hr 2 min 35 sec) 
Heartbeat CPU 0 instructions: 120000000 cycles: 111535065 heartbeat IPC: 0.404483 cumulative IPC: 0.405344 (Simulation time: 0 hr 3 min 0 sec) 
Heartbeat CPU 0 instructions: 130000000 cycles: 136332131 heartbeat IPC: 0.403274 cumulative IPC: 0.404652 (Simulation time: 0 hr 3 min 25 sec) 
Heartbeat CPU 0 instructions: 140000000 cycles: 161078502 heartbeat IPC: 0.4041 cumulative IPC: 0.404514 (Simulation time: 0 hr 3 min 50 sec) 
Heartbeat CPU 0 instructions: 150000003 cycles: 185717388 heartbeat IPC: 0.405863 cumulative IPC: 0.404783 (Simulation time: 0 hr 4 min 15 sec) 
Heartbeat CPU 0 instructions: 160000000 cycles: 210614028 heartbeat IPC: 0.401661 cumulative IPC: 0.404259 (Simulation time: 0 hr 4 min 40 sec) 
Heartbeat CPU 0 instructions: 170000001 cycles: 235372050 heartbeat IPC: 0.40391 cumulative IPC: 0.404209 (Simulation time: 0 hr 5 min 6 sec) 
Heartbeat CPU 0 instructions: 180000000 cycles: 260128077 heartbeat IPC: 0.403942 cumulative IPC: 0.404176 (Simulation time: 0 hr 5 min 31 sec) 
Heartbeat CPU 0 instructions: 190000003 cycles: 284830409 heartbeat IPC: 0.40482 cumulative IPC: 0.404247 (Simulation time: 0 hr 5 min 56 sec) 
Heartbeat CPU 0 instructions: 200000000 cycles: 309584879 heartbeat IPC: 0.403967 cumulative IPC: 0.404219 (Simulation time: 0 hr 6 min 21 sec) 
Heartbeat CPU 0 instructions: 210000003 cycles: 334405156 heartbeat IPC: 0.402897 cumulative IPC: 0.404099 (Simulation time: 0 hr 6 min 46 sec) 
Heartbeat CPU 0 instructions: 220000000 cycles: 359411235 heartbeat IPC: 0.399903 cumulative IPC: 0.403745 (Simulation time: 0 hr 7 min 12 sec) 
Heartbeat CPU 0 instructions: 230000002 cycles: 384084143 heartbeat IPC: 0.405303 cumulative IPC: 0.403865 (Simulation time: 0 hr 7 min 37 sec) 
Heartbeat CPU 0 instructions: 240000000 cycles: 409050043 heartbeat IPC: 0.400546 cumulative IPC: 0.403626 (Simulation time: 0 hr 8 min 2 sec) 
Heartbeat CPU 0 instructions: 250000000 cycles: 433820243 heartbeat IPC: 0.403711 cumulative IPC: 0.403632 (Simulation time: 0 hr 8 min 28 sec) 
Heartbeat CPU 0 instructions: 260000000 cycles: 458547037 heartbeat IPC: 0.40442 cumulative IPC: 0.403681 (Simulation time: 0 hr 8 min 53 sec) 
Heartbeat CPU 0 instructions: 270000001 cycles: 483372304 heartbeat IPC: 0.402815 cumulative IPC: 0.40363 (Simulation time: 0 hr 9 min 18 sec) 
Heartbeat CPU 0 instructions: 280000000 cycles: 508140170 heartbeat IPC: 0.403749 cumulative IPC: 0.403636 (Simulation time: 0 hr 9 min 44 sec) 
Heartbeat CPU 0 instructions: 290000001 cycles: 532972287 heartbeat IPC: 0.402704 cumulative IPC: 0.403587 (Simulation time: 0 hr 10 min 9 sec) 
Heartbeat CPU 0 instructions: 300000000 cycles: 557961525 heartbeat IPC: 0.400172 cumulative IPC: 0.403415 (Simulation time: 0 hr 10 min 35 sec) 
Heartbeat CPU 0 instructions: 310000003 cycles: 582595568 heartbeat IPC: 0.405942 cumulative IPC: 0.403535 (Simulation time: 0 hr 11 min 0 sec) 
Heartbeat CPU 0 instructions: 320000000 cycles: 607584602 heartbeat IPC: 0.400175 cumulative IPC: 0.403381 (Simulation time: 0 hr 11 min 25 sec) 
Heartbeat CPU 0 instructions: 330000003 cycles: 632328860 heartbeat IPC: 0.404134 cumulative IPC: 0.403414 (Simulation time: 0 hr 11 min 50 sec) 
Heartbeat CPU 0 instructions: 340000000 cycles: 657372396 heartbeat IPC: 0.399305 cumulative IPC: 0.403241 (Simulation time: 0 hr 12 min 16 sec) 
Heartbeat CPU 0 instructions: 350000002 cycles: 682380275 heartbeat IPC: 0.399874 cumulative IPC: 0.403105 (Simulation time: 0 hr 12 min 41 sec) 
Heartbeat CPU 0 instructions: 360000000 cycles: 707521515 heartbeat IPC: 0.397753 cumulative IPC: 0.402896 (Simulation time: 0 hr 13 min 6 sec) 
Heartbeat CPU 0 instructions: 370000000 cycles: 732425029 heartbeat IPC: 0.40155 cumulative IPC: 0.402846 (Simulation time: 0 hr 13 min 31 sec) 
Heartbeat CPU 0 instructions: 380000000 cycles: 757145792 heartbeat IPC: 0.404518 cumulative IPC: 0.402906 (Simulation time: 0 hr 13 min 56 sec) 
Heartbeat CPU 0 instructions: 390000002 cycles: 781889493 heartbeat IPC: 0.404143 cumulative IPC: 0.402948 (Simulation time: 0 hr 14 min 21 sec) 
Heartbeat CPU 0 instructions: 400000000 cycles: 806802027 heartbeat IPC: 0.401404 cumulative IPC: 0.402897 (Simulation time: 0 hr 14 min 46 sec) 
Heartbeat CPU 0 instructions: 410000002 cycles: 831618555 heartbeat IPC: 0.402957 cumulative IPC: 0.402899 (Simulation time: 0 hr 15 min 11 sec) 
Heartbeat CPU 0 instructions: 420000000 cycles: 856236751 heartbeat IPC: 0.406204 cumulative IPC: 0.403001 (Simulation time: 0 hr 15 min 36 sec) 
Heartbeat CPU 0 instructions: 430000000 cycles: 881081955 heartbeat IPC: 0.402492 cumulative IPC: 0.402986 (Simulation time: 0 hr 16 min 1 sec) 
Heartbeat CPU 0 instructions: 440000000 cycles: 905631746 heartbeat IPC: 0.407335 cumulative IPC: 0.403112 (Simulation time: 0 hr 16 min 26 sec) 
Heartbeat CPU 0 instructions: 450000000 cycles: 930597714 heartbeat IPC: 0.400545 cumulative IPC: 0.403038 (Simulation time: 0 hr 16 min 52 sec) 
Heartbeat CPU 0 instructions: 460000000 cycles: 955465454 heartbeat IPC: 0.402127 cumulative IPC: 0.403013 (Simulation time: 0 hr 17 min 17 sec) 
Heartbeat CPU 0 instructions: 470000001 cycles: 980119119 heartbeat IPC: 0.405619 cumulative IPC: 0.403083 (Simulation time: 0 hr 17 min 43 sec) 
Heartbeat CPU 0 instructions: 480000000 cycles: 1004948990 heartbeat IPC: 0.402741 cumulative IPC: 0.403074 (Simulation time: 0 hr 18 min 8 sec) 
Heartbeat CPU 0 instructions: 490000000 cycles: 1029875942 heartbeat IPC: 0.401172 cumulative IPC: 0.403025 (Simulation time: 0 hr 18 min 34 sec) 
Heartbeat CPU 0 instructions: 500000000 cycles: 1055124918 heartbeat IPC: 0.396056 cumulative IPC: 0.402848 (Simulation time: 0 hr 18 min 59 sec) 
Heartbeat CPU 0 instructions: 510000003 cycles: 1080248125 heartbeat IPC: 0.398038 cumulative IPC: 0.402729 (Simulation time: 0 hr 19 min 25 sec) 
Heartbeat CPU 0 instructions: 520000000 cycles: 1105524727 heartbeat IPC: 0.395623 cumulative IPC: 0.402557 (Simulation time: 0 hr 19 min 50 sec) 
Heartbeat CPU 0 instructions: 530000003 cycles: 1130825113 heartbeat IPC: 0.395251 cumulative IPC: 0.402384 (Simulation time: 0 hr 20 min 16 sec) 
Heartbeat CPU 0 instructions: 540000000 cycles: 1156043596 heartbeat IPC: 0.396534 cumulative IPC: 0.402249 (Simulation time: 0 hr 20 min 41 sec) 
Heartbeat CPU 0 instructions: 550000000 cycles: 1181277197 heartbeat IPC: 0.396297 cumulative IPC: 0.402115 (Simulation time: 0 hr 21 min 7 sec) 
Heartbeat CPU 0 instructions: 560000000 cycles: 1206823928 heartbeat IPC: 0.39144 cumulative IPC: 0.401877 (Simulation time: 0 hr 21 min 33 sec) 
Heartbeat CPU 0 instructions: 570000001 cycles: 1232300296 heartbeat IPC: 0.392521 cumulative IPC: 0.401673 (Simulation time: 0 hr 21 min 58 sec) 
Heartbeat CPU 0 instructions: 580000000 cycles: 1257782948 heartbeat IPC: 0.392424 cumulative IPC: 0.401476 (Simulation time: 0 hr 22 min 24 sec) 
Heartbeat CPU 0 instructions: 590000000 cycles: 1283398673 heartbeat IPC: 0.390385 cumulative IPC: 0.401243 (Simulation time: 0 hr 22 min 50 sec) 
Heartbeat CPU 0 instructions: 600000000 cycles: 1309106546 heartbeat IPC: 0.388986 cumulative IPC: 0.400991 (Simulation time: 0 hr 23 min 15 sec) 
Finished CPU 0 instructions: 500000003 cycles: 1246912267 cumulative IPC: 0.400991 (Simulation time: 0 hr 23 min 15 sec) 

CPU 0 Branch Prediction Accuracy: 91.1342% MPKI: 18.7968
Number of Branches: 106006945 Number of Mispredictions: 9398408
Number of LOAD Instructions: 207894007
Number of LOAD Instructions (ROI): 207894007
Number of STORE Instructions: 54285997
Number of STORE Instructions (ROI): 54285997
Total Destination Memory Operands: 57463404
Total Destination Memory Operands (ROI): 57463404
Total Source Memory Operands: 207894007
Total Source Memory Operands (ROI): 207894007
Number of DEPENDED LOADS: 18109383
Number of DEPENDED LOADS (ROI): 18109383
Number of SQ_ADDED: 57463404
Number of SQ_ADDED (ROI): 57463404
Number of LQ_ADDED: 209303871
Number of LQ_ADDED (ROI): 209303871
Number of Instructions read from trace: 600000039

ChampSim completed all CPUs

Region of Interest Statistics

CPU 0 cumulative IPC: 0.400991 instructions: 500000003 cycles: 1246912267
ITLB TOTAL     ACCESS:   96423331  HIT:   96423331  MISS:          0
ITLB LOAD      ACCESS:   96423331  HIT:   96423331  MISS:          0
ITLB RFO       ACCESS:          0  HIT:          0  MISS:          0
ITLB PREFETCH  ACCESS:          0  HIT:          0  MISS:          0
ITLB WRITEBACK ACCESS:          0  HIT:          0  MISS:          0
ITLB PREFETCH  REQUESTED:          0  ISSUED:          0  USEFUL:          0  USELESS:          0
ITLB TOTAL MSHR MERGED:          0
ITLB LOAD MSHR MERGED:          0
ITLB RFO MSHR MERGED:          0
ITLB PREFETCH MSHR MERGED:          0
ITLB WRITEBACK MSHR MERGED:          0
ITLB TOTAL ACCESSES:   96423331 HITS:   96423331 MISSES:          0
ITLB LOAD ACCESSES:   96423331 HITS:   96423331 MISSES:          0
ITLB RFO ACCESSES:          0 HITS:          0 MISSES:          0
ITLB PREFETCH ACCESSES:          0 HITS:          0 MISSES:          0
ITLB WRITEBACK ACCESSES:          0 HITS:          0 MISSES:          0
ITLB RQ ACCESS:  499999980
ITLB RQ TO_CACHE:   96423331
ITLB RQ MERGED:  403576649
ITLB RQ FORWARD:          0
ITLB WQ ACCESS:          0
ITLB WQ TO_CACHE:          0
ITLB WQ MERGED:          0
ITLB WQ FORWARD:          0
DTLB TOTAL     ACCESS:  155170679  HIT:  150258532  MISS:    4912147
DTLB LOAD      ACCESS:  117720418  HIT:  113329963  MISS:    4390455
DTLB RFO       ACCESS:   37450261  HIT:   36928569  MISS:     521692
DTLB PREFETCH  ACCESS:          0  HIT:          0  MISS:          0
DTLB WRITEBACK ACCESS:          0  HIT:          0  MISS:          0
DTLB PREFETCH  REQUESTED:          0  ISSUED:          0  USEFUL:          0  USELESS:          0
DTLB TOTAL MSHR MERGED:     453366
DTLB LOAD MSHR MERGED:     161885
DTLB RFO MSHR MERGED:     291481
DTLB PREFETCH MSHR MERGED:          0
DTLB WRITEBACK MSHR MERGED:          0
DTLB TOTAL ACCESSES:  155624045 HITS:  150258532 MISSES:    5365513
DTLB LOAD ACCESSES:  117882303 HITS:  113329963 MISSES:    4552340
DTLB RFO ACCESSES:   37741742 HITS:   36928569 MISSES:     813173
DTLB PREFETCH ACCESSES:          0 HITS:          0 MISSES:          0
DTLB WRITEBACK ACCESSES:          0 HITS:          0 MISSES:          0
DTLB RQ ACCESS:  205973525
DTLB RQ TO_CACHE:  155624045
DTLB RQ MERGED:   50349480
DTLB RQ FORWARD:          0
DTLB WQ ACCESS:          0
DTLB WQ TO_CACHE:          0
DTLB WQ MERGED:          0
DTLB WQ FORWARD:          0
L1D TOTAL     ACCESS:  277170613  HIT:  242348128  MISS:   34822485
L1D LOAD      ACCESS:  125410262  HIT:  107773802  MISS:   17636460
L1D RFO       ACCESS:   41136435  HIT:   38824598  MISS:    2311837
L1D PREFETCH  ACCESS:  110623916  HIT:   95749728  MISS:   14874188
L1D WRITEBACK ACCESS:          0  HIT:          0  MISS:          0
L1D PREFETCH  REQUESTED:  126270890  ISSUED:  124751660  USEFUL:    2708204  USELESS:   12166010
L1D TOTAL MSHR MERGED:    8502460
L1D LOAD MSHR MERGED:    1555083
L1D RFO MSHR MERGED:    3767683
L1D PREFETCH MSHR MERGED:    3179694
L1D WRITEBACK MSHR MERGED:          0
L1D TOTAL ACCESSES:  285760281 HITS:  242435334 MISSES:   43324947
L1D LOAD ACCESSES:  126270913 HITS:  107773825 MISSES:   18497088
L1D RFO ACCESSES:   44903623 HITS:   38824598 MISSES:    6079025
L1D PREFETCH ACCESSES:  114585745 HITS:   95836911 MISSES:   18748834
L1D WRITEBACK ACCESSES:          0 HITS:          0 MISSES:          0
L1D RQ ACCESS:  158426644
L1D RQ TO_CACHE:  126270890
L1D RQ MERGED:   32155731
L1D RQ FORWARD:          0
L1D WQ ACCESS:   47546882
L1D WQ TO_CACHE:   44903623
L1D WQ MERGED:    2643259
L1D WQ FORWARD:      87206
L1I TOTAL     ACCESS:  132833375  HIT:  132833375  MISS:          0
L1I LOAD      ACCESS:  132833375  HIT:  132833375  MISS:          0
L1I RFO       ACCESS:          0  HIT:          0  MISS:          0
L1I PREFETCH  ACCESS:          0  HIT:          0  MISS:          0
L1I WRITEBACK ACCESS:          0  HIT:          0  MISS:          0
L1I PREFETCH  REQUESTED:          0  ISSUED:          0  USEFUL:          0  USELESS:          0
L1I TOTAL MSHR MERGED:          0
L1I LOAD MSHR MERGED:          0
L1I RFO MSHR MERGED:          0
L1I PREFETCH MSHR MERGED:          0
L1I WRITEBACK MSHR MERGED:          0
L1I TOTAL ACCESSES:  132833375 HITS:  132833375 MISSES:          0
L1I LOAD ACCESSES:  132833375 HITS:  132833375 MISSES:          0
L1I RFO ACCESSES:          0 HITS:          0 MISSES:          0
L1I PREFETCH ACCESSES:          0 HITS:          0 MISSES:          0
L1I WRITEBACK ACCESSES:          0 HITS:          0 MISSES:          0
L1I RQ ACCESS:  499999980
L1I RQ TO_CACHE:  132833375
L1I RQ MERGED:  367166605
L1I RQ FORWARD:          0
L1I WQ ACCESS:          0
L1I WQ TO_CACHE:          0
L1I WQ MERGED:          0
L1I WQ FORWARD:          0
L2C TOTAL     ACCESS:   39595391  HIT:   20626124  MISS:   18969267
L2C LOAD      ACCESS:   16941944  HIT:    8567902  MISS:    8374042
L2C RFO       ACCESS:    2311290  HIT:     630840  MISS:    1680450
L2C PREFETCH  ACCESS:   17119722  HIT:    8208696  MISS:    8911026
L2C WRITEBACK ACCESS:    3222435  HIT:    3218686  MISS:       3749
L2C PREFETCH  REQUESTED:    2864987  ISSUED:    2864987  USEFUL:    1307285  USELESS:    7603482
L2C TOTAL MSHR MERGED:     525931
L2C LOAD MSHR MERGED:      85520
L2C RFO MSHR MERGED:          0
L2C PREFETCH MSHR MERGED:     440411
L2C WRITEBACK MSHR MERGED:          0
L2C TOTAL ACCESSES:   40225514 HITS:   20626287 MISSES:   19599227
L2C LOAD ACCESSES:   16942005 HITS:    8567963 MISSES:    8374042
L2C RFO ACCESSES:    2311342 HITS:     630892 MISSES:    1680450
L2C PREFETCH ACCESSES:   17749732 HITS:    8208746 MISSES:    9540986
L2C WRITEBACK ACCESSES:    3222435 HITS:    3218686 MISSES:       3749
L2C RQ ACCESS:   19253347
L2C RQ TO_CACHE:   19253234
L2C RQ MERGED:          0
L2C RQ FORWARD:          0
L2C WQ ACCESS:    3222435
L2C WQ TO_CACHE:    3222435
L2C WQ MERGED:          0
L2C WQ FORWARD:        163
LLC TOTAL     ACCESS:   21193509  HIT:   14277543  MISS:    6915966
LLC LOAD      ACCESS:    8288500  HIT:    5753672  MISS:    2534828
LLC RFO       ACCESS:    1680367  HIT:    1676430  MISS:       3937
LLC PREFETCH  ACCESS:    9048987  HIT:    4675629  MISS:    4373358
LLC WRITEBACK ACCESS:    2175655  HIT:    2171812  MISS:       3843
LLC PREFETCH  REQUESTED:          0  ISSUED:          0  USEFUL:     204156  USELESS:    4171877
LLC TOTAL MSHR MERGED:      43369
LLC LOAD MSHR MERGED:      13356
LLC RFO MSHR MERGED:          0
LLC PREFETCH MSHR MERGED:      30013
LLC WRITEBACK MSHR MERGED:          0
LLC TOTAL ACCESSES:   21237013 HITS:   14277676 MISSES:    6959337
LLC LOAD ACCESSES:    8288522 HITS:    5753694 MISSES:    2534828
LLC RFO ACCESSES:    1680450 HITS:    1676513 MISSES:       3937
LLC PREFETCH ACCESSES:    9092386 HITS:    4675657 MISSES:    4416729
LLC WRITEBACK ACCESSES:    2175655 HITS:    2171812 MISSES:       3843
LLC 0 RQ ACCESS:    9968972
LLC 0 RQ TO_CACHE:    9968867
LLC 0 RQ MERGED:          0
LLC 0 RQ FORWARD:          0
LLC WQ ACCESS:    2175656
LLC WQ TO_CACHE:    2175656
LLC WQ MERGED:          0
LLC WQ FORWARD:        133
Major fault: 0 Minor fault: 56391
CPU 0 L1D next line prefetcher final stats
CPU 0 L2C PC-based stride prefetcher final stats
All Misses: 8142629
All Hits: 16427725
SD Algo Stats - Switches: 0 SRR-Repls: 2659700 BRR-Repls: 0

DRAM Statistics
 CHANNEL 0
 RQ ROW_BUFFER_HIT:    4610728  ROW_BUFFER_MISS:    2295206
 DBUS_CONGESTED:    3223990
 WQ ROW_BUFFER_HIT:        485  ROW_BUFFER_MISS:      14613  FULL:          0

 AVG_CONGESTED_CYCLE: 12
LOADS RETIRED: 173631671
INSTR RETIRED: 500000000
