
*** ChampSim Multicore Out-of-Order Simulator ***

Warmup Instructions: 100000000
Simulation Instructions: 500000000
Number of CPUs: 1
LLC sets: 2048
LLC ways: 16
Clean RRIP Policies: 2213230222132302 Dirty RRIP Policies: 1203030212030302 PSEL Width: 10 Track Set: 4294967295 PSEL Mask: 1 Demote Mask: 3043100230431002DS Algo: 0Window size: 0
Off-chip DRAM Size: 4096 MB Channels: 1 Width: 64-bit Data Rate: 1600 MT/s

CPU 0 runs /mnt/beegfs/iconst01/spec2017/Omnetpp.trace.gz
NOT SORTED
TRACE STRING: /mnt/beegfs/iconst01/spec2017/Omnetpp.trace.gz
SORTED
TRACE STRING: /mnt/beegfs/iconst01/spec2017/Omnetpp.trace.gz
INITIAL
TRACE STRING: /mnt/beegfs/iconst01/spec2017/Omnetpp.trace.gz

champsim_seed used: 739

CPU 0 L1D next line prefetcher
CPU 0 L2C IP-based stride prefetcher
Initialize DRRIP state
Assign rand_sets[0]: 454  LLC: 2048
rand_sets[0]: 454
Assign rand_sets[1]: 1662  LLC: 2048
rand_sets[1]: 1662
Assign rand_sets[2]: 1921  LLC: 2048
rand_sets[2]: 1921
Assign rand_sets[3]: 1131  LLC: 2048
rand_sets[3]: 1131
Assign rand_sets[4]: 331  LLC: 2048
rand_sets[4]: 331
Assign rand_sets[5]: 1531  LLC: 2048
rand_sets[5]: 1531
Assign rand_sets[6]: 482  LLC: 2048
rand_sets[6]: 482
Assign rand_sets[7]: 1275  LLC: 2048
rand_sets[7]: 1275
Assign rand_sets[8]: 1876  LLC: 2048
rand_sets[8]: 1876
Assign rand_sets[9]: 2038  LLC: 2048
rand_sets[9]: 2038
Assign rand_sets[10]: 701  LLC: 2048
rand_sets[10]: 701
Assign rand_sets[11]: 479  LLC: 2048
rand_sets[11]: 479
Assign rand_sets[12]: 892  LLC: 2048
rand_sets[12]: 892
Assign rand_sets[13]: 1820  LLC: 2048
rand_sets[13]: 1820
Assign rand_sets[14]: 1505  LLC: 2048
rand_sets[14]: 1505
Assign rand_sets[15]: 1159  LLC: 2048
rand_sets[15]: 1159
Assign rand_sets[16]: 513  LLC: 2048
rand_sets[16]: 513
Assign rand_sets[17]: 703  LLC: 2048
rand_sets[17]: 703
Assign rand_sets[18]: 561  LLC: 2048
rand_sets[18]: 561
Assign rand_sets[19]: 990  LLC: 2048
rand_sets[19]: 990
Assign rand_sets[20]: 342  LLC: 2048
rand_sets[20]: 342
Assign rand_sets[21]: 882  LLC: 2048
rand_sets[21]: 882
Assign rand_sets[22]: 15  LLC: 2048
rand_sets[22]: 15
Assign rand_sets[23]: 71  LLC: 2048
rand_sets[23]: 71
Assign rand_sets[24]: 1127  LLC: 2048
rand_sets[24]: 1127
Assign rand_sets[25]: 1382  LLC: 2048
rand_sets[25]: 1382
Assign rand_sets[26]: 647  LLC: 2048
rand_sets[26]: 647
Assign rand_sets[27]: 857  LLC: 2048
rand_sets[27]: 857
Assign rand_sets[28]: 1450  LLC: 2048
rand_sets[28]: 1450
Assign rand_sets[29]: 1160  LLC: 2048
rand_sets[29]: 1160
Assign rand_sets[30]: 1852  LLC: 2048
rand_sets[30]: 1852
Assign rand_sets[31]: 1881  LLC: 2048
rand_sets[31]: 1881
Assign rand_sets[32]: 1770  LLC: 2048
rand_sets[32]: 1770
Assign rand_sets[33]: 1622  LLC: 2048
rand_sets[33]: 1622
Assign rand_sets[34]: 275  LLC: 2048
rand_sets[34]: 275
Assign rand_sets[35]: 635  LLC: 2048
rand_sets[35]: 635
Assign rand_sets[36]: 466  LLC: 2048
rand_sets[36]: 466
Assign rand_sets[37]: 1413  LLC: 2048
rand_sets[37]: 1413
Assign rand_sets[38]: 417  LLC: 2048
rand_sets[38]: 417
Assign rand_sets[39]: 472  LLC: 2048
rand_sets[39]: 472
Assign rand_sets[40]: 1340  LLC: 2048
rand_sets[40]: 1340
Assign rand_sets[41]: 852  LLC: 2048
rand_sets[41]: 852
Assign rand_sets[42]: 1365  LLC: 2048
rand_sets[42]: 1365
Assign rand_sets[43]: 47  LLC: 2048
rand_sets[43]: 47
Assign rand_sets[44]: 823  LLC: 2048
rand_sets[44]: 823
Assign rand_sets[45]: 686  LLC: 2048
rand_sets[45]: 686
Assign rand_sets[46]: 1637  LLC: 2048
rand_sets[46]: 1637
Assign rand_sets[47]: 1115  LLC: 2048
rand_sets[47]: 1115
Assign rand_sets[48]: 986  LLC: 2048
rand_sets[48]: 986
Assign rand_sets[49]: 258  LLC: 2048
rand_sets[49]: 258
Assign rand_sets[50]: 633  LLC: 2048
rand_sets[50]: 633
Assign rand_sets[51]: 920  LLC: 2048
rand_sets[51]: 920
Assign rand_sets[52]: 204  LLC: 2048
rand_sets[52]: 204
Assign rand_sets[53]: 227  LLC: 2048
rand_sets[53]: 227
Assign rand_sets[54]: 1818  LLC: 2048
rand_sets[54]: 1818
Assign rand_sets[55]: 886  LLC: 2048
rand_sets[55]: 886
Assign rand_sets[56]: 1422  LLC: 2048
rand_sets[56]: 1422
Assign rand_sets[57]: 607  LLC: 2048
rand_sets[57]: 607
Assign rand_sets[58]: 217  LLC: 2048
rand_sets[58]: 217
Assign rand_sets[59]: 1945  LLC: 2048
rand_sets[59]: 1945
Assign rand_sets[60]: 143  LLC: 2048
rand_sets[60]: 143
Assign rand_sets[61]: 1311  LLC: 2048
rand_sets[61]: 1311
Assign rand_sets[62]: 319  LLC: 2048
rand_sets[62]: 319
Assign rand_sets[63]: 1846  LLC: 2048
rand_sets[63]: 1846
 CLEAN-RRIP-POLICY-1: 2-2-1-3-2-3-0-2- CLEAN-RRIP-POLICY-2: 2-2-1-3-2-3-0-2-
 DIRTY-RRIP-POLICY-1: 1-2-0-3-0-3-0-2- DIRTY-RRIP-POLICY-2: 1-2-0-3-0-3-0-2-
 PSEL width: 10
Heartbeat CPU 0 instructions: 10000000 cycles: 7319952 heartbeat IPC: 1.36613 cumulative IPC: 1.36613 (Simulation time: 0 hr 0 min 19 sec) 
Heartbeat CPU 0 instructions: 20000000 cycles: 14623781 heartbeat IPC: 1.36914 cumulative IPC: 1.36764 (Simulation time: 0 hr 0 min 39 sec) 
Heartbeat CPU 0 instructions: 30000003 cycles: 21925214 heartbeat IPC: 1.36959 cumulative IPC: 1.36829 (Simulation time: 0 hr 0 min 59 sec) 
Heartbeat CPU 0 instructions: 40000000 cycles: 29213584 heartbeat IPC: 1.37205 cumulative IPC: 1.36923 (Simulation time: 0 hr 1 min 20 sec) 
Heartbeat CPU 0 instructions: 50000000 cycles: 36490073 heartbeat IPC: 1.37429 cumulative IPC: 1.37024 (Simulation time: 0 hr 1 min 40 sec) 
Heartbeat CPU 0 instructions: 60000000 cycles: 43770171 heartbeat IPC: 1.37361 cumulative IPC: 1.3708 (Simulation time: 0 hr 2 min 0 sec) 
Heartbeat CPU 0 instructions: 70000001 cycles: 51055532 heartbeat IPC: 1.37262 cumulative IPC: 1.37106 (Simulation time: 0 hr 2 min 20 sec) 
Heartbeat CPU 0 instructions: 80000000 cycles: 58330671 heartbeat IPC: 1.37454 cumulative IPC: 1.37149 (Simulation time: 0 hr 2 min 41 sec) 
Heartbeat CPU 0 instructions: 90000000 cycles: 65637017 heartbeat IPC: 1.36867 cumulative IPC: 1.37118 (Simulation time: 0 hr 3 min 1 sec) 
Heartbeat CPU 0 instructions: 100000000 cycles: 72929183 heartbeat IPC: 1.37133 cumulative IPC: 1.37119 (Simulation time: 0 hr 3 min 21 sec) 

Warmup complete CPU 0 instructions: 100000002 cycles: 72929184 (Simulation time: 0 hr 3 min 21 sec) 

Heartbeat CPU 0 instructions: 110000002 cycles: 113451985 heartbeat IPC: 0.246775 cumulative IPC: 0.246775 (Simulation time: 0 hr 4 min 2 sec) 
Heartbeat CPU 0 instructions: 120000000 cycles: 153677188 heartbeat IPC: 0.2486 cumulative IPC: 0.247684 (Simulation time: 0 hr 4 min 42 sec) 
Heartbeat CPU 0 instructions: 130000002 cycles: 194121819 heartbeat IPC: 0.247252 cumulative IPC: 0.24754 (Simulation time: 0 hr 5 min 23 sec) 
Heartbeat CPU 0 instructions: 140000000 cycles: 234683539 heartbeat IPC: 0.246538 cumulative IPC: 0.247289 (Simulation time: 0 hr 6 min 4 sec) 
Heartbeat CPU 0 instructions: 150000002 cycles: 274806840 heartbeat IPC: 0.249232 cumulative IPC: 0.247675 (Simulation time: 0 hr 6 min 45 sec) 
Heartbeat CPU 0 instructions: 160000000 cycles: 314948816 heartbeat IPC: 0.249116 cumulative IPC: 0.247914 (Simulation time: 0 hr 7 min 25 sec) 
Heartbeat CPU 0 instructions: 170000001 cycles: 354349839 heartbeat IPC: 0.253801 cumulative IPC: 0.248738 (Simulation time: 0 hr 8 min 6 sec) 
Heartbeat CPU 0 instructions: 180000000 cycles: 394488991 heartbeat IPC: 0.249133 cumulative IPC: 0.248787 (Simulation time: 0 hr 8 min 46 sec) 
Heartbeat CPU 0 instructions: 190000002 cycles: 434610483 heartbeat IPC: 0.249243 cumulative IPC: 0.248838 (Simulation time: 0 hr 9 min 27 sec) 
Heartbeat CPU 0 instructions: 200000000 cycles: 475948262 heartbeat IPC: 0.241909 cumulative IPC: 0.248127 (Simulation time: 0 hr 10 min 8 sec) 
Heartbeat CPU 0 instructions: 210000003 cycles: 516137995 heartbeat IPC: 0.24882 cumulative IPC: 0.24819 (Simulation time: 0 hr 10 min 48 sec) 
Heartbeat CPU 0 instructions: 220000000 cycles: 556535635 heartbeat IPC: 0.247539 cumulative IPC: 0.248136 (Simulation time: 0 hr 11 min 29 sec) 
Heartbeat CPU 0 instructions: 230000000 cycles: 596895578 heartbeat IPC: 0.24777 cumulative IPC: 0.248108 (Simulation time: 0 hr 12 min 10 sec) 
Heartbeat CPU 0 instructions: 240000000 cycles: 636972853 heartbeat IPC: 0.249518 cumulative IPC: 0.248208 (Simulation time: 0 hr 12 min 50 sec) 
Heartbeat CPU 0 instructions: 250000000 cycles: 677123005 heartbeat IPC: 0.249065 cumulative IPC: 0.248265 (Simulation time: 0 hr 13 min 30 sec) 
Heartbeat CPU 0 instructions: 260000000 cycles: 717377528 heartbeat IPC: 0.248419 cumulative IPC: 0.248274 (Simulation time: 0 hr 14 min 10 sec) 
Heartbeat CPU 0 instructions: 270000000 cycles: 757694192 heartbeat IPC: 0.248036 cumulative IPC: 0.24826 (Simulation time: 0 hr 14 min 50 sec) 
Heartbeat CPU 0 instructions: 280000000 cycles: 798358664 heartbeat IPC: 0.245915 cumulative IPC: 0.248129 (Simulation time: 0 hr 15 min 30 sec) 
Heartbeat CPU 0 instructions: 290000001 cycles: 838245057 heartbeat IPC: 0.250712 cumulative IPC: 0.248264 (Simulation time: 0 hr 16 min 10 sec) 
Heartbeat CPU 0 instructions: 300000000 cycles: 878781084 heartbeat IPC: 0.246694 cumulative IPC: 0.248185 (Simulation time: 0 hr 16 min 50 sec) 
Heartbeat CPU 0 instructions: 310000000 cycles: 919280988 heartbeat IPC: 0.246914 cumulative IPC: 0.248124 (Simulation time: 0 hr 17 min 29 sec) 
Heartbeat CPU 0 instructions: 320000000 cycles: 959508592 heartbeat IPC: 0.248586 cumulative IPC: 0.248145 (Simulation time: 0 hr 18 min 8 sec) 
Heartbeat CPU 0 instructions: 330000000 cycles: 999716807 heartbeat IPC: 0.248705 cumulative IPC: 0.248169 (Simulation time: 0 hr 18 min 47 sec) 
Heartbeat CPU 0 instructions: 340000000 cycles: 1040525154 heartbeat IPC: 0.245048 cumulative IPC: 0.248037 (Simulation time: 0 hr 19 min 27 sec) 
Heartbeat CPU 0 instructions: 350000001 cycles: 1080801957 heartbeat IPC: 0.248282 cumulative IPC: 0.248047 (Simulation time: 0 hr 20 min 6 sec) 
Heartbeat CPU 0 instructions: 360000000 cycles: 1121360729 heartbeat IPC: 0.246556 cumulative IPC: 0.247989 (Simulation time: 0 hr 20 min 45 sec) 
Heartbeat CPU 0 instructions: 370000000 cycles: 1160994454 heartbeat IPC: 0.25231 cumulative IPC: 0.248147 (Simulation time: 0 hr 21 min 23 sec) 
Heartbeat CPU 0 instructions: 380000000 cycles: 1201564271 heartbeat IPC: 0.246489 cumulative IPC: 0.248087 (Simulation time: 0 hr 22 min 2 sec) 
Heartbeat CPU 0 instructions: 390000001 cycles: 1241660985 heartbeat IPC: 0.249397 cumulative IPC: 0.248132 (Simulation time: 0 hr 22 min 41 sec) 
Heartbeat CPU 0 instructions: 400000000 cycles: 1281847594 heartbeat IPC: 0.248839 cumulative IPC: 0.248156 (Simulation time: 0 hr 23 min 20 sec) 
Heartbeat CPU 0 instructions: 410000000 cycles: 1321862471 heartbeat IPC: 0.249907 cumulative IPC: 0.248212 (Simulation time: 0 hr 23 min 59 sec) 
Heartbeat CPU 0 instructions: 420000000 cycles: 1361929290 heartbeat IPC: 0.249583 cumulative IPC: 0.248254 (Simulation time: 0 hr 24 min 38 sec) 
Heartbeat CPU 0 instructions: 430000000 cycles: 1402041801 heartbeat IPC: 0.249299 cumulative IPC: 0.248286 (Simulation time: 0 hr 25 min 16 sec) 
Heartbeat CPU 0 instructions: 440000000 cycles: 1442206467 heartbeat IPC: 0.248975 cumulative IPC: 0.248306 (Simulation time: 0 hr 25 min 55 sec) 
Heartbeat CPU 0 instructions: 450000002 cycles: 1482231506 heartbeat IPC: 0.249844 cumulative IPC: 0.24835 (Simulation time: 0 hr 26 min 34 sec) 
Heartbeat CPU 0 instructions: 460000000 cycles: 1521715297 heartbeat IPC: 0.253268 cumulative IPC: 0.248484 (Simulation time: 0 hr 27 min 13 sec) 
Heartbeat CPU 0 instructions: 470000000 cycles: 1562030583 heartbeat IPC: 0.248045 cumulative IPC: 0.248472 (Simulation time: 0 hr 27 min 52 sec) 
Heartbeat CPU 0 instructions: 480000000 cycles: 1602011497 heartbeat IPC: 0.250119 cumulative IPC: 0.248515 (Simulation time: 0 hr 28 min 30 sec) 
Heartbeat CPU 0 instructions: 490000001 cycles: 1642148582 heartbeat IPC: 0.249146 cumulative IPC: 0.248531 (Simulation time: 0 hr 29 min 8 sec) 
Heartbeat CPU 0 instructions: 500000000 cycles: 1682477581 heartbeat IPC: 0.247961 cumulative IPC: 0.248517 (Simulation time: 0 hr 29 min 46 sec) 
Heartbeat CPU 0 instructions: 510000000 cycles: 1722261243 heartbeat IPC: 0.251359 cumulative IPC: 0.248585 (Simulation time: 0 hr 30 min 22 sec) 
Heartbeat CPU 0 instructions: 520000000 cycles: 1762788792 heartbeat IPC: 0.246746 cumulative IPC: 0.248541 (Simulation time: 0 hr 30 min 58 sec) 
Heartbeat CPU 0 instructions: 530000000 cycles: 1802801711 heartbeat IPC: 0.249919 cumulative IPC: 0.248573 (Simulation time: 0 hr 31 min 35 sec) 
Heartbeat CPU 0 instructions: 540000000 cycles: 1842563763 heartbeat IPC: 0.251496 cumulative IPC: 0.248639 (Simulation time: 0 hr 32 min 11 sec) 
Heartbeat CPU 0 instructions: 550000001 cycles: 1883047577 heartbeat IPC: 0.247012 cumulative IPC: 0.248603 (Simulation time: 0 hr 32 min 47 sec) 
Heartbeat CPU 0 instructions: 560000000 cycles: 1923615052 heartbeat IPC: 0.246503 cumulative IPC: 0.248556 (Simulation time: 0 hr 33 min 24 sec) 
Heartbeat CPU 0 instructions: 570000003 cycles: 1964163419 heartbeat IPC: 0.246619 cumulative IPC: 0.248515 (Simulation time: 0 hr 34 min 0 sec) 
Heartbeat CPU 0 instructions: 580000000 cycles: 2004554008 heartbeat IPC: 0.247582 cumulative IPC: 0.248495 (Simulation time: 0 hr 34 min 37 sec) 
Heartbeat CPU 0 instructions: 590000001 cycles: 2045337541 heartbeat IPC: 0.245197 cumulative IPC: 0.248427 (Simulation time: 0 hr 35 min 13 sec) 
Heartbeat CPU 0 instructions: 600000000 cycles: 2085886283 heartbeat IPC: 0.246617 cumulative IPC: 0.248391 (Simulation time: 0 hr 35 min 50 sec) 
Finished CPU 0 instructions: 500000000 cycles: 2012957107 cumulative IPC: 0.248391 (Simulation time: 0 hr 35 min 50 sec) 

CPU 0 Branch Prediction Accuracy: 96.2429% MPKI: 5.85335
Number of Branches: 77897976 Number of Mispredictions: 2926674
Number of LOAD Instructions: 193081861
Number of LOAD Instructions (ROI): 193081861
Number of STORE Instructions: 97310749
Number of STORE Instructions (ROI): 97310749
Total Destination Memory Operands: 106368027
Total Destination Memory Operands (ROI): 106368027
Total Source Memory Operands: 193081861
Total Source Memory Operands (ROI): 193081861
Number of DEPENDED LOADS: 6433202
Number of DEPENDED LOADS (ROI): 6433202
Number of SQ_ADDED: 106367982
Number of SQ_ADDED (ROI): 106367982
Number of LQ_ADDED: 428055460
Number of LQ_ADDED (ROI): 428055460
Number of Instructions read from trace: 600000256

ChampSim completed all CPUs

Region of Interest Statistics

CPU 0 cumulative IPC: 0.248391 instructions: 500000000 cycles: 2012957107
ITLB TOTAL     ACCESS:  151297957  HIT:  151282126  MISS:      15831
ITLB LOAD      ACCESS:  151297957  HIT:  151282126  MISS:      15831
ITLB RFO       ACCESS:          0  HIT:          0  MISS:          0
ITLB PREFETCH  ACCESS:          0  HIT:          0  MISS:          0
ITLB WRITEBACK ACCESS:          0  HIT:          0  MISS:          0
ITLB PREFETCH  REQUESTED:          0  ISSUED:          0  USEFUL:          0  USELESS:          0
ITLB TOTAL MSHR MERGED:      17464
ITLB LOAD MSHR MERGED:      17464
ITLB RFO MSHR MERGED:          0
ITLB PREFETCH MSHR MERGED:          0
ITLB WRITEBACK MSHR MERGED:          0
ITLB TOTAL ACCESSES:  151315421 HITS:  151282126 MISSES:      33295
ITLB LOAD ACCESSES:  151315421 HITS:  151282126 MISSES:      33295
ITLB RFO ACCESSES:          0 HITS:          0 MISSES:          0
ITLB PREFETCH ACCESSES:          0 HITS:          0 MISSES:          0
ITLB WRITEBACK ACCESSES:          0 HITS:          0 MISSES:          0
ITLB RQ ACCESS:  500000242
ITLB RQ TO_CACHE:  151315421
ITLB RQ MERGED:  348684821
ITLB RQ FORWARD:          0
ITLB WQ ACCESS:          0
ITLB WQ TO_CACHE:          0
ITLB WQ MERGED:          0
ITLB WQ FORWARD:          0
DTLB TOTAL     ACCESS:  199569773  HIT:  194190719  MISS:    5379054
DTLB LOAD      ACCESS:  123143622  HIT:  118125043  MISS:    5018579
DTLB RFO       ACCESS:   76426151  HIT:   76065676  MISS:     360475
DTLB PREFETCH  ACCESS:          0  HIT:          0  MISS:          0
DTLB WRITEBACK ACCESS:          0  HIT:          0  MISS:          0
DTLB PREFETCH  REQUESTED:          0  ISSUED:          0  USEFUL:          0  USELESS:          0
DTLB TOTAL MSHR MERGED:     917465
DTLB LOAD MSHR MERGED:     807528
DTLB RFO MSHR MERGED:     109937
DTLB PREFETCH MSHR MERGED:          0
DTLB WRITEBACK MSHR MERGED:          0
DTLB TOTAL ACCESSES:  200487238 HITS:  194190719 MISSES:    6296519
DTLB LOAD ACCESSES:  123951150 HITS:  118125043 MISSES:    5826107
DTLB RFO ACCESSES:   76536088 HITS:   76065676 MISSES:     470412
DTLB PREFETCH ACCESSES:          0 HITS:          0 MISSES:          0
DTLB WRITEBACK ACCESSES:          0 HITS:          0 MISSES:          0
DTLB RQ ACCESS:  243892423
DTLB RQ TO_CACHE:  200487238
DTLB RQ MERGED:   43405185
DTLB RQ FORWARD:          0
DTLB WQ ACCESS:          0
DTLB WQ TO_CACHE:          0
DTLB WQ MERGED:          0
DTLB WQ FORWARD:          0
L1D TOTAL     ACCESS:  335641405  HIT:  317545137  MISS:   18096268
L1D LOAD      ACCESS:  127705736  HIT:  118763782  MISS:    8941954
L1D RFO       ACCESS:   87079818  HIT:   86300900  MISS:     778918
L1D PREFETCH  ACCESS:  120855851  HIT:  112480455  MISS:    8375396
L1D WRITEBACK ACCESS:          0  HIT:          0  MISS:          0
L1D PREFETCH  REQUESTED:  128485104  ISSUED:  126887100  USEFUL:    1744257  USELESS:    6631150
L1D TOTAL MSHR MERGED:    3830847
L1D LOAD MSHR MERGED:     941956
L1D RFO MSHR MERGED:    1063419
L1D PREFETCH MSHR MERGED:    1825472
L1D WRITEBACK MSHR MERGED:          0
L1D TOTAL ACCESSES:  339558902 HITS:  317631787 MISSES:   21927115
L1D LOAD ACCESSES:  128485554 HITS:  118764232 MISSES:    9721322
L1D RFO ACCESSES:   88084632 HITS:   86300900 MISSES:    1783732
L1D PREFETCH ACCESSES:  122988716 HITS:  112566655 MISSES:   10422061
L1D WRITEBACK ACCESSES:          0 HITS:          0 MISSES:          0
L1D RQ ACCESS:  155261038
L1D RQ TO_CACHE:  128485104
L1D RQ MERGED:   26775484
L1D RQ FORWARD:          0
L1D WQ ACCESS:   88631385
L1D WQ TO_CACHE:   88084631
L1D WQ MERGED:     546754
L1D WQ FORWARD:      86650
L1I TOTAL     ACCESS:  175599110  HIT:  175332643  MISS:     266467
L1I LOAD      ACCESS:  175599110  HIT:  175332643  MISS:     266467
L1I RFO       ACCESS:          0  HIT:          0  MISS:          0
L1I PREFETCH  ACCESS:          0  HIT:          0  MISS:          0
L1I WRITEBACK ACCESS:          0  HIT:          0  MISS:          0
L1I PREFETCH  REQUESTED:          0  ISSUED:          0  USEFUL:          0  USELESS:          0
L1I TOTAL MSHR MERGED:     213188
L1I LOAD MSHR MERGED:     213188
L1I RFO MSHR MERGED:          0
L1I PREFETCH MSHR MERGED:          0
L1I WRITEBACK MSHR MERGED:          0
L1I TOTAL ACCESSES:  175812298 HITS:  175332643 MISSES:     479655
L1I LOAD ACCESSES:  175812298 HITS:  175332643 MISSES:     479655
L1I RFO ACCESSES:          0 HITS:          0 MISSES:          0
L1I PREFETCH ACCESSES:          0 HITS:          0 MISSES:          0
L1I WRITEBACK ACCESSES:          0 HITS:          0 MISSES:          0
L1I RQ ACCESS:  500000242
L1I RQ TO_CACHE:  175812298
L1I RQ MERGED:  324187944
L1I RQ FORWARD:          0
L1I WQ ACCESS:          0
L1I WQ TO_CACHE:          0
L1I WQ MERGED:          0
L1I WQ FORWARD:          0
L2C TOTAL     ACCESS:   23738846  HIT:   12113049  MISS:   11625797
L2C LOAD      ACCESS:    9044650  HIT:    3565049  MISS:    5479601
L2C RFO       ACCESS:     720257  HIT:     130103  MISS:     590154
L2C PREFETCH  ACCESS:    8613594  HIT:    3086259  MISS:    5527335
L2C WRITEBACK ACCESS:    5360345  HIT:    5331638  MISS:      28707
L2C PREFETCH  REQUESTED:      18049  ISSUED:      18049  USEFUL:     322989  USELESS:    5204521
L2C TOTAL MSHR MERGED:         25
L2C LOAD MSHR MERGED:          2
L2C RFO MSHR MERGED:          0
L2C PREFETCH MSHR MERGED:         23
L2C WRITEBACK MSHR MERGED:          0
L2C TOTAL ACCESSES:   23740668 HITS:   12114840 MISSES:   11625828
L2C LOAD ACCESSES:    9045833 HITS:    3566232 MISSES:    5479601
L2C RFO ACCESSES:     720313 HITS:     130159 MISSES:     590154
L2C PREFETCH ACCESSES:    8614177 HITS:    3086811 MISSES:    5527366
L2C WRITEBACK ACCESSES:    5360345 HITS:    5331638 MISSES:      28707
L2C RQ ACCESS:    9766146
L2C RQ TO_CACHE:    9764907
L2C RQ MERGED:          0
L2C RQ FORWARD:          0
L2C WQ ACCESS:    5360345
L2C WQ TO_CACHE:    5360345
L2C WQ MERGED:          0
L2C WQ FORWARD:       1791
LLC TOTAL     ACCESS:   15448722  HIT:    6407851  MISS:    9040871
LLC LOAD      ACCESS:    5479571  HIT:    2028040  MISS:    3451531
LLC RFO       ACCESS:     590152  HIT:     285753  MISS:     304399
LLC PREFETCH  ACCESS:    5527326  HIT:    1088699  MISS:    4438627
LLC WRITEBACK ACCESS:    3851673  HIT:    3005359  MISS:     846314
LLC PREFETCH  REQUESTED:          0  ISSUED:          0  USEFUL:      23902  USELESS:    4415241
LLC TOTAL MSHR MERGED:          0
LLC LOAD MSHR MERGED:          0
LLC RFO MSHR MERGED:          0
LLC PREFETCH MSHR MERGED:          0
LLC WRITEBACK MSHR MERGED:          0
LLC TOTAL ACCESSES:   15448769 HITS:    6407898 MISSES:    9040871
LLC LOAD ACCESSES:    5479599 HITS:    2028068 MISSES:    3451531
LLC RFO ACCESSES:     590154 HITS:     285755 MISSES:     304399
LLC PREFETCH ACCESSES:    5527343 HITS:    1088716 MISSES:    4438627
LLC WRITEBACK ACCESSES:    3851673 HITS:    3005359 MISSES:     846314
LLC 0 RQ ACCESS:    6069753
LLC 0 RQ TO_CACHE:    6069723
LLC 0 RQ MERGED:          0
LLC 0 RQ FORWARD:          0
LLC WQ ACCESS:    3851673
LLC WQ TO_CACHE:    3851673
LLC WQ MERGED:          0
LLC WQ FORWARD:         47
Major fault: 0 Minor fault: 44814
CPU 0 L1D next line prefetcher final stats
CPU 0 L2C PC-based stride prefetcher final stats
All Misses: 10935041
All Hits: 7686183
SD Algo Stats - Switches: 0 SRR-Repls: 3939757 BRR-Repls: 0

DRAM Statistics
 CHANNEL 0
 RQ ROW_BUFFER_HIT:    1448852  ROW_BUFFER_MISS:    6744584
 DBUS_CONGESTED:    5456758
 WQ ROW_BUFFER_HIT:     168969  ROW_BUFFER_MISS:    2052090  FULL:          0

 AVG_CONGESTED_CYCLE: 13
LOADS RETIRED: 160808997
INSTR RETIRED: 500000000
