
*** ChampSim Multicore Out-of-Order Simulator ***

Warmup Instructions: 100000000
Simulation Instructions: 500000000
Number of CPUs: 1
LLC sets: 2048
LLC ways: 16
Clean RRIP Policies: 2213230222132302 Dirty RRIP Policies: 1203030212030302 PSEL Width: 10 Track Set: 4294967295 PSEL Mask: 1 Demote Mask: 3043100230431002DS Algo: 0Window size: 0
Off-chip DRAM Size: 4096 MB Channels: 1 Width: 64-bit Data Rate: 1600 MT/s

CPU 0 runs /mnt/beegfs/iconst01/spec2017/Parest.trace.gz
NOT SORTED
TRACE STRING: /mnt/beegfs/iconst01/spec2017/Parest.trace.gz
SORTED
TRACE STRING: /mnt/beegfs/iconst01/spec2017/Parest.trace.gz
INITIAL
TRACE STRING: /mnt/beegfs/iconst01/spec2017/Parest.trace.gz

champsim_seed used: 623

CPU 0 L1D next line prefetcher
CPU 0 L2C IP-based stride prefetcher
Initialize DRRIP state
Assign rand_sets[0]: 454  LLC: 2048
rand_sets[0]: 454
Assign rand_sets[1]: 1662  LLC: 2048
rand_sets[1]: 1662
Assign rand_sets[2]: 1921  LLC: 2048
rand_sets[2]: 1921
Assign rand_sets[3]: 1131  LLC: 2048
rand_sets[3]: 1131
Assign rand_sets[4]: 331  LLC: 2048
rand_sets[4]: 331
Assign rand_sets[5]: 1531  LLC: 2048
rand_sets[5]: 1531
Assign rand_sets[6]: 482  LLC: 2048
rand_sets[6]: 482
Assign rand_sets[7]: 1275  LLC: 2048
rand_sets[7]: 1275
Assign rand_sets[8]: 1876  LLC: 2048
rand_sets[8]: 1876
Assign rand_sets[9]: 2038  LLC: 2048
rand_sets[9]: 2038
Assign rand_sets[10]: 701  LLC: 2048
rand_sets[10]: 701
Assign rand_sets[11]: 479  LLC: 2048
rand_sets[11]: 479
Assign rand_sets[12]: 892  LLC: 2048
rand_sets[12]: 892
Assign rand_sets[13]: 1820  LLC: 2048
rand_sets[13]: 1820
Assign rand_sets[14]: 1505  LLC: 2048
rand_sets[14]: 1505
Assign rand_sets[15]: 1159  LLC: 2048
rand_sets[15]: 1159
Assign rand_sets[16]: 513  LLC: 2048
rand_sets[16]: 513
Assign rand_sets[17]: 703  LLC: 2048
rand_sets[17]: 703
Assign rand_sets[18]: 561  LLC: 2048
rand_sets[18]: 561
Assign rand_sets[19]: 990  LLC: 2048
rand_sets[19]: 990
Assign rand_sets[20]: 342  LLC: 2048
rand_sets[20]: 342
Assign rand_sets[21]: 882  LLC: 2048
rand_sets[21]: 882
Assign rand_sets[22]: 15  LLC: 2048
rand_sets[22]: 15
Assign rand_sets[23]: 71  LLC: 2048
rand_sets[23]: 71
Assign rand_sets[24]: 1127  LLC: 2048
rand_sets[24]: 1127
Assign rand_sets[25]: 1382  LLC: 2048
rand_sets[25]: 1382
Assign rand_sets[26]: 647  LLC: 2048
rand_sets[26]: 647
Assign rand_sets[27]: 857  LLC: 2048
rand_sets[27]: 857
Assign rand_sets[28]: 1450  LLC: 2048
rand_sets[28]: 1450
Assign rand_sets[29]: 1160  LLC: 2048
rand_sets[29]: 1160
Assign rand_sets[30]: 1852  LLC: 2048
rand_sets[30]: 1852
Assign rand_sets[31]: 1881  LLC: 2048
rand_sets[31]: 1881
Assign rand_sets[32]: 1770  LLC: 2048
rand_sets[32]: 1770
Assign rand_sets[33]: 1622  LLC: 2048
rand_sets[33]: 1622
Assign rand_sets[34]: 275  LLC: 2048
rand_sets[34]: 275
Assign rand_sets[35]: 635  LLC: 2048
rand_sets[35]: 635
Assign rand_sets[36]: 466  LLC: 2048
rand_sets[36]: 466
Assign rand_sets[37]: 1413  LLC: 2048
rand_sets[37]: 1413
Assign rand_sets[38]: 417  LLC: 2048
rand_sets[38]: 417
Assign rand_sets[39]: 472  LLC: 2048
rand_sets[39]: 472
Assign rand_sets[40]: 1340  LLC: 2048
rand_sets[40]: 1340
Assign rand_sets[41]: 852  LLC: 2048
rand_sets[41]: 852
Assign rand_sets[42]: 1365  LLC: 2048
rand_sets[42]: 1365
Assign rand_sets[43]: 47  LLC: 2048
rand_sets[43]: 47
Assign rand_sets[44]: 823  LLC: 2048
rand_sets[44]: 823
Assign rand_sets[45]: 686  LLC: 2048
rand_sets[45]: 686
Assign rand_sets[46]: 1637  LLC: 2048
rand_sets[46]: 1637
Assign rand_sets[47]: 1115  LLC: 2048
rand_sets[47]: 1115
Assign rand_sets[48]: 986  LLC: 2048
rand_sets[48]: 986
Assign rand_sets[49]: 258  LLC: 2048
rand_sets[49]: 258
Assign rand_sets[50]: 633  LLC: 2048
rand_sets[50]: 633
Assign rand_sets[51]: 920  LLC: 2048
rand_sets[51]: 920
Assign rand_sets[52]: 204  LLC: 2048
rand_sets[52]: 204
Assign rand_sets[53]: 227  LLC: 2048
rand_sets[53]: 227
Assign rand_sets[54]: 1818  LLC: 2048
rand_sets[54]: 1818
Assign rand_sets[55]: 886  LLC: 2048
rand_sets[55]: 886
Assign rand_sets[56]: 1422  LLC: 2048
rand_sets[56]: 1422
Assign rand_sets[57]: 607  LLC: 2048
rand_sets[57]: 607
Assign rand_sets[58]: 217  LLC: 2048
rand_sets[58]: 217
Assign rand_sets[59]: 1945  LLC: 2048
rand_sets[59]: 1945
Assign rand_sets[60]: 143  LLC: 2048
rand_sets[60]: 143
Assign rand_sets[61]: 1311  LLC: 2048
rand_sets[61]: 1311
Assign rand_sets[62]: 319  LLC: 2048
rand_sets[62]: 319
Assign rand_sets[63]: 1846  LLC: 2048
rand_sets[63]: 1846
 CLEAN-RRIP-POLICY-1: 2-2-1-3-2-3-0-2- CLEAN-RRIP-POLICY-2: 2-2-1-3-2-3-0-2-
 DIRTY-RRIP-POLICY-1: 1-2-0-3-0-3-0-2- DIRTY-RRIP-POLICY-2: 1-2-0-3-0-3-0-2-
 PSEL width: 10
Heartbeat CPU 0 instructions: 10000001 cycles: 4387169 heartbeat IPC: 2.27937 cumulative IPC: 2.27937 (Simulation time: 0 hr 0 min 14 sec) 
Heartbeat CPU 0 instructions: 20000000 cycles: 8781531 heartbeat IPC: 2.27564 cumulative IPC: 2.27751 (Simulation time: 0 hr 0 min 29 sec) 
Heartbeat CPU 0 instructions: 30000003 cycles: 13213556 heartbeat IPC: 2.25631 cumulative IPC: 2.2704 (Simulation time: 0 hr 0 min 44 sec) 
Heartbeat CPU 0 instructions: 40000000 cycles: 17644263 heartbeat IPC: 2.25698 cumulative IPC: 2.26703 (Simulation time: 0 hr 0 min 59 sec) 
Heartbeat CPU 0 instructions: 50000000 cycles: 22052840 heartbeat IPC: 2.26831 cumulative IPC: 2.26728 (Simulation time: 0 hr 1 min 13 sec) 
Heartbeat CPU 0 instructions: 60000000 cycles: 26458831 heartbeat IPC: 2.26964 cumulative IPC: 2.26767 (Simulation time: 0 hr 1 min 28 sec) 
Heartbeat CPU 0 instructions: 70000000 cycles: 30859896 heartbeat IPC: 2.27218 cumulative IPC: 2.26832 (Simulation time: 0 hr 1 min 43 sec) 
Heartbeat CPU 0 instructions: 80000000 cycles: 35255628 heartbeat IPC: 2.27493 cumulative IPC: 2.26914 (Simulation time: 0 hr 1 min 58 sec) 
Heartbeat CPU 0 instructions: 90000000 cycles: 39650039 heartbeat IPC: 2.27562 cumulative IPC: 2.26986 (Simulation time: 0 hr 2 min 13 sec) 
Heartbeat CPU 0 instructions: 100000000 cycles: 44047493 heartbeat IPC: 2.27404 cumulative IPC: 2.27028 (Simulation time: 0 hr 2 min 28 sec) 

Warmup complete CPU 0 instructions: 100000002 cycles: 44047503 (Simulation time: 0 hr 2 min 28 sec) 

Heartbeat CPU 0 instructions: 110000000 cycles: 53986861 heartbeat IPC: 1.0061 cumulative IPC: 1.0061 (Simulation time: 0 hr 2 min 47 sec) 
Heartbeat CPU 0 instructions: 120000000 cycles: 62952782 heartbeat IPC: 1.11533 cumulative IPC: 1.05791 (Simulation time: 0 hr 3 min 5 sec) 
Heartbeat CPU 0 instructions: 130000000 cycles: 71972642 heartbeat IPC: 1.10866 cumulative IPC: 1.0743 (Simulation time: 0 hr 3 min 24 sec) 
Heartbeat CPU 0 instructions: 140000000 cycles: 81131833 heartbeat IPC: 1.0918 cumulative IPC: 1.07862 (Simulation time: 0 hr 3 min 43 sec) 
Heartbeat CPU 0 instructions: 150000000 cycles: 92196719 heartbeat IPC: 0.90376 cumulative IPC: 1.03844 (Simulation time: 0 hr 4 min 3 sec) 
Heartbeat CPU 0 instructions: 160000000 cycles: 102235482 heartbeat IPC: 0.996139 cumulative IPC: 1.03114 (Simulation time: 0 hr 4 min 22 sec) 
Heartbeat CPU 0 instructions: 170000003 cycles: 112032462 heartbeat IPC: 1.02072 cumulative IPC: 1.02964 (Simulation time: 0 hr 4 min 40 sec) 
Heartbeat CPU 0 instructions: 180000000 cycles: 121680933 heartbeat IPC: 1.03643 cumulative IPC: 1.03048 (Simulation time: 0 hr 4 min 59 sec) 
Heartbeat CPU 0 instructions: 190000002 cycles: 131445244 heartbeat IPC: 1.02414 cumulative IPC: 1.02977 (Simulation time: 0 hr 5 min 18 sec) 
Heartbeat CPU 0 instructions: 200000000 cycles: 140680440 heartbeat IPC: 1.08281 cumulative IPC: 1.03484 (Simulation time: 0 hr 5 min 37 sec) 
Heartbeat CPU 0 instructions: 210000000 cycles: 150308037 heartbeat IPC: 1.03868 cumulative IPC: 1.03519 (Simulation time: 0 hr 5 min 56 sec) 
Heartbeat CPU 0 instructions: 220000000 cycles: 159258342 heartbeat IPC: 1.11728 cumulative IPC: 1.04157 (Simulation time: 0 hr 6 min 15 sec) 
Heartbeat CPU 0 instructions: 230000001 cycles: 171416671 heartbeat IPC: 0.822482 cumulative IPC: 1.02066 (Simulation time: 0 hr 6 min 35 sec) 
Heartbeat CPU 0 instructions: 240000000 cycles: 181873979 heartbeat IPC: 0.956269 cumulative IPC: 1.01577 (Simulation time: 0 hr 6 min 55 sec) 
Heartbeat CPU 0 instructions: 250000002 cycles: 191703697 heartbeat IPC: 1.01732 cumulative IPC: 1.01587 (Simulation time: 0 hr 7 min 14 sec) 
Heartbeat CPU 0 instructions: 260000000 cycles: 201261763 heartbeat IPC: 1.04624 cumulative IPC: 1.01772 (Simulation time: 0 hr 7 min 32 sec) 
Heartbeat CPU 0 instructions: 270000001 cycles: 210651328 heartbeat IPC: 1.06501 cumulative IPC: 1.02038 (Simulation time: 0 hr 7 min 51 sec) 
Heartbeat CPU 0 instructions: 280000000 cycles: 220342108 heartbeat IPC: 1.03191 cumulative IPC: 1.02102 (Simulation time: 0 hr 8 min 10 sec) 
Heartbeat CPU 0 instructions: 290000002 cycles: 229414784 heartbeat IPC: 1.10221 cumulative IPC: 1.02499 (Simulation time: 0 hr 8 min 29 sec) 
Heartbeat CPU 0 instructions: 300000000 cycles: 238965959 heartbeat IPC: 1.04699 cumulative IPC: 1.02607 (Simulation time: 0 hr 8 min 48 sec) 
Heartbeat CPU 0 instructions: 310000000 cycles: 247966717 heartbeat IPC: 1.11102 cumulative IPC: 1.02982 (Simulation time: 0 hr 9 min 7 sec) 
Heartbeat CPU 0 instructions: 320000000 cycles: 257098637 heartbeat IPC: 1.09506 cumulative IPC: 1.03262 (Simulation time: 0 hr 9 min 25 sec) 
Heartbeat CPU 0 instructions: 330000002 cycles: 266396650 heartbeat IPC: 1.0755 cumulative IPC: 1.03441 (Simulation time: 0 hr 9 min 44 sec) 
Heartbeat CPU 0 instructions: 340000000 cycles: 276326610 heartbeat IPC: 1.00705 cumulative IPC: 1.03324 (Simulation time: 0 hr 10 min 3 sec) 
Heartbeat CPU 0 instructions: 350000000 cycles: 286636885 heartbeat IPC: 0.969906 cumulative IPC: 1.03055 (Simulation time: 0 hr 10 min 22 sec) 
Heartbeat CPU 0 instructions: 360000000 cycles: 296394843 heartbeat IPC: 1.0248 cumulative IPC: 1.03033 (Simulation time: 0 hr 10 min 41 sec) 
Heartbeat CPU 0 instructions: 370000000 cycles: 305889288 heartbeat IPC: 1.05325 cumulative IPC: 1.03116 (Simulation time: 0 hr 11 min 0 sec) 
Heartbeat CPU 0 instructions: 380000000 cycles: 315202957 heartbeat IPC: 1.07369 cumulative IPC: 1.03262 (Simulation time: 0 hr 11 min 19 sec) 
Heartbeat CPU 0 instructions: 390000002 cycles: 324287521 heartbeat IPC: 1.10077 cumulative IPC: 1.03483 (Simulation time: 0 hr 11 min 37 sec) 
Heartbeat CPU 0 instructions: 400000000 cycles: 333796083 heartbeat IPC: 1.05168 cumulative IPC: 1.03538 (Simulation time: 0 hr 11 min 56 sec) 
Heartbeat CPU 0 instructions: 410000000 cycles: 342677772 heartbeat IPC: 1.12591 cumulative IPC: 1.03807 (Simulation time: 0 hr 12 min 15 sec) 
Heartbeat CPU 0 instructions: 420000000 cycles: 353502812 heartbeat IPC: 0.923784 cumulative IPC: 1.03408 (Simulation time: 0 hr 12 min 34 sec) 
Heartbeat CPU 0 instructions: 430000000 cycles: 364349018 heartbeat IPC: 0.921981 cumulative IPC: 1.03028 (Simulation time: 0 hr 12 min 53 sec) 
Heartbeat CPU 0 instructions: 440000000 cycles: 374191653 heartbeat IPC: 1.01599 cumulative IPC: 1.02985 (Simulation time: 0 hr 13 min 12 sec) 
Heartbeat CPU 0 instructions: 450000000 cycles: 383936503 heartbeat IPC: 1.02618 cumulative IPC: 1.02975 (Simulation time: 0 hr 13 min 31 sec) 
Heartbeat CPU 0 instructions: 460000000 cycles: 393631313 heartbeat IPC: 1.03148 cumulative IPC: 1.0298 (Simulation time: 0 hr 13 min 49 sec) 
Heartbeat CPU 0 instructions: 470000001 cycles: 403372915 heartbeat IPC: 1.02653 cumulative IPC: 1.02971 (Simulation time: 0 hr 14 min 8 sec) 
Heartbeat CPU 0 instructions: 480000000 cycles: 412549802 heartbeat IPC: 1.08969 cumulative IPC: 1.0312 (Simulation time: 0 hr 14 min 26 sec) 
Heartbeat CPU 0 instructions: 490000002 cycles: 422229723 heartbeat IPC: 1.03307 cumulative IPC: 1.03125 (Simulation time: 0 hr 14 min 45 sec) 
Heartbeat CPU 0 instructions: 500000000 cycles: 431522277 heartbeat IPC: 1.07613 cumulative IPC: 1.03233 (Simulation time: 0 hr 15 min 3 sec) 
Heartbeat CPU 0 instructions: 510000000 cycles: 440609053 heartbeat IPC: 1.1005 cumulative IPC: 1.03389 (Simulation time: 0 hr 15 min 22 sec) 
Heartbeat CPU 0 instructions: 520000000 cycles: 450000698 heartbeat IPC: 1.06478 cumulative IPC: 1.0346 (Simulation time: 0 hr 15 min 40 sec) 
Heartbeat CPU 0 instructions: 530000001 cycles: 460164458 heartbeat IPC: 0.983888 cumulative IPC: 1.03336 (Simulation time: 0 hr 15 min 59 sec) 
Heartbeat CPU 0 instructions: 540000000 cycles: 470613799 heartbeat IPC: 0.956998 cumulative IPC: 1.03149 (Simulation time: 0 hr 16 min 18 sec) 
Heartbeat CPU 0 instructions: 550000003 cycles: 480540497 heartbeat IPC: 1.00738 cumulative IPC: 1.03094 (Simulation time: 0 hr 16 min 36 sec) 
Heartbeat CPU 0 instructions: 560000000 cycles: 490208367 heartbeat IPC: 1.03435 cumulative IPC: 1.03102 (Simulation time: 0 hr 16 min 54 sec) 
Heartbeat CPU 0 instructions: 570000002 cycles: 499703192 heartbeat IPC: 1.05321 cumulative IPC: 1.03148 (Simulation time: 0 hr 17 min 13 sec) 
Heartbeat CPU 0 instructions: 580000000 cycles: 508974084 heartbeat IPC: 1.07864 cumulative IPC: 1.03242 (Simulation time: 0 hr 17 min 31 sec) 
Heartbeat CPU 0 instructions: 590000001 cycles: 518591435 heartbeat IPC: 1.03979 cumulative IPC: 1.03257 (Simulation time: 0 hr 17 min 49 sec) 
Heartbeat CPU 0 instructions: 600000000 cycles: 527763358 heartbeat IPC: 1.09028 cumulative IPC: 1.03366 (Simulation time: 0 hr 18 min 7 sec) 
Finished CPU 0 instructions: 500000000 cycles: 483715869 cumulative IPC: 1.03366 (Simulation time: 0 hr 18 min 7 sec) 

CPU 0 Branch Prediction Accuracy: 97.8526% MPKI: 2.66709
Number of Branches: 62099103 Number of Mispredictions: 1333545
Number of LOAD Instructions: 210576465
Number of LOAD Instructions (ROI): 210576465
Number of STORE Instructions: 16915507
Number of STORE Instructions (ROI): 16915507
Total Destination Memory Operands: 16918869
Total Destination Memory Operands (ROI): 16918869
Total Source Memory Operands: 210576465
Total Source Memory Operands (ROI): 210576465
Number of DEPENDED LOADS: 345436
Number of DEPENDED LOADS (ROI): 345436
Number of SQ_ADDED: 16918826
Number of SQ_ADDED (ROI): 16918826
Number of LQ_ADDED: 210607058
Number of LQ_ADDED (ROI): 210607058
Number of Instructions read from trace: 600000257

ChampSim completed all CPUs

Region of Interest Statistics

CPU 0 cumulative IPC: 1.03366 instructions: 500000000 cycles: 483715869
ITLB TOTAL     ACCESS:   76356690  HIT:   76356652  MISS:         38
ITLB LOAD      ACCESS:   76356690  HIT:   76356652  MISS:         38
ITLB RFO       ACCESS:          0  HIT:          0  MISS:          0
ITLB PREFETCH  ACCESS:          0  HIT:          0  MISS:          0
ITLB WRITEBACK ACCESS:          0  HIT:          0  MISS:          0
ITLB PREFETCH  REQUESTED:          0  ISSUED:          0  USEFUL:          0  USELESS:          0
ITLB TOTAL MSHR MERGED:         37
ITLB LOAD MSHR MERGED:         37
ITLB RFO MSHR MERGED:          0
ITLB PREFETCH MSHR MERGED:          0
ITLB WRITEBACK MSHR MERGED:          0
ITLB TOTAL ACCESSES:   76356727 HITS:   76356652 MISSES:         75
ITLB LOAD ACCESSES:   76356727 HITS:   76356652 MISSES:         75
ITLB RFO ACCESSES:          0 HITS:          0 MISSES:          0
ITLB PREFETCH ACCESSES:          0 HITS:          0 MISSES:          0
ITLB WRITEBACK ACCESSES:          0 HITS:          0 MISSES:          0
ITLB RQ ACCESS:  500000188
ITLB RQ TO_CACHE:   76356728
ITLB RQ MERGED:  423643460
ITLB RQ FORWARD:          0
ITLB WQ ACCESS:          0
ITLB WQ TO_CACHE:          0
ITLB WQ MERGED:          0
ITLB WQ FORWARD:          0
DTLB TOTAL     ACCESS:  136729458  HIT:  136526663  MISS:     202795
DTLB LOAD      ACCESS:  128667600  HIT:  128467526  MISS:     200074
DTLB RFO       ACCESS:    8061858  HIT:    8059137  MISS:       2721
DTLB PREFETCH  ACCESS:          0  HIT:          0  MISS:          0
DTLB WRITEBACK ACCESS:          0  HIT:          0  MISS:          0
DTLB PREFETCH  REQUESTED:          0  ISSUED:          0  USEFUL:          0  USELESS:          0
DTLB TOTAL MSHR MERGED:     447971
DTLB LOAD MSHR MERGED:     444213
DTLB RFO MSHR MERGED:       3758
DTLB PREFETCH MSHR MERGED:          0
DTLB WRITEBACK MSHR MERGED:          0
DTLB TOTAL ACCESSES:  137177429 HITS:  136526663 MISSES:     650766
DTLB LOAD ACCESSES:  129111813 HITS:  128467526 MISSES:     644287
DTLB RFO ACCESSES:    8065616 HITS:    8059137 MISSES:       6479
DTLB PREFETCH ACCESSES:          0 HITS:          0 MISSES:          0
DTLB WRITEBACK ACCESSES:          0 HITS:          0 MISSES:          0
DTLB RQ ACCESS:  189419119
DTLB RQ TO_CACHE:  137177429
DTLB RQ MERGED:   52241690
DTLB RQ FORWARD:          0
DTLB WQ ACCESS:          0
DTLB WQ TO_CACHE:          0
DTLB WQ MERGED:          0
DTLB WQ FORWARD:          0
L1D TOTAL     ACCESS:  125137041  HIT:  107580008  MISS:   17557033
L1D LOAD      ACCESS:   72259857  HIT:   61970097  MISS:   10289760
L1D RFO       ACCESS:   14013856  HIT:   13861018  MISS:     152838
L1D PREFETCH  ACCESS:   38863328  HIT:   31748893  MISS:    7114435
L1D WRITEBACK ACCESS:          0  HIT:          0  MISS:          0
L1D PREFETCH  REQUESTED:   85474400  ISSUED:   84154299  USEFUL:    5855003  USELESS:    1259443
L1D TOTAL MSHR MERGED:   31688948
L1D LOAD MSHR MERGED:   18391434
L1D RFO MSHR MERGED:     266826
L1D PREFETCH MSHR MERGED:   13030688
L1D WRITEBACK MSHR MERGED:          0
L1D TOTAL ACCESSES:  156826482 HITS:  107580502 MISSES:   49245980
L1D LOAD ACCESSES:   85474408 HITS:   61970105 MISSES:   23504303
L1D RFO ACCESSES:   14280655 HITS:   13861018 MISSES:     419637
L1D PREFETCH ACCESSES:   57071419 HITS:   31749379 MISSES:   25322040
L1D WRITEBACK ACCESSES:          0 HITS:          0 MISSES:          0
L1D RQ ACCESS:  175130097
L1D RQ TO_CACHE:   85474400
L1D RQ MERGED:   89655689
L1D RQ FORWARD:          0
L1D WQ ACCESS:   14289037
L1D WQ TO_CACHE:   14280655
L1D WQ MERGED:       8382
L1D WQ FORWARD:        494
L1I TOTAL     ACCESS:   93385149  HIT:   93383353  MISS:       1796
L1I LOAD      ACCESS:   93385149  HIT:   93383353  MISS:       1796
L1I RFO       ACCESS:          0  HIT:          0  MISS:          0
L1I PREFETCH  ACCESS:          0  HIT:          0  MISS:          0
L1I WRITEBACK ACCESS:          0  HIT:          0  MISS:          0
L1I PREFETCH  REQUESTED:          0  ISSUED:          0  USEFUL:          0  USELESS:          0
L1I TOTAL MSHR MERGED:       2344
L1I LOAD MSHR MERGED:       2344
L1I RFO MSHR MERGED:          0
L1I PREFETCH MSHR MERGED:          0
L1I WRITEBACK MSHR MERGED:          0
L1I TOTAL ACCESSES:   93387493 HITS:   93383353 MISSES:       4140
L1I LOAD ACCESSES:   93387493 HITS:   93383353 MISSES:       4140
L1I RFO ACCESSES:          0 HITS:          0 MISSES:          0
L1I PREFETCH ACCESSES:          0 HITS:          0 MISSES:          0
L1I WRITEBACK ACCESSES:          0 HITS:          0 MISSES:          0
L1I RQ ACCESS:  500000187
L1I RQ TO_CACHE:   93387493
L1I RQ MERGED:  406612694
L1I RQ FORWARD:          0
L1I WQ ACCESS:          0
L1I WQ TO_CACHE:          0
L1I WQ MERGED:          0
L1I WQ FORWARD:          0
L2C TOTAL     ACCESS:   20901946  HIT:    8672915  MISS:   12229031
L2C LOAD      ACCESS:    5114638  HIT:    2145737  MISS:    2968901
L2C RFO       ACCESS:     152811  HIT:       6520  MISS:     146291
L2C PREFETCH  ACCESS:   13861743  HIT:    4748016  MISS:    9113727
L2C WRITEBACK ACCESS:    1772754  HIT:    1772642  MISS:        112
L2C PREFETCH  REQUESTED:    1813689  ISSUED:    1813689  USEFUL:    1066052  USELESS:    8049340
L2C TOTAL MSHR MERGED:      98819
L2C LOAD MSHR MERGED:      22832
L2C RFO MSHR MERGED:          0
L2C PREFETCH MSHR MERGED:      75987
L2C WRITEBACK MSHR MERGED:          0
L2C TOTAL ACCESSES:   21025143 HITS:    8672962 MISSES:   12352181
L2C LOAD ACCESSES:    5114665 HITS:    2145764 MISSES:    2968901
L2C RFO ACCESSES:     152811 HITS:       6520 MISSES:     146291
L2C PREFETCH ACCESSES:   13984913 HITS:    4748036 MISSES:    9236877
L2C WRITEBACK ACCESSES:    1772754 HITS:    1772642 MISSES:        112
L2C RQ ACCESS:    5267476
L2C RQ TO_CACHE:    5267449
L2C RQ MERGED:          0
L2C RQ FORWARD:          0
L2C WQ ACCESS:    1772754
L2C WQ TO_CACHE:    1772754
L2C WQ MERGED:          0
L2C WQ FORWARD:         47
LLC TOTAL     ACCESS:   12533794  HIT:    6825595  MISS:    5708199
LLC LOAD      ACCESS:    2946051  HIT:    2496926  MISS:     449125
LLC RFO       ACCESS:     146291  HIT:      81216  MISS:      65075
LLC PREFETCH  ACCESS:    9155472  HIT:    4009824  MISS:    5145648
LLC WRITEBACK ACCESS:     285980  HIT:     237629  MISS:      48351
LLC PREFETCH  REQUESTED:          0  ISSUED:          0  USEFUL:       7587  USELESS:    5137973
LLC TOTAL MSHR MERGED:        914
LLC LOAD MSHR MERGED:        147
LLC RFO MSHR MERGED:          0
LLC PREFETCH MSHR MERGED:        767
LLC WRITEBACK MSHR MERGED:          0
LLC TOTAL ACCESSES:   12534738 HITS:    6825625 MISSES:    5709113
LLC LOAD ACCESSES:    2946069 HITS:    2496944 MISSES:     449125
LLC RFO ACCESSES:     146291 HITS:      81216 MISSES:      65075
LLC PREFETCH ACCESSES:    9156398 HITS:    4009836 MISSES:    5146562
LLC WRITEBACK ACCESSES:     285980 HITS:     237629 MISSES:      48351
LLC 0 RQ ACCESS:    3092360
LLC 0 RQ TO_CACHE:    3092342
LLC 0 RQ MERGED:          0
LLC 0 RQ FORWARD:          0
LLC WQ ACCESS:     285980
LLC WQ TO_CACHE:     285980
LLC WQ MERGED:          0
LLC WQ FORWARD:         30
Major fault: 0 Minor fault: 6524
CPU 0 L1D next line prefetcher final stats
CPU 0 L2C PC-based stride prefetcher final stats
All Misses: 7505229
All Hits: 7553578
SD Algo Stats - Switches: 0 SRR-Repls: 476277 BRR-Repls: 0

DRAM Statistics
 CHANNEL 0
 RQ ROW_BUFFER_HIT:    4863914  ROW_BUFFER_MISS:     789040
 DBUS_CONGESTED:    2036923
 WQ ROW_BUFFER_HIT:      13940  ROW_BUFFER_MISS:      67547  FULL:          0

 AVG_CONGESTED_CYCLE: 12
LOADS RETIRED: 175418235
INSTR RETIRED: 500000000
