
*** ChampSim Multicore Out-of-Order Simulator ***

Warmup Instructions: 100000000
Simulation Instructions: 500000000
Number of CPUs: 1
LLC sets: 2048
LLC ways: 16
Clean RRIP Policies: 1321031113210311 Dirty RRIP Policies: 2301132123011321 PSEL Width: 10 Track Set: 4294967295 PSEL Mask: 1 Demote Mask: 140141401401414DS Algo: 0Window size: 0
Off-chip DRAM Size: 4096 MB Channels: 1 Width: 64-bit Data Rate: 1600 MT/s

CPU 0 runs /mnt/beegfs/iconst01/spec2017/Gcc.trace.gz
NOT SORTED
TRACE STRING: /mnt/beegfs/iconst01/spec2017/Gcc.trace.gz
SORTED
TRACE STRING: /mnt/beegfs/iconst01/spec2017/Gcc.trace.gz
INITIAL
TRACE STRING: /mnt/beegfs/iconst01/spec2017/Gcc.trace.gz

champsim_seed used: 269

CPU 0 L1D next line prefetcher
CPU 0 L2C IP-based stride prefetcher
Initialize DRRIP state
Assign rand_sets[0]: 454  LLC: 2048
rand_sets[0]: 454
Assign rand_sets[1]: 1662  LLC: 2048
rand_sets[1]: 1662
Assign rand_sets[2]: 1921  LLC: 2048
rand_sets[2]: 1921
Assign rand_sets[3]: 1131  LLC: 2048
rand_sets[3]: 1131
Assign rand_sets[4]: 331  LLC: 2048
rand_sets[4]: 331
Assign rand_sets[5]: 1531  LLC: 2048
rand_sets[5]: 1531
Assign rand_sets[6]: 482  LLC: 2048
rand_sets[6]: 482
Assign rand_sets[7]: 1275  LLC: 2048
rand_sets[7]: 1275
Assign rand_sets[8]: 1876  LLC: 2048
rand_sets[8]: 1876
Assign rand_sets[9]: 2038  LLC: 2048
rand_sets[9]: 2038
Assign rand_sets[10]: 701  LLC: 2048
rand_sets[10]: 701
Assign rand_sets[11]: 479  LLC: 2048
rand_sets[11]: 479
Assign rand_sets[12]: 892  LLC: 2048
rand_sets[12]: 892
Assign rand_sets[13]: 1820  LLC: 2048
rand_sets[13]: 1820
Assign rand_sets[14]: 1505  LLC: 2048
rand_sets[14]: 1505
Assign rand_sets[15]: 1159  LLC: 2048
rand_sets[15]: 1159
Assign rand_sets[16]: 513  LLC: 2048
rand_sets[16]: 513
Assign rand_sets[17]: 703  LLC: 2048
rand_sets[17]: 703
Assign rand_sets[18]: 561  LLC: 2048
rand_sets[18]: 561
Assign rand_sets[19]: 990  LLC: 2048
rand_sets[19]: 990
Assign rand_sets[20]: 342  LLC: 2048
rand_sets[20]: 342
Assign rand_sets[21]: 882  LLC: 2048
rand_sets[21]: 882
Assign rand_sets[22]: 15  LLC: 2048
rand_sets[22]: 15
Assign rand_sets[23]: 71  LLC: 2048
rand_sets[23]: 71
Assign rand_sets[24]: 1127  LLC: 2048
rand_sets[24]: 1127
Assign rand_sets[25]: 1382  LLC: 2048
rand_sets[25]: 1382
Assign rand_sets[26]: 647  LLC: 2048
rand_sets[26]: 647
Assign rand_sets[27]: 857  LLC: 2048
rand_sets[27]: 857
Assign rand_sets[28]: 1450  LLC: 2048
rand_sets[28]: 1450
Assign rand_sets[29]: 1160  LLC: 2048
rand_sets[29]: 1160
Assign rand_sets[30]: 1852  LLC: 2048
rand_sets[30]: 1852
Assign rand_sets[31]: 1881  LLC: 2048
rand_sets[31]: 1881
Assign rand_sets[32]: 1770  LLC: 2048
rand_sets[32]: 1770
Assign rand_sets[33]: 1622  LLC: 2048
rand_sets[33]: 1622
Assign rand_sets[34]: 275  LLC: 2048
rand_sets[34]: 275
Assign rand_sets[35]: 635  LLC: 2048
rand_sets[35]: 635
Assign rand_sets[36]: 466  LLC: 2048
rand_sets[36]: 466
Assign rand_sets[37]: 1413  LLC: 2048
rand_sets[37]: 1413
Assign rand_sets[38]: 417  LLC: 2048
rand_sets[38]: 417
Assign rand_sets[39]: 472  LLC: 2048
rand_sets[39]: 472
Assign rand_sets[40]: 1340  LLC: 2048
rand_sets[40]: 1340
Assign rand_sets[41]: 852  LLC: 2048
rand_sets[41]: 852
Assign rand_sets[42]: 1365  LLC: 2048
rand_sets[42]: 1365
Assign rand_sets[43]: 47  LLC: 2048
rand_sets[43]: 47
Assign rand_sets[44]: 823  LLC: 2048
rand_sets[44]: 823
Assign rand_sets[45]: 686  LLC: 2048
rand_sets[45]: 686
Assign rand_sets[46]: 1637  LLC: 2048
rand_sets[46]: 1637
Assign rand_sets[47]: 1115  LLC: 2048
rand_sets[47]: 1115
Assign rand_sets[48]: 986  LLC: 2048
rand_sets[48]: 986
Assign rand_sets[49]: 258  LLC: 2048
rand_sets[49]: 258
Assign rand_sets[50]: 633  LLC: 2048
rand_sets[50]: 633
Assign rand_sets[51]: 920  LLC: 2048
rand_sets[51]: 920
Assign rand_sets[52]: 204  LLC: 2048
rand_sets[52]: 204
Assign rand_sets[53]: 227  LLC: 2048
rand_sets[53]: 227
Assign rand_sets[54]: 1818  LLC: 2048
rand_sets[54]: 1818
Assign rand_sets[55]: 886  LLC: 2048
rand_sets[55]: 886
Assign rand_sets[56]: 1422  LLC: 2048
rand_sets[56]: 1422
Assign rand_sets[57]: 607  LLC: 2048
rand_sets[57]: 607
Assign rand_sets[58]: 217  LLC: 2048
rand_sets[58]: 217
Assign rand_sets[59]: 1945  LLC: 2048
rand_sets[59]: 1945
Assign rand_sets[60]: 143  LLC: 2048
rand_sets[60]: 143
Assign rand_sets[61]: 1311  LLC: 2048
rand_sets[61]: 1311
Assign rand_sets[62]: 319  LLC: 2048
rand_sets[62]: 319
Assign rand_sets[63]: 1846  LLC: 2048
rand_sets[63]: 1846
 CLEAN-RRIP-POLICY-1: 1-3-2-1-0-3-1-1- CLEAN-RRIP-POLICY-2: 1-3-2-1-0-3-1-1-
 DIRTY-RRIP-POLICY-1: 2-3-0-1-1-3-2-1- DIRTY-RRIP-POLICY-2: 2-3-0-1-1-3-2-1-
 PSEL width: 10
Heartbeat CPU 0 instructions: 10000001 cycles: 7315924 heartbeat IPC: 1.36688 cumulative IPC: 1.36688 (Simulation time: 0 hr 0 min 14 sec) 
Heartbeat CPU 0 instructions: 20000000 cycles: 14307603 heartbeat IPC: 1.43027 cumulative IPC: 1.39786 (Simulation time: 0 hr 0 min 29 sec) 
Heartbeat CPU 0 instructions: 30000001 cycles: 21020994 heartbeat IPC: 1.48956 cumulative IPC: 1.42714 (Simulation time: 0 hr 0 min 45 sec) 
Heartbeat CPU 0 instructions: 40000000 cycles: 27482169 heartbeat IPC: 1.54771 cumulative IPC: 1.45549 (Simulation time: 0 hr 1 min 1 sec) 
Heartbeat CPU 0 instructions: 50000001 cycles: 33584050 heartbeat IPC: 1.63884 cumulative IPC: 1.4888 (Simulation time: 0 hr 1 min 17 sec) 
Heartbeat CPU 0 instructions: 60000000 cycles: 40065313 heartbeat IPC: 1.54291 cumulative IPC: 1.49755 (Simulation time: 0 hr 1 min 33 sec) 
Heartbeat CPU 0 instructions: 70000000 cycles: 47103710 heartbeat IPC: 1.42078 cumulative IPC: 1.48608 (Simulation time: 0 hr 1 min 48 sec) 
Heartbeat CPU 0 instructions: 80000000 cycles: 54193587 heartbeat IPC: 1.41046 cumulative IPC: 1.47619 (Simulation time: 0 hr 2 min 3 sec) 
Heartbeat CPU 0 instructions: 90000003 cycles: 61198266 heartbeat IPC: 1.42762 cumulative IPC: 1.47063 (Simulation time: 0 hr 2 min 17 sec) 
Heartbeat CPU 0 instructions: 100000000 cycles: 68365791 heartbeat IPC: 1.39518 cumulative IPC: 1.46272 (Simulation time: 0 hr 2 min 32 sec) 

Warmup complete CPU 0 instructions: 100000004 cycles: 68365792 (Simulation time: 0 hr 2 min 32 sec) 

Heartbeat CPU 0 instructions: 110000003 cycles: 96166826 heartbeat IPC: 0.359699 cumulative IPC: 0.359699 (Simulation time: 0 hr 3 min 1 sec) 
Heartbeat CPU 0 instructions: 120000000 cycles: 123741954 heartbeat IPC: 0.362646 cumulative IPC: 0.361166 (Simulation time: 0 hr 3 min 31 sec) 
Heartbeat CPU 0 instructions: 130000000 cycles: 148833331 heartbeat IPC: 0.398543 cumulative IPC: 0.372821 (Simulation time: 0 hr 4 min 0 sec) 
Heartbeat CPU 0 instructions: 140000000 cycles: 178436607 heartbeat IPC: 0.3378 cumulative IPC: 0.363402 (Simulation time: 0 hr 4 min 29 sec) 
Heartbeat CPU 0 instructions: 150000000 cycles: 208405462 heartbeat IPC: 0.33368 cumulative IPC: 0.357042 (Simulation time: 0 hr 4 min 58 sec) 
Heartbeat CPU 0 instructions: 160000000 cycles: 235875538 heartbeat IPC: 0.364032 cumulative IPC: 0.358188 (Simulation time: 0 hr 5 min 26 sec) 
Heartbeat CPU 0 instructions: 170000001 cycles: 264027925 heartbeat IPC: 0.35521 cumulative IPC: 0.35776 (Simulation time: 0 hr 5 min 56 sec) 
Heartbeat CPU 0 instructions: 180000000 cycles: 292558358 heartbeat IPC: 0.350503 cumulative IPC: 0.356836 (Simulation time: 0 hr 6 min 26 sec) 
Heartbeat CPU 0 instructions: 190000002 cycles: 320685821 heartbeat IPC: 0.355524 cumulative IPC: 0.35669 (Simulation time: 0 hr 6 min 55 sec) 
Heartbeat CPU 0 instructions: 200000000 cycles: 349086985 heartbeat IPC: 0.352098 cumulative IPC: 0.356225 (Simulation time: 0 hr 7 min 25 sec) 
Heartbeat CPU 0 instructions: 210000002 cycles: 376995155 heartbeat IPC: 0.358318 cumulative IPC: 0.356415 (Simulation time: 0 hr 7 min 54 sec) 
Heartbeat CPU 0 instructions: 220000000 cycles: 406183271 heartbeat IPC: 0.342605 cumulative IPC: 0.355221 (Simulation time: 0 hr 8 min 22 sec) 
Heartbeat CPU 0 instructions: 230000000 cycles: 433845132 heartbeat IPC: 0.361509 cumulative IPC: 0.355697 (Simulation time: 0 hr 8 min 51 sec) 
Heartbeat CPU 0 instructions: 240000000 cycles: 459965031 heartbeat IPC: 0.38285 cumulative IPC: 0.357508 (Simulation time: 0 hr 9 min 19 sec) 
Heartbeat CPU 0 instructions: 250000000 cycles: 490255514 heartbeat IPC: 0.330137 cumulative IPC: 0.355543 (Simulation time: 0 hr 9 min 49 sec) 
Heartbeat CPU 0 instructions: 260000000 cycles: 517537451 heartbeat IPC: 0.366543 cumulative IPC: 0.356211 (Simulation time: 0 hr 10 min 18 sec) 
Heartbeat CPU 0 instructions: 270000003 cycles: 546151346 heartbeat IPC: 0.349481 cumulative IPC: 0.355808 (Simulation time: 0 hr 10 min 48 sec) 
Heartbeat CPU 0 instructions: 280000000 cycles: 574431572 heartbeat IPC: 0.353604 cumulative IPC: 0.355685 (Simulation time: 0 hr 11 min 18 sec) 
Heartbeat CPU 0 instructions: 290000000 cycles: 603381849 heartbeat IPC: 0.34542 cumulative IPC: 0.35513 (Simulation time: 0 hr 11 min 49 sec) 
Heartbeat CPU 0 instructions: 300000000 cycles: 633327678 heartbeat IPC: 0.333936 cumulative IPC: 0.354006 (Simulation time: 0 hr 12 min 17 sec) 
Heartbeat CPU 0 instructions: 310000001 cycles: 662762376 heartbeat IPC: 0.339735 cumulative IPC: 0.353299 (Simulation time: 0 hr 12 min 46 sec) 
Heartbeat CPU 0 instructions: 320000000 cycles: 691094117 heartbeat IPC: 0.352961 cumulative IPC: 0.353284 (Simulation time: 0 hr 13 min 15 sec) 
Heartbeat CPU 0 instructions: 330000000 cycles: 719813624 heartbeat IPC: 0.348195 cumulative IPC: 0.35306 (Simulation time: 0 hr 13 min 44 sec) 
Heartbeat CPU 0 instructions: 340000000 cycles: 749191293 heartbeat IPC: 0.340395 cumulative IPC: 0.352513 (Simulation time: 0 hr 14 min 13 sec) 
Heartbeat CPU 0 instructions: 350000003 cycles: 776287526 heartbeat IPC: 0.369055 cumulative IPC: 0.353146 (Simulation time: 0 hr 14 min 41 sec) 
Heartbeat CPU 0 instructions: 360000000 cycles: 804543826 heartbeat IPC: 0.353903 cumulative IPC: 0.353175 (Simulation time: 0 hr 15 min 9 sec) 
Heartbeat CPU 0 instructions: 370000000 cycles: 832863877 heartbeat IPC: 0.353107 cumulative IPC: 0.353173 (Simulation time: 0 hr 15 min 37 sec) 
Heartbeat CPU 0 instructions: 380000000 cycles: 861506067 heartbeat IPC: 0.349135 cumulative IPC: 0.353027 (Simulation time: 0 hr 16 min 5 sec) 
Heartbeat CPU 0 instructions: 390000001 cycles: 889227939 heartbeat IPC: 0.360726 cumulative IPC: 0.353287 (Simulation time: 0 hr 16 min 33 sec) 
Heartbeat CPU 0 instructions: 400000000 cycles: 917961836 heartbeat IPC: 0.348021 cumulative IPC: 0.353109 (Simulation time: 0 hr 17 min 1 sec) 
Heartbeat CPU 0 instructions: 410000001 cycles: 945330496 heartbeat IPC: 0.365381 cumulative IPC: 0.353492 (Simulation time: 0 hr 17 min 29 sec) 
Heartbeat CPU 0 instructions: 420000000 cycles: 972702793 heartbeat IPC: 0.365333 cumulative IPC: 0.35385 (Simulation time: 0 hr 17 min 56 sec) 
Heartbeat CPU 0 instructions: 430000002 cycles: 1000474093 heartbeat IPC: 0.360084 cumulative IPC: 0.354036 (Simulation time: 0 hr 18 min 24 sec) 
Heartbeat CPU 0 instructions: 440000000 cycles: 1030113050 heartbeat IPC: 0.337394 cumulative IPC: 0.353523 (Simulation time: 0 hr 18 min 52 sec) 
Heartbeat CPU 0 instructions: 450000002 cycles: 1059445342 heartbeat IPC: 0.340921 cumulative IPC: 0.35315 (Simulation time: 0 hr 19 min 20 sec) 
Heartbeat CPU 0 instructions: 460000000 cycles: 1087224793 heartbeat IPC: 0.359978 cumulative IPC: 0.353336 (Simulation time: 0 hr 19 min 48 sec) 
Heartbeat CPU 0 instructions: 470000000 cycles: 1114951052 heartbeat IPC: 0.360669 cumulative IPC: 0.353531 (Simulation time: 0 hr 20 min 15 sec) 
Heartbeat CPU 0 instructions: 480000000 cycles: 1142908738 heartbeat IPC: 0.357683 cumulative IPC: 0.353639 (Simulation time: 0 hr 20 min 42 sec) 
Heartbeat CPU 0 instructions: 490000000 cycles: 1170582106 heartbeat IPC: 0.361358 cumulative IPC: 0.353833 (Simulation time: 0 hr 21 min 10 sec) 
Heartbeat CPU 0 instructions: 500000000 cycles: 1198965075 heartbeat IPC: 0.352324 cumulative IPC: 0.353795 (Simulation time: 0 hr 21 min 37 sec) 
Heartbeat CPU 0 instructions: 510000000 cycles: 1234231883 heartbeat IPC: 0.283553 cumulative IPC: 0.35167 (Simulation time: 0 hr 22 min 8 sec) 
Heartbeat CPU 0 instructions: 520000000 cycles: 1262395780 heartbeat IPC: 0.355065 cumulative IPC: 0.35175 (Simulation time: 0 hr 22 min 36 sec) 
Heartbeat CPU 0 instructions: 530000001 cycles: 1291732458 heartbeat IPC: 0.34087 cumulative IPC: 0.351489 (Simulation time: 0 hr 23 min 5 sec) 
Heartbeat CPU 0 instructions: 540000000 cycles: 1319881985 heartbeat IPC: 0.355246 cumulative IPC: 0.351574 (Simulation time: 0 hr 23 min 33 sec) 
Heartbeat CPU 0 instructions: 550000001 cycles: 1349213277 heartbeat IPC: 0.340933 cumulative IPC: 0.35133 (Simulation time: 0 hr 24 min 3 sec) 
Heartbeat CPU 0 instructions: 560000000 cycles: 1374713329 heartbeat IPC: 0.392156 cumulative IPC: 0.352127 (Simulation time: 0 hr 24 min 31 sec) 
Heartbeat CPU 0 instructions: 570000000 cycles: 1404342527 heartbeat IPC: 0.337505 cumulative IPC: 0.351803 (Simulation time: 0 hr 24 min 59 sec) 
Heartbeat CPU 0 instructions: 580000000 cycles: 1432425366 heartbeat IPC: 0.356089 cumulative IPC: 0.351891 (Simulation time: 0 hr 25 min 28 sec) 
Heartbeat CPU 0 instructions: 590000001 cycles: 1457369418 heartbeat IPC: 0.400897 cumulative IPC: 0.352771 (Simulation time: 0 hr 25 min 55 sec) 
Heartbeat CPU 0 instructions: 600000000 cycles: 1483747376 heartbeat IPC: 0.379104 cumulative IPC: 0.353262 (Simulation time: 0 hr 26 min 22 sec) 
Finished CPU 0 instructions: 500000000 cycles: 1415381606 cumulative IPC: 0.353262 (Simulation time: 0 hr 26 min 22 sec) 

CPU 0 Branch Prediction Accuracy: 86.4311% MPKI: 26.2662
Number of Branches: 96788573 Number of Mispredictions: 13133102
Number of LOAD Instructions: 164682285
Number of LOAD Instructions (ROI): 164682285
Number of STORE Instructions: 78194750
Number of STORE Instructions (ROI): 78194750
Total Destination Memory Operands: 83268534
Total Destination Memory Operands (ROI): 83268534
Total Source Memory Operands: 164712438
Total Source Memory Operands (ROI): 164712438
Number of DEPENDED LOADS: 7068773
Number of DEPENDED LOADS (ROI): 7068773
Number of SQ_ADDED: 83268522
Number of SQ_ADDED (ROI): 83268522
Number of LQ_ADDED: 236822966
Number of LQ_ADDED (ROI): 236822966
Number of Instructions read from trace: 600000066

ChampSim completed all CPUs

Region of Interest Statistics

CPU 0 cumulative IPC: 0.353262 instructions: 500000000 cycles: 1415381606
ITLB TOTAL     ACCESS:  100509017  HIT:  100304571  MISS:     204446
ITLB LOAD      ACCESS:  100509017  HIT:  100304571  MISS:     204446
ITLB RFO       ACCESS:          0  HIT:          0  MISS:          0
ITLB PREFETCH  ACCESS:          0  HIT:          0  MISS:          0
ITLB WRITEBACK ACCESS:          0  HIT:          0  MISS:          0
ITLB PREFETCH  REQUESTED:          0  ISSUED:          0  USEFUL:          0  USELESS:          0
ITLB TOTAL MSHR MERGED:     172425
ITLB LOAD MSHR MERGED:     172425
ITLB RFO MSHR MERGED:          0
ITLB PREFETCH MSHR MERGED:          0
ITLB WRITEBACK MSHR MERGED:          0
ITLB TOTAL ACCESSES:  100681442 HITS:  100304571 MISSES:     376871
ITLB LOAD ACCESSES:  100681442 HITS:  100304571 MISSES:     376871
ITLB RFO ACCESSES:          0 HITS:          0 MISSES:          0
ITLB PREFETCH ACCESSES:          0 HITS:          0 MISSES:          0
ITLB WRITEBACK ACCESSES:          0 HITS:          0 MISSES:          0
ITLB RQ ACCESS:  500000057
ITLB RQ TO_CACHE:  100681442
ITLB RQ MERGED:  399318615
ITLB RQ FORWARD:          0
ITLB WQ ACCESS:          0
ITLB WQ TO_CACHE:          0
ITLB WQ MERGED:          0
ITLB WQ FORWARD:          0
DTLB TOTAL     ACCESS:  165327093  HIT:  164692743  MISS:     634350
DTLB LOAD      ACCESS:  106285558  HIT:  105715535  MISS:     570023
DTLB RFO       ACCESS:   59041535  HIT:   58977208  MISS:      64327
DTLB PREFETCH  ACCESS:          0  HIT:          0  MISS:          0
DTLB WRITEBACK ACCESS:          0  HIT:          0  MISS:          0
DTLB PREFETCH  REQUESTED:          0  ISSUED:          0  USEFUL:          0  USELESS:          0
DTLB TOTAL MSHR MERGED:      99836
DTLB LOAD MSHR MERGED:      59412
DTLB RFO MSHR MERGED:      40424
DTLB PREFETCH MSHR MERGED:          0
DTLB WRITEBACK MSHR MERGED:          0
DTLB TOTAL ACCESSES:  165426929 HITS:  164692743 MISSES:     734186
DTLB LOAD ACCESSES:  106344970 HITS:  105715535 MISSES:     629435
DTLB RFO ACCESSES:   59081959 HITS:   58977208 MISSES:     104751
DTLB PREFETCH ACCESSES:          0 HITS:          0 MISSES:          0
DTLB WRITEBACK ACCESSES:          0 HITS:          0 MISSES:          0
DTLB RQ ACCESS:  200302253
DTLB RQ TO_CACHE:  165426929
DTLB RQ MERGED:   34875324
DTLB RQ FORWARD:          0
DTLB WQ ACCESS:          0
DTLB WQ TO_CACHE:          0
DTLB WQ MERGED:          0
DTLB WQ FORWARD:          0
L1D TOTAL     ACCESS:  281762550  HIT:  273853302  MISS:    7909248
L1D LOAD      ACCESS:  110410585  HIT:  107132184  MISS:    3278401
L1D RFO       ACCESS:   67072436  HIT:   66179916  MISS:     892520
L1D PREFETCH  ACCESS:  104279529  HIT:  100541202  MISS:    3738327
L1D WRITEBACK ACCESS:          0  HIT:          0  MISS:          0
L1D PREFETCH  REQUESTED:  110809403  ISSUED:  109110100  USEFUL:    1659279  USELESS:    2079012
L1D TOTAL MSHR MERGED:    2926502
L1D LOAD MSHR MERGED:     496778
L1D RFO MSHR MERGED:    1914692
L1D PREFETCH MSHR MERGED:     515032
L1D WRITEBACK MSHR MERGED:          0
L1D TOTAL ACCESSES:  284716958 HITS:  273881208 MISSES:   10835750
L1D LOAD ACCESSES:  110811301 HITS:  107134082 MISSES:    3677219
L1D RFO ACCESSES:   68973382 HITS:   66179916 MISSES:    2793466
L1D PREFETCH ACCESSES:  104932275 HITS:  100567210 MISSES:    4365065
L1D WRITEBACK ACCESSES:          0 HITS:          0 MISSES:          0
L1D RQ ACCESS:  130749650
L1D RQ TO_CACHE:  110809406
L1D RQ MERGED:   19938346
L1D RQ FORWARD:          0
L1D WQ ACCESS:   69552603
L1D WQ TO_CACHE:   68973383
L1D WQ MERGED:     579220
L1D WQ FORWARD:      27906
L1I TOTAL     ACCESS:  126557059  HIT:  122318506  MISS:    4238553
L1I LOAD      ACCESS:  126557059  HIT:  122318506  MISS:    4238553
L1I RFO       ACCESS:          0  HIT:          0  MISS:          0
L1I PREFETCH  ACCESS:          0  HIT:          0  MISS:          0
L1I WRITEBACK ACCESS:          0  HIT:          0  MISS:          0
L1I PREFETCH  REQUESTED:          0  ISSUED:          0  USEFUL:          0  USELESS:          0
L1I TOTAL MSHR MERGED:    1834546
L1I LOAD MSHR MERGED:    1834546
L1I RFO MSHR MERGED:          0
L1I PREFETCH MSHR MERGED:          0
L1I WRITEBACK MSHR MERGED:          0
L1I TOTAL ACCESSES:  128391608 HITS:  122318506 MISSES:    6073102
L1I LOAD ACCESSES:  128391608 HITS:  122318506 MISSES:    6073102
L1I RFO ACCESSES:          0 HITS:          0 MISSES:          0
L1I PREFETCH ACCESSES:          0 HITS:          0 MISSES:          0
L1I WRITEBACK ACCESSES:          0 HITS:          0 MISSES:          0
L1I RQ ACCESS:  500000057
L1I RQ TO_CACHE:  128391608
L1I RQ MERGED:  371608449
L1I RQ FORWARD:          0
L1I WQ ACCESS:          0
L1I WQ TO_CACHE:          0
L1I WQ MERGED:          0
L1I WQ FORWARD:          0
L2C TOTAL     ACCESS:   14902619  HIT:   11156279  MISS:    3746340
L2C LOAD      ACCESS:    7418786  HIT:    5098171  MISS:    2320615
L2C RFO       ACCESS:     878674  HIT:     409908  MISS:     468766
L2C PREFETCH  ACCESS:    4565946  HIT:    3626242  MISS:     939704
L2C WRITEBACK ACCESS:    2039213  HIT:    2021958  MISS:      17255
L2C PREFETCH  REQUESTED:     842469  ISSUED:     842469  USEFUL:     202664  USELESS:     736746
L2C TOTAL MSHR MERGED:       9339
L2C LOAD MSHR MERGED:       1447
L2C RFO MSHR MERGED:          0
L2C PREFETCH MSHR MERGED:       7892
L2C WRITEBACK MSHR MERGED:          0
L2C TOTAL ACCESSES:   14912891 HITS:   11156727 MISSES:    3756164
L2C LOAD ACCESSES:    7418994 HITS:    5098379 MISSES:    2320615
L2C RFO ACCESSES:     878774 HITS:     410008 MISSES:     468766
L2C PREFETCH ACCESSES:    4575910 HITS:    3626382 MISSES:     949528
L2C WRITEBACK ACCESSES:    2039213 HITS:    2021958 MISSES:      17255
L2C RQ ACCESS:    8297771
L2C RQ TO_CACHE:    8297463
L2C RQ MERGED:          0
L2C RQ FORWARD:          0
L2C WQ ACCESS:    2039213
L2C WQ TO_CACHE:    2039213
L2C WQ MERGED:          0
L2C WQ FORWARD:        448
LLC TOTAL     ACCESS:    4609653  HIT:    3759185  MISS:     850468
LLC LOAD      ACCESS:    2319157  HIT:    2051610  MISS:     267547
LLC RFO       ACCESS:     468755  HIT:     303381  MISS:     165374
LLC PREFETCH  ACCESS:     941490  HIT:     637183  MISS:     304307
LLC WRITEBACK ACCESS:     880251  HIT:     767011  MISS:     113240
LLC PREFETCH  REQUESTED:          0  ISSUED:          0  USEFUL:      54836  USELESS:     249761
LLC TOTAL MSHR MERGED:        120
LLC LOAD MSHR MERGED:         38
LLC RFO MSHR MERGED:          0
LLC PREFETCH MSHR MERGED:         82
LLC WRITEBACK MSHR MERGED:          0
LLC TOTAL ACCESSES:    4609805 HITS:    3759217 MISSES:     850588
LLC LOAD ACCESSES:    2319168 HITS:    2051621 MISSES:     267547
LLC RFO ACCESSES:     468766 HITS:     303392 MISSES:     165374
LLC PREFETCH ACCESSES:     941620 HITS:     637193 MISSES:     304427
LLC WRITEBACK ACCESSES:     880251 HITS:     767011 MISSES:     113240
LLC 0 RQ ACCESS:    2787934
LLC 0 RQ TO_CACHE:    2787912
LLC 0 RQ MERGED:          0
LLC 0 RQ FORWARD:          0
LLC WQ ACCESS:     880251
LLC WQ TO_CACHE:     880251
LLC WQ MERGED:          0
LLC WQ FORWARD:         32
Major fault: 0 Minor fault: 12862
CPU 0 L1D next line prefetcher final stats
CPU 0 L2C PC-based stride prefetcher final stats
All Misses: 993181
All Hits: 4433478
SD Algo Stats - Switches: 0 SRR-Repls: 311906 BRR-Repls: 0

DRAM Statistics
 CHANNEL 0
 RQ ROW_BUFFER_HIT:     170881  ROW_BUFFER_MISS:     561972
 DBUS_CONGESTED:     560624
 WQ ROW_BUFFER_HIT:      44768  ROW_BUFFER_MISS:     327979  FULL:          0

 AVG_CONGESTED_CYCLE: 13
LOADS RETIRED: 136549171
INSTR RETIRED: 500000000
