
*** ChampSim Multicore Out-of-Order Simulator ***

Warmup Instructions: 100000000
Simulation Instructions: 500000000
Number of CPUs: 1
LLC sets: 2048
LLC ways: 16
Clean RRIP Policies: 2011010020110100 Dirty RRIP Policies: 2001210020012100 PSEL Width: 10 Track Set: 4294967295 PSEL Mask: 1 Demote Mask: 4030244440302444DS Algo: 0Window size: 0
Off-chip DRAM Size: 4096 MB Channels: 1 Width: 64-bit Data Rate: 1600 MT/s

CPU 0 runs /mnt/beegfs/iconst01/spec2017/Gcc.trace.gz
NOT SORTED
TRACE STRING: /mnt/beegfs/iconst01/spec2017/Gcc.trace.gz
SORTED
TRACE STRING: /mnt/beegfs/iconst01/spec2017/Gcc.trace.gz
INITIAL
TRACE STRING: /mnt/beegfs/iconst01/spec2017/Gcc.trace.gz

champsim_seed used: 269

CPU 0 L1D next line prefetcher
CPU 0 L2C IP-based stride prefetcher
Initialize DRRIP state
Assign rand_sets[0]: 454  LLC: 2048
rand_sets[0]: 454
Assign rand_sets[1]: 1662  LLC: 2048
rand_sets[1]: 1662
Assign rand_sets[2]: 1921  LLC: 2048
rand_sets[2]: 1921
Assign rand_sets[3]: 1131  LLC: 2048
rand_sets[3]: 1131
Assign rand_sets[4]: 331  LLC: 2048
rand_sets[4]: 331
Assign rand_sets[5]: 1531  LLC: 2048
rand_sets[5]: 1531
Assign rand_sets[6]: 482  LLC: 2048
rand_sets[6]: 482
Assign rand_sets[7]: 1275  LLC: 2048
rand_sets[7]: 1275
Assign rand_sets[8]: 1876  LLC: 2048
rand_sets[8]: 1876
Assign rand_sets[9]: 2038  LLC: 2048
rand_sets[9]: 2038
Assign rand_sets[10]: 701  LLC: 2048
rand_sets[10]: 701
Assign rand_sets[11]: 479  LLC: 2048
rand_sets[11]: 479
Assign rand_sets[12]: 892  LLC: 2048
rand_sets[12]: 892
Assign rand_sets[13]: 1820  LLC: 2048
rand_sets[13]: 1820
Assign rand_sets[14]: 1505  LLC: 2048
rand_sets[14]: 1505
Assign rand_sets[15]: 1159  LLC: 2048
rand_sets[15]: 1159
Assign rand_sets[16]: 513  LLC: 2048
rand_sets[16]: 513
Assign rand_sets[17]: 703  LLC: 2048
rand_sets[17]: 703
Assign rand_sets[18]: 561  LLC: 2048
rand_sets[18]: 561
Assign rand_sets[19]: 990  LLC: 2048
rand_sets[19]: 990
Assign rand_sets[20]: 342  LLC: 2048
rand_sets[20]: 342
Assign rand_sets[21]: 882  LLC: 2048
rand_sets[21]: 882
Assign rand_sets[22]: 15  LLC: 2048
rand_sets[22]: 15
Assign rand_sets[23]: 71  LLC: 2048
rand_sets[23]: 71
Assign rand_sets[24]: 1127  LLC: 2048
rand_sets[24]: 1127
Assign rand_sets[25]: 1382  LLC: 2048
rand_sets[25]: 1382
Assign rand_sets[26]: 647  LLC: 2048
rand_sets[26]: 647
Assign rand_sets[27]: 857  LLC: 2048
rand_sets[27]: 857
Assign rand_sets[28]: 1450  LLC: 2048
rand_sets[28]: 1450
Assign rand_sets[29]: 1160  LLC: 2048
rand_sets[29]: 1160
Assign rand_sets[30]: 1852  LLC: 2048
rand_sets[30]: 1852
Assign rand_sets[31]: 1881  LLC: 2048
rand_sets[31]: 1881
Assign rand_sets[32]: 1770  LLC: 2048
rand_sets[32]: 1770
Assign rand_sets[33]: 1622  LLC: 2048
rand_sets[33]: 1622
Assign rand_sets[34]: 275  LLC: 2048
rand_sets[34]: 275
Assign rand_sets[35]: 635  LLC: 2048
rand_sets[35]: 635
Assign rand_sets[36]: 466  LLC: 2048
rand_sets[36]: 466
Assign rand_sets[37]: 1413  LLC: 2048
rand_sets[37]: 1413
Assign rand_sets[38]: 417  LLC: 2048
rand_sets[38]: 417
Assign rand_sets[39]: 472  LLC: 2048
rand_sets[39]: 472
Assign rand_sets[40]: 1340  LLC: 2048
rand_sets[40]: 1340
Assign rand_sets[41]: 852  LLC: 2048
rand_sets[41]: 852
Assign rand_sets[42]: 1365  LLC: 2048
rand_sets[42]: 1365
Assign rand_sets[43]: 47  LLC: 2048
rand_sets[43]: 47
Assign rand_sets[44]: 823  LLC: 2048
rand_sets[44]: 823
Assign rand_sets[45]: 686  LLC: 2048
rand_sets[45]: 686
Assign rand_sets[46]: 1637  LLC: 2048
rand_sets[46]: 1637
Assign rand_sets[47]: 1115  LLC: 2048
rand_sets[47]: 1115
Assign rand_sets[48]: 986  LLC: 2048
rand_sets[48]: 986
Assign rand_sets[49]: 258  LLC: 2048
rand_sets[49]: 258
Assign rand_sets[50]: 633  LLC: 2048
rand_sets[50]: 633
Assign rand_sets[51]: 920  LLC: 2048
rand_sets[51]: 920
Assign rand_sets[52]: 204  LLC: 2048
rand_sets[52]: 204
Assign rand_sets[53]: 227  LLC: 2048
rand_sets[53]: 227
Assign rand_sets[54]: 1818  LLC: 2048
rand_sets[54]: 1818
Assign rand_sets[55]: 886  LLC: 2048
rand_sets[55]: 886
Assign rand_sets[56]: 1422  LLC: 2048
rand_sets[56]: 1422
Assign rand_sets[57]: 607  LLC: 2048
rand_sets[57]: 607
Assign rand_sets[58]: 217  LLC: 2048
rand_sets[58]: 217
Assign rand_sets[59]: 1945  LLC: 2048
rand_sets[59]: 1945
Assign rand_sets[60]: 143  LLC: 2048
rand_sets[60]: 143
Assign rand_sets[61]: 1311  LLC: 2048
rand_sets[61]: 1311
Assign rand_sets[62]: 319  LLC: 2048
rand_sets[62]: 319
Assign rand_sets[63]: 1846  LLC: 2048
rand_sets[63]: 1846
 CLEAN-RRIP-POLICY-1: 2-0-1-1-0-1-0-0- CLEAN-RRIP-POLICY-2: 2-0-1-1-0-1-0-0-
 DIRTY-RRIP-POLICY-1: 2-0-0-1-2-1-0-0- DIRTY-RRIP-POLICY-2: 2-0-0-1-2-1-0-0-
 PSEL width: 10
Heartbeat CPU 0 instructions: 10000001 cycles: 7315909 heartbeat IPC: 1.36688 cumulative IPC: 1.36688 (Simulation time: 0 hr 0 min 15 sec) 
Heartbeat CPU 0 instructions: 20000000 cycles: 14307304 heartbeat IPC: 1.43033 cumulative IPC: 1.39789 (Simulation time: 0 hr 0 min 29 sec) 
Heartbeat CPU 0 instructions: 30000001 cycles: 21020363 heartbeat IPC: 1.48963 cumulative IPC: 1.42719 (Simulation time: 0 hr 0 min 45 sec) 
Heartbeat CPU 0 instructions: 40000000 cycles: 27481230 heartbeat IPC: 1.54778 cumulative IPC: 1.45554 (Simulation time: 0 hr 1 min 2 sec) 
Heartbeat CPU 0 instructions: 50000001 cycles: 33583047 heartbeat IPC: 1.63886 cumulative IPC: 1.48885 (Simulation time: 0 hr 1 min 17 sec) 
Heartbeat CPU 0 instructions: 60000000 cycles: 40064179 heartbeat IPC: 1.54294 cumulative IPC: 1.4976 (Simulation time: 0 hr 1 min 33 sec) 
Heartbeat CPU 0 instructions: 70000000 cycles: 47101878 heartbeat IPC: 1.42092 cumulative IPC: 1.48614 (Simulation time: 0 hr 1 min 48 sec) 
Heartbeat CPU 0 instructions: 80000000 cycles: 54191400 heartbeat IPC: 1.41053 cumulative IPC: 1.47625 (Simulation time: 0 hr 2 min 3 sec) 
Heartbeat CPU 0 instructions: 90000003 cycles: 61195741 heartbeat IPC: 1.42769 cumulative IPC: 1.47069 (Simulation time: 0 hr 2 min 18 sec) 
Heartbeat CPU 0 instructions: 100000000 cycles: 68362956 heartbeat IPC: 1.39524 cumulative IPC: 1.46278 (Simulation time: 0 hr 2 min 32 sec) 

Warmup complete CPU 0 instructions: 100000004 cycles: 68362957 (Simulation time: 0 hr 2 min 32 sec) 

Heartbeat CPU 0 instructions: 110000003 cycles: 96081875 heartbeat IPC: 0.360765 cumulative IPC: 0.360764 (Simulation time: 0 hr 3 min 1 sec) 
Heartbeat CPU 0 instructions: 120000000 cycles: 123566141 heartbeat IPC: 0.363844 cumulative IPC: 0.362298 (Simulation time: 0 hr 3 min 30 sec) 
Heartbeat CPU 0 instructions: 130000000 cycles: 148591522 heartbeat IPC: 0.399594 cumulative IPC: 0.373932 (Simulation time: 0 hr 3 min 59 sec) 
Heartbeat CPU 0 instructions: 140000000 cycles: 178075126 heartbeat IPC: 0.339172 cumulative IPC: 0.36459 (Simulation time: 0 hr 4 min 28 sec) 
Heartbeat CPU 0 instructions: 150000000 cycles: 207975631 heartbeat IPC: 0.334443 cumulative IPC: 0.358134 (Simulation time: 0 hr 4 min 57 sec) 
Heartbeat CPU 0 instructions: 160000000 cycles: 235399806 heartbeat IPC: 0.364642 cumulative IPC: 0.359202 (Simulation time: 0 hr 5 min 25 sec) 
Heartbeat CPU 0 instructions: 170000001 cycles: 263493725 heartbeat IPC: 0.355949 cumulative IPC: 0.358734 (Simulation time: 0 hr 5 min 55 sec) 
Heartbeat CPU 0 instructions: 180000000 cycles: 291970628 heartbeat IPC: 0.351162 cumulative IPC: 0.357769 (Simulation time: 0 hr 6 min 24 sec) 
Heartbeat CPU 0 instructions: 190000002 cycles: 320026945 heartbeat IPC: 0.356426 cumulative IPC: 0.35762 (Simulation time: 0 hr 6 min 53 sec) 
Heartbeat CPU 0 instructions: 200000000 cycles: 348376114 heartbeat IPC: 0.352744 cumulative IPC: 0.357126 (Simulation time: 0 hr 7 min 23 sec) 
Heartbeat CPU 0 instructions: 210000002 cycles: 376222218 heartbeat IPC: 0.359117 cumulative IPC: 0.357306 (Simulation time: 0 hr 7 min 52 sec) 
Heartbeat CPU 0 instructions: 220000000 cycles: 405355415 heartbeat IPC: 0.343251 cumulative IPC: 0.356091 (Simulation time: 0 hr 8 min 20 sec) 
Heartbeat CPU 0 instructions: 230000000 cycles: 432968272 heartbeat IPC: 0.36215 cumulative IPC: 0.35655 (Simulation time: 0 hr 8 min 48 sec) 
Heartbeat CPU 0 instructions: 240000000 cycles: 458994539 heartbeat IPC: 0.384227 cumulative IPC: 0.358394 (Simulation time: 0 hr 9 min 15 sec) 
Heartbeat CPU 0 instructions: 250000000 cycles: 489181681 heartbeat IPC: 0.331267 cumulative IPC: 0.356448 (Simulation time: 0 hr 9 min 46 sec) 
Heartbeat CPU 0 instructions: 260000000 cycles: 516372218 heartbeat IPC: 0.367775 cumulative IPC: 0.357135 (Simulation time: 0 hr 10 min 14 sec) 
Heartbeat CPU 0 instructions: 270000003 cycles: 544910250 heartbeat IPC: 0.35041 cumulative IPC: 0.356733 (Simulation time: 0 hr 10 min 44 sec) 
Heartbeat CPU 0 instructions: 280000000 cycles: 573122421 heartbeat IPC: 0.354457 cumulative IPC: 0.356605 (Simulation time: 0 hr 11 min 14 sec) 
Heartbeat CPU 0 instructions: 290000000 cycles: 601991439 heartbeat IPC: 0.346392 cumulative IPC: 0.356053 (Simulation time: 0 hr 11 min 45 sec) 
Heartbeat CPU 0 instructions: 300000000 cycles: 631870964 heartbeat IPC: 0.334677 cumulative IPC: 0.35492 (Simulation time: 0 hr 12 min 13 sec) 
Heartbeat CPU 0 instructions: 310000001 cycles: 661243831 heartbeat IPC: 0.34045 cumulative IPC: 0.354203 (Simulation time: 0 hr 12 min 42 sec) 
Heartbeat CPU 0 instructions: 320000000 cycles: 689505026 heartbeat IPC: 0.353842 cumulative IPC: 0.354186 (Simulation time: 0 hr 13 min 10 sec) 
Heartbeat CPU 0 instructions: 330000000 cycles: 718160005 heartbeat IPC: 0.34898 cumulative IPC: 0.353957 (Simulation time: 0 hr 13 min 39 sec) 
Heartbeat CPU 0 instructions: 340000000 cycles: 747473352 heartbeat IPC: 0.341142 cumulative IPC: 0.353404 (Simulation time: 0 hr 14 min 8 sec) 
Heartbeat CPU 0 instructions: 350000003 cycles: 774502104 heartbeat IPC: 0.369976 cumulative IPC: 0.354038 (Simulation time: 0 hr 14 min 36 sec) 
Heartbeat CPU 0 instructions: 360000000 cycles: 802661347 heartbeat IPC: 0.355123 cumulative IPC: 0.354079 (Simulation time: 0 hr 15 min 4 sec) 
Heartbeat CPU 0 instructions: 370000000 cycles: 830894274 heartbeat IPC: 0.354196 cumulative IPC: 0.354084 (Simulation time: 0 hr 15 min 32 sec) 
Heartbeat CPU 0 instructions: 380000000 cycles: 859446633 heartbeat IPC: 0.350234 cumulative IPC: 0.353945 (Simulation time: 0 hr 15 min 59 sec) 
Heartbeat CPU 0 instructions: 390000001 cycles: 887106675 heartbeat IPC: 0.361532 cumulative IPC: 0.354201 (Simulation time: 0 hr 16 min 27 sec) 
Heartbeat CPU 0 instructions: 400000000 cycles: 915777594 heartbeat IPC: 0.348785 cumulative IPC: 0.354018 (Simulation time: 0 hr 16 min 54 sec) 
Heartbeat CPU 0 instructions: 410000001 cycles: 943110203 heartbeat IPC: 0.365863 cumulative IPC: 0.354388 (Simulation time: 0 hr 17 min 22 sec) 
Heartbeat CPU 0 instructions: 420000000 cycles: 970456452 heartbeat IPC: 0.365681 cumulative IPC: 0.35473 (Simulation time: 0 hr 17 min 49 sec) 
Heartbeat CPU 0 instructions: 430000002 cycles: 998183019 heartbeat IPC: 0.360665 cumulative IPC: 0.354907 (Simulation time: 0 hr 18 min 17 sec) 
Heartbeat CPU 0 instructions: 440000000 cycles: 1027742954 heartbeat IPC: 0.338296 cumulative IPC: 0.354396 (Simulation time: 0 hr 18 min 45 sec) 
Heartbeat CPU 0 instructions: 450000002 cycles: 1057040594 heartbeat IPC: 0.341324 cumulative IPC: 0.354008 (Simulation time: 0 hr 19 min 13 sec) 
Heartbeat CPU 0 instructions: 460000000 cycles: 1084773775 heartbeat IPC: 0.360579 cumulative IPC: 0.354187 (Simulation time: 0 hr 19 min 40 sec) 
Heartbeat CPU 0 instructions: 470000000 cycles: 1112441355 heartbeat IPC: 0.361434 cumulative IPC: 0.35438 (Simulation time: 0 hr 20 min 8 sec) 
Heartbeat CPU 0 instructions: 480000000 cycles: 1140357744 heartbeat IPC: 0.358213 cumulative IPC: 0.354479 (Simulation time: 0 hr 20 min 36 sec) 
Heartbeat CPU 0 instructions: 490000000 cycles: 1167980440 heartbeat IPC: 0.362021 cumulative IPC: 0.354669 (Simulation time: 0 hr 21 min 3 sec) 
Heartbeat CPU 0 instructions: 500000000 cycles: 1196318401 heartbeat IPC: 0.352884 cumulative IPC: 0.354624 (Simulation time: 0 hr 21 min 31 sec) 
Heartbeat CPU 0 instructions: 510000000 cycles: 1231705977 heartbeat IPC: 0.282585 cumulative IPC: 0.352433 (Simulation time: 0 hr 22 min 3 sec) 
Heartbeat CPU 0 instructions: 520000000 cycles: 1259831669 heartbeat IPC: 0.355547 cumulative IPC: 0.352506 (Simulation time: 0 hr 22 min 32 sec) 
Heartbeat CPU 0 instructions: 530000001 cycles: 1289168742 heartbeat IPC: 0.340866 cumulative IPC: 0.352226 (Simulation time: 0 hr 23 min 2 sec) 
Heartbeat CPU 0 instructions: 540000000 cycles: 1317258872 heartbeat IPC: 0.355997 cumulative IPC: 0.352311 (Simulation time: 0 hr 23 min 31 sec) 
Heartbeat CPU 0 instructions: 550000001 cycles: 1346477216 heartbeat IPC: 0.342251 cumulative IPC: 0.352081 (Simulation time: 0 hr 24 min 1 sec) 
Heartbeat CPU 0 instructions: 560000000 cycles: 1371899294 heartbeat IPC: 0.393359 cumulative IPC: 0.352886 (Simulation time: 0 hr 24 min 30 sec) 
Heartbeat CPU 0 instructions: 570000000 cycles: 1401427588 heartbeat IPC: 0.338658 cumulative IPC: 0.352571 (Simulation time: 0 hr 24 min 59 sec) 
Heartbeat CPU 0 instructions: 580000000 cycles: 1429417617 heartbeat IPC: 0.35727 cumulative IPC: 0.352668 (Simulation time: 0 hr 25 min 28 sec) 
Heartbeat CPU 0 instructions: 590000001 cycles: 1454305973 heartbeat IPC: 0.401794 cumulative IPC: 0.35355 (Simulation time: 0 hr 25 min 56 sec) 
Heartbeat CPU 0 instructions: 600000000 cycles: 1480545739 heartbeat IPC: 0.381101 cumulative IPC: 0.354062 (Simulation time: 0 hr 26 min 24 sec) 
Finished CPU 0 instructions: 500000000 cycles: 1412182804 cumulative IPC: 0.354062 (Simulation time: 0 hr 26 min 24 sec) 

CPU 0 Branch Prediction Accuracy: 86.4311% MPKI: 26.2662
Number of Branches: 96788573 Number of Mispredictions: 13133102
Number of LOAD Instructions: 164682285
Number of LOAD Instructions (ROI): 164682285
Number of STORE Instructions: 78194750
Number of STORE Instructions (ROI): 78194750
Total Destination Memory Operands: 83268534
Total Destination Memory Operands (ROI): 83268534
Total Source Memory Operands: 164712438
Total Source Memory Operands (ROI): 164712438
Number of DEPENDED LOADS: 7065014
Number of DEPENDED LOADS (ROI): 7065014
Number of SQ_ADDED: 83268522
Number of SQ_ADDED (ROI): 83268522
Number of LQ_ADDED: 236705804
Number of LQ_ADDED (ROI): 236705804
Number of Instructions read from trace: 600000066

ChampSim completed all CPUs

Region of Interest Statistics

CPU 0 cumulative IPC: 0.354062 instructions: 500000000 cycles: 1412182804
ITLB TOTAL     ACCESS:  100508352  HIT:  100303906  MISS:     204446
ITLB LOAD      ACCESS:  100508352  HIT:  100303906  MISS:     204446
ITLB RFO       ACCESS:          0  HIT:          0  MISS:          0
ITLB PREFETCH  ACCESS:          0  HIT:          0  MISS:          0
ITLB WRITEBACK ACCESS:          0  HIT:          0  MISS:          0
ITLB PREFETCH  REQUESTED:          0  ISSUED:          0  USEFUL:          0  USELESS:          0
ITLB TOTAL MSHR MERGED:     172424
ITLB LOAD MSHR MERGED:     172424
ITLB RFO MSHR MERGED:          0
ITLB PREFETCH MSHR MERGED:          0
ITLB WRITEBACK MSHR MERGED:          0
ITLB TOTAL ACCESSES:  100680776 HITS:  100303906 MISSES:     376870
ITLB LOAD ACCESSES:  100680776 HITS:  100303906 MISSES:     376870
ITLB RFO ACCESSES:          0 HITS:          0 MISSES:          0
ITLB PREFETCH ACCESSES:          0 HITS:          0 MISSES:          0
ITLB WRITEBACK ACCESSES:          0 HITS:          0 MISSES:          0
ITLB RQ ACCESS:  500000057
ITLB RQ TO_CACHE:  100680776
ITLB RQ MERGED:  399319281
ITLB RQ FORWARD:          0
ITLB WQ ACCESS:          0
ITLB WQ TO_CACHE:          0
ITLB WQ MERGED:          0
ITLB WQ FORWARD:          0
DTLB TOTAL     ACCESS:  165329657  HIT:  164695307  MISS:     634350
DTLB LOAD      ACCESS:  106288675  HIT:  105718657  MISS:     570018
DTLB RFO       ACCESS:   59040982  HIT:   58976650  MISS:      64332
DTLB PREFETCH  ACCESS:          0  HIT:          0  MISS:          0
DTLB WRITEBACK ACCESS:          0  HIT:          0  MISS:          0
DTLB PREFETCH  REQUESTED:          0  ISSUED:          0  USEFUL:          0  USELESS:          0
DTLB TOTAL MSHR MERGED:      99829
DTLB LOAD MSHR MERGED:      59434
DTLB RFO MSHR MERGED:      40395
DTLB PREFETCH MSHR MERGED:          0
DTLB WRITEBACK MSHR MERGED:          0
DTLB TOTAL ACCESSES:  165429486 HITS:  164695307 MISSES:     734179
DTLB LOAD ACCESSES:  106348109 HITS:  105718657 MISSES:     629452
DTLB RFO ACCESSES:   59081377 HITS:   58976650 MISSES:     104727
DTLB PREFETCH ACCESSES:          0 HITS:          0 MISSES:          0
DTLB WRITEBACK ACCESSES:          0 HITS:          0 MISSES:          0
DTLB RQ ACCESS:  200305921
DTLB RQ TO_CACHE:  165429486
DTLB RQ MERGED:   34876435
DTLB RQ FORWARD:          0
DTLB WQ ACCESS:          0
DTLB WQ TO_CACHE:          0
DTLB WQ MERGED:          0
DTLB WQ FORWARD:          0
L1D TOTAL     ACCESS:  281784659  HIT:  273875363  MISS:    7909296
L1D LOAD      ACCESS:  110417615  HIT:  107142152  MISS:    3275463
L1D RFO       ACCESS:   67068915  HIT:   66175994  MISS:     892921
L1D PREFETCH  ACCESS:  104298129  HIT:  100557217  MISS:    3740912
L1D WRITEBACK ACCESS:          0  HIT:          0  MISS:          0
L1D PREFETCH  REQUESTED:  110811555  ISSUED:  109112238  USEFUL:    1661856  USELESS:    2079020
L1D TOTAL MSHR MERGED:    2908107
L1D LOAD MSHR MERGED:     488861
L1D RFO MSHR MERGED:    1918913
L1D PREFETCH MSHR MERGED:     500333
L1D WRITEBACK MSHR MERGED:          0
L1D TOTAL ACCESSES:  284720645 HITS:  273903242 MISSES:   10817403
L1D LOAD ACCESSES:  110813413 HITS:  107144010 MISSES:    3669403
L1D RFO ACCESSES:   68973712 HITS:   66175994 MISSES:    2797718
L1D PREFETCH ACCESSES:  104933520 HITS:  100583238 MISSES:    4350282
L1D WRITEBACK ACCESSES:          0 HITS:          0 MISSES:          0
L1D RQ ACCESS:  130753318
L1D RQ TO_CACHE:  110811558
L1D RQ MERGED:   19939902
L1D RQ FORWARD:          0
L1D WQ ACCESS:   69552603
L1D WQ TO_CACHE:   68973713
L1D WQ MERGED:     578890
L1D WQ FORWARD:      27879
L1I TOTAL     ACCESS:  126556648  HIT:  122318095  MISS:    4238553
L1I LOAD      ACCESS:  126556648  HIT:  122318095  MISS:    4238553
L1I RFO       ACCESS:          0  HIT:          0  MISS:          0
L1I PREFETCH  ACCESS:          0  HIT:          0  MISS:          0
L1I WRITEBACK ACCESS:          0  HIT:          0  MISS:          0
L1I PREFETCH  REQUESTED:          0  ISSUED:          0  USEFUL:          0  USELESS:          0
L1I TOTAL MSHR MERGED:    1834523
L1I LOAD MSHR MERGED:    1834523
L1I RFO MSHR MERGED:          0
L1I PREFETCH MSHR MERGED:          0
L1I WRITEBACK MSHR MERGED:          0
L1I TOTAL ACCESSES:  128391174 HITS:  122318095 MISSES:    6073079
L1I LOAD ACCESSES:  128391174 HITS:  122318095 MISSES:    6073079
L1I RFO ACCESSES:          0 HITS:          0 MISSES:          0
L1I PREFETCH ACCESSES:          0 HITS:          0 MISSES:          0
L1I WRITEBACK ACCESSES:          0 HITS:          0 MISSES:          0
L1I RQ ACCESS:  500000057
L1I RQ TO_CACHE:  128391174
L1I RQ MERGED:  371608883
L1I RQ FORWARD:          0
L1I WQ ACCESS:          0
L1I WQ TO_CACHE:          0
L1I WQ MERGED:          0
L1I WQ FORWARD:          0
L2C TOTAL     ACCESS:   14903025  HIT:   11156634  MISS:    3746391
L2C LOAD      ACCESS:    7418886  HIT:    5098254  MISS:    2320632
L2C RFO       ACCESS:     878703  HIT:     409934  MISS:     468769
L2C PREFETCH  ACCESS:    4566209  HIT:    3626477  MISS:     939732
L2C WRITEBACK ACCESS:    2039227  HIT:    2021969  MISS:      17258
L2C PREFETCH  REQUESTED:     842757  ISSUED:     842757  USEFUL:     202707  USELESS:     736732
L2C TOTAL MSHR MERGED:       9085
L2C LOAD MSHR MERGED:       1402
L2C RFO MSHR MERGED:          0
L2C PREFETCH MSHR MERGED:       7683
L2C WRITEBACK MSHR MERGED:          0
L2C TOTAL ACCESSES:   14913118 HITS:   11157085 MISSES:    3756033
L2C LOAD ACCESSES:    7419095 HITS:    5098463 MISSES:    2320632
L2C RFO ACCESSES:     878805 HITS:     410036 MISSES:     468769
L2C PREFETCH ACCESSES:    4575991 HITS:    3626617 MISSES:     949374
L2C WRITEBACK ACCESSES:    2039227 HITS:    2021969 MISSES:      17258
L2C RQ ACCESS:    8297903
L2C RQ TO_CACHE:    8297592
L2C RQ MERGED:          0
L2C RQ FORWARD:          0
L2C WQ ACCESS:    2039227
L2C WQ TO_CACHE:    2039227
L2C WQ MERGED:          0
L2C WQ FORWARD:        451
LLC TOTAL     ACCESS:    4609769  HIT:    3905701  MISS:     704068
LLC LOAD      ACCESS:    2319217  HIT:    2071042  MISS:     248175
LLC RFO       ACCESS:     468758  HIT:     310054  MISS:     158704
LLC PREFETCH  ACCESS:     941542  HIT:     681772  MISS:     259770
LLC WRITEBACK ACCESS:     880252  HIT:     842833  MISS:      37419
LLC PREFETCH  REQUESTED:          0  ISSUED:          0  USEFUL:      44110  USELESS:     216539
LLC TOTAL MSHR MERGED:        130
LLC LOAD MSHR MERGED:         40
LLC RFO MSHR MERGED:          0
LLC PREFETCH MSHR MERGED:         90
LLC WRITEBACK MSHR MERGED:          0
LLC TOTAL ACCESSES:    4609933 HITS:    3905735 MISSES:     704198
LLC LOAD ACCESSES:    2319230 HITS:    2071055 MISSES:     248175
LLC RFO ACCESSES:     468769 HITS:     310065 MISSES:     158704
LLC PREFETCH ACCESSES:     941682 HITS:     681782 MISSES:     259900
LLC WRITEBACK ACCESSES:     880252 HITS:     842833 MISSES:      37419
LLC 0 RQ ACCESS:    2787999
LLC 0 RQ TO_CACHE:    2787975
LLC 0 RQ MERGED:          0
LLC 0 RQ FORWARD:          0
LLC WQ ACCESS:     880252
LLC WQ TO_CACHE:     880252
LLC WQ MERGED:          0
LLC WQ FORWARD:         34
Major fault: 0 Minor fault: 12862
CPU 0 L1D next line prefetcher final stats
CPU 0 L2C PC-based stride prefetcher final stats
All Misses: 820741
All Hits: 4606033
SD Algo Stats - Switches: 0 SRR-Repls: 287615 BRR-Repls: 0

DRAM Statistics
 CHANNEL 0
 RQ ROW_BUFFER_HIT:     154479  ROW_BUFFER_MISS:     508871
 DBUS_CONGESTED:     556296
 WQ ROW_BUFFER_HIT:      48789  ROW_BUFFER_MISS:     324943  FULL:          0

 AVG_CONGESTED_CYCLE: 13
LOADS RETIRED: 136549171
INSTR RETIRED: 500000000
