
*** ChampSim Multicore Out-of-Order Simulator ***

Warmup Instructions: 100000000
Simulation Instructions: 500000000
Number of CPUs: 1
LLC sets: 2048
LLC ways: 16
Clean RRIP Policies: 2213230122132301 Dirty RRIP Policies: 2203130122031301 PSEL Width: 10 Track Set: 4294967295 PSEL Mask: 1 Demote Mask: 3044100030441000DS Algo: 0Window size: 0
Off-chip DRAM Size: 4096 MB Channels: 1 Width: 64-bit Data Rate: 1600 MT/s

CPU 0 runs /mnt/beegfs/iconst01/spec2017/Parest.trace.gz
NOT SORTED
TRACE STRING: /mnt/beegfs/iconst01/spec2017/Parest.trace.gz
SORTED
TRACE STRING: /mnt/beegfs/iconst01/spec2017/Parest.trace.gz
INITIAL
TRACE STRING: /mnt/beegfs/iconst01/spec2017/Parest.trace.gz

champsim_seed used: 623

CPU 0 L1D next line prefetcher
CPU 0 L2C IP-based stride prefetcher
Initialize DRRIP state
Assign rand_sets[0]: 454  LLC: 2048
rand_sets[0]: 454
Assign rand_sets[1]: 1662  LLC: 2048
rand_sets[1]: 1662
Assign rand_sets[2]: 1921  LLC: 2048
rand_sets[2]: 1921
Assign rand_sets[3]: 1131  LLC: 2048
rand_sets[3]: 1131
Assign rand_sets[4]: 331  LLC: 2048
rand_sets[4]: 331
Assign rand_sets[5]: 1531  LLC: 2048
rand_sets[5]: 1531
Assign rand_sets[6]: 482  LLC: 2048
rand_sets[6]: 482
Assign rand_sets[7]: 1275  LLC: 2048
rand_sets[7]: 1275
Assign rand_sets[8]: 1876  LLC: 2048
rand_sets[8]: 1876
Assign rand_sets[9]: 2038  LLC: 2048
rand_sets[9]: 2038
Assign rand_sets[10]: 701  LLC: 2048
rand_sets[10]: 701
Assign rand_sets[11]: 479  LLC: 2048
rand_sets[11]: 479
Assign rand_sets[12]: 892  LLC: 2048
rand_sets[12]: 892
Assign rand_sets[13]: 1820  LLC: 2048
rand_sets[13]: 1820
Assign rand_sets[14]: 1505  LLC: 2048
rand_sets[14]: 1505
Assign rand_sets[15]: 1159  LLC: 2048
rand_sets[15]: 1159
Assign rand_sets[16]: 513  LLC: 2048
rand_sets[16]: 513
Assign rand_sets[17]: 703  LLC: 2048
rand_sets[17]: 703
Assign rand_sets[18]: 561  LLC: 2048
rand_sets[18]: 561
Assign rand_sets[19]: 990  LLC: 2048
rand_sets[19]: 990
Assign rand_sets[20]: 342  LLC: 2048
rand_sets[20]: 342
Assign rand_sets[21]: 882  LLC: 2048
rand_sets[21]: 882
Assign rand_sets[22]: 15  LLC: 2048
rand_sets[22]: 15
Assign rand_sets[23]: 71  LLC: 2048
rand_sets[23]: 71
Assign rand_sets[24]: 1127  LLC: 2048
rand_sets[24]: 1127
Assign rand_sets[25]: 1382  LLC: 2048
rand_sets[25]: 1382
Assign rand_sets[26]: 647  LLC: 2048
rand_sets[26]: 647
Assign rand_sets[27]: 857  LLC: 2048
rand_sets[27]: 857
Assign rand_sets[28]: 1450  LLC: 2048
rand_sets[28]: 1450
Assign rand_sets[29]: 1160  LLC: 2048
rand_sets[29]: 1160
Assign rand_sets[30]: 1852  LLC: 2048
rand_sets[30]: 1852
Assign rand_sets[31]: 1881  LLC: 2048
rand_sets[31]: 1881
Assign rand_sets[32]: 1770  LLC: 2048
rand_sets[32]: 1770
Assign rand_sets[33]: 1622  LLC: 2048
rand_sets[33]: 1622
Assign rand_sets[34]: 275  LLC: 2048
rand_sets[34]: 275
Assign rand_sets[35]: 635  LLC: 2048
rand_sets[35]: 635
Assign rand_sets[36]: 466  LLC: 2048
rand_sets[36]: 466
Assign rand_sets[37]: 1413  LLC: 2048
rand_sets[37]: 1413
Assign rand_sets[38]: 417  LLC: 2048
rand_sets[38]: 417
Assign rand_sets[39]: 472  LLC: 2048
rand_sets[39]: 472
Assign rand_sets[40]: 1340  LLC: 2048
rand_sets[40]: 1340
Assign rand_sets[41]: 852  LLC: 2048
rand_sets[41]: 852
Assign rand_sets[42]: 1365  LLC: 2048
rand_sets[42]: 1365
Assign rand_sets[43]: 47  LLC: 2048
rand_sets[43]: 47
Assign rand_sets[44]: 823  LLC: 2048
rand_sets[44]: 823
Assign rand_sets[45]: 686  LLC: 2048
rand_sets[45]: 686
Assign rand_sets[46]: 1637  LLC: 2048
rand_sets[46]: 1637
Assign rand_sets[47]: 1115  LLC: 2048
rand_sets[47]: 1115
Assign rand_sets[48]: 986  LLC: 2048
rand_sets[48]: 986
Assign rand_sets[49]: 258  LLC: 2048
rand_sets[49]: 258
Assign rand_sets[50]: 633  LLC: 2048
rand_sets[50]: 633
Assign rand_sets[51]: 920  LLC: 2048
rand_sets[51]: 920
Assign rand_sets[52]: 204  LLC: 2048
rand_sets[52]: 204
Assign rand_sets[53]: 227  LLC: 2048
rand_sets[53]: 227
Assign rand_sets[54]: 1818  LLC: 2048
rand_sets[54]: 1818
Assign rand_sets[55]: 886  LLC: 2048
rand_sets[55]: 886
Assign rand_sets[56]: 1422  LLC: 2048
rand_sets[56]: 1422
Assign rand_sets[57]: 607  LLC: 2048
rand_sets[57]: 607
Assign rand_sets[58]: 217  LLC: 2048
rand_sets[58]: 217
Assign rand_sets[59]: 1945  LLC: 2048
rand_sets[59]: 1945
Assign rand_sets[60]: 143  LLC: 2048
rand_sets[60]: 143
Assign rand_sets[61]: 1311  LLC: 2048
rand_sets[61]: 1311
Assign rand_sets[62]: 319  LLC: 2048
rand_sets[62]: 319
Assign rand_sets[63]: 1846  LLC: 2048
rand_sets[63]: 1846
 CLEAN-RRIP-POLICY-1: 2-2-1-3-2-3-0-1- CLEAN-RRIP-POLICY-2: 2-2-1-3-2-3-0-1-
 DIRTY-RRIP-POLICY-1: 2-2-0-3-1-3-0-1- DIRTY-RRIP-POLICY-2: 2-2-0-3-1-3-0-1-
 PSEL width: 10
Heartbeat CPU 0 instructions: 10000001 cycles: 4387114 heartbeat IPC: 2.2794 cumulative IPC: 2.2794 (Simulation time: 0 hr 0 min 14 sec) 
Heartbeat CPU 0 instructions: 20000000 cycles: 8781225 heartbeat IPC: 2.27577 cumulative IPC: 2.27759 (Simulation time: 0 hr 0 min 28 sec) 
Heartbeat CPU 0 instructions: 30000003 cycles: 13213170 heartbeat IPC: 2.25635 cumulative IPC: 2.27046 (Simulation time: 0 hr 0 min 43 sec) 
Heartbeat CPU 0 instructions: 40000000 cycles: 17643704 heartbeat IPC: 2.25706 cumulative IPC: 2.2671 (Simulation time: 0 hr 0 min 57 sec) 
Heartbeat CPU 0 instructions: 50000000 cycles: 22051821 heartbeat IPC: 2.26854 cumulative IPC: 2.26739 (Simulation time: 0 hr 1 min 10 sec) 
Heartbeat CPU 0 instructions: 60000000 cycles: 26457453 heartbeat IPC: 2.26982 cumulative IPC: 2.26779 (Simulation time: 0 hr 1 min 24 sec) 
Heartbeat CPU 0 instructions: 70000000 cycles: 30858285 heartbeat IPC: 2.2723 cumulative IPC: 2.26843 (Simulation time: 0 hr 1 min 38 sec) 
Heartbeat CPU 0 instructions: 80000000 cycles: 35253777 heartbeat IPC: 2.27506 cumulative IPC: 2.26926 (Simulation time: 0 hr 1 min 53 sec) 
Heartbeat CPU 0 instructions: 90000000 cycles: 39647964 heartbeat IPC: 2.27573 cumulative IPC: 2.26998 (Simulation time: 0 hr 2 min 7 sec) 
Heartbeat CPU 0 instructions: 100000000 cycles: 44045215 heartbeat IPC: 2.27415 cumulative IPC: 2.27039 (Simulation time: 0 hr 2 min 21 sec) 

Warmup complete CPU 0 instructions: 100000002 cycles: 44045225 (Simulation time: 0 hr 2 min 21 sec) 

Heartbeat CPU 0 instructions: 110000000 cycles: 54045854 heartbeat IPC: 0.999936 cumulative IPC: 0.999937 (Simulation time: 0 hr 2 min 39 sec) 
Heartbeat CPU 0 instructions: 120000000 cycles: 63158958 heartbeat IPC: 1.09732 cumulative IPC: 1.04637 (Simulation time: 0 hr 2 min 57 sec) 
Heartbeat CPU 0 instructions: 130000001 cycles: 72340822 heartbeat IPC: 1.0891 cumulative IPC: 1.06024 (Simulation time: 0 hr 3 min 15 sec) 
Heartbeat CPU 0 instructions: 140000000 cycles: 81721666 heartbeat IPC: 1.066 cumulative IPC: 1.06167 (Simulation time: 0 hr 3 min 33 sec) 
Heartbeat CPU 0 instructions: 150000000 cycles: 92880978 heartbeat IPC: 0.896113 cumulative IPC: 1.02384 (Simulation time: 0 hr 3 min 52 sec) 
Heartbeat CPU 0 instructions: 160000000 cycles: 102957095 heartbeat IPC: 0.992446 cumulative IPC: 1.01847 (Simulation time: 0 hr 4 min 10 sec) 
Heartbeat CPU 0 instructions: 170000003 cycles: 112873831 heartbeat IPC: 1.0084 cumulative IPC: 1.01702 (Simulation time: 0 hr 4 min 28 sec) 
Heartbeat CPU 0 instructions: 180000000 cycles: 122668568 heartbeat IPC: 1.02096 cumulative IPC: 1.01751 (Simulation time: 0 hr 4 min 46 sec) 
Heartbeat CPU 0 instructions: 190000002 cycles: 132594027 heartbeat IPC: 1.00751 cumulative IPC: 1.01639 (Simulation time: 0 hr 5 min 4 sec) 
Heartbeat CPU 0 instructions: 200000000 cycles: 141988311 heartbeat IPC: 1.06448 cumulative IPC: 1.021 (Simulation time: 0 hr 5 min 22 sec) 
Heartbeat CPU 0 instructions: 210000000 cycles: 151815316 heartbeat IPC: 1.0176 cumulative IPC: 1.02069 (Simulation time: 0 hr 5 min 40 sec) 
Heartbeat CPU 0 instructions: 220000000 cycles: 160966946 heartbeat IPC: 1.0927 cumulative IPC: 1.02633 (Simulation time: 0 hr 5 min 58 sec) 
Heartbeat CPU 0 instructions: 230000001 cycles: 173147411 heartbeat IPC: 0.820987 cumulative IPC: 1.00695 (Simulation time: 0 hr 6 min 17 sec) 
Heartbeat CPU 0 instructions: 240000000 cycles: 183628771 heartbeat IPC: 0.954075 cumulative IPC: 1.00298 (Simulation time: 0 hr 6 min 36 sec) 
Heartbeat CPU 0 instructions: 250000002 cycles: 193546361 heartbeat IPC: 1.00831 cumulative IPC: 1.00334 (Simulation time: 0 hr 6 min 53 sec) 
Heartbeat CPU 0 instructions: 260000000 cycles: 203231589 heartbeat IPC: 1.0325 cumulative IPC: 1.00511 (Simulation time: 0 hr 7 min 11 sec) 
Heartbeat CPU 0 instructions: 270000001 cycles: 212745067 heartbeat IPC: 1.05114 cumulative IPC: 1.00771 (Simulation time: 0 hr 7 min 29 sec) 
Heartbeat CPU 0 instructions: 280000000 cycles: 222599658 heartbeat IPC: 1.01476 cumulative IPC: 1.0081 (Simulation time: 0 hr 7 min 47 sec) 
Heartbeat CPU 0 instructions: 290000002 cycles: 231834030 heartbeat IPC: 1.08291 cumulative IPC: 1.01177 (Simulation time: 0 hr 8 min 5 sec) 
Heartbeat CPU 0 instructions: 300000000 cycles: 241528902 heartbeat IPC: 1.03147 cumulative IPC: 1.01274 (Simulation time: 0 hr 8 min 23 sec) 
Heartbeat CPU 0 instructions: 310000000 cycles: 250709627 heartbeat IPC: 1.08924 cumulative IPC: 1.01614 (Simulation time: 0 hr 8 min 41 sec) 
Heartbeat CPU 0 instructions: 320000000 cycles: 259983418 heartbeat IPC: 1.07831 cumulative IPC: 1.01881 (Simulation time: 0 hr 8 min 59 sec) 
Heartbeat CPU 0 instructions: 330000003 cycles: 269420845 heartbeat IPC: 1.05961 cumulative IPC: 1.02052 (Simulation time: 0 hr 9 min 17 sec) 
Heartbeat CPU 0 instructions: 340000000 cycles: 279492465 heartbeat IPC: 0.992889 cumulative IPC: 1.01934 (Simulation time: 0 hr 9 min 35 sec) 
Heartbeat CPU 0 instructions: 350000000 cycles: 289848240 heartbeat IPC: 0.965645 cumulative IPC: 1.01707 (Simulation time: 0 hr 9 min 53 sec) 
Heartbeat CPU 0 instructions: 360000000 cycles: 299675269 heartbeat IPC: 1.0176 cumulative IPC: 1.01709 (Simulation time: 0 hr 10 min 11 sec) 
Heartbeat CPU 0 instructions: 370000000 cycles: 309280431 heartbeat IPC: 1.04111 cumulative IPC: 1.01796 (Simulation time: 0 hr 10 min 29 sec) 
Heartbeat CPU 0 instructions: 380000000 cycles: 318739934 heartbeat IPC: 1.05714 cumulative IPC: 1.01931 (Simulation time: 0 hr 10 min 47 sec) 
Heartbeat CPU 0 instructions: 390000002 cycles: 327973312 heartbeat IPC: 1.08303 cumulative IPC: 1.02139 (Simulation time: 0 hr 11 min 4 sec) 
Heartbeat CPU 0 instructions: 400000000 cycles: 337648501 heartbeat IPC: 1.03357 cumulative IPC: 1.02179 (Simulation time: 0 hr 11 min 22 sec) 
Heartbeat CPU 0 instructions: 410000000 cycles: 346743645 heartbeat IPC: 1.09949 cumulative IPC: 1.02412 (Simulation time: 0 hr 11 min 40 sec) 
Heartbeat CPU 0 instructions: 420000000 cycles: 357632138 heartbeat IPC: 0.918401 cumulative IPC: 1.02045 (Simulation time: 0 hr 11 min 59 sec) 
Heartbeat CPU 0 instructions: 430000000 cycles: 368485897 heartbeat IPC: 0.92134 cumulative IPC: 1.01714 (Simulation time: 0 hr 12 min 17 sec) 
Heartbeat CPU 0 instructions: 440000000 cycles: 378460215 heartbeat IPC: 1.00257 cumulative IPC: 1.0167 (Simulation time: 0 hr 12 min 34 sec) 
Heartbeat CPU 0 instructions: 450000000 cycles: 388347064 heartbeat IPC: 1.01144 cumulative IPC: 1.01655 (Simulation time: 0 hr 12 min 52 sec) 
Heartbeat CPU 0 instructions: 460000000 cycles: 398159924 heartbeat IPC: 1.01907 cumulative IPC: 1.01662 (Simulation time: 0 hr 13 min 10 sec) 
Heartbeat CPU 0 instructions: 470000001 cycles: 408063496 heartbeat IPC: 1.00974 cumulative IPC: 1.01643 (Simulation time: 0 hr 13 min 27 sec) 
Heartbeat CPU 0 instructions: 480000000 cycles: 417404699 heartbeat IPC: 1.07053 cumulative IPC: 1.01779 (Simulation time: 0 hr 13 min 45 sec) 
Heartbeat CPU 0 instructions: 490000002 cycles: 427240879 heartbeat IPC: 1.01666 cumulative IPC: 1.01776 (Simulation time: 0 hr 14 min 3 sec) 
Heartbeat CPU 0 instructions: 500000000 cycles: 436699960 heartbeat IPC: 1.05718 cumulative IPC: 1.01871 (Simulation time: 0 hr 14 min 21 sec) 
Heartbeat CPU 0 instructions: 510000000 cycles: 445963073 heartbeat IPC: 1.07955 cumulative IPC: 1.02011 (Simulation time: 0 hr 14 min 38 sec) 
Heartbeat CPU 0 instructions: 520000000 cycles: 455503421 heartbeat IPC: 1.04818 cumulative IPC: 1.02076 (Simulation time: 0 hr 14 min 56 sec) 
Heartbeat CPU 0 instructions: 530000001 cycles: 465798636 heartbeat IPC: 0.971325 cumulative IPC: 1.01955 (Simulation time: 0 hr 15 min 14 sec) 
Heartbeat CPU 0 instructions: 540000000 cycles: 476300319 heartbeat IPC: 0.952228 cumulative IPC: 1.01792 (Simulation time: 0 hr 15 min 32 sec) 
Heartbeat CPU 0 instructions: 550000003 cycles: 486333372 heartbeat IPC: 0.996706 cumulative IPC: 1.01744 (Simulation time: 0 hr 15 min 49 sec) 
Heartbeat CPU 0 instructions: 560000000 cycles: 496127515 heartbeat IPC: 1.02102 cumulative IPC: 1.01751 (Simulation time: 0 hr 16 min 7 sec) 
Heartbeat CPU 0 instructions: 570000002 cycles: 505762217 heartbeat IPC: 1.03791 cumulative IPC: 1.01794 (Simulation time: 0 hr 16 min 24 sec) 
Heartbeat CPU 0 instructions: 580000000 cycles: 515203389 heartbeat IPC: 1.05919 cumulative IPC: 1.01877 (Simulation time: 0 hr 16 min 42 sec) 
Heartbeat CPU 0 instructions: 590000001 cycles: 524997944 heartbeat IPC: 1.02098 cumulative IPC: 1.01881 (Simulation time: 0 hr 16 min 59 sec) 
Heartbeat CPU 0 instructions: 600000000 cycles: 534370019 heartbeat IPC: 1.067 cumulative IPC: 1.01973 (Simulation time: 0 hr 17 min 17 sec) 
Finished CPU 0 instructions: 500000000 cycles: 490324808 cumulative IPC: 1.01973 (Simulation time: 0 hr 17 min 17 sec) 

CPU 0 Branch Prediction Accuracy: 97.8526% MPKI: 2.66709
Number of Branches: 62099103 Number of Mispredictions: 1333545
Number of LOAD Instructions: 210576465
Number of LOAD Instructions (ROI): 210576465
Number of STORE Instructions: 16915507
Number of STORE Instructions (ROI): 16915507
Total Destination Memory Operands: 16918869
Total Destination Memory Operands (ROI): 16918869
Total Source Memory Operands: 210576465
Total Source Memory Operands (ROI): 210576465
Number of DEPENDED LOADS: 344766
Number of DEPENDED LOADS (ROI): 344766
Number of SQ_ADDED: 16918826
Number of SQ_ADDED (ROI): 16918826
Number of LQ_ADDED: 210605932
Number of LQ_ADDED (ROI): 210605932
Number of Instructions read from trace: 600000257

ChampSim completed all CPUs

Region of Interest Statistics

CPU 0 cumulative IPC: 1.01973 instructions: 500000000 cycles: 490324808
ITLB TOTAL     ACCESS:   76331918  HIT:   76331880  MISS:         38
ITLB LOAD      ACCESS:   76331918  HIT:   76331880  MISS:         38
ITLB RFO       ACCESS:          0  HIT:          0  MISS:          0
ITLB PREFETCH  ACCESS:          0  HIT:          0  MISS:          0
ITLB WRITEBACK ACCESS:          0  HIT:          0  MISS:          0
ITLB PREFETCH  REQUESTED:          0  ISSUED:          0  USEFUL:          0  USELESS:          0
ITLB TOTAL MSHR MERGED:         37
ITLB LOAD MSHR MERGED:         37
ITLB RFO MSHR MERGED:          0
ITLB PREFETCH MSHR MERGED:          0
ITLB WRITEBACK MSHR MERGED:          0
ITLB TOTAL ACCESSES:   76331955 HITS:   76331880 MISSES:         75
ITLB LOAD ACCESSES:   76331955 HITS:   76331880 MISSES:         75
ITLB RFO ACCESSES:          0 HITS:          0 MISSES:          0
ITLB PREFETCH ACCESSES:          0 HITS:          0 MISSES:          0
ITLB WRITEBACK ACCESSES:          0 HITS:          0 MISSES:          0
ITLB RQ ACCESS:  500000188
ITLB RQ TO_CACHE:   76331956
ITLB RQ MERGED:  423668232
ITLB RQ FORWARD:          0
ITLB WQ ACCESS:          0
ITLB WQ TO_CACHE:          0
ITLB WQ MERGED:          0
ITLB WQ FORWARD:          0
DTLB TOTAL     ACCESS:  136754550  HIT:  136551756  MISS:     202794
DTLB LOAD      ACCESS:  128692144  HIT:  128492071  MISS:     200073
DTLB RFO       ACCESS:    8062406  HIT:    8059685  MISS:       2721
DTLB PREFETCH  ACCESS:          0  HIT:          0  MISS:          0
DTLB WRITEBACK ACCESS:          0  HIT:          0  MISS:          0
DTLB PREFETCH  REQUESTED:          0  ISSUED:          0  USEFUL:          0  USELESS:          0
DTLB TOTAL MSHR MERGED:     447290
DTLB LOAD MSHR MERGED:     443600
DTLB RFO MSHR MERGED:       3690
DTLB PREFETCH MSHR MERGED:          0
DTLB WRITEBACK MSHR MERGED:          0
DTLB TOTAL ACCESSES:  137201840 HITS:  136551756 MISSES:     650084
DTLB LOAD ACCESSES:  129135744 HITS:  128492071 MISSES:     643673
DTLB RFO ACCESSES:    8066096 HITS:    8059685 MISSES:       6411
DTLB PREFETCH ACCESSES:          0 HITS:          0 MISSES:          0
DTLB WRITEBACK ACCESSES:          0 HITS:          0 MISSES:          0
DTLB RQ ACCESS:  189419793
DTLB RQ TO_CACHE:  137201840
DTLB RQ MERGED:   52217953
DTLB RQ FORWARD:          0
DTLB WQ ACCESS:          0
DTLB WQ TO_CACHE:          0
DTLB WQ MERGED:          0
DTLB WQ FORWARD:          0
L1D TOTAL     ACCESS:  125307832  HIT:  107750861  MISS:   17556971
L1D LOAD      ACCESS:   72313466  HIT:   62045309  MISS:   10268157
L1D RFO       ACCESS:   14014299  HIT:   13861463  MISS:     152836
L1D PREFETCH  ACCESS:   38980067  HIT:   31844089  MISS:    7135978
L1D WRITEBACK ACCESS:          0  HIT:          0  MISS:          0
L1D PREFETCH  REQUESTED:   85506825  ISSUED:   84185424  USEFUL:    5876573  USELESS:    1259416
L1D TOTAL MSHR MERGED:   31576547
L1D LOAD MSHR MERGED:   18351577
L1D RFO MSHR MERGED:     266266
L1D PREFETCH MSHR MERGED:   12958704
L1D WRITEBACK MSHR MERGED:          0
L1D TOTAL ACCESSES:  156884900 HITS:  107751383 MISSES:   49133517
L1D LOAD ACCESSES:   85506848 HITS:   62045332 MISSES:   23461516
L1D RFO ACCESSES:   14280538 HITS:   13861463 MISSES:     419075
L1D PREFETCH ACCESSES:   57097514 HITS:   31844588 MISSES:   25252926
L1D WRITEBACK ACCESSES:          0 HITS:          0 MISSES:          0
L1D RQ ACCESS:  175130771
L1D RQ TO_CACHE:   85506825
L1D RQ MERGED:   89623923
L1D RQ FORWARD:          0
L1D WQ ACCESS:   14289037
L1D WQ TO_CACHE:   14280538
L1D WQ MERGED:       8499
L1D WQ FORWARD:        522
L1I TOTAL     ACCESS:   93358749  HIT:   93356953  MISS:       1796
L1I LOAD      ACCESS:   93358749  HIT:   93356953  MISS:       1796
L1I RFO       ACCESS:          0  HIT:          0  MISS:          0
L1I PREFETCH  ACCESS:          0  HIT:          0  MISS:          0
L1I WRITEBACK ACCESS:          0  HIT:          0  MISS:          0
L1I PREFETCH  REQUESTED:          0  ISSUED:          0  USEFUL:          0  USELESS:          0
L1I TOTAL MSHR MERGED:       2291
L1I LOAD MSHR MERGED:       2291
L1I RFO MSHR MERGED:          0
L1I PREFETCH MSHR MERGED:          0
L1I WRITEBACK MSHR MERGED:          0
L1I TOTAL ACCESSES:   93361040 HITS:   93356953 MISSES:       4087
L1I LOAD ACCESSES:   93361040 HITS:   93356953 MISSES:       4087
L1I RFO ACCESSES:          0 HITS:          0 MISSES:          0
L1I PREFETCH ACCESSES:          0 HITS:          0 MISSES:          0
L1I WRITEBACK ACCESSES:          0 HITS:          0 MISSES:          0
L1I RQ ACCESS:  500000187
L1I RQ TO_CACHE:   93361040
L1I RQ MERGED:  406639147
L1I RQ FORWARD:          0
L1I WQ ACCESS:          0
L1I WQ TO_CACHE:          0
L1I WQ MERGED:          0
L1I WQ FORWARD:          0
L2C TOTAL     ACCESS:   20901174  HIT:    8672337  MISS:   12228837
L2C LOAD      ACCESS:    5111712  HIT:    2145440  MISS:    2966272
L2C RFO       ACCESS:     152809  HIT:       6515  MISS:     146294
L2C PREFETCH  ACCESS:   13863899  HIT:    4747739  MISS:    9116160
L2C WRITEBACK ACCESS:    1772754  HIT:    1772643  MISS:        111
L2C PREFETCH  REQUESTED:    1807277  ISSUED:    1807277  USEFUL:    1065945  USELESS:    8051863
L2C TOTAL MSHR MERGED:      95797
L2C LOAD MSHR MERGED:      22020
L2C RFO MSHR MERGED:          0
L2C PREFETCH MSHR MERGED:      73777
L2C WRITEBACK MSHR MERGED:          0
L2C TOTAL ACCESSES:   21020921 HITS:    8672376 MISSES:   12348545
L2C LOAD ACCESSES:    5111735 HITS:    2145463 MISSES:    2966272
L2C RFO ACCESSES:     152809 HITS:       6515 MISSES:     146294
L2C PREFETCH ACCESSES:   13983623 HITS:    4747755 MISSES:    9235868
L2C WRITEBACK ACCESSES:    1772754 HITS:    1772643 MISSES:        111
L2C RQ ACCESS:    5264544
L2C RQ TO_CACHE:    5264521
L2C RQ MERGED:          0
L2C RQ FORWARD:          0
L2C WQ ACCESS:    1772754
L2C WQ TO_CACHE:    1772754
L2C WQ MERGED:          0
L2C WQ FORWARD:         39
LLC TOTAL     ACCESS:   12532890  HIT:    6708915  MISS:    5823975
LLC LOAD      ACCESS:    2944233  HIT:    2440483  MISS:     503750
LLC RFO       ACCESS:     146294  HIT:      73501  MISS:      72793
LLC PREFETCH  ACCESS:    9156387  HIT:    3966067  MISS:    5190320
LLC WRITEBACK ACCESS:     285976  HIT:     228864  MISS:      57112
LLC PREFETCH  REQUESTED:          0  ISSUED:          0  USEFUL:       9982  USELESS:    5180259
LLC TOTAL MSHR MERGED:       1592
LLC LOAD MSHR MERGED:        375
LLC RFO MSHR MERGED:          0
LLC PREFETCH MSHR MERGED:       1217
LLC WRITEBACK MSHR MERGED:          0
LLC TOTAL ACCESSES:   12534516 HITS:    6708949 MISSES:    5825567
LLC LOAD ACCESSES:    2944252 HITS:    2440502 MISSES:     503750
LLC RFO ACCESSES:     146294 HITS:      73501 MISSES:      72793
LLC PREFETCH ACCESSES:    9157994 HITS:    3966082 MISSES:    5191912
LLC WRITEBACK ACCESSES:     285976 HITS:     228864 MISSES:      57112
LLC 0 RQ ACCESS:    3090546
LLC 0 RQ TO_CACHE:    3090527
LLC 0 RQ MERGED:          0
LLC 0 RQ FORWARD:          0
LLC WQ ACCESS:     285976
LLC WQ TO_CACHE:     285976
LLC WQ MERGED:          0
LLC WQ FORWARD:         34
Major fault: 0 Minor fault: 6524
CPU 0 L1D next line prefetcher final stats
CPU 0 L2C PC-based stride prefetcher final stats
All Misses: 7624973
All Hits: 7432930
SD Algo Stats - Switches: 0 SRR-Repls: 535792 BRR-Repls: 0

DRAM Statistics
 CHANNEL 0
 RQ ROW_BUFFER_HIT:    4932454  ROW_BUFFER_MISS:     824553
 DBUS_CONGESTED:    2077472
 WQ ROW_BUFFER_HIT:      14223  ROW_BUFFER_MISS:      81394  FULL:          0

 AVG_CONGESTED_CYCLE: 12
LOADS RETIRED: 175418235
INSTR RETIRED: 500000000
