
*** ChampSim Multicore Out-of-Order Simulator ***

Warmup Instructions: 100000000
Simulation Instructions: 500000000
Number of CPUs: 1
LLC sets: 2048
LLC ways: 16
Clean RRIP Policies: 1213032112130321 Dirty RRIP Policies: 2213130122131301 PSEL Width: 10 Track Set: 4294967295 PSEL Mask: 1 Demote Mask: 1340201013402010DS Algo: 0Window size: 0
Off-chip DRAM Size: 4096 MB Channels: 1 Width: 64-bit Data Rate: 1600 MT/s

CPU 0 runs /mnt/beegfs/iconst01/spec2017/Fotonik3d.trace.gz
NOT SORTED
TRACE STRING: /mnt/beegfs/iconst01/spec2017/Fotonik3d.trace.gz
SORTED
TRACE STRING: /mnt/beegfs/iconst01/spec2017/Fotonik3d.trace.gz
INITIAL
TRACE STRING: /mnt/beegfs/iconst01/spec2017/Fotonik3d.trace.gz

champsim_seed used: 881

CPU 0 L1D next line prefetcher
CPU 0 L2C IP-based stride prefetcher
Initialize DRRIP state
Assign rand_sets[0]: 454  LLC: 2048
rand_sets[0]: 454
Assign rand_sets[1]: 1662  LLC: 2048
rand_sets[1]: 1662
Assign rand_sets[2]: 1921  LLC: 2048
rand_sets[2]: 1921
Assign rand_sets[3]: 1131  LLC: 2048
rand_sets[3]: 1131
Assign rand_sets[4]: 331  LLC: 2048
rand_sets[4]: 331
Assign rand_sets[5]: 1531  LLC: 2048
rand_sets[5]: 1531
Assign rand_sets[6]: 482  LLC: 2048
rand_sets[6]: 482
Assign rand_sets[7]: 1275  LLC: 2048
rand_sets[7]: 1275
Assign rand_sets[8]: 1876  LLC: 2048
rand_sets[8]: 1876
Assign rand_sets[9]: 2038  LLC: 2048
rand_sets[9]: 2038
Assign rand_sets[10]: 701  LLC: 2048
rand_sets[10]: 701
Assign rand_sets[11]: 479  LLC: 2048
rand_sets[11]: 479
Assign rand_sets[12]: 892  LLC: 2048
rand_sets[12]: 892
Assign rand_sets[13]: 1820  LLC: 2048
rand_sets[13]: 1820
Assign rand_sets[14]: 1505  LLC: 2048
rand_sets[14]: 1505
Assign rand_sets[15]: 1159  LLC: 2048
rand_sets[15]: 1159
Assign rand_sets[16]: 513  LLC: 2048
rand_sets[16]: 513
Assign rand_sets[17]: 703  LLC: 2048
rand_sets[17]: 703
Assign rand_sets[18]: 561  LLC: 2048
rand_sets[18]: 561
Assign rand_sets[19]: 990  LLC: 2048
rand_sets[19]: 990
Assign rand_sets[20]: 342  LLC: 2048
rand_sets[20]: 342
Assign rand_sets[21]: 882  LLC: 2048
rand_sets[21]: 882
Assign rand_sets[22]: 15  LLC: 2048
rand_sets[22]: 15
Assign rand_sets[23]: 71  LLC: 2048
rand_sets[23]: 71
Assign rand_sets[24]: 1127  LLC: 2048
rand_sets[24]: 1127
Assign rand_sets[25]: 1382  LLC: 2048
rand_sets[25]: 1382
Assign rand_sets[26]: 647  LLC: 2048
rand_sets[26]: 647
Assign rand_sets[27]: 857  LLC: 2048
rand_sets[27]: 857
Assign rand_sets[28]: 1450  LLC: 2048
rand_sets[28]: 1450
Assign rand_sets[29]: 1160  LLC: 2048
rand_sets[29]: 1160
Assign rand_sets[30]: 1852  LLC: 2048
rand_sets[30]: 1852
Assign rand_sets[31]: 1881  LLC: 2048
rand_sets[31]: 1881
Assign rand_sets[32]: 1770  LLC: 2048
rand_sets[32]: 1770
Assign rand_sets[33]: 1622  LLC: 2048
rand_sets[33]: 1622
Assign rand_sets[34]: 275  LLC: 2048
rand_sets[34]: 275
Assign rand_sets[35]: 635  LLC: 2048
rand_sets[35]: 635
Assign rand_sets[36]: 466  LLC: 2048
rand_sets[36]: 466
Assign rand_sets[37]: 1413  LLC: 2048
rand_sets[37]: 1413
Assign rand_sets[38]: 417  LLC: 2048
rand_sets[38]: 417
Assign rand_sets[39]: 472  LLC: 2048
rand_sets[39]: 472
Assign rand_sets[40]: 1340  LLC: 2048
rand_sets[40]: 1340
Assign rand_sets[41]: 852  LLC: 2048
rand_sets[41]: 852
Assign rand_sets[42]: 1365  LLC: 2048
rand_sets[42]: 1365
Assign rand_sets[43]: 47  LLC: 2048
rand_sets[43]: 47
Assign rand_sets[44]: 823  LLC: 2048
rand_sets[44]: 823
Assign rand_sets[45]: 686  LLC: 2048
rand_sets[45]: 686
Assign rand_sets[46]: 1637  LLC: 2048
rand_sets[46]: 1637
Assign rand_sets[47]: 1115  LLC: 2048
rand_sets[47]: 1115
Assign rand_sets[48]: 986  LLC: 2048
rand_sets[48]: 986
Assign rand_sets[49]: 258  LLC: 2048
rand_sets[49]: 258
Assign rand_sets[50]: 633  LLC: 2048
rand_sets[50]: 633
Assign rand_sets[51]: 920  LLC: 2048
rand_sets[51]: 920
Assign rand_sets[52]: 204  LLC: 2048
rand_sets[52]: 204
Assign rand_sets[53]: 227  LLC: 2048
rand_sets[53]: 227
Assign rand_sets[54]: 1818  LLC: 2048
rand_sets[54]: 1818
Assign rand_sets[55]: 886  LLC: 2048
rand_sets[55]: 886
Assign rand_sets[56]: 1422  LLC: 2048
rand_sets[56]: 1422
Assign rand_sets[57]: 607  LLC: 2048
rand_sets[57]: 607
Assign rand_sets[58]: 217  LLC: 2048
rand_sets[58]: 217
Assign rand_sets[59]: 1945  LLC: 2048
rand_sets[59]: 1945
Assign rand_sets[60]: 143  LLC: 2048
rand_sets[60]: 143
Assign rand_sets[61]: 1311  LLC: 2048
rand_sets[61]: 1311
Assign rand_sets[62]: 319  LLC: 2048
rand_sets[62]: 319
Assign rand_sets[63]: 1846  LLC: 2048
rand_sets[63]: 1846
 CLEAN-RRIP-POLICY-1: 1-2-1-3-0-3-2-1- CLEAN-RRIP-POLICY-2: 1-2-1-3-0-3-2-1-
 DIRTY-RRIP-POLICY-1: 2-2-1-3-1-3-0-1- DIRTY-RRIP-POLICY-2: 2-2-1-3-1-3-0-1-
 PSEL width: 10
Heartbeat CPU 0 instructions: 10000002 cycles: 7306803 heartbeat IPC: 1.36859 cumulative IPC: 1.36859 (Simulation time: 0 hr 0 min 24 sec) 
Heartbeat CPU 0 instructions: 20000000 cycles: 14613768 heartbeat IPC: 1.36856 cumulative IPC: 1.36857 (Simulation time: 0 hr 0 min 48 sec) 
Heartbeat CPU 0 instructions: 30000001 cycles: 21920599 heartbeat IPC: 1.36858 cumulative IPC: 1.36858 (Simulation time: 0 hr 1 min 12 sec) 
Heartbeat CPU 0 instructions: 40000000 cycles: 29227329 heartbeat IPC: 1.3686 cumulative IPC: 1.36858 (Simulation time: 0 hr 1 min 37 sec) 
Heartbeat CPU 0 instructions: 50000001 cycles: 36534046 heartbeat IPC: 1.3686 cumulative IPC: 1.36859 (Simulation time: 0 hr 2 min 1 sec) 
Heartbeat CPU 0 instructions: 60000000 cycles: 43840984 heartbeat IPC: 1.36856 cumulative IPC: 1.36858 (Simulation time: 0 hr 2 min 26 sec) 
Heartbeat CPU 0 instructions: 70000002 cycles: 51147719 heartbeat IPC: 1.3686 cumulative IPC: 1.36858 (Simulation time: 0 hr 2 min 50 sec) 
Heartbeat CPU 0 instructions: 80000000 cycles: 58454462 heartbeat IPC: 1.3686 cumulative IPC: 1.36859 (Simulation time: 0 hr 3 min 15 sec) 
Heartbeat CPU 0 instructions: 90000003 cycles: 65765000 heartbeat IPC: 1.36789 cumulative IPC: 1.36851 (Simulation time: 0 hr 3 min 40 sec) 
Heartbeat CPU 0 instructions: 100000000 cycles: 73075608 heartbeat IPC: 1.36787 cumulative IPC: 1.36845 (Simulation time: 0 hr 4 min 5 sec) 

Warmup complete CPU 0 instructions: 100000002 cycles: 73075620 (Simulation time: 0 hr 4 min 5 sec) 

Heartbeat CPU 0 instructions: 110000001 cycles: 85555716 heartbeat IPC: 0.801275 cumulative IPC: 0.801276 (Simulation time: 0 hr 4 min 34 sec) 
Heartbeat CPU 0 instructions: 120000000 cycles: 97985878 heartbeat IPC: 0.804495 cumulative IPC: 0.802882 (Simulation time: 0 hr 5 min 3 sec) 
Heartbeat CPU 0 instructions: 130000000 cycles: 110466494 heartbeat IPC: 0.801243 cumulative IPC: 0.802335 (Simulation time: 0 hr 5 min 33 sec) 
Heartbeat CPU 0 instructions: 140000000 cycles: 122932390 heartbeat IPC: 0.802189 cumulative IPC: 0.802298 (Simulation time: 0 hr 6 min 2 sec) 
Heartbeat CPU 0 instructions: 150000000 cycles: 135338323 heartbeat IPC: 0.806066 cumulative IPC: 0.803049 (Simulation time: 0 hr 6 min 31 sec) 
Heartbeat CPU 0 instructions: 160000000 cycles: 147789339 heartbeat IPC: 0.803147 cumulative IPC: 0.803065 (Simulation time: 0 hr 7 min 0 sec) 
Heartbeat CPU 0 instructions: 170000001 cycles: 160251534 heartbeat IPC: 0.802427 cumulative IPC: 0.802974 (Simulation time: 0 hr 7 min 29 sec) 
Heartbeat CPU 0 instructions: 180000000 cycles: 172702249 heartbeat IPC: 0.803167 cumulative IPC: 0.802998 (Simulation time: 0 hr 7 min 58 sec) 
Heartbeat CPU 0 instructions: 190000000 cycles: 185193200 heartbeat IPC: 0.80058 cumulative IPC: 0.802729 (Simulation time: 0 hr 8 min 28 sec) 
Heartbeat CPU 0 instructions: 200000000 cycles: 197646529 heartbeat IPC: 0.802998 cumulative IPC: 0.802756 (Simulation time: 0 hr 8 min 57 sec) 
Heartbeat CPU 0 instructions: 210000002 cycles: 210140543 heartbeat IPC: 0.800383 cumulative IPC: 0.802539 (Simulation time: 0 hr 9 min 26 sec) 
Heartbeat CPU 0 instructions: 220000000 cycles: 222642216 heartbeat IPC: 0.799893 cumulative IPC: 0.802318 (Simulation time: 0 hr 9 min 55 sec) 
Heartbeat CPU 0 instructions: 230000002 cycles: 235089487 heartbeat IPC: 0.803389 cumulative IPC: 0.8024 (Simulation time: 0 hr 10 min 24 sec) 
Heartbeat CPU 0 instructions: 240000000 cycles: 248266718 heartbeat IPC: 0.758885 cumulative IPC: 0.799127 (Simulation time: 0 hr 10 min 54 sec) 
Heartbeat CPU 0 instructions: 250000002 cycles: 265525300 heartbeat IPC: 0.579422 cumulative IPC: 0.779425 (Simulation time: 0 hr 11 min 26 sec) 
Heartbeat CPU 0 instructions: 260000000 cycles: 282741649 heartbeat IPC: 0.580843 cumulative IPC: 0.763118 (Simulation time: 0 hr 11 min 58 sec) 
Heartbeat CPU 0 instructions: 270000000 cycles: 300046501 heartbeat IPC: 0.577873 cumulative IPC: 0.748995 (Simulation time: 0 hr 12 min 29 sec) 
Heartbeat CPU 0 instructions: 280000000 cycles: 317306903 heartbeat IPC: 0.579361 cumulative IPC: 0.737006 (Simulation time: 0 hr 13 min 1 sec) 
Heartbeat CPU 0 instructions: 290000000 cycles: 345841308 heartbeat IPC: 0.350454 cumulative IPC: 0.696569 (Simulation time: 0 hr 13 min 41 sec) 
Heartbeat CPU 0 instructions: 300000000 cycles: 382804698 heartbeat IPC: 0.270538 cumulative IPC: 0.645726 (Simulation time: 0 hr 14 min 26 sec) 
Heartbeat CPU 0 instructions: 310000000 cycles: 399462330 heartbeat IPC: 0.600325 cumulative IPC: 0.643409 (Simulation time: 0 hr 14 min 57 sec) 
Heartbeat CPU 0 instructions: 320000000 cycles: 416069633 heartbeat IPC: 0.602145 cumulative IPC: 0.641411 (Simulation time: 0 hr 15 min 28 sec) 
Heartbeat CPU 0 instructions: 330000003 cycles: 432758448 heartbeat IPC: 0.599204 cumulative IPC: 0.639452 (Simulation time: 0 hr 15 min 59 sec) 
Heartbeat CPU 0 instructions: 340000000 cycles: 449356885 heartbeat IPC: 0.602466 cumulative IPC: 0.637821 (Simulation time: 0 hr 16 min 30 sec) 
Heartbeat CPU 0 instructions: 350000001 cycles: 464251964 heartbeat IPC: 0.671363 cumulative IPC: 0.639098 (Simulation time: 0 hr 17 min 0 sec) 
Heartbeat CPU 0 instructions: 360000000 cycles: 476167505 heartbeat IPC: 0.83924 cumulative IPC: 0.645014 (Simulation time: 0 hr 17 min 27 sec) 
Heartbeat CPU 0 instructions: 370000002 cycles: 487851350 heartbeat IPC: 0.855883 cumulative IPC: 0.650954 (Simulation time: 0 hr 17 min 54 sec) 
Heartbeat CPU 0 instructions: 380000000 cycles: 499749702 heartbeat IPC: 0.840452 cumulative IPC: 0.656239 (Simulation time: 0 hr 18 min 21 sec) 
Heartbeat CPU 0 instructions: 390000003 cycles: 513091819 heartbeat IPC: 0.749506 cumulative IPC: 0.659067 (Simulation time: 0 hr 18 min 49 sec) 
Heartbeat CPU 0 instructions: 400000000 cycles: 525382005 heartbeat IPC: 0.813657 cumulative IPC: 0.663267 (Simulation time: 0 hr 19 min 17 sec) 
Heartbeat CPU 0 instructions: 410000003 cycles: 537382445 heartbeat IPC: 0.833303 cumulative IPC: 0.667662 (Simulation time: 0 hr 19 min 45 sec) 
Heartbeat CPU 0 instructions: 420000000 cycles: 550257763 heartbeat IPC: 0.77668 cumulative IPC: 0.670603 (Simulation time: 0 hr 20 min 12 sec) 
Heartbeat CPU 0 instructions: 430000003 cycles: 568901012 heartbeat IPC: 0.536387 cumulative IPC: 0.665557 (Simulation time: 0 hr 20 min 38 sec) 
Heartbeat CPU 0 instructions: 440000000 cycles: 587532876 heartbeat IPC: 0.536715 cumulative IPC: 0.660891 (Simulation time: 0 hr 21 min 3 sec) 
Heartbeat CPU 0 instructions: 450000003 cycles: 606197062 heartbeat IPC: 0.535786 cumulative IPC: 0.656511 (Simulation time: 0 hr 21 min 28 sec) 
Heartbeat CPU 0 instructions: 460000000 cycles: 624831880 heartbeat IPC: 0.53663 cumulative IPC: 0.652462 (Simulation time: 0 hr 21 min 53 sec) 
Heartbeat CPU 0 instructions: 470000003 cycles: 643489725 heartbeat IPC: 0.535968 cumulative IPC: 0.648652 (Simulation time: 0 hr 22 min 18 sec) 
Heartbeat CPU 0 instructions: 480000000 cycles: 662128903 heartbeat IPC: 0.536504 cumulative IPC: 0.645103 (Simulation time: 0 hr 22 min 44 sec) 
Heartbeat CPU 0 instructions: 490000003 cycles: 680806647 heartbeat IPC: 0.535397 cumulative IPC: 0.641731 (Simulation time: 0 hr 23 min 9 sec) 
Heartbeat CPU 0 instructions: 500000000 cycles: 699414065 heartbeat IPC: 0.53742 cumulative IPC: 0.638632 (Simulation time: 0 hr 23 min 34 sec) 
Heartbeat CPU 0 instructions: 510000003 cycles: 718076150 heartbeat IPC: 0.535846 cumulative IPC: 0.635658 (Simulation time: 0 hr 23 min 59 sec) 
Heartbeat CPU 0 instructions: 520000000 cycles: 736708401 heartbeat IPC: 0.536704 cumulative IPC: 0.63288 (Simulation time: 0 hr 24 min 24 sec) 
Heartbeat CPU 0 instructions: 530000001 cycles: 755363748 heartbeat IPC: 0.536039 cumulative IPC: 0.630232 (Simulation time: 0 hr 24 min 50 sec) 
Heartbeat CPU 0 instructions: 540000000 cycles: 773964546 heartbeat IPC: 0.537611 cumulative IPC: 0.627774 (Simulation time: 0 hr 25 min 15 sec) 
Heartbeat CPU 0 instructions: 550000001 cycles: 792559430 heartbeat IPC: 0.537782 cumulative IPC: 0.625448 (Simulation time: 0 hr 25 min 40 sec) 
Heartbeat CPU 0 instructions: 560000000 cycles: 811145937 heartbeat IPC: 0.538025 cumulative IPC: 0.623247 (Simulation time: 0 hr 26 min 5 sec) 
Heartbeat CPU 0 instructions: 570000001 cycles: 829720477 heartbeat IPC: 0.538371 cumulative IPC: 0.621163 (Simulation time: 0 hr 26 min 31 sec) 
Heartbeat CPU 0 instructions: 580000000 cycles: 848246889 heartbeat IPC: 0.53977 cumulative IPC: 0.619218 (Simulation time: 0 hr 26 min 56 sec) 
Heartbeat CPU 0 instructions: 590000001 cycles: 866851938 heartbeat IPC: 0.537489 cumulative IPC: 0.617302 (Simulation time: 0 hr 27 min 21 sec) 
Heartbeat CPU 0 instructions: 600000000 cycles: 885453041 heartbeat IPC: 0.537602 cumulative IPC: 0.615477 (Simulation time: 0 hr 27 min 46 sec) 
Finished CPU 0 instructions: 500000002 cycles: 812377435 cumulative IPC: 0.615478 (Simulation time: 0 hr 27 min 46 sec) 

CPU 0 Branch Prediction Accuracy: 99.5931% MPKI: 0.08288
Number of Branches: 10184133 Number of Mispredictions: 41440
Number of LOAD Instructions: 261155957
Number of LOAD Instructions (ROI): 261155957
Number of STORE Instructions: 57884062
Number of STORE Instructions (ROI): 57884062
Total Destination Memory Operands: 83293336
Total Destination Memory Operands (ROI): 83293336
Total Source Memory Operands: 261155957
Total Source Memory Operands (ROI): 261155957
Number of DEPENDED LOADS: 22256371
Number of DEPENDED LOADS (ROI): 22256371
Number of SQ_ADDED: 83293300
Number of SQ_ADDED (ROI): 83293300
Number of LQ_ADDED: 1772805192
Number of LQ_ADDED (ROI): 1772805192
Number of Instructions read from trace: 600000257

ChampSim completed all CPUs

Region of Interest Statistics

CPU 0 cumulative IPC: 0.615478 instructions: 500000002 cycles: 812377435
ITLB TOTAL     ACCESS:   94670220  HIT:   94670182  MISS:         38
ITLB LOAD      ACCESS:   94670220  HIT:   94670182  MISS:         38
ITLB RFO       ACCESS:          0  HIT:          0  MISS:          0
ITLB PREFETCH  ACCESS:          0  HIT:          0  MISS:          0
ITLB WRITEBACK ACCESS:          0  HIT:          0  MISS:          0
ITLB PREFETCH  REQUESTED:          0  ISSUED:          0  USEFUL:          0  USELESS:          0
ITLB TOTAL MSHR MERGED:         93
ITLB LOAD MSHR MERGED:         93
ITLB RFO MSHR MERGED:          0
ITLB PREFETCH MSHR MERGED:          0
ITLB WRITEBACK MSHR MERGED:          0
ITLB TOTAL ACCESSES:   94670313 HITS:   94670182 MISSES:        131
ITLB LOAD ACCESSES:   94670313 HITS:   94670182 MISSES:        131
ITLB RFO ACCESSES:          0 HITS:          0 MISSES:          0
ITLB PREFETCH ACCESSES:          0 HITS:          0 MISSES:          0
ITLB WRITEBACK ACCESSES:          0 HITS:          0 MISSES:          0
ITLB RQ ACCESS:  500000001
ITLB RQ TO_CACHE:   94670314
ITLB RQ MERGED:  405329687
ITLB RQ FORWARD:          0
ITLB WQ ACCESS:          0
ITLB WQ TO_CACHE:          0
ITLB WQ MERGED:          0
ITLB WQ FORWARD:          0
DTLB TOTAL     ACCESS:  149178148  HIT:  148581187  MISS:     596961
DTLB LOAD      ACCESS:  107304819  HIT:  106707869  MISS:     596950
DTLB RFO       ACCESS:   41873329  HIT:   41873318  MISS:         11
DTLB PREFETCH  ACCESS:          0  HIT:          0  MISS:          0
DTLB WRITEBACK ACCESS:          0  HIT:          0  MISS:          0
DTLB PREFETCH  REQUESTED:          0  ISSUED:          0  USEFUL:          0  USELESS:          0
DTLB TOTAL MSHR MERGED:     134197
DTLB LOAD MSHR MERGED:     134197
DTLB RFO MSHR MERGED:          0
DTLB PREFETCH MSHR MERGED:          0
DTLB WRITEBACK MSHR MERGED:          0
DTLB TOTAL ACCESSES:  149312345 HITS:  148581187 MISSES:     731158
DTLB LOAD ACCESSES:  107439016 HITS:  106707869 MISSES:     731147
DTLB RFO ACCESSES:   41873329 HITS:   41873318 MISSES:         11
DTLB PREFETCH ACCESSES:          0 HITS:          0 MISSES:          0
DTLB WRITEBACK ACCESSES:          0 HITS:          0 MISSES:          0
DTLB RQ ACCESS:  259759523
DTLB RQ TO_CACHE:  149312345
DTLB RQ MERGED:  110447178
DTLB RQ FORWARD:          0
DTLB WQ ACCESS:          0
DTLB WQ TO_CACHE:          0
DTLB WQ MERGED:          0
DTLB WQ FORWARD:          0
L1D TOTAL     ACCESS:  261032999  HIT:  245635299  MISS:   15397700
L1D LOAD      ACCESS:  118065194  HIT:  112562505  MISS:    5502689
L1D RFO       ACCESS:   68946770  HIT:   68932361  MISS:      14409
L1D PREFETCH  ACCESS:   74021035  HIT:   64140433  MISS:    9880602
L1D WRITEBACK ACCESS:          0  HIT:          0  MISS:          0
L1D PREFETCH  REQUESTED:  120652814  ISSUED:  119078862  USEFUL:    8009872  USELESS:    1870752
L1D TOTAL MSHR MERGED:   16516256
L1D LOAD MSHR MERGED:    5000196
L1D RFO MSHR MERGED:      21801
L1D PREFETCH MSHR MERGED:   11494259
L1D WRITEBACK MSHR MERGED:          0
L1D TOTAL ACCESSES:  277659414 HITS:  245745458 MISSES:   31913956
L1D LOAD ACCESSES:  120660340 HITS:  112570031 MISSES:    8090309
L1D RFO ACCESSES:   68968570 HITS:   68932361 MISSES:      36209
L1D PREFETCH ACCESSES:   88030504 HITS:   64243066 MISSES:   23787438
L1D WRITEBACK ACCESSES:          0 HITS:          0 MISSES:          0
L1D RQ ACCESS:  190685207
L1D RQ TO_CACHE:  120652814
L1D RQ MERGED:   70024867
L1D RQ FORWARD:          0
L1D WQ ACCESS:   69074336
L1D WQ TO_CACHE:   68968572
L1D WQ MERGED:     105764
L1D WQ FORWARD:     110159
L1I TOTAL     ACCESS:  121580493  HIT:  121579420  MISS:       1073
L1I LOAD      ACCESS:  121580493  HIT:  121579420  MISS:       1073
L1I RFO       ACCESS:          0  HIT:          0  MISS:          0
L1I PREFETCH  ACCESS:          0  HIT:          0  MISS:          0
L1I WRITEBACK ACCESS:          0  HIT:          0  MISS:          0
L1I PREFETCH  REQUESTED:          0  ISSUED:          0  USEFUL:          0  USELESS:          0
L1I TOTAL MSHR MERGED:       1067
L1I LOAD MSHR MERGED:       1067
L1I RFO MSHR MERGED:          0
L1I PREFETCH MSHR MERGED:          0
L1I WRITEBACK MSHR MERGED:          0
L1I TOTAL ACCESSES:  121581560 HITS:  121579420 MISSES:       2140
L1I LOAD ACCESSES:  121581560 HITS:  121579420 MISSES:       2140
L1I RFO ACCESSES:          0 HITS:          0 MISSES:          0
L1I PREFETCH ACCESSES:          0 HITS:          0 MISSES:          0
L1I WRITEBACK ACCESSES:          0 HITS:          0 MISSES:          0
L1I RQ ACCESS:  500000000
L1I RQ TO_CACHE:  121581560
L1I RQ MERGED:  378418440
L1I RQ FORWARD:          0
L1I WQ ACCESS:          0
L1I WQ TO_CACHE:          0
L1I WQ MERGED:          0
L1I WQ FORWARD:          0
L2C TOTAL     ACCESS:   22469586  HIT:    9150810  MISS:   13318776
L2C LOAD      ACCESS:    3091160  HIT:     416291  MISS:    2674869
L2C RFO       ACCESS:      14408  HIT:      13994  MISS:        414
L2C PREFETCH  ACCESS:   12734061  HIT:    2092372  MISS:   10641689
L2C WRITEBACK ACCESS:    6629957  HIT:    6628153  MISS:       1804
L2C PREFETCH  REQUESTED:     694759  ISSUED:     694759  USEFUL:     185702  USELESS:   10456780
L2C TOTAL MSHR MERGED:      71794
L2C LOAD MSHR MERGED:      22575
L2C RFO MSHR MERGED:          0
L2C PREFETCH MSHR MERGED:      49219
L2C WRITEBACK MSHR MERGED:          0
L2C TOTAL ACCESSES:   22683695 HITS:    9150848 MISSES:   13532847
L2C LOAD ACCESSES:    3091186 HITS:     416317 MISSES:    2674869
L2C RFO ACCESSES:      14408 HITS:      13994 MISSES:        414
L2C PREFETCH ACCESSES:   12948144 HITS:    2092384 MISSES:   10855760
L2C WRITEBACK ACCESSES:    6629957 HITS:    6628153 MISSES:       1804
L2C RQ ACCESS:    3105594
L2C RQ TO_CACHE:    3105568
L2C RQ MERGED:          0
L2C RQ FORWARD:          0
L2C WQ ACCESS:    6629957
L2C WQ TO_CACHE:    6629957
L2C WQ MERGED:          0
L2C WQ FORWARD:         38
LLC TOTAL     ACCESS:   20027522  HIT:    1893774  MISS:   18133748
LLC LOAD      ACCESS:    2652294  HIT:     395493  MISS:    2256801
LLC RFO       ACCESS:        414  HIT:         17  MISS:        397
LLC PREFETCH  ACCESS:   10783569  HIT:     100655  MISS:   10682914
LLC WRITEBACK ACCESS:    6591245  HIT:    1397609  MISS:    5193636
LLC PREFETCH  REQUESTED:          0  ISSUED:          0  USEFUL:      47325  USELESS:   10636638
LLC TOTAL MSHR MERGED:      21606
LLC LOAD MSHR MERGED:       9979
LLC RFO MSHR MERGED:          0
LLC PREFETCH MSHR MERGED:      11627
LLC WRITEBACK MSHR MERGED:          0
LLC TOTAL ACCESSES:   20049129 HITS:    1893775 MISSES:   18155354
LLC LOAD ACCESSES:    2652294 HITS:     395493 MISSES:    2256801
LLC RFO ACCESSES:        414 HITS:         17 MISSES:        397
LLC PREFETCH ACCESSES:   10805176 HITS:     100656 MISSES:   10704520
LLC WRITEBACK ACCESSES:    6591245 HITS:    1397609 MISSES:    5193636
LLC 0 RQ ACCESS:    2652708
LLC 0 RQ TO_CACHE:    2652708
LLC 0 RQ MERGED:          0
LLC 0 RQ FORWARD:          0
LLC WQ ACCESS:    6591245
LLC WQ TO_CACHE:    6591245
LLC WQ MERGED:          0
LLC WQ FORWARD:          1
Major fault: 0 Minor fault: 183991
CPU 0 L1D next line prefetcher final stats
CPU 0 L2C PC-based stride prefetcher final stats
All Misses: 21005813
All Hits: 1952755
SD Algo Stats - Switches: 0 SRR-Repls: 2316562 BRR-Repls: 0

DRAM Statistics
 CHANNEL 0
 RQ ROW_BUFFER_HIT:    7180435  ROW_BUFFER_MISS:    5759677
 DBUS_CONGESTED:   11259916
 WQ ROW_BUFFER_HIT:     904136  ROW_BUFFER_MISS:    5683329  FULL:          0

 AVG_CONGESTED_CYCLE: 13
LOADS RETIRED: 204440772
INSTR RETIRED: 500000000
