
*** ChampSim Multicore Out-of-Order Simulator ***

Warmup Instructions: 100000000
Simulation Instructions: 500000000
Number of CPUs: 1
LLC sets: 2048
LLC ways: 16
Clean RRIP Policies: 2003110020031100 Dirty RRIP Policies: 2003210020032100 PSEL Width: 10 Track Set: 4294967295 PSEL Mask: 1 Demote Mask: 4014244440142444DS Algo: 0Window size: 0
Off-chip DRAM Size: 4096 MB Channels: 1 Width: 64-bit Data Rate: 1600 MT/s

CPU 0 runs /mnt/beegfs/iconst01/spec2017/Gcc.trace.gz
NOT SORTED
TRACE STRING: /mnt/beegfs/iconst01/spec2017/Gcc.trace.gz
SORTED
TRACE STRING: /mnt/beegfs/iconst01/spec2017/Gcc.trace.gz
INITIAL
TRACE STRING: /mnt/beegfs/iconst01/spec2017/Gcc.trace.gz

champsim_seed used: 269

CPU 0 L1D next line prefetcher
CPU 0 L2C IP-based stride prefetcher
Initialize DRRIP state
Assign rand_sets[0]: 454  LLC: 2048
rand_sets[0]: 454
Assign rand_sets[1]: 1662  LLC: 2048
rand_sets[1]: 1662
Assign rand_sets[2]: 1921  LLC: 2048
rand_sets[2]: 1921
Assign rand_sets[3]: 1131  LLC: 2048
rand_sets[3]: 1131
Assign rand_sets[4]: 331  LLC: 2048
rand_sets[4]: 331
Assign rand_sets[5]: 1531  LLC: 2048
rand_sets[5]: 1531
Assign rand_sets[6]: 482  LLC: 2048
rand_sets[6]: 482
Assign rand_sets[7]: 1275  LLC: 2048
rand_sets[7]: 1275
Assign rand_sets[8]: 1876  LLC: 2048
rand_sets[8]: 1876
Assign rand_sets[9]: 2038  LLC: 2048
rand_sets[9]: 2038
Assign rand_sets[10]: 701  LLC: 2048
rand_sets[10]: 701
Assign rand_sets[11]: 479  LLC: 2048
rand_sets[11]: 479
Assign rand_sets[12]: 892  LLC: 2048
rand_sets[12]: 892
Assign rand_sets[13]: 1820  LLC: 2048
rand_sets[13]: 1820
Assign rand_sets[14]: 1505  LLC: 2048
rand_sets[14]: 1505
Assign rand_sets[15]: 1159  LLC: 2048
rand_sets[15]: 1159
Assign rand_sets[16]: 513  LLC: 2048
rand_sets[16]: 513
Assign rand_sets[17]: 703  LLC: 2048
rand_sets[17]: 703
Assign rand_sets[18]: 561  LLC: 2048
rand_sets[18]: 561
Assign rand_sets[19]: 990  LLC: 2048
rand_sets[19]: 990
Assign rand_sets[20]: 342  LLC: 2048
rand_sets[20]: 342
Assign rand_sets[21]: 882  LLC: 2048
rand_sets[21]: 882
Assign rand_sets[22]: 15  LLC: 2048
rand_sets[22]: 15
Assign rand_sets[23]: 71  LLC: 2048
rand_sets[23]: 71
Assign rand_sets[24]: 1127  LLC: 2048
rand_sets[24]: 1127
Assign rand_sets[25]: 1382  LLC: 2048
rand_sets[25]: 1382
Assign rand_sets[26]: 647  LLC: 2048
rand_sets[26]: 647
Assign rand_sets[27]: 857  LLC: 2048
rand_sets[27]: 857
Assign rand_sets[28]: 1450  LLC: 2048
rand_sets[28]: 1450
Assign rand_sets[29]: 1160  LLC: 2048
rand_sets[29]: 1160
Assign rand_sets[30]: 1852  LLC: 2048
rand_sets[30]: 1852
Assign rand_sets[31]: 1881  LLC: 2048
rand_sets[31]: 1881
Assign rand_sets[32]: 1770  LLC: 2048
rand_sets[32]: 1770
Assign rand_sets[33]: 1622  LLC: 2048
rand_sets[33]: 1622
Assign rand_sets[34]: 275  LLC: 2048
rand_sets[34]: 275
Assign rand_sets[35]: 635  LLC: 2048
rand_sets[35]: 635
Assign rand_sets[36]: 466  LLC: 2048
rand_sets[36]: 466
Assign rand_sets[37]: 1413  LLC: 2048
rand_sets[37]: 1413
Assign rand_sets[38]: 417  LLC: 2048
rand_sets[38]: 417
Assign rand_sets[39]: 472  LLC: 2048
rand_sets[39]: 472
Assign rand_sets[40]: 1340  LLC: 2048
rand_sets[40]: 1340
Assign rand_sets[41]: 852  LLC: 2048
rand_sets[41]: 852
Assign rand_sets[42]: 1365  LLC: 2048
rand_sets[42]: 1365
Assign rand_sets[43]: 47  LLC: 2048
rand_sets[43]: 47
Assign rand_sets[44]: 823  LLC: 2048
rand_sets[44]: 823
Assign rand_sets[45]: 686  LLC: 2048
rand_sets[45]: 686
Assign rand_sets[46]: 1637  LLC: 2048
rand_sets[46]: 1637
Assign rand_sets[47]: 1115  LLC: 2048
rand_sets[47]: 1115
Assign rand_sets[48]: 986  LLC: 2048
rand_sets[48]: 986
Assign rand_sets[49]: 258  LLC: 2048
rand_sets[49]: 258
Assign rand_sets[50]: 633  LLC: 2048
rand_sets[50]: 633
Assign rand_sets[51]: 920  LLC: 2048
rand_sets[51]: 920
Assign rand_sets[52]: 204  LLC: 2048
rand_sets[52]: 204
Assign rand_sets[53]: 227  LLC: 2048
rand_sets[53]: 227
Assign rand_sets[54]: 1818  LLC: 2048
rand_sets[54]: 1818
Assign rand_sets[55]: 886  LLC: 2048
rand_sets[55]: 886
Assign rand_sets[56]: 1422  LLC: 2048
rand_sets[56]: 1422
Assign rand_sets[57]: 607  LLC: 2048
rand_sets[57]: 607
Assign rand_sets[58]: 217  LLC: 2048
rand_sets[58]: 217
Assign rand_sets[59]: 1945  LLC: 2048
rand_sets[59]: 1945
Assign rand_sets[60]: 143  LLC: 2048
rand_sets[60]: 143
Assign rand_sets[61]: 1311  LLC: 2048
rand_sets[61]: 1311
Assign rand_sets[62]: 319  LLC: 2048
rand_sets[62]: 319
Assign rand_sets[63]: 1846  LLC: 2048
rand_sets[63]: 1846
 CLEAN-RRIP-POLICY-1: 2-0-0-3-1-1-0-0- CLEAN-RRIP-POLICY-2: 2-0-0-3-1-1-0-0-
 DIRTY-RRIP-POLICY-1: 2-0-0-3-2-1-0-0- DIRTY-RRIP-POLICY-2: 2-0-0-3-2-1-0-0-
 PSEL width: 10
Heartbeat CPU 0 instructions: 10000001 cycles: 7315980 heartbeat IPC: 1.36687 cumulative IPC: 1.36687 (Simulation time: 0 hr 0 min 16 sec) 
Heartbeat CPU 0 instructions: 20000000 cycles: 14307418 heartbeat IPC: 1.43032 cumulative IPC: 1.39788 (Simulation time: 0 hr 0 min 31 sec) 
Heartbeat CPU 0 instructions: 30000001 cycles: 21020375 heartbeat IPC: 1.48966 cumulative IPC: 1.42719 (Simulation time: 0 hr 0 min 48 sec) 
Heartbeat CPU 0 instructions: 40000000 cycles: 27481231 heartbeat IPC: 1.54778 cumulative IPC: 1.45554 (Simulation time: 0 hr 1 min 5 sec) 
Heartbeat CPU 0 instructions: 50000001 cycles: 33582921 heartbeat IPC: 1.63889 cumulative IPC: 1.48885 (Simulation time: 0 hr 1 min 21 sec) 
Heartbeat CPU 0 instructions: 60000000 cycles: 40063954 heartbeat IPC: 1.54296 cumulative IPC: 1.49761 (Simulation time: 0 hr 1 min 38 sec) 
Heartbeat CPU 0 instructions: 70000000 cycles: 47101799 heartbeat IPC: 1.42089 cumulative IPC: 1.48614 (Simulation time: 0 hr 1 min 54 sec) 
Heartbeat CPU 0 instructions: 80000000 cycles: 54191316 heartbeat IPC: 1.41053 cumulative IPC: 1.47625 (Simulation time: 0 hr 2 min 9 sec) 
Heartbeat CPU 0 instructions: 90000003 cycles: 61195565 heartbeat IPC: 1.42771 cumulative IPC: 1.47069 (Simulation time: 0 hr 2 min 25 sec) 
Heartbeat CPU 0 instructions: 100000000 cycles: 68362635 heartbeat IPC: 1.39527 cumulative IPC: 1.46279 (Simulation time: 0 hr 2 min 40 sec) 

Warmup complete CPU 0 instructions: 100000004 cycles: 68362636 (Simulation time: 0 hr 2 min 40 sec) 

Heartbeat CPU 0 instructions: 110000003 cycles: 96051402 heartbeat IPC: 0.361157 cumulative IPC: 0.361157 (Simulation time: 0 hr 3 min 10 sec) 
Heartbeat CPU 0 instructions: 120000000 cycles: 123535216 heartbeat IPC: 0.36385 cumulative IPC: 0.362499 (Simulation time: 0 hr 3 min 41 sec) 
Heartbeat CPU 0 instructions: 130000000 cycles: 148540037 heartbeat IPC: 0.399923 cumulative IPC: 0.37417 (Simulation time: 0 hr 4 min 11 sec) 
Heartbeat CPU 0 instructions: 140000000 cycles: 178002142 heartbeat IPC: 0.339419 cumulative IPC: 0.364832 (Simulation time: 0 hr 4 min 41 sec) 
Heartbeat CPU 0 instructions: 150000000 cycles: 207877278 heartbeat IPC: 0.334727 cumulative IPC: 0.358385 (Simulation time: 0 hr 5 min 11 sec) 
Heartbeat CPU 0 instructions: 160000000 cycles: 235286826 heartbeat IPC: 0.364836 cumulative IPC: 0.359445 (Simulation time: 0 hr 5 min 41 sec) 
Heartbeat CPU 0 instructions: 170000001 cycles: 263358618 heartbeat IPC: 0.35623 cumulative IPC: 0.358982 (Simulation time: 0 hr 6 min 12 sec) 
Heartbeat CPU 0 instructions: 180000000 cycles: 291828268 heartbeat IPC: 0.351251 cumulative IPC: 0.357997 (Simulation time: 0 hr 6 min 43 sec) 
Heartbeat CPU 0 instructions: 190000002 cycles: 319854790 heartbeat IPC: 0.356805 cumulative IPC: 0.357864 (Simulation time: 0 hr 7 min 14 sec) 
Heartbeat CPU 0 instructions: 200000000 cycles: 348196723 heartbeat IPC: 0.352834 cumulative IPC: 0.357355 (Simulation time: 0 hr 7 min 45 sec) 
Heartbeat CPU 0 instructions: 210000002 cycles: 376019892 heartbeat IPC: 0.359413 cumulative IPC: 0.357541 (Simulation time: 0 hr 8 min 15 sec) 
Heartbeat CPU 0 instructions: 220000000 cycles: 405109329 heartbeat IPC: 0.343767 cumulative IPC: 0.356351 (Simulation time: 0 hr 8 min 44 sec) 
Heartbeat CPU 0 instructions: 230000000 cycles: 432695911 heartbeat IPC: 0.362495 cumulative IPC: 0.356816 (Simulation time: 0 hr 9 min 14 sec) 
Heartbeat CPU 0 instructions: 240000000 cycles: 458694217 heartbeat IPC: 0.38464 cumulative IPC: 0.358669 (Simulation time: 0 hr 9 min 42 sec) 
Heartbeat CPU 0 instructions: 250000000 cycles: 488866784 heartbeat IPC: 0.331427 cumulative IPC: 0.356715 (Simulation time: 0 hr 10 min 14 sec) 
Heartbeat CPU 0 instructions: 260000000 cycles: 515990692 heartbeat IPC: 0.368678 cumulative IPC: 0.35744 (Simulation time: 0 hr 10 min 44 sec) 
Heartbeat CPU 0 instructions: 270000003 cycles: 544466154 heartbeat IPC: 0.35118 cumulative IPC: 0.357065 (Simulation time: 0 hr 11 min 15 sec) 
Heartbeat CPU 0 instructions: 280000000 cycles: 572672948 heartbeat IPC: 0.354524 cumulative IPC: 0.356923 (Simulation time: 0 hr 11 min 47 sec) 
Heartbeat CPU 0 instructions: 290000000 cycles: 601517635 heartbeat IPC: 0.346684 cumulative IPC: 0.356369 (Simulation time: 0 hr 12 min 18 sec) 
Heartbeat CPU 0 instructions: 300000000 cycles: 631352452 heartbeat IPC: 0.335179 cumulative IPC: 0.355246 (Simulation time: 0 hr 12 min 48 sec) 
Heartbeat CPU 0 instructions: 310000001 cycles: 660692219 heartbeat IPC: 0.340834 cumulative IPC: 0.354532 (Simulation time: 0 hr 13 min 18 sec) 
Heartbeat CPU 0 instructions: 320000000 cycles: 688897086 heartbeat IPC: 0.354549 cumulative IPC: 0.354533 (Simulation time: 0 hr 13 min 48 sec) 
Heartbeat CPU 0 instructions: 330000000 cycles: 717519215 heartbeat IPC: 0.34938 cumulative IPC: 0.354306 (Simulation time: 0 hr 14 min 18 sec) 
Heartbeat CPU 0 instructions: 340000000 cycles: 746807372 heartbeat IPC: 0.341435 cumulative IPC: 0.35375 (Simulation time: 0 hr 14 min 48 sec) 
Heartbeat CPU 0 instructions: 350000003 cycles: 773814395 heartbeat IPC: 0.370274 cumulative IPC: 0.354383 (Simulation time: 0 hr 15 min 18 sec) 
Heartbeat CPU 0 instructions: 360000000 cycles: 801939474 heartbeat IPC: 0.355554 cumulative IPC: 0.354428 (Simulation time: 0 hr 15 min 47 sec) 
Heartbeat CPU 0 instructions: 370000000 cycles: 830174075 heartbeat IPC: 0.354175 cumulative IPC: 0.354418 (Simulation time: 0 hr 16 min 16 sec) 
Heartbeat CPU 0 instructions: 380000000 cycles: 858727082 heartbeat IPC: 0.350226 cumulative IPC: 0.354267 (Simulation time: 0 hr 16 min 45 sec) 
Heartbeat CPU 0 instructions: 390000001 cycles: 886380244 heartbeat IPC: 0.361622 cumulative IPC: 0.354516 (Simulation time: 0 hr 17 min 14 sec) 
Heartbeat CPU 0 instructions: 400000000 cycles: 915041713 heartbeat IPC: 0.3489 cumulative IPC: 0.354326 (Simulation time: 0 hr 17 min 43 sec) 
Heartbeat CPU 0 instructions: 410000001 cycles: 942403300 heartbeat IPC: 0.365476 cumulative IPC: 0.354675 (Simulation time: 0 hr 18 min 11 sec) 
Heartbeat CPU 0 instructions: 420000000 cycles: 969767852 heartbeat IPC: 0.365436 cumulative IPC: 0.355001 (Simulation time: 0 hr 18 min 40 sec) 
Heartbeat CPU 0 instructions: 430000002 cycles: 997478316 heartbeat IPC: 0.360875 cumulative IPC: 0.355176 (Simulation time: 0 hr 19 min 9 sec) 
Heartbeat CPU 0 instructions: 440000000 cycles: 1026972263 heartbeat IPC: 0.339053 cumulative IPC: 0.35468 (Simulation time: 0 hr 19 min 38 sec) 
Heartbeat CPU 0 instructions: 450000002 cycles: 1056254236 heartbeat IPC: 0.341507 cumulative IPC: 0.35429 (Simulation time: 0 hr 20 min 8 sec) 
Heartbeat CPU 0 instructions: 460000000 cycles: 1083991539 heartbeat IPC: 0.360525 cumulative IPC: 0.35446 (Simulation time: 0 hr 20 min 37 sec) 
Heartbeat CPU 0 instructions: 470000000 cycles: 1111671015 heartbeat IPC: 0.361279 cumulative IPC: 0.354641 (Simulation time: 0 hr 21 min 5 sec) 
Heartbeat CPU 0 instructions: 480000000 cycles: 1139593069 heartbeat IPC: 0.35814 cumulative IPC: 0.354732 (Simulation time: 0 hr 21 min 34 sec) 
Heartbeat CPU 0 instructions: 490000000 cycles: 1167233456 heartbeat IPC: 0.361789 cumulative IPC: 0.35491 (Simulation time: 0 hr 22 min 3 sec) 
Heartbeat CPU 0 instructions: 500000000 cycles: 1195511090 heartbeat IPC: 0.353636 cumulative IPC: 0.354878 (Simulation time: 0 hr 22 min 32 sec) 
Heartbeat CPU 0 instructions: 510000000 cycles: 1230680780 heartbeat IPC: 0.284336 cumulative IPC: 0.352743 (Simulation time: 0 hr 23 min 5 sec) 
Heartbeat CPU 0 instructions: 520000000 cycles: 1258731582 heartbeat IPC: 0.356496 cumulative IPC: 0.352832 (Simulation time: 0 hr 23 min 35 sec) 
Heartbeat CPU 0 instructions: 530000001 cycles: 1288050382 heartbeat IPC: 0.341078 cumulative IPC: 0.352549 (Simulation time: 0 hr 24 min 4 sec) 
Heartbeat CPU 0 instructions: 540000000 cycles: 1316116906 heartbeat IPC: 0.356296 cumulative IPC: 0.352634 (Simulation time: 0 hr 24 min 33 sec) 
Heartbeat CPU 0 instructions: 550000001 cycles: 1345334042 heartbeat IPC: 0.342265 cumulative IPC: 0.352396 (Simulation time: 0 hr 25 min 4 sec) 
Heartbeat CPU 0 instructions: 560000000 cycles: 1370735700 heartbeat IPC: 0.393675 cumulative IPC: 0.353201 (Simulation time: 0 hr 25 min 32 sec) 
Heartbeat CPU 0 instructions: 570000000 cycles: 1400265292 heartbeat IPC: 0.338643 cumulative IPC: 0.352879 (Simulation time: 0 hr 26 min 2 sec) 
Heartbeat CPU 0 instructions: 580000000 cycles: 1428270302 heartbeat IPC: 0.357079 cumulative IPC: 0.352965 (Simulation time: 0 hr 26 min 31 sec) 
Heartbeat CPU 0 instructions: 590000001 cycles: 1453109284 heartbeat IPC: 0.402593 cumulative IPC: 0.353855 (Simulation time: 0 hr 26 min 58 sec) 
Heartbeat CPU 0 instructions: 600000000 cycles: 1479316352 heartbeat IPC: 0.381576 cumulative IPC: 0.35437 (Simulation time: 0 hr 27 min 27 sec) 
Finished CPU 0 instructions: 500000000 cycles: 1410953738 cumulative IPC: 0.35437 (Simulation time: 0 hr 27 min 27 sec) 

CPU 0 Branch Prediction Accuracy: 86.4311% MPKI: 26.2662
Number of Branches: 96788573 Number of Mispredictions: 13133102
Number of LOAD Instructions: 164682285
Number of LOAD Instructions (ROI): 164682285
Number of STORE Instructions: 78194750
Number of STORE Instructions (ROI): 78194750
Total Destination Memory Operands: 83268534
Total Destination Memory Operands (ROI): 83268534
Total Source Memory Operands: 164712438
Total Source Memory Operands (ROI): 164712438
Number of DEPENDED LOADS: 7065322
Number of DEPENDED LOADS (ROI): 7065322
Number of SQ_ADDED: 83268522
Number of SQ_ADDED (ROI): 83268522
Number of LQ_ADDED: 236814728
Number of LQ_ADDED (ROI): 236814728
Number of Instructions read from trace: 600000066

ChampSim completed all CPUs

Region of Interest Statistics

CPU 0 cumulative IPC: 0.35437 instructions: 500000000 cycles: 1410953738
ITLB TOTAL     ACCESS:  100504444  HIT:  100299998  MISS:     204446
ITLB LOAD      ACCESS:  100504444  HIT:  100299998  MISS:     204446
ITLB RFO       ACCESS:          0  HIT:          0  MISS:          0
ITLB PREFETCH  ACCESS:          0  HIT:          0  MISS:          0
ITLB WRITEBACK ACCESS:          0  HIT:          0  MISS:          0
ITLB PREFETCH  REQUESTED:          0  ISSUED:          0  USEFUL:          0  USELESS:          0
ITLB TOTAL MSHR MERGED:     172424
ITLB LOAD MSHR MERGED:     172424
ITLB RFO MSHR MERGED:          0
ITLB PREFETCH MSHR MERGED:          0
ITLB WRITEBACK MSHR MERGED:          0
ITLB TOTAL ACCESSES:  100676868 HITS:  100299998 MISSES:     376870
ITLB LOAD ACCESSES:  100676868 HITS:  100299998 MISSES:     376870
ITLB RFO ACCESSES:          0 HITS:          0 MISSES:          0
ITLB PREFETCH ACCESSES:          0 HITS:          0 MISSES:          0
ITLB WRITEBACK ACCESSES:          0 HITS:          0 MISSES:          0
ITLB RQ ACCESS:  500000057
ITLB RQ TO_CACHE:  100676868
ITLB RQ MERGED:  399323189
ITLB RQ FORWARD:          0
ITLB WQ ACCESS:          0
ITLB WQ TO_CACHE:          0
ITLB WQ MERGED:          0
ITLB WQ FORWARD:          0
DTLB TOTAL     ACCESS:  165330416  HIT:  164696069  MISS:     634347
DTLB LOAD      ACCESS:  106287931  HIT:  105717934  MISS:     569997
DTLB RFO       ACCESS:   59042485  HIT:   58978135  MISS:      64350
DTLB PREFETCH  ACCESS:          0  HIT:          0  MISS:          0
DTLB WRITEBACK ACCESS:          0  HIT:          0  MISS:          0
DTLB PREFETCH  REQUESTED:          0  ISSUED:          0  USEFUL:          0  USELESS:          0
DTLB TOTAL MSHR MERGED:      99916
DTLB LOAD MSHR MERGED:      59425
DTLB RFO MSHR MERGED:      40491
DTLB PREFETCH MSHR MERGED:          0
DTLB WRITEBACK MSHR MERGED:          0
DTLB TOTAL ACCESSES:  165430332 HITS:  164696069 MISSES:     734263
DTLB LOAD ACCESSES:  106347356 HITS:  105717934 MISSES:     629422
DTLB RFO ACCESSES:   59082976 HITS:   58978135 MISSES:     104841
DTLB PREFETCH ACCESSES:          0 HITS:          0 MISSES:          0
DTLB WRITEBACK ACCESSES:          0 HITS:          0 MISSES:          0
DTLB RQ ACCESS:  200305577
DTLB RQ TO_CACHE:  165430332
DTLB RQ MERGED:   34875245
DTLB RQ FORWARD:          0
DTLB WQ ACCESS:          0
DTLB WQ TO_CACHE:          0
DTLB WQ MERGED:          0
DTLB WQ FORWARD:          0
L1D TOTAL     ACCESS:  281776450  HIT:  273867190  MISS:    7909260
L1D LOAD      ACCESS:  110408872  HIT:  107130520  MISS:    3278352
L1D RFO       ACCESS:   67084749  HIT:   66192739  MISS:     892010
L1D PREFETCH  ACCESS:  104282829  HIT:  100543931  MISS:    3738898
L1D WRITEBACK ACCESS:          0  HIT:          0  MISS:          0
L1D PREFETCH  REQUESTED:  110811702  ISSUED:  109112437  USEFUL:    1659787  USELESS:    2079075
L1D TOTAL MSHR MERGED:    2916534
L1D LOAD MSHR MERGED:     500573
L1D RFO MSHR MERGED:    1902265
L1D PREFETCH MSHR MERGED:     513696
L1D WRITEBACK MSHR MERGED:          0
L1D TOTAL ACCESSES:  284720773 HITS:  273894979 MISSES:   10825794
L1D LOAD ACCESSES:  110813465 HITS:  107132283 MISSES:    3681182
L1D RFO ACCESSES:   68973782 HITS:   66192739 MISSES:    2781043
L1D PREFETCH ACCESSES:  104933526 HITS:  100569957 MISSES:    4363569
L1D WRITEBACK ACCESSES:          0 HITS:          0 MISSES:          0
L1D RQ ACCESS:  130752974
L1D RQ TO_CACHE:  110811705
L1D RQ MERGED:   19939506
L1D RQ FORWARD:          0
L1D WQ ACCESS:   69552603
L1D WQ TO_CACHE:   68973783
L1D WQ MERGED:     578820
L1D WQ FORWARD:      27789
L1I TOTAL     ACCESS:  126552551  HIT:  122313997  MISS:    4238554
L1I LOAD      ACCESS:  126552551  HIT:  122313997  MISS:    4238554
L1I RFO       ACCESS:          0  HIT:          0  MISS:          0
L1I PREFETCH  ACCESS:          0  HIT:          0  MISS:          0
L1I WRITEBACK ACCESS:          0  HIT:          0  MISS:          0
L1I PREFETCH  REQUESTED:          0  ISSUED:          0  USEFUL:          0  USELESS:          0
L1I TOTAL MSHR MERGED:    1834415
L1I LOAD MSHR MERGED:    1834415
L1I RFO MSHR MERGED:          0
L1I PREFETCH MSHR MERGED:          0
L1I WRITEBACK MSHR MERGED:          0
L1I TOTAL ACCESSES:  128386969 HITS:  122313997 MISSES:    6072972
L1I LOAD ACCESSES:  128386969 HITS:  122313997 MISSES:    6072972
L1I RFO ACCESSES:          0 HITS:          0 MISSES:          0
L1I PREFETCH ACCESSES:          0 HITS:          0 MISSES:          0
L1I WRITEBACK ACCESSES:          0 HITS:          0 MISSES:          0
L1I RQ ACCESS:  500000057
L1I RQ TO_CACHE:  128386969
L1I RQ MERGED:  371613088
L1I RQ FORWARD:          0
L1I WQ ACCESS:          0
L1I WQ TO_CACHE:          0
L1I WQ MERGED:          0
L1I WQ FORWARD:          0
L2C TOTAL     ACCESS:   14903066  HIT:   11156562  MISS:    3746504
L2C LOAD      ACCESS:    7418956  HIT:    5098324  MISS:    2320632
L2C RFO       ACCESS:     878679  HIT:     409890  MISS:     468789
L2C PREFETCH  ACCESS:    4566204  HIT:    3626382  MISS:     939822
L2C WRITEBACK ACCESS:    2039227  HIT:    2021966  MISS:      17261
L2C PREFETCH  REQUESTED:     842729  ISSUED:     842729  USEFUL:     202817  USELESS:     736711
L2C TOTAL MSHR MERGED:       9010
L2C LOAD MSHR MERGED:       1336
L2C RFO MSHR MERGED:          0
L2C PREFETCH MSHR MERGED:       7674
L2C WRITEBACK MSHR MERGED:          0
L2C TOTAL ACCESSES:   14913053 HITS:   11157014 MISSES:    3756039
L2C LOAD ACCESSES:    7419163 HITS:    5098531 MISSES:    2320632
L2C RFO ACCESSES:     878778 HITS:     409989 MISSES:     468789
L2C PREFETCH ACCESSES:    4575885 HITS:    3626528 MISSES:     949357
L2C WRITEBACK ACCESSES:    2039227 HITS:    2021966 MISSES:      17261
L2C RQ ACCESS:    8297944
L2C RQ TO_CACHE:    8297638
L2C RQ MERGED:          0
L2C RQ FORWARD:          0
L2C WQ ACCESS:    2039227
L2C WQ TO_CACHE:    2039227
L2C WQ MERGED:          0
L2C WQ FORWARD:        452
LLC TOTAL     ACCESS:    4609903  HIT:    3870828  MISS:     739075
LLC LOAD      ACCESS:    2319283  HIT:    2077671  MISS:     241612
LLC RFO       ACCESS:     468779  HIT:     343863  MISS:     124916
LLC PREFETCH  ACCESS:     941544  HIT:     634593  MISS:     306951
LLC WRITEBACK ACCESS:     880297  HIT:     814701  MISS:      65596
LLC PREFETCH  REQUESTED:          0  ISSUED:          0  USEFUL:      17390  USELESS:     290057
LLC TOTAL MSHR MERGED:        121
LLC LOAD MSHR MERGED:         38
LLC RFO MSHR MERGED:          0
LLC PREFETCH MSHR MERGED:         83
LLC WRITEBACK MSHR MERGED:          0
LLC TOTAL ACCESSES:    4610058 HITS:    3870862 MISSES:     739196
LLC LOAD ACCESSES:    2319296 HITS:    2077684 MISSES:     241612
LLC RFO ACCESSES:     468789 HITS:     343873 MISSES:     124916
LLC PREFETCH ACCESSES:     941676 HITS:     634604 MISSES:     307072
LLC WRITEBACK ACCESSES:     880297 HITS:     814701 MISSES:      65596
LLC 0 RQ ACCESS:    2788085
LLC 0 RQ TO_CACHE:    2788062
LLC 0 RQ MERGED:          0
LLC 0 RQ FORWARD:          0
LLC WQ ACCESS:     880297
LLC WQ TO_CACHE:     880297
LLC WQ MERGED:          0
LLC WQ FORWARD:         34
Major fault: 0 Minor fault: 12862
CPU 0 L1D next line prefetcher final stats
CPU 0 L2C PC-based stride prefetcher final stats
All Misses: 864268
All Hits: 4562641
SD Algo Stats - Switches: 0 SRR-Repls: 280658 BRR-Repls: 0

DRAM Statistics
 CHANNEL 0
 RQ ROW_BUFFER_HIT:     140902  ROW_BUFFER_MISS:     529894
 DBUS_CONGESTED:     482599
 WQ ROW_BUFFER_HIT:      33100  ROW_BUFFER_MISS:     272450  FULL:          0

 AVG_CONGESTED_CYCLE: 13
LOADS RETIRED: 136549171
INSTR RETIRED: 500000000
