
*** ChampSim Multicore Out-of-Order Simulator ***

Warmup Instructions: 100000000
Simulation Instructions: 500000000
Number of CPUs: 1
LLC sets: 2048
LLC ways: 16
Clean RRIP Policies: 2203122222031222 Dirty RRIP Policies: 1203020212030202 PSEL Width: 10 Track Set: 4294967295 PSEL Mask: 1 Demote Mask: 2102042121020421DS Algo: 0Window size: 0
Off-chip DRAM Size: 4096 MB Channels: 1 Width: 64-bit Data Rate: 1600 MT/s

CPU 0 runs /mnt/beegfs/iconst01/spec2017/Parest.trace.gz
NOT SORTED
TRACE STRING: /mnt/beegfs/iconst01/spec2017/Parest.trace.gz
SORTED
TRACE STRING: /mnt/beegfs/iconst01/spec2017/Parest.trace.gz
INITIAL
TRACE STRING: /mnt/beegfs/iconst01/spec2017/Parest.trace.gz

champsim_seed used: 623

CPU 0 L1D next line prefetcher
CPU 0 L2C IP-based stride prefetcher
Initialize DRRIP state
Assign rand_sets[0]: 454  LLC: 2048
rand_sets[0]: 454
Assign rand_sets[1]: 1662  LLC: 2048
rand_sets[1]: 1662
Assign rand_sets[2]: 1921  LLC: 2048
rand_sets[2]: 1921
Assign rand_sets[3]: 1131  LLC: 2048
rand_sets[3]: 1131
Assign rand_sets[4]: 331  LLC: 2048
rand_sets[4]: 331
Assign rand_sets[5]: 1531  LLC: 2048
rand_sets[5]: 1531
Assign rand_sets[6]: 482  LLC: 2048
rand_sets[6]: 482
Assign rand_sets[7]: 1275  LLC: 2048
rand_sets[7]: 1275
Assign rand_sets[8]: 1876  LLC: 2048
rand_sets[8]: 1876
Assign rand_sets[9]: 2038  LLC: 2048
rand_sets[9]: 2038
Assign rand_sets[10]: 701  LLC: 2048
rand_sets[10]: 701
Assign rand_sets[11]: 479  LLC: 2048
rand_sets[11]: 479
Assign rand_sets[12]: 892  LLC: 2048
rand_sets[12]: 892
Assign rand_sets[13]: 1820  LLC: 2048
rand_sets[13]: 1820
Assign rand_sets[14]: 1505  LLC: 2048
rand_sets[14]: 1505
Assign rand_sets[15]: 1159  LLC: 2048
rand_sets[15]: 1159
Assign rand_sets[16]: 513  LLC: 2048
rand_sets[16]: 513
Assign rand_sets[17]: 703  LLC: 2048
rand_sets[17]: 703
Assign rand_sets[18]: 561  LLC: 2048
rand_sets[18]: 561
Assign rand_sets[19]: 990  LLC: 2048
rand_sets[19]: 990
Assign rand_sets[20]: 342  LLC: 2048
rand_sets[20]: 342
Assign rand_sets[21]: 882  LLC: 2048
rand_sets[21]: 882
Assign rand_sets[22]: 15  LLC: 2048
rand_sets[22]: 15
Assign rand_sets[23]: 71  LLC: 2048
rand_sets[23]: 71
Assign rand_sets[24]: 1127  LLC: 2048
rand_sets[24]: 1127
Assign rand_sets[25]: 1382  LLC: 2048
rand_sets[25]: 1382
Assign rand_sets[26]: 647  LLC: 2048
rand_sets[26]: 647
Assign rand_sets[27]: 857  LLC: 2048
rand_sets[27]: 857
Assign rand_sets[28]: 1450  LLC: 2048
rand_sets[28]: 1450
Assign rand_sets[29]: 1160  LLC: 2048
rand_sets[29]: 1160
Assign rand_sets[30]: 1852  LLC: 2048
rand_sets[30]: 1852
Assign rand_sets[31]: 1881  LLC: 2048
rand_sets[31]: 1881
Assign rand_sets[32]: 1770  LLC: 2048
rand_sets[32]: 1770
Assign rand_sets[33]: 1622  LLC: 2048
rand_sets[33]: 1622
Assign rand_sets[34]: 275  LLC: 2048
rand_sets[34]: 275
Assign rand_sets[35]: 635  LLC: 2048
rand_sets[35]: 635
Assign rand_sets[36]: 466  LLC: 2048
rand_sets[36]: 466
Assign rand_sets[37]: 1413  LLC: 2048
rand_sets[37]: 1413
Assign rand_sets[38]: 417  LLC: 2048
rand_sets[38]: 417
Assign rand_sets[39]: 472  LLC: 2048
rand_sets[39]: 472
Assign rand_sets[40]: 1340  LLC: 2048
rand_sets[40]: 1340
Assign rand_sets[41]: 852  LLC: 2048
rand_sets[41]: 852
Assign rand_sets[42]: 1365  LLC: 2048
rand_sets[42]: 1365
Assign rand_sets[43]: 47  LLC: 2048
rand_sets[43]: 47
Assign rand_sets[44]: 823  LLC: 2048
rand_sets[44]: 823
Assign rand_sets[45]: 686  LLC: 2048
rand_sets[45]: 686
Assign rand_sets[46]: 1637  LLC: 2048
rand_sets[46]: 1637
Assign rand_sets[47]: 1115  LLC: 2048
rand_sets[47]: 1115
Assign rand_sets[48]: 986  LLC: 2048
rand_sets[48]: 986
Assign rand_sets[49]: 258  LLC: 2048
rand_sets[49]: 258
Assign rand_sets[50]: 633  LLC: 2048
rand_sets[50]: 633
Assign rand_sets[51]: 920  LLC: 2048
rand_sets[51]: 920
Assign rand_sets[52]: 204  LLC: 2048
rand_sets[52]: 204
Assign rand_sets[53]: 227  LLC: 2048
rand_sets[53]: 227
Assign rand_sets[54]: 1818  LLC: 2048
rand_sets[54]: 1818
Assign rand_sets[55]: 886  LLC: 2048
rand_sets[55]: 886
Assign rand_sets[56]: 1422  LLC: 2048
rand_sets[56]: 1422
Assign rand_sets[57]: 607  LLC: 2048
rand_sets[57]: 607
Assign rand_sets[58]: 217  LLC: 2048
rand_sets[58]: 217
Assign rand_sets[59]: 1945  LLC: 2048
rand_sets[59]: 1945
Assign rand_sets[60]: 143  LLC: 2048
rand_sets[60]: 143
Assign rand_sets[61]: 1311  LLC: 2048
rand_sets[61]: 1311
Assign rand_sets[62]: 319  LLC: 2048
rand_sets[62]: 319
Assign rand_sets[63]: 1846  LLC: 2048
rand_sets[63]: 1846
 CLEAN-RRIP-POLICY-1: 2-2-0-3-1-2-2-2- CLEAN-RRIP-POLICY-2: 2-2-0-3-1-2-2-2-
 DIRTY-RRIP-POLICY-1: 1-2-0-3-0-2-0-2- DIRTY-RRIP-POLICY-2: 1-2-0-3-0-2-0-2-
 PSEL width: 10
Heartbeat CPU 0 instructions: 10000001 cycles: 4387249 heartbeat IPC: 2.27933 cumulative IPC: 2.27933 (Simulation time: 0 hr 0 min 14 sec) 
Heartbeat CPU 0 instructions: 20000000 cycles: 8781513 heartbeat IPC: 2.27569 cumulative IPC: 2.27751 (Simulation time: 0 hr 0 min 27 sec) 
Heartbeat CPU 0 instructions: 30000003 cycles: 13213629 heartbeat IPC: 2.25626 cumulative IPC: 2.27038 (Simulation time: 0 hr 0 min 41 sec) 
Heartbeat CPU 0 instructions: 40000000 cycles: 17644389 heartbeat IPC: 2.25695 cumulative IPC: 2.26701 (Simulation time: 0 hr 0 min 55 sec) 
Heartbeat CPU 0 instructions: 50000000 cycles: 22052951 heartbeat IPC: 2.26831 cumulative IPC: 2.26727 (Simulation time: 0 hr 1 min 8 sec) 
Heartbeat CPU 0 instructions: 60000000 cycles: 26458937 heartbeat IPC: 2.26964 cumulative IPC: 2.26766 (Simulation time: 0 hr 1 min 22 sec) 
Heartbeat CPU 0 instructions: 70000000 cycles: 30860080 heartbeat IPC: 2.27214 cumulative IPC: 2.2683 (Simulation time: 0 hr 1 min 35 sec) 
Heartbeat CPU 0 instructions: 80000000 cycles: 35255905 heartbeat IPC: 2.27489 cumulative IPC: 2.26912 (Simulation time: 0 hr 1 min 49 sec) 
Heartbeat CPU 0 instructions: 90000000 cycles: 39650418 heartbeat IPC: 2.27556 cumulative IPC: 2.26984 (Simulation time: 0 hr 2 min 3 sec) 
Heartbeat CPU 0 instructions: 100000000 cycles: 44048058 heartbeat IPC: 2.27395 cumulative IPC: 2.27025 (Simulation time: 0 hr 2 min 16 sec) 

Warmup complete CPU 0 instructions: 100000002 cycles: 44048068 (Simulation time: 0 hr 2 min 16 sec) 

Heartbeat CPU 0 instructions: 110000000 cycles: 54152157 heartbeat IPC: 0.989697 cumulative IPC: 0.989698 (Simulation time: 0 hr 2 min 34 sec) 
Heartbeat CPU 0 instructions: 120000000 cycles: 63501703 heartbeat IPC: 1.06957 cumulative IPC: 1.02809 (Simulation time: 0 hr 2 min 52 sec) 
Heartbeat CPU 0 instructions: 130000000 cycles: 72912051 heartbeat IPC: 1.06266 cumulative IPC: 1.03936 (Simulation time: 0 hr 3 min 9 sec) 
Heartbeat CPU 0 instructions: 140000000 cycles: 82400766 heartbeat IPC: 1.05388 cumulative IPC: 1.04295 (Simulation time: 0 hr 3 min 27 sec) 
Heartbeat CPU 0 instructions: 150000000 cycles: 93774296 heartbeat IPC: 0.879234 cumulative IPC: 1.00551 (Simulation time: 0 hr 3 min 45 sec) 
Heartbeat CPU 0 instructions: 160000000 cycles: 104473667 heartbeat IPC: 0.934634 cumulative IPC: 0.992957 (Simulation time: 0 hr 4 min 3 sec) 
Heartbeat CPU 0 instructions: 170000000 cycles: 114919131 heartbeat IPC: 0.957353 cumulative IPC: 0.987709 (Simulation time: 0 hr 4 min 20 sec) 
Heartbeat CPU 0 instructions: 180000000 cycles: 125198767 heartbeat IPC: 0.972797 cumulative IPC: 0.98582 (Simulation time: 0 hr 4 min 38 sec) 
Heartbeat CPU 0 instructions: 190000002 cycles: 135488786 heartbeat IPC: 0.971816 cumulative IPC: 0.984244 (Simulation time: 0 hr 4 min 56 sec) 
Heartbeat CPU 0 instructions: 200000000 cycles: 145140538 heartbeat IPC: 1.03608 cumulative IPC: 0.989193 (Simulation time: 0 hr 5 min 13 sec) 
Heartbeat CPU 0 instructions: 210000000 cycles: 155160422 heartbeat IPC: 0.998016 cumulative IPC: 0.989989 (Simulation time: 0 hr 5 min 31 sec) 
Heartbeat CPU 0 instructions: 220000000 cycles: 164314640 heartbeat IPC: 1.09239 cumulative IPC: 0.997783 (Simulation time: 0 hr 5 min 48 sec) 
Heartbeat CPU 0 instructions: 230000001 cycles: 176540836 heartbeat IPC: 0.817916 cumulative IPC: 0.981186 (Simulation time: 0 hr 6 min 7 sec) 
Heartbeat CPU 0 instructions: 240000000 cycles: 188556763 heartbeat IPC: 0.832229 cumulative IPC: 0.9688 (Simulation time: 0 hr 6 min 26 sec) 
Heartbeat CPU 0 instructions: 250000002 cycles: 199945061 heartbeat IPC: 0.878094 cumulative IPC: 0.962174 (Simulation time: 0 hr 6 min 44 sec) 
Heartbeat CPU 0 instructions: 260000000 cycles: 211025349 heartbeat IPC: 0.902503 cumulative IPC: 0.958214 (Simulation time: 0 hr 7 min 2 sec) 
Heartbeat CPU 0 instructions: 270000001 cycles: 221865297 heartbeat IPC: 0.922514 cumulative IPC: 0.956038 (Simulation time: 0 hr 7 min 20 sec) 
Heartbeat CPU 0 instructions: 280000000 cycles: 232940062 heartbeat IPC: 0.902954 cumulative IPC: 0.952926 (Simulation time: 0 hr 7 min 38 sec) 
Heartbeat CPU 0 instructions: 290000002 cycles: 242933073 heartbeat IPC: 1.0007 cumulative IPC: 0.955326 (Simulation time: 0 hr 7 min 56 sec) 
Heartbeat CPU 0 instructions: 300000000 cycles: 253532023 heartbeat IPC: 0.943489 cumulative IPC: 0.954727 (Simulation time: 0 hr 8 min 14 sec) 
Heartbeat CPU 0 instructions: 310000000 cycles: 263268596 heartbeat IPC: 1.02706 cumulative IPC: 0.95794 (Simulation time: 0 hr 8 min 32 sec) 
Heartbeat CPU 0 instructions: 320000000 cycles: 273066447 heartbeat IPC: 1.02063 cumulative IPC: 0.960622 (Simulation time: 0 hr 8 min 49 sec) 
Heartbeat CPU 0 instructions: 330000003 cycles: 282993957 heartbeat IPC: 1.0073 cumulative IPC: 0.962561 (Simulation time: 0 hr 9 min 7 sec) 
Heartbeat CPU 0 instructions: 340000000 cycles: 293644317 heartbeat IPC: 0.938935 cumulative IPC: 0.961553 (Simulation time: 0 hr 9 min 25 sec) 
Heartbeat CPU 0 instructions: 350000000 cycles: 304866856 heartbeat IPC: 0.891064 cumulative IPC: 0.95852 (Simulation time: 0 hr 9 min 43 sec) 
Heartbeat CPU 0 instructions: 360000000 cycles: 315793691 heartbeat IPC: 0.915178 cumulative IPC: 0.956777 (Simulation time: 0 hr 10 min 1 sec) 
Heartbeat CPU 0 instructions: 370000000 cycles: 326308492 heartbeat IPC: 0.95104 cumulative IPC: 0.956563 (Simulation time: 0 hr 10 min 19 sec) 
Heartbeat CPU 0 instructions: 380000000 cycles: 336470388 heartbeat IPC: 0.984068 cumulative IPC: 0.957519 (Simulation time: 0 hr 10 min 36 sec) 
Heartbeat CPU 0 instructions: 390000002 cycles: 346380776 heartbeat IPC: 1.00904 cumulative IPC: 0.959208 (Simulation time: 0 hr 10 min 54 sec) 
Heartbeat CPU 0 instructions: 400000000 cycles: 356705705 heartbeat IPC: 0.968529 cumulative IPC: 0.959516 (Simulation time: 0 hr 11 min 12 sec) 
Heartbeat CPU 0 instructions: 410000000 cycles: 366162053 heartbeat IPC: 1.05749 cumulative IPC: 0.962392 (Simulation time: 0 hr 11 min 29 sec) 
Heartbeat CPU 0 instructions: 420000000 cycles: 377257184 heartbeat IPC: 0.901296 cumulative IPC: 0.960358 (Simulation time: 0 hr 11 min 47 sec) 
Heartbeat CPU 0 instructions: 430000000 cycles: 389728876 heartbeat IPC: 0.801816 cumulative IPC: 0.954638 (Simulation time: 0 hr 12 min 6 sec) 
Heartbeat CPU 0 instructions: 440000000 cycles: 401168013 heartbeat IPC: 0.874192 cumulative IPC: 0.952061 (Simulation time: 0 hr 12 min 25 sec) 
Heartbeat CPU 0 instructions: 450000000 cycles: 412447131 heartbeat IPC: 0.886594 cumulative IPC: 0.950057 (Simulation time: 0 hr 12 min 43 sec) 
Heartbeat CPU 0 instructions: 460000000 cycles: 423603466 heartbeat IPC: 0.896352 cumulative IPC: 0.948478 (Simulation time: 0 hr 13 min 1 sec) 
Heartbeat CPU 0 instructions: 470000000 cycles: 434616414 heartbeat IPC: 0.908022 cumulative IPC: 0.947337 (Simulation time: 0 hr 13 min 19 sec) 
Heartbeat CPU 0 instructions: 480000000 cycles: 444797134 heartbeat IPC: 0.982249 cumulative IPC: 0.948224 (Simulation time: 0 hr 13 min 37 sec) 
Heartbeat CPU 0 instructions: 490000002 cycles: 455452899 heartbeat IPC: 0.938459 cumulative IPC: 0.947971 (Simulation time: 0 hr 13 min 55 sec) 
Heartbeat CPU 0 instructions: 500000000 cycles: 465576106 heartbeat IPC: 0.987829 cumulative IPC: 0.948929 (Simulation time: 0 hr 14 min 13 sec) 
Heartbeat CPU 0 instructions: 510000000 cycles: 475338486 heartbeat IPC: 1.02434 cumulative IPC: 0.950636 (Simulation time: 0 hr 14 min 31 sec) 
Heartbeat CPU 0 instructions: 520000000 cycles: 485340685 heartbeat IPC: 0.99978 cumulative IPC: 0.951749 (Simulation time: 0 hr 14 min 48 sec) 
Heartbeat CPU 0 instructions: 530000003 cycles: 496216816 heartbeat IPC: 0.919445 cumulative IPC: 0.950972 (Simulation time: 0 hr 15 min 7 sec) 
Heartbeat CPU 0 instructions: 540000000 cycles: 507489787 heartbeat IPC: 0.887077 cumulative IPC: 0.949418 (Simulation time: 0 hr 15 min 25 sec) 
Heartbeat CPU 0 instructions: 550000003 cycles: 518576000 heartbeat IPC: 0.902022 cumulative IPC: 0.948311 (Simulation time: 0 hr 15 min 43 sec) 
Heartbeat CPU 0 instructions: 560000000 cycles: 529252407 heartbeat IPC: 0.936644 cumulative IPC: 0.948054 (Simulation time: 0 hr 16 min 1 sec) 
Heartbeat CPU 0 instructions: 570000002 cycles: 539588396 heartbeat IPC: 0.967493 cumulative IPC: 0.94846 (Simulation time: 0 hr 16 min 18 sec) 
Heartbeat CPU 0 instructions: 580000000 cycles: 549733769 heartbeat IPC: 0.985671 cumulative IPC: 0.949206 (Simulation time: 0 hr 16 min 36 sec) 
Heartbeat CPU 0 instructions: 590000002 cycles: 560066523 heartbeat IPC: 0.967796 cumulative IPC: 0.949578 (Simulation time: 0 hr 16 min 54 sec) 
Heartbeat CPU 0 instructions: 600000000 cycles: 569887957 heartbeat IPC: 1.01818 cumulative IPC: 0.95086 (Simulation time: 0 hr 17 min 11 sec) 
Finished CPU 0 instructions: 500000000 cycles: 525839903 cumulative IPC: 0.95086 (Simulation time: 0 hr 17 min 11 sec) 

CPU 0 Branch Prediction Accuracy: 97.8526% MPKI: 2.66709
Number of Branches: 62099103 Number of Mispredictions: 1333545
Number of LOAD Instructions: 210576465
Number of LOAD Instructions (ROI): 210576465
Number of STORE Instructions: 16915507
Number of STORE Instructions (ROI): 16915507
Total Destination Memory Operands: 16918869
Total Destination Memory Operands (ROI): 16918869
Total Source Memory Operands: 210576465
Total Source Memory Operands (ROI): 210576465
Number of DEPENDED LOADS: 297510
Number of DEPENDED LOADS (ROI): 297510
Number of SQ_ADDED: 16918826
Number of SQ_ADDED (ROI): 16918826
Number of LQ_ADDED: 210606164
Number of LQ_ADDED (ROI): 210606164
Number of Instructions read from trace: 600000257

ChampSim completed all CPUs

Region of Interest Statistics

CPU 0 cumulative IPC: 0.95086 instructions: 500000000 cycles: 525839903
ITLB TOTAL     ACCESS:   76578208  HIT:   76578170  MISS:         38
ITLB LOAD      ACCESS:   76578208  HIT:   76578170  MISS:         38
ITLB RFO       ACCESS:          0  HIT:          0  MISS:          0
ITLB PREFETCH  ACCESS:          0  HIT:          0  MISS:          0
ITLB WRITEBACK ACCESS:          0  HIT:          0  MISS:          0
ITLB PREFETCH  REQUESTED:          0  ISSUED:          0  USEFUL:          0  USELESS:          0
ITLB TOTAL MSHR MERGED:         37
ITLB LOAD MSHR MERGED:         37
ITLB RFO MSHR MERGED:          0
ITLB PREFETCH MSHR MERGED:          0
ITLB WRITEBACK MSHR MERGED:          0
ITLB TOTAL ACCESSES:   76578245 HITS:   76578170 MISSES:         75
ITLB LOAD ACCESSES:   76578245 HITS:   76578170 MISSES:         75
ITLB RFO ACCESSES:          0 HITS:          0 MISSES:          0
ITLB PREFETCH ACCESSES:          0 HITS:          0 MISSES:          0
ITLB WRITEBACK ACCESSES:          0 HITS:          0 MISSES:          0
ITLB RQ ACCESS:  500000188
ITLB RQ TO_CACHE:   76578246
ITLB RQ MERGED:  423421942
ITLB RQ FORWARD:          0
ITLB WQ ACCESS:          0
ITLB WQ TO_CACHE:          0
ITLB WQ MERGED:          0
ITLB WQ FORWARD:          0
DTLB TOTAL     ACCESS:  136704703  HIT:  136501912  MISS:     202791
DTLB LOAD      ACCESS:  128640184  HIT:  128440114  MISS:     200070
DTLB RFO       ACCESS:    8064519  HIT:    8061798  MISS:       2721
DTLB PREFETCH  ACCESS:          0  HIT:          0  MISS:          0
DTLB WRITEBACK ACCESS:          0  HIT:          0  MISS:          0
DTLB PREFETCH  REQUESTED:          0  ISSUED:          0  USEFUL:          0  USELESS:          0
DTLB TOTAL MSHR MERGED:     439849
DTLB LOAD MSHR MERGED:     435930
DTLB RFO MSHR MERGED:       3919
DTLB PREFETCH MSHR MERGED:          0
DTLB WRITEBACK MSHR MERGED:          0
DTLB TOTAL ACCESSES:  137144552 HITS:  136501912 MISSES:     642640
DTLB LOAD ACCESSES:  129076114 HITS:  128440114 MISSES:     636000
DTLB RFO ACCESSES:    8068438 HITS:    8061798 MISSES:       6640
DTLB PREFETCH ACCESSES:          0 HITS:          0 MISSES:          0
DTLB WRITEBACK ACCESSES:          0 HITS:          0 MISSES:          0
DTLB RQ ACCESS:  189467023
DTLB RQ TO_CACHE:  137144552
DTLB RQ MERGED:   52322471
DTLB RQ FORWARD:          0
DTLB WQ ACCESS:          0
DTLB WQ TO_CACHE:          0
DTLB WQ MERGED:          0
DTLB WQ FORWARD:          0
L1D TOTAL     ACCESS:  125077849  HIT:  107521013  MISS:   17556836
L1D LOAD      ACCESS:   72295714  HIT:   61878950  MISS:   10416764
L1D RFO       ACCESS:   14015640  HIT:   13862808  MISS:     152832
L1D PREFETCH  ACCESS:   38766495  HIT:   31779255  MISS:    6987240
L1D WRITEBACK ACCESS:          0  HIT:          0  MISS:          0
L1D PREFETCH  REQUESTED:   85896351  ISSUED:   84569353  USEFUL:    5727897  USELESS:    1259354
L1D TOTAL MSHR MERGED:   33050627
L1D LOAD MSHR MERGED:   18961910
L1D RFO MSHR MERGED:     263569
L1D PREFETCH MSHR MERGED:   13825148
L1D WRITEBACK MSHR MERGED:          0
L1D TOTAL ACCESSES:  158129010 HITS:  107521548 MISSES:   50607462
L1D LOAD ACCESSES:   85896369 HITS:   61878968 MISSES:   24017401
L1D RFO ACCESSES:   14279192 HITS:   13862808 MISSES:     416384
L1D PREFETCH ACCESSES:   57953449 HITS:   31779772 MISSES:   26173677
L1D WRITEBACK ACCESSES:          0 HITS:          0 MISSES:          0
L1D RQ ACCESS:  175178001
L1D RQ TO_CACHE:   85896351
L1D RQ MERGED:   89281632
L1D RQ FORWARD:          0
L1D WQ ACCESS:   14289037
L1D WQ TO_CACHE:   14279192
L1D WQ MERGED:       9845
L1D WQ FORWARD:        535
L1I TOTAL     ACCESS:   93608776  HIT:   93606980  MISS:       1796
L1I LOAD      ACCESS:   93608776  HIT:   93606980  MISS:       1796
L1I RFO       ACCESS:          0  HIT:          0  MISS:          0
L1I PREFETCH  ACCESS:          0  HIT:          0  MISS:          0
L1I WRITEBACK ACCESS:          0  HIT:          0  MISS:          0
L1I PREFETCH  REQUESTED:          0  ISSUED:          0  USEFUL:          0  USELESS:          0
L1I TOTAL MSHR MERGED:       2204
L1I LOAD MSHR MERGED:       2204
L1I RFO MSHR MERGED:          0
L1I PREFETCH MSHR MERGED:          0
L1I WRITEBACK MSHR MERGED:          0
L1I TOTAL ACCESSES:   93610980 HITS:   93606980 MISSES:       4000
L1I LOAD ACCESSES:   93610980 HITS:   93606980 MISSES:       4000
L1I RFO ACCESSES:          0 HITS:          0 MISSES:          0
L1I PREFETCH ACCESSES:          0 HITS:          0 MISSES:          0
L1I WRITEBACK ACCESSES:          0 HITS:          0 MISSES:          0
L1I RQ ACCESS:  500000187
L1I RQ TO_CACHE:   93610980
L1I RQ MERGED:  406389207
L1I RQ FORWARD:          0
L1I WQ ACCESS:          0
L1I WQ TO_CACHE:          0
L1I WQ MERGED:          0
L1I WQ FORWARD:          0
L2C TOTAL     ACCESS:   20886918  HIT:    8661387  MISS:   12225531
L2C LOAD      ACCESS:    5057260  HIT:    2135915  MISS:    2921345
L2C RFO       ACCESS:     152815  HIT:       6519  MISS:     146296
L2C PREFETCH  ACCESS:   13904081  HIT:    4746300  MISS:    9157781
L2C WRITEBACK ACCESS:    1772762  HIT:    1772653  MISS:        109
L2C PREFETCH  REQUESTED:    1785830  ISSUED:    1785830  USEFUL:    1058944  USELESS:    8100503
L2C TOTAL MSHR MERGED:      90965
L2C LOAD MSHR MERGED:      21117
L2C RFO MSHR MERGED:          0
L2C PREFETCH MSHR MERGED:      69848
L2C WRITEBACK MSHR MERGED:          0
L2C TOTAL ACCESSES:   21006628 HITS:    8661436 MISSES:   12345192
L2C LOAD ACCESSES:    5057287 HITS:    2135942 MISSES:    2921345
L2C RFO ACCESSES:     152815 HITS:       6519 MISSES:     146296
L2C PREFETCH ACCESSES:   14023764 HITS:    4746322 MISSES:    9277442
L2C WRITEBACK ACCESSES:    1772762 HITS:    1772653 MISSES:        109
L2C RQ ACCESS:    5210102
L2C RQ TO_CACHE:    5210075
L2C RQ MERGED:          0
L2C RQ FORWARD:          0
L2C WQ ACCESS:    1772762
L2C WQ TO_CACHE:    1772762
L2C WQ MERGED:          0
L2C WQ FORWARD:         49
LLC TOTAL     ACCESS:   12534171  HIT:    4389269  MISS:    8144902
LLC LOAD      ACCESS:    2900217  HIT:    1483560  MISS:    1416657
LLC RFO       ACCESS:     146296  HIT:     102213  MISS:      44083
LLC PREFETCH  ACCESS:    9201687  HIT:    2568616  MISS:    6633071
LLC WRITEBACK ACCESS:     285971  HIT:     234880  MISS:      51091
LLC PREFETCH  REQUESTED:          0  ISSUED:          0  USEFUL:      17447  USELESS:    6615456
LLC TOTAL MSHR MERGED:       1900
LLC LOAD MSHR MERGED:        405
LLC RFO MSHR MERGED:          0
LLC PREFETCH MSHR MERGED:       1495
LLC WRITEBACK MSHR MERGED:          0
LLC TOTAL ACCESSES:   12536094 HITS:    4389292 MISSES:    8146802
LLC LOAD ACCESSES:    2900228 HITS:    1483571 MISSES:    1416657
LLC RFO ACCESSES:     146296 HITS:     102213 MISSES:      44083
LLC PREFETCH ACCESSES:    9203599 HITS:    2568628 MISSES:    6634971
LLC WRITEBACK ACCESSES:     285971 HITS:     234880 MISSES:      51091
LLC 0 RQ ACCESS:    3046524
LLC 0 RQ TO_CACHE:    3046513
LLC 0 RQ MERGED:          0
LLC 0 RQ FORWARD:          0
LLC WQ ACCESS:     285971
LLC WQ TO_CACHE:     285971
LLC WQ MERGED:          0
LLC WQ FORWARD:         23
Major fault: 0 Minor fault: 6524
CPU 0 L1D next line prefetcher final stats
CPU 0 L2C PC-based stride prefetcher final stats
All Misses: 9948790
All Hits: 5110396
SD Algo Stats - Switches: 94 SRR-Repls: 1400090 BRR-Repls: 17711

DRAM Statistics
 CHANNEL 0
 RQ ROW_BUFFER_HIT:    7226873  ROW_BUFFER_MISS:     855726
 DBUS_CONGESTED:    3649400
 WQ ROW_BUFFER_HIT:      15501  ROW_BUFFER_MISS:      57048  FULL:          0

 AVG_CONGESTED_CYCLE: 12
LOADS RETIRED: 175418235
INSTR RETIRED: 500000000
