
*** ChampSim Multicore Out-of-Order Simulator ***

Warmup Instructions: 100000000
Simulation Instructions: 500000000
Number of CPUs: 1
LLC sets: 2048
LLC ways: 16
Clean RRIP Policies: 1312101213121012 Dirty RRIP Policies: 1302200213022002 PSEL Width: 10 Track Set: 4294967295 PSEL Mask: 1 Demote Mask: 3044404430444044DS Algo: 0Window size: 0
Off-chip DRAM Size: 4096 MB Channels: 1 Width: 64-bit Data Rate: 1600 MT/s

CPU 0 runs /mnt/beegfs/iconst01/spec2017/Cam4.trace.gz
NOT SORTED
TRACE STRING: /mnt/beegfs/iconst01/spec2017/Cam4.trace.gz
SORTED
TRACE STRING: /mnt/beegfs/iconst01/spec2017/Cam4.trace.gz
INITIAL
TRACE STRING: /mnt/beegfs/iconst01/spec2017/Cam4.trace.gz

champsim_seed used: 325

CPU 0 L1D next line prefetcher
CPU 0 L2C IP-based stride prefetcher
Initialize DRRIP state
Assign rand_sets[0]: 454  LLC: 2048
rand_sets[0]: 454
Assign rand_sets[1]: 1662  LLC: 2048
rand_sets[1]: 1662
Assign rand_sets[2]: 1921  LLC: 2048
rand_sets[2]: 1921
Assign rand_sets[3]: 1131  LLC: 2048
rand_sets[3]: 1131
Assign rand_sets[4]: 331  LLC: 2048
rand_sets[4]: 331
Assign rand_sets[5]: 1531  LLC: 2048
rand_sets[5]: 1531
Assign rand_sets[6]: 482  LLC: 2048
rand_sets[6]: 482
Assign rand_sets[7]: 1275  LLC: 2048
rand_sets[7]: 1275
Assign rand_sets[8]: 1876  LLC: 2048
rand_sets[8]: 1876
Assign rand_sets[9]: 2038  LLC: 2048
rand_sets[9]: 2038
Assign rand_sets[10]: 701  LLC: 2048
rand_sets[10]: 701
Assign rand_sets[11]: 479  LLC: 2048
rand_sets[11]: 479
Assign rand_sets[12]: 892  LLC: 2048
rand_sets[12]: 892
Assign rand_sets[13]: 1820  LLC: 2048
rand_sets[13]: 1820
Assign rand_sets[14]: 1505  LLC: 2048
rand_sets[14]: 1505
Assign rand_sets[15]: 1159  LLC: 2048
rand_sets[15]: 1159
Assign rand_sets[16]: 513  LLC: 2048
rand_sets[16]: 513
Assign rand_sets[17]: 703  LLC: 2048
rand_sets[17]: 703
Assign rand_sets[18]: 561  LLC: 2048
rand_sets[18]: 561
Assign rand_sets[19]: 990  LLC: 2048
rand_sets[19]: 990
Assign rand_sets[20]: 342  LLC: 2048
rand_sets[20]: 342
Assign rand_sets[21]: 882  LLC: 2048
rand_sets[21]: 882
Assign rand_sets[22]: 15  LLC: 2048
rand_sets[22]: 15
Assign rand_sets[23]: 71  LLC: 2048
rand_sets[23]: 71
Assign rand_sets[24]: 1127  LLC: 2048
rand_sets[24]: 1127
Assign rand_sets[25]: 1382  LLC: 2048
rand_sets[25]: 1382
Assign rand_sets[26]: 647  LLC: 2048
rand_sets[26]: 647
Assign rand_sets[27]: 857  LLC: 2048
rand_sets[27]: 857
Assign rand_sets[28]: 1450  LLC: 2048
rand_sets[28]: 1450
Assign rand_sets[29]: 1160  LLC: 2048
rand_sets[29]: 1160
Assign rand_sets[30]: 1852  LLC: 2048
rand_sets[30]: 1852
Assign rand_sets[31]: 1881  LLC: 2048
rand_sets[31]: 1881
Assign rand_sets[32]: 1770  LLC: 2048
rand_sets[32]: 1770
Assign rand_sets[33]: 1622  LLC: 2048
rand_sets[33]: 1622
Assign rand_sets[34]: 275  LLC: 2048
rand_sets[34]: 275
Assign rand_sets[35]: 635  LLC: 2048
rand_sets[35]: 635
Assign rand_sets[36]: 466  LLC: 2048
rand_sets[36]: 466
Assign rand_sets[37]: 1413  LLC: 2048
rand_sets[37]: 1413
Assign rand_sets[38]: 417  LLC: 2048
rand_sets[38]: 417
Assign rand_sets[39]: 472  LLC: 2048
rand_sets[39]: 472
Assign rand_sets[40]: 1340  LLC: 2048
rand_sets[40]: 1340
Assign rand_sets[41]: 852  LLC: 2048
rand_sets[41]: 852
Assign rand_sets[42]: 1365  LLC: 2048
rand_sets[42]: 1365
Assign rand_sets[43]: 47  LLC: 2048
rand_sets[43]: 47
Assign rand_sets[44]: 823  LLC: 2048
rand_sets[44]: 823
Assign rand_sets[45]: 686  LLC: 2048
rand_sets[45]: 686
Assign rand_sets[46]: 1637  LLC: 2048
rand_sets[46]: 1637
Assign rand_sets[47]: 1115  LLC: 2048
rand_sets[47]: 1115
Assign rand_sets[48]: 986  LLC: 2048
rand_sets[48]: 986
Assign rand_sets[49]: 258  LLC: 2048
rand_sets[49]: 258
Assign rand_sets[50]: 633  LLC: 2048
rand_sets[50]: 633
Assign rand_sets[51]: 920  LLC: 2048
rand_sets[51]: 920
Assign rand_sets[52]: 204  LLC: 2048
rand_sets[52]: 204
Assign rand_sets[53]: 227  LLC: 2048
rand_sets[53]: 227
Assign rand_sets[54]: 1818  LLC: 2048
rand_sets[54]: 1818
Assign rand_sets[55]: 886  LLC: 2048
rand_sets[55]: 886
Assign rand_sets[56]: 1422  LLC: 2048
rand_sets[56]: 1422
Assign rand_sets[57]: 607  LLC: 2048
rand_sets[57]: 607
Assign rand_sets[58]: 217  LLC: 2048
rand_sets[58]: 217
Assign rand_sets[59]: 1945  LLC: 2048
rand_sets[59]: 1945
Assign rand_sets[60]: 143  LLC: 2048
rand_sets[60]: 143
Assign rand_sets[61]: 1311  LLC: 2048
rand_sets[61]: 1311
Assign rand_sets[62]: 319  LLC: 2048
rand_sets[62]: 319
Assign rand_sets[63]: 1846  LLC: 2048
rand_sets[63]: 1846
 CLEAN-RRIP-POLICY-1: 1-3-1-2-1-0-1-2- CLEAN-RRIP-POLICY-2: 1-3-1-2-1-0-1-2-
 DIRTY-RRIP-POLICY-1: 1-3-0-2-2-0-0-2- DIRTY-RRIP-POLICY-2: 1-3-0-2-2-0-0-2-
 PSEL width: 10
Heartbeat CPU 0 instructions: 10000000 cycles: 4859184 heartbeat IPC: 2.05796 cumulative IPC: 2.05796 (Simulation time: 0 hr 0 min 16 sec) 
Heartbeat CPU 0 instructions: 20000000 cycles: 9790761 heartbeat IPC: 2.02775 cumulative IPC: 2.04274 (Simulation time: 0 hr 0 min 32 sec) 
Heartbeat CPU 0 instructions: 30000001 cycles: 14562965 heartbeat IPC: 2.09547 cumulative IPC: 2.06002 (Simulation time: 0 hr 0 min 46 sec) 
Heartbeat CPU 0 instructions: 40000000 cycles: 19399976 heartbeat IPC: 2.06739 cumulative IPC: 2.06186 (Simulation time: 0 hr 1 min 3 sec) 
Heartbeat CPU 0 instructions: 50000000 cycles: 24256498 heartbeat IPC: 2.05909 cumulative IPC: 2.0613 (Simulation time: 0 hr 1 min 19 sec) 
Heartbeat CPU 0 instructions: 60000000 cycles: 29182028 heartbeat IPC: 2.03024 cumulative IPC: 2.05606 (Simulation time: 0 hr 1 min 35 sec) 
Heartbeat CPU 0 instructions: 70000001 cycles: 33957049 heartbeat IPC: 2.09423 cumulative IPC: 2.06143 (Simulation time: 0 hr 1 min 50 sec) 
Heartbeat CPU 0 instructions: 80000000 cycles: 38793382 heartbeat IPC: 2.06768 cumulative IPC: 2.06221 (Simulation time: 0 hr 2 min 6 sec) 
Heartbeat CPU 0 instructions: 90000002 cycles: 43647462 heartbeat IPC: 2.06012 cumulative IPC: 2.06198 (Simulation time: 0 hr 2 min 23 sec) 
Heartbeat CPU 0 instructions: 100000000 cycles: 48566342 heartbeat IPC: 2.03298 cumulative IPC: 2.05904 (Simulation time: 0 hr 2 min 39 sec) 

Warmup complete CPU 0 instructions: 100000001 cycles: 48566343 (Simulation time: 0 hr 2 min 39 sec) 

Heartbeat CPU 0 instructions: 110000000 cycles: 61854989 heartbeat IPC: 0.752522 cumulative IPC: 0.752522 (Simulation time: 0 hr 3 min 1 sec) 
Heartbeat CPU 0 instructions: 120000000 cycles: 75631925 heartbeat IPC: 0.725851 cumulative IPC: 0.738946 (Simulation time: 0 hr 3 min 25 sec) 
Heartbeat CPU 0 instructions: 130000000 cycles: 89389495 heartbeat IPC: 0.726873 cumulative IPC: 0.734877 (Simulation time: 0 hr 3 min 49 sec) 
Heartbeat CPU 0 instructions: 140000000 cycles: 103677630 heartbeat IPC: 0.699881 cumulative IPC: 0.725804 (Simulation time: 0 hr 4 min 14 sec) 
Heartbeat CPU 0 instructions: 150000003 cycles: 116992185 heartbeat IPC: 0.751058 cumulative IPC: 0.730718 (Simulation time: 0 hr 4 min 36 sec) 
Heartbeat CPU 0 instructions: 160000000 cycles: 130774254 heartbeat IPC: 0.72558 cumulative IPC: 0.729857 (Simulation time: 0 hr 5 min 0 sec) 
Heartbeat CPU 0 instructions: 170000001 cycles: 144568360 heartbeat IPC: 0.724947 cumulative IPC: 0.729151 (Simulation time: 0 hr 5 min 24 sec) 
Heartbeat CPU 0 instructions: 180000000 cycles: 158840833 heartbeat IPC: 0.700649 cumulative IPC: 0.725462 (Simulation time: 0 hr 5 min 49 sec) 
Heartbeat CPU 0 instructions: 190000003 cycles: 172135250 heartbeat IPC: 0.752196 cumulative IPC: 0.728339 (Simulation time: 0 hr 6 min 11 sec) 
Heartbeat CPU 0 instructions: 200000000 cycles: 185913204 heartbeat IPC: 0.725797 cumulative IPC: 0.728084 (Simulation time: 0 hr 6 min 35 sec) 
Heartbeat CPU 0 instructions: 210000002 cycles: 199712868 heartbeat IPC: 0.724655 cumulative IPC: 0.727771 (Simulation time: 0 hr 6 min 59 sec) 
Heartbeat CPU 0 instructions: 220000000 cycles: 213981853 heartbeat IPC: 0.700821 cumulative IPC: 0.725446 (Simulation time: 0 hr 7 min 24 sec) 
Heartbeat CPU 0 instructions: 230000001 cycles: 227200810 heartbeat IPC: 0.756489 cumulative IPC: 0.727743 (Simulation time: 0 hr 7 min 46 sec) 
Heartbeat CPU 0 instructions: 240000000 cycles: 240972354 heartbeat IPC: 0.726135 cumulative IPC: 0.727628 (Simulation time: 0 hr 8 min 10 sec) 
Heartbeat CPU 0 instructions: 250000001 cycles: 254723837 heartbeat IPC: 0.727194 cumulative IPC: 0.727599 (Simulation time: 0 hr 8 min 34 sec) 
Heartbeat CPU 0 instructions: 260000000 cycles: 268881863 heartbeat IPC: 0.706313 cumulative IPC: 0.726231 (Simulation time: 0 hr 8 min 59 sec) 
Heartbeat CPU 0 instructions: 270000003 cycles: 282239050 heartbeat IPC: 0.748661 cumulative IPC: 0.727513 (Simulation time: 0 hr 9 min 21 sec) 
Heartbeat CPU 0 instructions: 280000000 cycles: 296030686 heartbeat IPC: 0.725077 cumulative IPC: 0.727378 (Simulation time: 0 hr 9 min 45 sec) 
Heartbeat CPU 0 instructions: 290000001 cycles: 309825821 heartbeat IPC: 0.724893 cumulative IPC: 0.727246 (Simulation time: 0 hr 10 min 9 sec) 
Heartbeat CPU 0 instructions: 300000000 cycles: 323920279 heartbeat IPC: 0.709499 cumulative IPC: 0.726338 (Simulation time: 0 hr 10 min 34 sec) 
Heartbeat CPU 0 instructions: 310000000 cycles: 337315451 heartbeat IPC: 0.746538 cumulative IPC: 0.727275 (Simulation time: 0 hr 10 min 56 sec) 
Heartbeat CPU 0 instructions: 320000000 cycles: 351154886 heartbeat IPC: 0.722573 cumulative IPC: 0.72706 (Simulation time: 0 hr 11 min 20 sec) 
Heartbeat CPU 0 instructions: 330000000 cycles: 364967265 heartbeat IPC: 0.723988 cumulative IPC: 0.726926 (Simulation time: 0 hr 11 min 44 sec) 
Heartbeat CPU 0 instructions: 340000000 cycles: 379034700 heartbeat IPC: 0.710862 cumulative IPC: 0.726242 (Simulation time: 0 hr 12 min 8 sec) 
Heartbeat CPU 0 instructions: 350000000 cycles: 392469115 heartbeat IPC: 0.744357 cumulative IPC: 0.72695 (Simulation time: 0 hr 12 min 30 sec) 
Heartbeat CPU 0 instructions: 360000000 cycles: 406336112 heartbeat IPC: 0.721137 cumulative IPC: 0.726724 (Simulation time: 0 hr 12 min 54 sec) 
Heartbeat CPU 0 instructions: 370000003 cycles: 420150830 heartbeat IPC: 0.723866 cumulative IPC: 0.726618 (Simulation time: 0 hr 13 min 18 sec) 
Heartbeat CPU 0 instructions: 380000000 cycles: 434185778 heartbeat IPC: 0.712507 cumulative IPC: 0.726104 (Simulation time: 0 hr 13 min 43 sec) 
Heartbeat CPU 0 instructions: 390000003 cycles: 447648611 heartbeat IPC: 0.742786 cumulative IPC: 0.726667 (Simulation time: 0 hr 14 min 4 sec) 
Heartbeat CPU 0 instructions: 400000000 cycles: 461499745 heartbeat IPC: 0.721962 cumulative IPC: 0.726509 (Simulation time: 0 hr 14 min 29 sec) 
Heartbeat CPU 0 instructions: 410000000 cycles: 475277563 heartbeat IPC: 0.725804 cumulative IPC: 0.726487 (Simulation time: 0 hr 14 min 53 sec) 
Heartbeat CPU 0 instructions: 420000000 cycles: 489303151 heartbeat IPC: 0.712983 cumulative IPC: 0.726057 (Simulation time: 0 hr 15 min 17 sec) 
Heartbeat CPU 0 instructions: 430000003 cycles: 502782492 heartbeat IPC: 0.741876 cumulative IPC: 0.726526 (Simulation time: 0 hr 15 min 39 sec) 
Heartbeat CPU 0 instructions: 440000000 cycles: 516631559 heartbeat IPC: 0.72207 cumulative IPC: 0.726394 (Simulation time: 0 hr 16 min 3 sec) 
Heartbeat CPU 0 instructions: 450000000 cycles: 530439010 heartbeat IPC: 0.724247 cumulative IPC: 0.726333 (Simulation time: 0 hr 16 min 27 sec) 
Heartbeat CPU 0 instructions: 460000000 cycles: 544444497 heartbeat IPC: 0.714006 cumulative IPC: 0.725985 (Simulation time: 0 hr 16 min 51 sec) 
Heartbeat CPU 0 instructions: 470000001 cycles: 557919432 heartbeat IPC: 0.742119 cumulative IPC: 0.726412 (Simulation time: 0 hr 17 min 13 sec) 
Heartbeat CPU 0 instructions: 480000000 cycles: 571739143 heartbeat IPC: 0.723604 cumulative IPC: 0.726337 (Simulation time: 0 hr 17 min 37 sec) 
Heartbeat CPU 0 instructions: 490000002 cycles: 585512246 heartbeat IPC: 0.726053 cumulative IPC: 0.72633 (Simulation time: 0 hr 18 min 1 sec) 
Heartbeat CPU 0 instructions: 500000000 cycles: 599514199 heartbeat IPC: 0.714186 cumulative IPC: 0.726022 (Simulation time: 0 hr 18 min 25 sec) 
Heartbeat CPU 0 instructions: 510000002 cycles: 612985078 heartbeat IPC: 0.742342 cumulative IPC: 0.726411 (Simulation time: 0 hr 18 min 47 sec) 
Heartbeat CPU 0 instructions: 520000000 cycles: 626798003 heartbeat IPC: 0.72396 cumulative IPC: 0.726352 (Simulation time: 0 hr 19 min 11 sec) 
Heartbeat CPU 0 instructions: 530000003 cycles: 640556728 heartbeat IPC: 0.726812 cumulative IPC: 0.726363 (Simulation time: 0 hr 19 min 35 sec) 
Heartbeat CPU 0 instructions: 540000000 cycles: 654579452 heartbeat IPC: 0.713128 cumulative IPC: 0.726057 (Simulation time: 0 hr 20 min 0 sec) 
Heartbeat CPU 0 instructions: 550000003 cycles: 668060368 heartbeat IPC: 0.74179 cumulative IPC: 0.726399 (Simulation time: 0 hr 20 min 21 sec) 
Heartbeat CPU 0 instructions: 560000000 cycles: 681851292 heartbeat IPC: 0.725114 cumulative IPC: 0.726371 (Simulation time: 0 hr 20 min 45 sec) 
Heartbeat CPU 0 instructions: 570000001 cycles: 695640846 heartbeat IPC: 0.725187 cumulative IPC: 0.726346 (Simulation time: 0 hr 21 min 10 sec) 
Heartbeat CPU 0 instructions: 580000000 cycles: 709697305 heartbeat IPC: 0.711417 cumulative IPC: 0.726029 (Simulation time: 0 hr 21 min 34 sec) 
Heartbeat CPU 0 instructions: 590000000 cycles: 723124072 heartbeat IPC: 0.744781 cumulative IPC: 0.726402 (Simulation time: 0 hr 21 min 56 sec) 
Heartbeat CPU 0 instructions: 600000000 cycles: 736923813 heartbeat IPC: 0.724651 cumulative IPC: 0.726367 (Simulation time: 0 hr 22 min 20 sec) 
Finished CPU 0 instructions: 500000001 cycles: 688357478 cumulative IPC: 0.726367 (Simulation time: 0 hr 22 min 20 sec) 

CPU 0 Branch Prediction Accuracy: 97.5275% MPKI: 2.1997
Number of Branches: 44482865 Number of Mispredictions: 1099852
Number of LOAD Instructions: 144955155
Number of LOAD Instructions (ROI): 144955155
Number of STORE Instructions: 55921098
Number of STORE Instructions (ROI): 55921098
Total Destination Memory Operands: 57111147
Total Destination Memory Operands (ROI): 57111147
Total Source Memory Operands: 144955155
Total Source Memory Operands (ROI): 144955155
Number of DEPENDED LOADS: 13454388
Number of DEPENDED LOADS (ROI): 13454388
Number of SQ_ADDED: 57111126
Number of SQ_ADDED (ROI): 57111126
Number of LQ_ADDED: 174321350
Number of LQ_ADDED (ROI): 174321350
Number of Instructions read from trace: 600000256

ChampSim completed all CPUs

Region of Interest Statistics

CPU 0 cumulative IPC: 0.726367 instructions: 500000001 cycles: 688357478
ITLB TOTAL     ACCESS:  136066666  HIT:  136064113  MISS:       2553
ITLB LOAD      ACCESS:  136066666  HIT:  136064113  MISS:       2553
ITLB RFO       ACCESS:          0  HIT:          0  MISS:          0
ITLB PREFETCH  ACCESS:          0  HIT:          0  MISS:          0
ITLB WRITEBACK ACCESS:          0  HIT:          0  MISS:          0
ITLB PREFETCH  REQUESTED:          0  ISSUED:          0  USEFUL:          0  USELESS:          0
ITLB TOTAL MSHR MERGED:       4377
ITLB LOAD MSHR MERGED:       4377
ITLB RFO MSHR MERGED:          0
ITLB PREFETCH MSHR MERGED:          0
ITLB WRITEBACK MSHR MERGED:          0
ITLB TOTAL ACCESSES:  136071043 HITS:  136064113 MISSES:       6930
ITLB LOAD ACCESSES:  136071043 HITS:  136064113 MISSES:       6930
ITLB RFO ACCESSES:          0 HITS:          0 MISSES:          0
ITLB PREFETCH ACCESSES:          0 HITS:          0 MISSES:          0
ITLB WRITEBACK ACCESSES:          0 HITS:          0 MISSES:          0
ITLB RQ ACCESS:  500000202
ITLB RQ TO_CACHE:  136071043
ITLB RQ MERGED:  363929159
ITLB RQ FORWARD:          0
ITLB WQ ACCESS:          0
ITLB WQ TO_CACHE:          0
ITLB WQ MERGED:          0
ITLB WQ FORWARD:          0
DTLB TOTAL     ACCESS:  111550470  HIT:  111414278  MISS:     136192
DTLB LOAD      ACCESS:   78951577  HIT:   78825953  MISS:     125624
DTLB RFO       ACCESS:   32598893  HIT:   32588325  MISS:      10568
DTLB PREFETCH  ACCESS:          0  HIT:          0  MISS:          0
DTLB WRITEBACK ACCESS:          0  HIT:          0  MISS:          0
DTLB PREFETCH  REQUESTED:          0  ISSUED:          0  USEFUL:          0  USELESS:          0
DTLB TOTAL MSHR MERGED:      63327
DTLB LOAD MSHR MERGED:      50857
DTLB RFO MSHR MERGED:      12470
DTLB PREFETCH MSHR MERGED:          0
DTLB WRITEBACK MSHR MERGED:          0
DTLB TOTAL ACCESSES:  111613797 HITS:  111414278 MISSES:     199519
DTLB LOAD ACCESSES:   79002434 HITS:   78825953 MISSES:     176481
DTLB RFO ACCESSES:   32611363 HITS:   32588325 MISSES:      23038
DTLB PREFETCH ACCESSES:          0 HITS:          0 MISSES:          0
DTLB WRITEBACK ACCESSES:          0 HITS:          0 MISSES:          0
DTLB RQ ACCESS:  157181033
DTLB RQ TO_CACHE:  111613797
DTLB RQ MERGED:   45567236
DTLB RQ FORWARD:          0
DTLB WQ ACCESS:          0
DTLB WQ TO_CACHE:          0
DTLB WQ MERGED:          0
DTLB WQ FORWARD:          0
L1D TOTAL     ACCESS:  198239740  HIT:  188398709  MISS:    9841031
L1D LOAD      ACCESS:   79951052  HIT:   75690370  MISS:    4260682
L1D RFO       ACCESS:   44522636  HIT:   43622260  MISS:     900376
L1D PREFETCH  ACCESS:   73766052  HIT:   69086079  MISS:    4679973
L1D WRITEBACK ACCESS:          0  HIT:          0  MISS:          0
L1D PREFETCH  REQUESTED:   80347223  ISSUED:   79891755  USEFUL:    1821686  USELESS:    2858196
L1D TOTAL MSHR MERGED:    2492844
L1D LOAD MSHR MERGED:     518062
L1D RFO MSHR MERGED:    1429906
L1D PREFETCH MSHR MERGED:     544876
L1D WRITEBACK MSHR MERGED:          0
L1D TOTAL ACCESSES:  200754042 HITS:  188420167 MISSES:   12333875
L1D LOAD ACCESSES:   80360066 HITS:   75703213 MISSES:    4656853
L1D RFO ACCESSES:   45949489 HITS:   43622260 MISSES:    2327229
L1D PREFETCH ACCESSES:   74444487 HITS:   69094694 MISSES:    5349793
L1D WRITEBACK ACCESSES:          0 HITS:          0 MISSES:          0
L1D RQ ACCESS:  109539063
L1D RQ TO_CACHE:   80347223
L1D RQ MERGED:   29178997
L1D RQ FORWARD:          0
L1D WQ ACCESS:   47641970
L1D WQ TO_CACHE:   45949489
L1D WQ MERGED:    1692481
L1D WQ FORWARD:      21458
L1I TOTAL     ACCESS:  161535519  HIT:  161271564  MISS:     263955
L1I LOAD      ACCESS:  161535519  HIT:  161271564  MISS:     263955
L1I RFO       ACCESS:          0  HIT:          0  MISS:          0
L1I PREFETCH  ACCESS:          0  HIT:          0  MISS:          0
L1I WRITEBACK ACCESS:          0  HIT:          0  MISS:          0
L1I PREFETCH  REQUESTED:          0  ISSUED:          0  USEFUL:          0  USELESS:          0
L1I TOTAL MSHR MERGED:     261430
L1I LOAD MSHR MERGED:     261430
L1I RFO MSHR MERGED:          0
L1I PREFETCH MSHR MERGED:          0
L1I WRITEBACK MSHR MERGED:          0
L1I TOTAL ACCESSES:  161796949 HITS:  161271564 MISSES:     525385
L1I LOAD ACCESSES:  161796949 HITS:  161271564 MISSES:     525385
L1I RFO ACCESSES:          0 HITS:          0 MISSES:          0
L1I PREFETCH ACCESSES:          0 HITS:          0 MISSES:          0
L1I WRITEBACK ACCESSES:          0 HITS:          0 MISSES:          0
L1I RQ ACCESS:  500000202
L1I RQ TO_CACHE:  161796949
L1I RQ MERGED:  338203253
L1I RQ FORWARD:          0
L1I WQ ACCESS:          0
L1I WQ TO_CACHE:          0
L1I WQ MERGED:          0
L1I WQ FORWARD:          0
L2C TOTAL     ACCESS:   11771698  HIT:   10382414  MISS:    1389284
L2C LOAD      ACCESS:    4402681  HIT:    3905999  MISS:     496682
L2C RFO       ACCESS:     897255  HIT:     536225  MISS:     361030
L2C PREFETCH  ACCESS:    5284226  HIT:    4755599  MISS:     528627
L2C WRITEBACK ACCESS:    1187536  HIT:    1184591  MISS:       2945
L2C PREFETCH  REQUESTED:     504409  ISSUED:     504409  USEFUL:     114897  USELESS:     413923
L2C TOTAL MSHR MERGED:       1757
L2C LOAD MSHR MERGED:        328
L2C RFO MSHR MERGED:          0
L2C PREFETCH MSHR MERGED:       1429
L2C WRITEBACK MSHR MERGED:          0
L2C TOTAL ACCESSES:   11776298 HITS:   10382632 MISSES:    1393666
L2C LOAD ACCESSES:    4402746 HITS:    3906064 MISSES:     496682
L2C RFO ACCESSES:     897323 HITS:     536293 MISSES:     361030
L2C PREFETCH ACCESSES:    5288693 HITS:    4755684 MISSES:     533009
L2C WRITEBACK ACCESSES:    1187536 HITS:    1184591 MISSES:       2945
L2C RQ ACCESS:    5300069
L2C RQ TO_CACHE:    5299936
L2C RQ MERGED:          0
L2C RQ FORWARD:          0
L2C WQ ACCESS:    1187536
L2C WQ TO_CACHE:    1187536
L2C WQ MERGED:          0
L2C WQ FORWARD:        218
LLC TOTAL     ACCESS:    1849596  HIT:    1188120  MISS:     661476
LLC LOAD      ACCESS:     496352  HIT:     200540  MISS:     295812
LLC RFO       ACCESS:     361026  HIT:     206998  MISS:     154028
LLC PREFETCH  ACCESS:     531474  HIT:     327292  MISS:     204182
LLC WRITEBACK ACCESS:     460744  HIT:     453290  MISS:       7454
LLC PREFETCH  REQUESTED:          0  ISSUED:          0  USEFUL:      10952  USELESS:     193237
LLC TOTAL MSHR MERGED:         80
LLC LOAD MSHR MERGED:         34
LLC RFO MSHR MERGED:          0
LLC PREFETCH MSHR MERGED:         46
LLC WRITEBACK MSHR MERGED:          0
LLC TOTAL ACCESSES:    1849702 HITS:    1188146 MISSES:     661556
LLC LOAD ACCESSES:     496354 HITS:     200542 MISSES:     295812
LLC RFO ACCESSES:     361030 HITS:     207002 MISSES:     154028
LLC PREFETCH ACCESSES:     531574 HITS:     327312 MISSES:     204262
LLC WRITEBACK ACCESSES:     460744 HITS:     453290 MISSES:       7454
LLC 0 RQ ACCESS:     857384
LLC 0 RQ TO_CACHE:     857378
LLC 0 RQ MERGED:          0
LLC 0 RQ FORWARD:          0
LLC WQ ACCESS:     460744
LLC WQ TO_CACHE:     460744
LLC WQ MERGED:          0
LLC WQ FORWARD:         26
Major fault: 0 Minor fault: 3073
CPU 0 L1D next line prefetcher final stats
CPU 0 L2C PC-based stride prefetcher final stats
All Misses: 791082
All Hits: 1385205
SD Algo Stats - Switches: 0 SRR-Repls: 336047 BRR-Repls: 0

DRAM Statistics
 CHANNEL 0
 RQ ROW_BUFFER_HIT:     426596  ROW_BUFFER_MISS:     227020
 DBUS_CONGESTED:     504027
 WQ ROW_BUFFER_HIT:      20190  ROW_BUFFER_MISS:     150114  FULL:          0

 AVG_CONGESTED_CYCLE: 13
LOADS RETIRED: 120673965
INSTR RETIRED: 500000000
