
*** ChampSim Multicore Out-of-Order Simulator ***

Warmup Instructions: 100000000
Simulation Instructions: 500000000
Number of CPUs: 1
LLC sets: 2048
LLC ways: 16
Clean RRIP Policies: 1312101213121012 Dirty RRIP Policies: 1302200213022002 PSEL Width: 10 Track Set: 4294967295 PSEL Mask: 1 Demote Mask: 3044404430444044DS Algo: 0Window size: 0
Off-chip DRAM Size: 4096 MB Channels: 1 Width: 64-bit Data Rate: 1600 MT/s

CPU 0 runs /mnt/beegfs/iconst01/spec2017/Gcc.trace.gz
NOT SORTED
TRACE STRING: /mnt/beegfs/iconst01/spec2017/Gcc.trace.gz
SORTED
TRACE STRING: /mnt/beegfs/iconst01/spec2017/Gcc.trace.gz
INITIAL
TRACE STRING: /mnt/beegfs/iconst01/spec2017/Gcc.trace.gz

champsim_seed used: 269

CPU 0 L1D next line prefetcher
CPU 0 L2C IP-based stride prefetcher
Initialize DRRIP state
Assign rand_sets[0]: 454  LLC: 2048
rand_sets[0]: 454
Assign rand_sets[1]: 1662  LLC: 2048
rand_sets[1]: 1662
Assign rand_sets[2]: 1921  LLC: 2048
rand_sets[2]: 1921
Assign rand_sets[3]: 1131  LLC: 2048
rand_sets[3]: 1131
Assign rand_sets[4]: 331  LLC: 2048
rand_sets[4]: 331
Assign rand_sets[5]: 1531  LLC: 2048
rand_sets[5]: 1531
Assign rand_sets[6]: 482  LLC: 2048
rand_sets[6]: 482
Assign rand_sets[7]: 1275  LLC: 2048
rand_sets[7]: 1275
Assign rand_sets[8]: 1876  LLC: 2048
rand_sets[8]: 1876
Assign rand_sets[9]: 2038  LLC: 2048
rand_sets[9]: 2038
Assign rand_sets[10]: 701  LLC: 2048
rand_sets[10]: 701
Assign rand_sets[11]: 479  LLC: 2048
rand_sets[11]: 479
Assign rand_sets[12]: 892  LLC: 2048
rand_sets[12]: 892
Assign rand_sets[13]: 1820  LLC: 2048
rand_sets[13]: 1820
Assign rand_sets[14]: 1505  LLC: 2048
rand_sets[14]: 1505
Assign rand_sets[15]: 1159  LLC: 2048
rand_sets[15]: 1159
Assign rand_sets[16]: 513  LLC: 2048
rand_sets[16]: 513
Assign rand_sets[17]: 703  LLC: 2048
rand_sets[17]: 703
Assign rand_sets[18]: 561  LLC: 2048
rand_sets[18]: 561
Assign rand_sets[19]: 990  LLC: 2048
rand_sets[19]: 990
Assign rand_sets[20]: 342  LLC: 2048
rand_sets[20]: 342
Assign rand_sets[21]: 882  LLC: 2048
rand_sets[21]: 882
Assign rand_sets[22]: 15  LLC: 2048
rand_sets[22]: 15
Assign rand_sets[23]: 71  LLC: 2048
rand_sets[23]: 71
Assign rand_sets[24]: 1127  LLC: 2048
rand_sets[24]: 1127
Assign rand_sets[25]: 1382  LLC: 2048
rand_sets[25]: 1382
Assign rand_sets[26]: 647  LLC: 2048
rand_sets[26]: 647
Assign rand_sets[27]: 857  LLC: 2048
rand_sets[27]: 857
Assign rand_sets[28]: 1450  LLC: 2048
rand_sets[28]: 1450
Assign rand_sets[29]: 1160  LLC: 2048
rand_sets[29]: 1160
Assign rand_sets[30]: 1852  LLC: 2048
rand_sets[30]: 1852
Assign rand_sets[31]: 1881  LLC: 2048
rand_sets[31]: 1881
Assign rand_sets[32]: 1770  LLC: 2048
rand_sets[32]: 1770
Assign rand_sets[33]: 1622  LLC: 2048
rand_sets[33]: 1622
Assign rand_sets[34]: 275  LLC: 2048
rand_sets[34]: 275
Assign rand_sets[35]: 635  LLC: 2048
rand_sets[35]: 635
Assign rand_sets[36]: 466  LLC: 2048
rand_sets[36]: 466
Assign rand_sets[37]: 1413  LLC: 2048
rand_sets[37]: 1413
Assign rand_sets[38]: 417  LLC: 2048
rand_sets[38]: 417
Assign rand_sets[39]: 472  LLC: 2048
rand_sets[39]: 472
Assign rand_sets[40]: 1340  LLC: 2048
rand_sets[40]: 1340
Assign rand_sets[41]: 852  LLC: 2048
rand_sets[41]: 852
Assign rand_sets[42]: 1365  LLC: 2048
rand_sets[42]: 1365
Assign rand_sets[43]: 47  LLC: 2048
rand_sets[43]: 47
Assign rand_sets[44]: 823  LLC: 2048
rand_sets[44]: 823
Assign rand_sets[45]: 686  LLC: 2048
rand_sets[45]: 686
Assign rand_sets[46]: 1637  LLC: 2048
rand_sets[46]: 1637
Assign rand_sets[47]: 1115  LLC: 2048
rand_sets[47]: 1115
Assign rand_sets[48]: 986  LLC: 2048
rand_sets[48]: 986
Assign rand_sets[49]: 258  LLC: 2048
rand_sets[49]: 258
Assign rand_sets[50]: 633  LLC: 2048
rand_sets[50]: 633
Assign rand_sets[51]: 920  LLC: 2048
rand_sets[51]: 920
Assign rand_sets[52]: 204  LLC: 2048
rand_sets[52]: 204
Assign rand_sets[53]: 227  LLC: 2048
rand_sets[53]: 227
Assign rand_sets[54]: 1818  LLC: 2048
rand_sets[54]: 1818
Assign rand_sets[55]: 886  LLC: 2048
rand_sets[55]: 886
Assign rand_sets[56]: 1422  LLC: 2048
rand_sets[56]: 1422
Assign rand_sets[57]: 607  LLC: 2048
rand_sets[57]: 607
Assign rand_sets[58]: 217  LLC: 2048
rand_sets[58]: 217
Assign rand_sets[59]: 1945  LLC: 2048
rand_sets[59]: 1945
Assign rand_sets[60]: 143  LLC: 2048
rand_sets[60]: 143
Assign rand_sets[61]: 1311  LLC: 2048
rand_sets[61]: 1311
Assign rand_sets[62]: 319  LLC: 2048
rand_sets[62]: 319
Assign rand_sets[63]: 1846  LLC: 2048
rand_sets[63]: 1846
 CLEAN-RRIP-POLICY-1: 1-3-1-2-1-0-1-2- CLEAN-RRIP-POLICY-2: 1-3-1-2-1-0-1-2-
 DIRTY-RRIP-POLICY-1: 1-3-0-2-2-0-0-2- DIRTY-RRIP-POLICY-2: 1-3-0-2-2-0-0-2-
 PSEL width: 10
Heartbeat CPU 0 instructions: 10000001 cycles: 7315910 heartbeat IPC: 1.36688 cumulative IPC: 1.36688 (Simulation time: 0 hr 0 min 13 sec) 
Heartbeat CPU 0 instructions: 20000000 cycles: 14308336 heartbeat IPC: 1.43012 cumulative IPC: 1.39779 (Simulation time: 0 hr 0 min 26 sec) 
Heartbeat CPU 0 instructions: 30000001 cycles: 21021925 heartbeat IPC: 1.48952 cumulative IPC: 1.42708 (Simulation time: 0 hr 0 min 41 sec) 
Heartbeat CPU 0 instructions: 40000000 cycles: 27482931 heartbeat IPC: 1.54775 cumulative IPC: 1.45545 (Simulation time: 0 hr 0 min 56 sec) 
Heartbeat CPU 0 instructions: 50000001 cycles: 33584981 heartbeat IPC: 1.63879 cumulative IPC: 1.48876 (Simulation time: 0 hr 1 min 10 sec) 
Heartbeat CPU 0 instructions: 60000000 cycles: 40066501 heartbeat IPC: 1.54285 cumulative IPC: 1.49751 (Simulation time: 0 hr 1 min 24 sec) 
Heartbeat CPU 0 instructions: 70000000 cycles: 47107201 heartbeat IPC: 1.42031 cumulative IPC: 1.48597 (Simulation time: 0 hr 1 min 38 sec) 
Heartbeat CPU 0 instructions: 80000000 cycles: 54198999 heartbeat IPC: 1.41008 cumulative IPC: 1.47604 (Simulation time: 0 hr 1 min 51 sec) 
Heartbeat CPU 0 instructions: 90000003 cycles: 61204996 heartbeat IPC: 1.42735 cumulative IPC: 1.47047 (Simulation time: 0 hr 2 min 5 sec) 
Heartbeat CPU 0 instructions: 100000000 cycles: 68373609 heartbeat IPC: 1.39497 cumulative IPC: 1.46255 (Simulation time: 0 hr 2 min 18 sec) 

Warmup complete CPU 0 instructions: 100000004 cycles: 68373610 (Simulation time: 0 hr 2 min 18 sec) 

Heartbeat CPU 0 instructions: 110000003 cycles: 96187049 heartbeat IPC: 0.359539 cumulative IPC: 0.359538 (Simulation time: 0 hr 2 min 43 sec) 
Heartbeat CPU 0 instructions: 120000000 cycles: 123707737 heartbeat IPC: 0.363363 cumulative IPC: 0.361441 (Simulation time: 0 hr 3 min 9 sec) 
Heartbeat CPU 0 instructions: 130000000 cycles: 148764233 heartbeat IPC: 0.399098 cumulative IPC: 0.373178 (Simulation time: 0 hr 3 min 34 sec) 
Heartbeat CPU 0 instructions: 140000000 cycles: 178674480 heartbeat IPC: 0.334334 cumulative IPC: 0.362644 (Simulation time: 0 hr 3 min 59 sec) 
Heartbeat CPU 0 instructions: 150000000 cycles: 208772461 heartbeat IPC: 0.332248 cumulative IPC: 0.356128 (Simulation time: 0 hr 4 min 24 sec) 
Heartbeat CPU 0 instructions: 160000000 cycles: 236268385 heartbeat IPC: 0.36369 cumulative IPC: 0.357367 (Simulation time: 0 hr 4 min 49 sec) 
Heartbeat CPU 0 instructions: 170000001 cycles: 264382437 heartbeat IPC: 0.355694 cumulative IPC: 0.357127 (Simulation time: 0 hr 5 min 15 sec) 
Heartbeat CPU 0 instructions: 180000000 cycles: 292970199 heartbeat IPC: 0.3498 cumulative IPC: 0.356194 (Simulation time: 0 hr 5 min 41 sec) 
Heartbeat CPU 0 instructions: 190000002 cycles: 321150028 heartbeat IPC: 0.354864 cumulative IPC: 0.356046 (Simulation time: 0 hr 6 min 6 sec) 
Heartbeat CPU 0 instructions: 200000000 cycles: 349644222 heartbeat IPC: 0.350949 cumulative IPC: 0.355529 (Simulation time: 0 hr 6 min 32 sec) 
Heartbeat CPU 0 instructions: 210000002 cycles: 377637604 heartbeat IPC: 0.357227 cumulative IPC: 0.355683 (Simulation time: 0 hr 6 min 58 sec) 
Heartbeat CPU 0 instructions: 220000000 cycles: 407168188 heartbeat IPC: 0.338632 cumulative IPC: 0.354197 (Simulation time: 0 hr 7 min 22 sec) 
Heartbeat CPU 0 instructions: 230000000 cycles: 434855435 heartbeat IPC: 0.361177 cumulative IPC: 0.354724 (Simulation time: 0 hr 7 min 47 sec) 
Heartbeat CPU 0 instructions: 240000000 cycles: 460869978 heartbeat IPC: 0.3844 cumulative IPC: 0.356691 (Simulation time: 0 hr 8 min 11 sec) 
Heartbeat CPU 0 instructions: 250000000 cycles: 491136316 heartbeat IPC: 0.3304 cumulative IPC: 0.354809 (Simulation time: 0 hr 8 min 37 sec) 
Heartbeat CPU 0 instructions: 260000000 cycles: 518273280 heartbeat IPC: 0.368501 cumulative IPC: 0.355635 (Simulation time: 0 hr 9 min 2 sec) 
Heartbeat CPU 0 instructions: 270000003 cycles: 546839005 heartbeat IPC: 0.35007 cumulative IPC: 0.355303 (Simulation time: 0 hr 9 min 29 sec) 
Heartbeat CPU 0 instructions: 280000000 cycles: 575205525 heartbeat IPC: 0.352528 cumulative IPC: 0.355147 (Simulation time: 0 hr 9 min 55 sec) 
Heartbeat CPU 0 instructions: 290000000 cycles: 604243058 heartbeat IPC: 0.344382 cumulative IPC: 0.354564 (Simulation time: 0 hr 10 min 22 sec) 
Heartbeat CPU 0 instructions: 300000000 cycles: 634609179 heartbeat IPC: 0.329314 cumulative IPC: 0.35321 (Simulation time: 0 hr 10 min 47 sec) 
Heartbeat CPU 0 instructions: 310000001 cycles: 664249556 heartbeat IPC: 0.337378 cumulative IPC: 0.352422 (Simulation time: 0 hr 11 min 12 sec) 
Heartbeat CPU 0 instructions: 320000000 cycles: 692726657 heartbeat IPC: 0.351159 cumulative IPC: 0.352365 (Simulation time: 0 hr 11 min 37 sec) 
Heartbeat CPU 0 instructions: 330000000 cycles: 721524268 heartbeat IPC: 0.347251 cumulative IPC: 0.352139 (Simulation time: 0 hr 12 min 2 sec) 
Heartbeat CPU 0 instructions: 340000000 cycles: 750983275 heartbeat IPC: 0.339455 cumulative IPC: 0.351592 (Simulation time: 0 hr 12 min 27 sec) 
Heartbeat CPU 0 instructions: 350000003 cycles: 778183771 heartbeat IPC: 0.36764 cumulative IPC: 0.352207 (Simulation time: 0 hr 12 min 52 sec) 
Heartbeat CPU 0 instructions: 360000000 cycles: 806764806 heartbeat IPC: 0.349882 cumulative IPC: 0.352117 (Simulation time: 0 hr 13 min 16 sec) 
Heartbeat CPU 0 instructions: 370000000 cycles: 835134302 heartbeat IPC: 0.352491 cumulative IPC: 0.352131 (Simulation time: 0 hr 13 min 39 sec) 
Heartbeat CPU 0 instructions: 380000000 cycles: 863786529 heartbeat IPC: 0.349013 cumulative IPC: 0.352018 (Simulation time: 0 hr 14 min 3 sec) 
Heartbeat CPU 0 instructions: 390000001 cycles: 891460693 heartbeat IPC: 0.361348 cumulative IPC: 0.352332 (Simulation time: 0 hr 14 min 27 sec) 
Heartbeat CPU 0 instructions: 400000000 cycles: 920181823 heartbeat IPC: 0.348176 cumulative IPC: 0.352192 (Simulation time: 0 hr 14 min 51 sec) 
Heartbeat CPU 0 instructions: 410000001 cycles: 947497106 heartbeat IPC: 0.366095 cumulative IPC: 0.352624 (Simulation time: 0 hr 15 min 15 sec) 
Heartbeat CPU 0 instructions: 420000000 cycles: 974803009 heartbeat IPC: 0.366221 cumulative IPC: 0.353034 (Simulation time: 0 hr 15 min 38 sec) 
Heartbeat CPU 0 instructions: 430000002 cycles: 1002558819 heartbeat IPC: 0.360285 cumulative IPC: 0.353249 (Simulation time: 0 hr 16 min 2 sec) 
Heartbeat CPU 0 instructions: 440000000 cycles: 1032406351 heartbeat IPC: 0.335036 cumulative IPC: 0.352685 (Simulation time: 0 hr 16 min 26 sec) 
Heartbeat CPU 0 instructions: 450000002 cycles: 1061848226 heartbeat IPC: 0.339652 cumulative IPC: 0.352299 (Simulation time: 0 hr 16 min 50 sec) 
Heartbeat CPU 0 instructions: 460000000 cycles: 1089603492 heartbeat IPC: 0.360292 cumulative IPC: 0.352516 (Simulation time: 0 hr 17 min 14 sec) 
Heartbeat CPU 0 instructions: 470000000 cycles: 1117237701 heartbeat IPC: 0.36187 cumulative IPC: 0.352763 (Simulation time: 0 hr 17 min 38 sec) 
Heartbeat CPU 0 instructions: 480000000 cycles: 1145108046 heartbeat IPC: 0.358804 cumulative IPC: 0.352919 (Simulation time: 0 hr 18 min 1 sec) 
Heartbeat CPU 0 instructions: 490000000 cycles: 1172684467 heartbeat IPC: 0.362629 cumulative IPC: 0.353161 (Simulation time: 0 hr 18 min 25 sec) 
Heartbeat CPU 0 instructions: 500000000 cycles: 1201045531 heartbeat IPC: 0.352596 cumulative IPC: 0.353147 (Simulation time: 0 hr 18 min 49 sec) 
Heartbeat CPU 0 instructions: 510000000 cycles: 1235296984 heartbeat IPC: 0.291958 cumulative IPC: 0.351351 (Simulation time: 0 hr 19 min 16 sec) 
Heartbeat CPU 0 instructions: 520000000 cycles: 1263478091 heartbeat IPC: 0.354848 cumulative IPC: 0.351434 (Simulation time: 0 hr 19 min 41 sec) 
Heartbeat CPU 0 instructions: 530000001 cycles: 1293389701 heartbeat IPC: 0.334318 cumulative IPC: 0.351016 (Simulation time: 0 hr 20 min 6 sec) 
Heartbeat CPU 0 instructions: 540000000 cycles: 1321716646 heartbeat IPC: 0.353021 cumulative IPC: 0.351061 (Simulation time: 0 hr 20 min 31 sec) 
Heartbeat CPU 0 instructions: 550000001 cycles: 1350966866 heartbeat IPC: 0.341878 cumulative IPC: 0.350852 (Simulation time: 0 hr 20 min 57 sec) 
Heartbeat CPU 0 instructions: 560000000 cycles: 1376414441 heartbeat IPC: 0.392965 cumulative IPC: 0.351671 (Simulation time: 0 hr 21 min 21 sec) 
Heartbeat CPU 0 instructions: 570000000 cycles: 1406216771 heartbeat IPC: 0.335544 cumulative IPC: 0.351312 (Simulation time: 0 hr 21 min 47 sec) 
Heartbeat CPU 0 instructions: 580000000 cycles: 1434328890 heartbeat IPC: 0.355718 cumulative IPC: 0.351402 (Simulation time: 0 hr 22 min 12 sec) 
Heartbeat CPU 0 instructions: 590000001 cycles: 1459108296 heartbeat IPC: 0.403561 cumulative IPC: 0.352332 (Simulation time: 0 hr 22 min 35 sec) 
Heartbeat CPU 0 instructions: 600000000 cycles: 1485276197 heartbeat IPC: 0.382148 cumulative IPC: 0.352882 (Simulation time: 0 hr 22 min 59 sec) 
Finished CPU 0 instructions: 500000000 cycles: 1416902609 cumulative IPC: 0.352882 (Simulation time: 0 hr 22 min 59 sec) 

CPU 0 Branch Prediction Accuracy: 86.4311% MPKI: 26.2662
Number of Branches: 96788573 Number of Mispredictions: 13133102
Number of LOAD Instructions: 164682285
Number of LOAD Instructions (ROI): 164682285
Number of STORE Instructions: 78194750
Number of STORE Instructions (ROI): 78194750
Total Destination Memory Operands: 83268534
Total Destination Memory Operands (ROI): 83268534
Total Source Memory Operands: 164712438
Total Source Memory Operands (ROI): 164712438
Number of DEPENDED LOADS: 7056200
Number of DEPENDED LOADS (ROI): 7056200
Number of SQ_ADDED: 83268522
Number of SQ_ADDED (ROI): 83268522
Number of LQ_ADDED: 236536919
Number of LQ_ADDED (ROI): 236536919
Number of Instructions read from trace: 600000066

ChampSim completed all CPUs

Region of Interest Statistics

CPU 0 cumulative IPC: 0.352882 instructions: 500000000 cycles: 1416902609
ITLB TOTAL     ACCESS:  100519396  HIT:  100314950  MISS:     204446
ITLB LOAD      ACCESS:  100519396  HIT:  100314950  MISS:     204446
ITLB RFO       ACCESS:          0  HIT:          0  MISS:          0
ITLB PREFETCH  ACCESS:          0  HIT:          0  MISS:          0
ITLB WRITEBACK ACCESS:          0  HIT:          0  MISS:          0
ITLB PREFETCH  REQUESTED:          0  ISSUED:          0  USEFUL:          0  USELESS:          0
ITLB TOTAL MSHR MERGED:     172424
ITLB LOAD MSHR MERGED:     172424
ITLB RFO MSHR MERGED:          0
ITLB PREFETCH MSHR MERGED:          0
ITLB WRITEBACK MSHR MERGED:          0
ITLB TOTAL ACCESSES:  100691820 HITS:  100314950 MISSES:     376870
ITLB LOAD ACCESSES:  100691820 HITS:  100314950 MISSES:     376870
ITLB RFO ACCESSES:          0 HITS:          0 MISSES:          0
ITLB PREFETCH ACCESSES:          0 HITS:          0 MISSES:          0
ITLB WRITEBACK ACCESSES:          0 HITS:          0 MISSES:          0
ITLB RQ ACCESS:  500000057
ITLB RQ TO_CACHE:  100691820
ITLB RQ MERGED:  399308237
ITLB RQ FORWARD:          0
ITLB WQ ACCESS:          0
ITLB WQ TO_CACHE:          0
ITLB WQ MERGED:          0
ITLB WQ FORWARD:          0
DTLB TOTAL     ACCESS:  165342230  HIT:  164707876  MISS:     634354
DTLB LOAD      ACCESS:  106296072  HIT:  105726140  MISS:     569932
DTLB RFO       ACCESS:   59046158  HIT:   58981736  MISS:      64422
DTLB PREFETCH  ACCESS:          0  HIT:          0  MISS:          0
DTLB WRITEBACK ACCESS:          0  HIT:          0  MISS:          0
DTLB PREFETCH  REQUESTED:          0  ISSUED:          0  USEFUL:          0  USELESS:          0
DTLB TOTAL MSHR MERGED:      99855
DTLB LOAD MSHR MERGED:      59363
DTLB RFO MSHR MERGED:      40492
DTLB PREFETCH MSHR MERGED:          0
DTLB WRITEBACK MSHR MERGED:          0
DTLB TOTAL ACCESSES:  165442085 HITS:  164707876 MISSES:     734209
DTLB LOAD ACCESSES:  106355435 HITS:  105726140 MISSES:     629295
DTLB RFO ACCESSES:   59086650 HITS:   58981736 MISSES:     104914
DTLB PREFETCH ACCESSES:          0 HITS:          0 MISSES:          0
DTLB WRITEBACK ACCESSES:          0 HITS:          0 MISSES:          0
DTLB RQ ACCESS:  200314690
DTLB RQ TO_CACHE:  165442085
DTLB RQ MERGED:   34872605
DTLB RQ FORWARD:          0
DTLB WQ ACCESS:          0
DTLB WQ TO_CACHE:          0
DTLB WQ MERGED:          0
DTLB WQ FORWARD:          0
L1D TOTAL     ACCESS:  281900404  HIT:  273990971  MISS:    7909433
L1D LOAD      ACCESS:  110435631  HIT:  107162339  MISS:    3273292
L1D RFO       ACCESS:   67133019  HIT:   66242980  MISS:     890039
L1D PREFETCH  ACCESS:  104331754  HIT:  100585652  MISS:    3746102
L1D WRITEBACK ACCESS:          0  HIT:          0  MISS:          0
L1D PREFETCH  REQUESTED:  110821374  ISSUED:  109122017  USEFUL:    1666665  USELESS:    2079401
L1D TOTAL MSHR MERGED:    2813457
L1D LOAD MSHR MERGED:     478631
L1D RFO MSHR MERGED:    1852390
L1D PREFETCH MSHR MERGED:     482436
L1D WRITEBACK MSHR MERGED:          0
L1D TOTAL ACCESSES:  284741305 HITS:  274018415 MISSES:   10722890
L1D LOAD ACCESSES:  110822809 HITS:  107163774 MISSES:    3659035
L1D RFO ACCESSES:   68974175 HITS:   66242980 MISSES:    2731195
L1D PREFETCH ACCESSES:  104944321 HITS:  100611661 MISSES:    4332660
L1D WRITEBACK ACCESSES:          0 HITS:          0 MISSES:          0
L1D RQ ACCESS:  130762087
L1D RQ TO_CACHE:  110821377
L1D RQ MERGED:   19939275
L1D RQ FORWARD:          0
L1D WQ ACCESS:   69552603
L1D WQ TO_CACHE:   68974176
L1D WQ MERGED:     578427
L1D WQ FORWARD:      27444
L1I TOTAL     ACCESS:  126566221  HIT:  122327669  MISS:    4238552
L1I LOAD      ACCESS:  126566221  HIT:  122327669  MISS:    4238552
L1I RFO       ACCESS:          0  HIT:          0  MISS:          0
L1I PREFETCH  ACCESS:          0  HIT:          0  MISS:          0
L1I WRITEBACK ACCESS:          0  HIT:          0  MISS:          0
L1I PREFETCH  REQUESTED:          0  ISSUED:          0  USEFUL:          0  USELESS:          0
L1I TOTAL MSHR MERGED:    1835123
L1I LOAD MSHR MERGED:    1835123
L1I RFO MSHR MERGED:          0
L1I PREFETCH MSHR MERGED:          0
L1I WRITEBACK MSHR MERGED:          0
L1I TOTAL ACCESSES:  128401347 HITS:  122327669 MISSES:    6073678
L1I LOAD ACCESSES:  128401347 HITS:  122327669 MISSES:    6073678
L1I RFO ACCESSES:          0 HITS:          0 MISSES:          0
L1I PREFETCH ACCESSES:          0 HITS:          0 MISSES:          0
L1I WRITEBACK ACCESSES:          0 HITS:          0 MISSES:          0
L1I RQ ACCESS:  500000057
L1I RQ TO_CACHE:  128401347
L1I RQ MERGED:  371598710
L1I RQ FORWARD:          0
L1I WQ ACCESS:          0
L1I WQ TO_CACHE:          0
L1I WQ MERGED:          0
L1I WQ FORWARD:          0
L2C TOTAL     ACCESS:   14905769  HIT:   11159273  MISS:    3746496
L2C LOAD      ACCESS:    7418748  HIT:    5098922  MISS:    2319826
L2C RFO       ACCESS:     878710  HIT:     409919  MISS:     468791
L2C PREFETCH  ACCESS:    4569055  HIT:    3628430  MISS:     940625
L2C WRITEBACK ACCESS:    2039256  HIT:    2022002  MISS:      17254
L2C PREFETCH  REQUESTED:     842766  ISSUED:     842766  USEFUL:     203493  USELESS:     736838
L2C TOTAL MSHR MERGED:       6648
L2C LOAD MSHR MERGED:        722
L2C RFO MSHR MERGED:          0
L2C PREFETCH MSHR MERGED:       5926
L2C WRITEBACK MSHR MERGED:          0
L2C TOTAL ACCESSES:   14913292 HITS:   11159722 MISSES:    3753570
L2C LOAD ACCESSES:    7418956 HITS:    5099130 MISSES:    2319826
L2C RFO ACCESSES:     878805 HITS:     410014 MISSES:     468791
L2C PREFETCH ACCESSES:    4576275 HITS:    3628576 MISSES:     947699
L2C WRITEBACK ACCESSES:    2039256 HITS:    2022002 MISSES:      17254
L2C RQ ACCESS:    8297764
L2C RQ TO_CACHE:    8297461
L2C RQ MERGED:          0
L2C RQ FORWARD:          0
L2C WQ ACCESS:    2039256
L2C WQ TO_CACHE:    2039256
L2C WQ MERGED:          0
L2C WQ FORWARD:        449
LLC TOTAL     ACCESS:    4609820  HIT:    4020808  MISS:     589012
LLC LOAD      ACCESS:    2319091  HIT:    1997359  MISS:     321732
LLC RFO       ACCESS:     468781  HIT:     424251  MISS:      44530
LLC PREFETCH  ACCESS:     941658  HIT:     737835  MISS:     203823
LLC WRITEBACK ACCESS:     880290  HIT:     861363  MISS:      18927
LLC PREFETCH  REQUESTED:          0  ISSUED:          0  USEFUL:      32607  USELESS:     171773
LLC TOTAL MSHR MERGED:         89
LLC LOAD MSHR MERGED:         28
LLC RFO MSHR MERGED:          0
LLC PREFETCH MSHR MERGED:         61
LLC WRITEBACK MSHR MERGED:          0
LLC TOTAL ACCESSES:    4609944 HITS:    4020843 MISSES:     589101
LLC LOAD ACCESSES:    2319104 HITS:    1997372 MISSES:     321732
LLC RFO ACCESSES:     468791 HITS:     424261 MISSES:      44530
LLC PREFETCH ACCESSES:     941759 HITS:     737847 MISSES:     203912
LLC WRITEBACK ACCESSES:     880290 HITS:     861363 MISSES:      18927
LLC 0 RQ ACCESS:    2787895
LLC 0 RQ TO_CACHE:    2787872
LLC 0 RQ MERGED:          0
LLC 0 RQ FORWARD:          0
LLC WQ ACCESS:     880290
LLC WQ TO_CACHE:     880290
LLC WQ MERGED:          0
LLC WQ FORWARD:         35
Major fault: 0 Minor fault: 12862
CPU 0 L1D next line prefetcher final stats
CPU 0 L2C PC-based stride prefetcher final stats
All Misses: 705869
All Hits: 4720957
SD Algo Stats - Switches: 0 SRR-Repls: 382388 BRR-Repls: 0

DRAM Statistics
 CHANNEL 0
 RQ ROW_BUFFER_HIT:     126985  ROW_BUFFER_MISS:     442398
 DBUS_CONGESTED:     311032
 WQ ROW_BUFFER_HIT:      10118  ROW_BUFFER_MISS:     148141  FULL:          0

 AVG_CONGESTED_CYCLE: 13
LOADS RETIRED: 136549171
INSTR RETIRED: 500000000
