
*** ChampSim Multicore Out-of-Order Simulator ***

Warmup Instructions: 100000000
Simulation Instructions: 500000000
Number of CPUs: 1
LLC sets: 2048
LLC ways: 16
Clean RRIP Policies: 1213030112130301 Dirty RRIP Policies: 2213130122131301 PSEL Width: 10 Track Set: 4294967295 PSEL Mask: 1 Demote Mask: 3300001033000010DS Algo: 0Window size: 0
Off-chip DRAM Size: 4096 MB Channels: 1 Width: 64-bit Data Rate: 1600 MT/s

CPU 0 runs /mnt/beegfs/iconst01/spec2017/Parest.trace.gz
NOT SORTED
TRACE STRING: /mnt/beegfs/iconst01/spec2017/Parest.trace.gz
SORTED
TRACE STRING: /mnt/beegfs/iconst01/spec2017/Parest.trace.gz
INITIAL
TRACE STRING: /mnt/beegfs/iconst01/spec2017/Parest.trace.gz

champsim_seed used: 623

CPU 0 L1D next line prefetcher
CPU 0 L2C IP-based stride prefetcher
Initialize DRRIP state
Assign rand_sets[0]: 454  LLC: 2048
rand_sets[0]: 454
Assign rand_sets[1]: 1662  LLC: 2048
rand_sets[1]: 1662
Assign rand_sets[2]: 1921  LLC: 2048
rand_sets[2]: 1921
Assign rand_sets[3]: 1131  LLC: 2048
rand_sets[3]: 1131
Assign rand_sets[4]: 331  LLC: 2048
rand_sets[4]: 331
Assign rand_sets[5]: 1531  LLC: 2048
rand_sets[5]: 1531
Assign rand_sets[6]: 482  LLC: 2048
rand_sets[6]: 482
Assign rand_sets[7]: 1275  LLC: 2048
rand_sets[7]: 1275
Assign rand_sets[8]: 1876  LLC: 2048
rand_sets[8]: 1876
Assign rand_sets[9]: 2038  LLC: 2048
rand_sets[9]: 2038
Assign rand_sets[10]: 701  LLC: 2048
rand_sets[10]: 701
Assign rand_sets[11]: 479  LLC: 2048
rand_sets[11]: 479
Assign rand_sets[12]: 892  LLC: 2048
rand_sets[12]: 892
Assign rand_sets[13]: 1820  LLC: 2048
rand_sets[13]: 1820
Assign rand_sets[14]: 1505  LLC: 2048
rand_sets[14]: 1505
Assign rand_sets[15]: 1159  LLC: 2048
rand_sets[15]: 1159
Assign rand_sets[16]: 513  LLC: 2048
rand_sets[16]: 513
Assign rand_sets[17]: 703  LLC: 2048
rand_sets[17]: 703
Assign rand_sets[18]: 561  LLC: 2048
rand_sets[18]: 561
Assign rand_sets[19]: 990  LLC: 2048
rand_sets[19]: 990
Assign rand_sets[20]: 342  LLC: 2048
rand_sets[20]: 342
Assign rand_sets[21]: 882  LLC: 2048
rand_sets[21]: 882
Assign rand_sets[22]: 15  LLC: 2048
rand_sets[22]: 15
Assign rand_sets[23]: 71  LLC: 2048
rand_sets[23]: 71
Assign rand_sets[24]: 1127  LLC: 2048
rand_sets[24]: 1127
Assign rand_sets[25]: 1382  LLC: 2048
rand_sets[25]: 1382
Assign rand_sets[26]: 647  LLC: 2048
rand_sets[26]: 647
Assign rand_sets[27]: 857  LLC: 2048
rand_sets[27]: 857
Assign rand_sets[28]: 1450  LLC: 2048
rand_sets[28]: 1450
Assign rand_sets[29]: 1160  LLC: 2048
rand_sets[29]: 1160
Assign rand_sets[30]: 1852  LLC: 2048
rand_sets[30]: 1852
Assign rand_sets[31]: 1881  LLC: 2048
rand_sets[31]: 1881
Assign rand_sets[32]: 1770  LLC: 2048
rand_sets[32]: 1770
Assign rand_sets[33]: 1622  LLC: 2048
rand_sets[33]: 1622
Assign rand_sets[34]: 275  LLC: 2048
rand_sets[34]: 275
Assign rand_sets[35]: 635  LLC: 2048
rand_sets[35]: 635
Assign rand_sets[36]: 466  LLC: 2048
rand_sets[36]: 466
Assign rand_sets[37]: 1413  LLC: 2048
rand_sets[37]: 1413
Assign rand_sets[38]: 417  LLC: 2048
rand_sets[38]: 417
Assign rand_sets[39]: 472  LLC: 2048
rand_sets[39]: 472
Assign rand_sets[40]: 1340  LLC: 2048
rand_sets[40]: 1340
Assign rand_sets[41]: 852  LLC: 2048
rand_sets[41]: 852
Assign rand_sets[42]: 1365  LLC: 2048
rand_sets[42]: 1365
Assign rand_sets[43]: 47  LLC: 2048
rand_sets[43]: 47
Assign rand_sets[44]: 823  LLC: 2048
rand_sets[44]: 823
Assign rand_sets[45]: 686  LLC: 2048
rand_sets[45]: 686
Assign rand_sets[46]: 1637  LLC: 2048
rand_sets[46]: 1637
Assign rand_sets[47]: 1115  LLC: 2048
rand_sets[47]: 1115
Assign rand_sets[48]: 986  LLC: 2048
rand_sets[48]: 986
Assign rand_sets[49]: 258  LLC: 2048
rand_sets[49]: 258
Assign rand_sets[50]: 633  LLC: 2048
rand_sets[50]: 633
Assign rand_sets[51]: 920  LLC: 2048
rand_sets[51]: 920
Assign rand_sets[52]: 204  LLC: 2048
rand_sets[52]: 204
Assign rand_sets[53]: 227  LLC: 2048
rand_sets[53]: 227
Assign rand_sets[54]: 1818  LLC: 2048
rand_sets[54]: 1818
Assign rand_sets[55]: 886  LLC: 2048
rand_sets[55]: 886
Assign rand_sets[56]: 1422  LLC: 2048
rand_sets[56]: 1422
Assign rand_sets[57]: 607  LLC: 2048
rand_sets[57]: 607
Assign rand_sets[58]: 217  LLC: 2048
rand_sets[58]: 217
Assign rand_sets[59]: 1945  LLC: 2048
rand_sets[59]: 1945
Assign rand_sets[60]: 143  LLC: 2048
rand_sets[60]: 143
Assign rand_sets[61]: 1311  LLC: 2048
rand_sets[61]: 1311
Assign rand_sets[62]: 319  LLC: 2048
rand_sets[62]: 319
Assign rand_sets[63]: 1846  LLC: 2048
rand_sets[63]: 1846
 CLEAN-RRIP-POLICY-1: 1-2-1-3-0-3-0-1- CLEAN-RRIP-POLICY-2: 1-2-1-3-0-3-0-1-
 DIRTY-RRIP-POLICY-1: 2-2-1-3-1-3-0-1- DIRTY-RRIP-POLICY-2: 2-2-1-3-1-3-0-1-
 PSEL width: 10
Heartbeat CPU 0 instructions: 10000001 cycles: 4387120 heartbeat IPC: 2.2794 cumulative IPC: 2.2794 (Simulation time: 0 hr 0 min 15 sec) 
Heartbeat CPU 0 instructions: 20000000 cycles: 8781247 heartbeat IPC: 2.27576 cumulative IPC: 2.27758 (Simulation time: 0 hr 0 min 30 sec) 
Heartbeat CPU 0 instructions: 30000003 cycles: 13213195 heartbeat IPC: 2.25634 cumulative IPC: 2.27046 (Simulation time: 0 hr 0 min 45 sec) 
Heartbeat CPU 0 instructions: 40000000 cycles: 17643791 heartbeat IPC: 2.25703 cumulative IPC: 2.26709 (Simulation time: 0 hr 0 min 59 sec) 
Heartbeat CPU 0 instructions: 50000000 cycles: 22051985 heartbeat IPC: 2.2685 cumulative IPC: 2.26737 (Simulation time: 0 hr 1 min 14 sec) 
Heartbeat CPU 0 instructions: 60000000 cycles: 26457663 heartbeat IPC: 2.2698 cumulative IPC: 2.26777 (Simulation time: 0 hr 1 min 29 sec) 
Heartbeat CPU 0 instructions: 70000000 cycles: 30858482 heartbeat IPC: 2.2723 cumulative IPC: 2.26842 (Simulation time: 0 hr 1 min 44 sec) 
Heartbeat CPU 0 instructions: 80000000 cycles: 35254042 heartbeat IPC: 2.27502 cumulative IPC: 2.26924 (Simulation time: 0 hr 1 min 59 sec) 
Heartbeat CPU 0 instructions: 90000000 cycles: 39648312 heartbeat IPC: 2.27569 cumulative IPC: 2.26996 (Simulation time: 0 hr 2 min 14 sec) 
Heartbeat CPU 0 instructions: 100000000 cycles: 44045619 heartbeat IPC: 2.27412 cumulative IPC: 2.27037 (Simulation time: 0 hr 2 min 29 sec) 

Warmup complete CPU 0 instructions: 100000002 cycles: 44045629 (Simulation time: 0 hr 2 min 29 sec) 

Heartbeat CPU 0 instructions: 110000000 cycles: 54177806 heartbeat IPC: 0.986954 cumulative IPC: 0.986955 (Simulation time: 0 hr 2 min 49 sec) 
Heartbeat CPU 0 instructions: 120000000 cycles: 63527833 heartbeat IPC: 1.06952 cumulative IPC: 1.02658 (Simulation time: 0 hr 3 min 7 sec) 
Heartbeat CPU 0 instructions: 130000000 cycles: 72889131 heartbeat IPC: 1.06823 cumulative IPC: 1.0401 (Simulation time: 0 hr 3 min 26 sec) 
Heartbeat CPU 0 instructions: 140000000 cycles: 82441855 heartbeat IPC: 1.04682 cumulative IPC: 1.04177 (Simulation time: 0 hr 3 min 46 sec) 
Heartbeat CPU 0 instructions: 150000000 cycles: 93490710 heartbeat IPC: 0.905071 cumulative IPC: 1.01122 (Simulation time: 0 hr 4 min 5 sec) 
Heartbeat CPU 0 instructions: 160000000 cycles: 103619707 heartbeat IPC: 0.987265 cumulative IPC: 1.00715 (Simulation time: 0 hr 4 min 24 sec) 
Heartbeat CPU 0 instructions: 170000003 cycles: 113603026 heartbeat IPC: 1.00167 cumulative IPC: 1.00636 (Simulation time: 0 hr 4 min 43 sec) 
Heartbeat CPU 0 instructions: 180000000 cycles: 123478102 heartbeat IPC: 1.01265 cumulative IPC: 1.00714 (Simulation time: 0 hr 5 min 2 sec) 
Heartbeat CPU 0 instructions: 190000002 cycles: 133485878 heartbeat IPC: 0.999223 cumulative IPC: 1.00626 (Simulation time: 0 hr 5 min 21 sec) 
Heartbeat CPU 0 instructions: 200000000 cycles: 143023518 heartbeat IPC: 1.04848 cumulative IPC: 1.01033 (Simulation time: 0 hr 5 min 40 sec) 
Heartbeat CPU 0 instructions: 210000000 cycles: 152942612 heartbeat IPC: 1.00816 cumulative IPC: 1.01013 (Simulation time: 0 hr 6 min 0 sec) 
Heartbeat CPU 0 instructions: 220000000 cycles: 162299092 heartbeat IPC: 1.06878 cumulative IPC: 1.01477 (Simulation time: 0 hr 6 min 19 sec) 
Heartbeat CPU 0 instructions: 230000001 cycles: 174433391 heartbeat IPC: 0.82411 cumulative IPC: 0.997026 (Simulation time: 0 hr 6 min 39 sec) 
Heartbeat CPU 0 instructions: 240000000 cycles: 184922355 heartbeat IPC: 0.953383 cumulative IPC: 0.993777 (Simulation time: 0 hr 6 min 59 sec) 
Heartbeat CPU 0 instructions: 250000002 cycles: 194898509 heartbeat IPC: 1.00239 cumulative IPC: 0.994346 (Simulation time: 0 hr 7 min 18 sec) 
Heartbeat CPU 0 instructions: 260000000 cycles: 204662406 heartbeat IPC: 1.02418 cumulative IPC: 0.99616 (Simulation time: 0 hr 7 min 37 sec) 
Heartbeat CPU 0 instructions: 270000001 cycles: 214305898 heartbeat IPC: 1.03697 cumulative IPC: 0.998471 (Simulation time: 0 hr 7 min 56 sec) 
Heartbeat CPU 0 instructions: 280000000 cycles: 224241761 heartbeat IPC: 1.00645 cumulative IPC: 0.998912 (Simulation time: 0 hr 8 min 15 sec) 
Heartbeat CPU 0 instructions: 290000002 cycles: 233647358 heartbeat IPC: 1.0632 cumulative IPC: 1.0021 (Simulation time: 0 hr 8 min 34 sec) 
Heartbeat CPU 0 instructions: 300000000 cycles: 243443008 heartbeat IPC: 1.02086 cumulative IPC: 1.00302 (Simulation time: 0 hr 8 min 53 sec) 
Heartbeat CPU 0 instructions: 310000000 cycles: 252812289 heartbeat IPC: 1.06732 cumulative IPC: 1.00591 (Simulation time: 0 hr 9 min 12 sec) 
Heartbeat CPU 0 instructions: 320000000 cycles: 262234944 heartbeat IPC: 1.06127 cumulative IPC: 1.0083 (Simulation time: 0 hr 9 min 31 sec) 
Heartbeat CPU 0 instructions: 330000003 cycles: 271791923 heartbeat IPC: 1.04636 cumulative IPC: 1.0099 (Simulation time: 0 hr 9 min 50 sec) 
Heartbeat CPU 0 instructions: 340000000 cycles: 281891198 heartbeat IPC: 0.99017 cumulative IPC: 1.00906 (Simulation time: 0 hr 10 min 9 sec) 
Heartbeat CPU 0 instructions: 350000000 cycles: 292141317 heartbeat IPC: 0.975598 cumulative IPC: 1.00768 (Simulation time: 0 hr 10 min 28 sec) 
Heartbeat CPU 0 instructions: 360000000 cycles: 301997536 heartbeat IPC: 1.01459 cumulative IPC: 1.00794 (Simulation time: 0 hr 10 min 47 sec) 
Heartbeat CPU 0 instructions: 370000000 cycles: 311673409 heartbeat IPC: 1.0335 cumulative IPC: 1.00886 (Simulation time: 0 hr 11 min 6 sec) 
Heartbeat CPU 0 instructions: 380000000 cycles: 321269422 heartbeat IPC: 1.0421 cumulative IPC: 1.01001 (Simulation time: 0 hr 11 min 25 sec) 
Heartbeat CPU 0 instructions: 390000002 cycles: 330674504 heartbeat IPC: 1.06326 cumulative IPC: 1.01176 (Simulation time: 0 hr 11 min 44 sec) 
Heartbeat CPU 0 instructions: 400000000 cycles: 340467137 heartbeat IPC: 1.02118 cumulative IPC: 1.01207 (Simulation time: 0 hr 12 min 3 sec) 
Heartbeat CPU 0 instructions: 410000000 cycles: 349771693 heartbeat IPC: 1.07474 cumulative IPC: 1.01398 (Simulation time: 0 hr 12 min 22 sec) 
Heartbeat CPU 0 instructions: 420000000 cycles: 360758928 heartbeat IPC: 0.910147 cumulative IPC: 1.01038 (Simulation time: 0 hr 12 min 42 sec) 
Heartbeat CPU 0 instructions: 430000000 cycles: 371549801 heartbeat IPC: 0.926709 cumulative IPC: 1.00762 (Simulation time: 0 hr 13 min 1 sec) 
Heartbeat CPU 0 instructions: 440000000 cycles: 381550503 heartbeat IPC: 0.99993 cumulative IPC: 1.00739 (Simulation time: 0 hr 13 min 20 sec) 
Heartbeat CPU 0 instructions: 450000000 cycles: 391487326 heartbeat IPC: 1.00636 cumulative IPC: 1.00736 (Simulation time: 0 hr 13 min 39 sec) 
Heartbeat CPU 0 instructions: 460000000 cycles: 401396556 heartbeat IPC: 1.00916 cumulative IPC: 1.00741 (Simulation time: 0 hr 13 min 58 sec) 
Heartbeat CPU 0 instructions: 470000001 cycles: 411398083 heartbeat IPC: 0.999847 cumulative IPC: 1.00721 (Simulation time: 0 hr 14 min 17 sec) 
Heartbeat CPU 0 instructions: 480000000 cycles: 420914478 heartbeat IPC: 1.05082 cumulative IPC: 1.00831 (Simulation time: 0 hr 14 min 36 sec) 
Heartbeat CPU 0 instructions: 490000002 cycles: 430857558 heartbeat IPC: 1.00572 cumulative IPC: 1.00824 (Simulation time: 0 hr 14 min 55 sec) 
Heartbeat CPU 0 instructions: 500000000 cycles: 440481202 heartbeat IPC: 1.03911 cumulative IPC: 1.00899 (Simulation time: 0 hr 15 min 15 sec) 
Heartbeat CPU 0 instructions: 510000000 cycles: 449914232 heartbeat IPC: 1.0601 cumulative IPC: 1.01018 (Simulation time: 0 hr 15 min 34 sec) 
Heartbeat CPU 0 instructions: 520000000 cycles: 459565644 heartbeat IPC: 1.03612 cumulative IPC: 1.01078 (Simulation time: 0 hr 15 min 53 sec) 
Heartbeat CPU 0 instructions: 530000001 cycles: 469888666 heartbeat IPC: 0.968709 cumulative IPC: 1.00976 (Simulation time: 0 hr 16 min 12 sec) 
Heartbeat CPU 0 instructions: 540000000 cycles: 480309884 heartbeat IPC: 0.959581 cumulative IPC: 1.00856 (Simulation time: 0 hr 16 min 31 sec) 
Heartbeat CPU 0 instructions: 550000003 cycles: 490360322 heartbeat IPC: 0.994982 cumulative IPC: 1.00826 (Simulation time: 0 hr 16 min 50 sec) 
Heartbeat CPU 0 instructions: 560000000 cycles: 500221364 heartbeat IPC: 1.01409 cumulative IPC: 1.00838 (Simulation time: 0 hr 17 min 9 sec) 
Heartbeat CPU 0 instructions: 570000002 cycles: 509973740 heartbeat IPC: 1.02539 cumulative IPC: 1.00874 (Simulation time: 0 hr 17 min 28 sec) 
Heartbeat CPU 0 instructions: 580000000 cycles: 519557513 heartbeat IPC: 1.04343 cumulative IPC: 1.00944 (Simulation time: 0 hr 17 min 46 sec) 
Heartbeat CPU 0 instructions: 590000002 cycles: 529465850 heartbeat IPC: 1.00925 cumulative IPC: 1.00943 (Simulation time: 0 hr 18 min 5 sec) 
Heartbeat CPU 0 instructions: 600000000 cycles: 538996943 heartbeat IPC: 1.0492 cumulative IPC: 1.0102 (Simulation time: 0 hr 18 min 23 sec) 
Finished CPU 0 instructions: 500000000 cycles: 494951328 cumulative IPC: 1.0102 (Simulation time: 0 hr 18 min 23 sec) 

CPU 0 Branch Prediction Accuracy: 97.8526% MPKI: 2.66709
Number of Branches: 62099103 Number of Mispredictions: 1333545
Number of LOAD Instructions: 210576465
Number of LOAD Instructions (ROI): 210576465
Number of STORE Instructions: 16915507
Number of STORE Instructions (ROI): 16915507
Total Destination Memory Operands: 16918869
Total Destination Memory Operands (ROI): 16918869
Total Source Memory Operands: 210576465
Total Source Memory Operands (ROI): 210576465
Number of DEPENDED LOADS: 344846
Number of DEPENDED LOADS (ROI): 344846
Number of SQ_ADDED: 16918826
Number of SQ_ADDED (ROI): 16918826
Number of LQ_ADDED: 210608126
Number of LQ_ADDED (ROI): 210608126
Number of Instructions read from trace: 600000257

ChampSim completed all CPUs

Region of Interest Statistics

CPU 0 cumulative IPC: 1.0102 instructions: 500000000 cycles: 494951328
ITLB TOTAL     ACCESS:   76310141  HIT:   76310103  MISS:         38
ITLB LOAD      ACCESS:   76310141  HIT:   76310103  MISS:         38
ITLB RFO       ACCESS:          0  HIT:          0  MISS:          0
ITLB PREFETCH  ACCESS:          0  HIT:          0  MISS:          0
ITLB WRITEBACK ACCESS:          0  HIT:          0  MISS:          0
ITLB PREFETCH  REQUESTED:          0  ISSUED:          0  USEFUL:          0  USELESS:          0
ITLB TOTAL MSHR MERGED:         37
ITLB LOAD MSHR MERGED:         37
ITLB RFO MSHR MERGED:          0
ITLB PREFETCH MSHR MERGED:          0
ITLB WRITEBACK MSHR MERGED:          0
ITLB TOTAL ACCESSES:   76310178 HITS:   76310103 MISSES:         75
ITLB LOAD ACCESSES:   76310178 HITS:   76310103 MISSES:         75
ITLB RFO ACCESSES:          0 HITS:          0 MISSES:          0
ITLB PREFETCH ACCESSES:          0 HITS:          0 MISSES:          0
ITLB WRITEBACK ACCESSES:          0 HITS:          0 MISSES:          0
ITLB RQ ACCESS:  500000188
ITLB RQ TO_CACHE:   76310179
ITLB RQ MERGED:  423690009
ITLB RQ FORWARD:          0
ITLB WQ ACCESS:          0
ITLB WQ TO_CACHE:          0
ITLB WQ MERGED:          0
ITLB WQ FORWARD:          0
DTLB TOTAL     ACCESS:  136783198  HIT:  136580404  MISS:     202794
DTLB LOAD      ACCESS:  128720684  HIT:  128520611  MISS:     200073
DTLB RFO       ACCESS:    8062514  HIT:    8059793  MISS:       2721
DTLB PREFETCH  ACCESS:          0  HIT:          0  MISS:          0
DTLB WRITEBACK ACCESS:          0  HIT:          0  MISS:          0
DTLB PREFETCH  REQUESTED:          0  ISSUED:          0  USEFUL:          0  USELESS:          0
DTLB TOTAL MSHR MERGED:     447573
DTLB LOAD MSHR MERGED:     443874
DTLB RFO MSHR MERGED:       3699
DTLB PREFETCH MSHR MERGED:          0
DTLB WRITEBACK MSHR MERGED:          0
DTLB TOTAL ACCESSES:  137230771 HITS:  136580404 MISSES:     650367
DTLB LOAD ACCESSES:  129164558 HITS:  128520611 MISSES:     643947
DTLB RFO ACCESSES:    8066213 HITS:    8059793 MISSES:       6420
DTLB PREFETCH ACCESSES:          0 HITS:          0 MISSES:          0
DTLB WRITEBACK ACCESSES:          0 HITS:          0 MISSES:          0
DTLB RQ ACCESS:  189419719
DTLB RQ TO_CACHE:  137230771
DTLB RQ MERGED:   52188948
DTLB RQ FORWARD:          0
DTLB WQ ACCESS:          0
DTLB WQ TO_CACHE:          0
DTLB WQ MERGED:          0
DTLB WQ FORWARD:          0
L1D TOTAL     ACCESS:  125367595  HIT:  107810712  MISS:   17556883
L1D LOAD      ACCESS:   72310088  HIT:   62037500  MISS:   10272588
L1D RFO       ACCESS:   14014853  HIT:   13862022  MISS:     152831
L1D PREFETCH  ACCESS:   39042654  HIT:   31911190  MISS:    7131464
L1D WRITEBACK ACCESS:          0  HIT:          0  MISS:          0
L1D PREFETCH  REQUESTED:   85518506  ISSUED:   84197405  USEFUL:    5872164  USELESS:    1259311
L1D TOTAL MSHR MERGED:   31546308
L1D LOAD MSHR MERGED:   18372677
L1D RFO MSHR MERGED:     266036
L1D PREFETCH MSHR MERGED:   12907595
L1D WRITEBACK MSHR MERGED:          0
L1D TOTAL ACCESSES:  156914410 HITS:  107811220 MISSES:   49103190
L1D LOAD ACCESSES:   85518517 HITS:   62037511 MISSES:   23481006
L1D RFO ACCESSES:   14280863 HITS:   13862022 MISSES:     418841
L1D PREFETCH ACCESSES:   57115030 HITS:   31911687 MISSES:   25203343
L1D WRITEBACK ACCESSES:          0 HITS:          0 MISSES:          0
L1D RQ ACCESS:  175130697
L1D RQ TO_CACHE:   85518506
L1D RQ MERGED:   89612180
L1D RQ FORWARD:          0
L1D WQ ACCESS:   14289037
L1D WQ TO_CACHE:   14280863
L1D WQ MERGED:       8174
L1D WQ FORWARD:        508
L1I TOTAL     ACCESS:   93338684  HIT:   93336888  MISS:       1796
L1I LOAD      ACCESS:   93338684  HIT:   93336888  MISS:       1796
L1I RFO       ACCESS:          0  HIT:          0  MISS:          0
L1I PREFETCH  ACCESS:          0  HIT:          0  MISS:          0
L1I WRITEBACK ACCESS:          0  HIT:          0  MISS:          0
L1I PREFETCH  REQUESTED:          0  ISSUED:          0  USEFUL:          0  USELESS:          0
L1I TOTAL MSHR MERGED:       2337
L1I LOAD MSHR MERGED:       2337
L1I RFO MSHR MERGED:          0
L1I PREFETCH MSHR MERGED:          0
L1I WRITEBACK MSHR MERGED:          0
L1I TOTAL ACCESSES:   93341021 HITS:   93336888 MISSES:       4133
L1I LOAD ACCESSES:   93341021 HITS:   93336888 MISSES:       4133
L1I RFO ACCESSES:          0 HITS:          0 MISSES:          0
L1I PREFETCH ACCESSES:          0 HITS:          0 MISSES:          0
L1I WRITEBACK ACCESSES:          0 HITS:          0 MISSES:          0
L1I RQ ACCESS:  500000187
L1I RQ TO_CACHE:   93341021
L1I RQ MERGED:  406659166
L1I RQ FORWARD:          0
L1I WQ ACCESS:          0
L1I WQ TO_CACHE:          0
L1I WQ MERGED:          0
L1I WQ FORWARD:          0
L2C TOTAL     ACCESS:   20899240  HIT:    8670184  MISS:   12229056
L2C LOAD      ACCESS:    5110103  HIT:    2144564  MISS:    2965539
L2C RFO       ACCESS:     152805  HIT:       6513  MISS:     146292
L2C PREFETCH  ACCESS:   13863579  HIT:    4746462  MISS:    9117117
L2C WRITEBACK ACCESS:    1772753  HIT:    1772645  MISS:        108
L2C PREFETCH  REQUESTED:    1806397  ISSUED:    1806397  USEFUL:    1067424  USELESS:    8051334
L2C TOTAL MSHR MERGED:      96333
L2C LOAD MSHR MERGED:      22140
L2C RFO MSHR MERGED:          0
L2C PREFETCH MSHR MERGED:      74193
L2C WRITEBACK MSHR MERGED:          0
L2C TOTAL ACCESSES:   21019990 HITS:    8670223 MISSES:   12349767
L2C LOAD ACCESSES:    5110125 HITS:    2144586 MISSES:    2965539
L2C RFO ACCESSES:     152805 HITS:       6513 MISSES:     146292
L2C PREFETCH ACCESSES:   13984307 HITS:    4746479 MISSES:    9237828
L2C WRITEBACK ACCESSES:    1772753 HITS:    1772645 MISSES:        108
L2C RQ ACCESS:    5262930
L2C RQ TO_CACHE:    5262908
L2C RQ MERGED:          0
L2C RQ FORWARD:          0
L2C WQ ACCESS:    1772753
L2C WQ TO_CACHE:    1772753
L2C WQ MERGED:          0
L2C WQ FORWARD:         39
LLC TOTAL     ACCESS:   12533379  HIT:    6651399  MISS:    5881980
LLC LOAD      ACCESS:    2943382  HIT:    2443629  MISS:     499753
LLC RFO       ACCESS:     146292  HIT:      74552  MISS:      71740
LLC PREFETCH  ACCESS:    9157725  HIT:    3902612  MISS:    5255113
LLC WRITEBACK ACCESS:     285980  HIT:     230606  MISS:      55374
LLC PREFETCH  REQUESTED:          0  ISSUED:          0  USEFUL:      14431  USELESS:    5240259
LLC TOTAL MSHR MERGED:       1518
LLC LOAD MSHR MERGED:        368
LLC RFO MSHR MERGED:          0
LLC PREFETCH MSHR MERGED:       1150
LLC WRITEBACK MSHR MERGED:          0
LLC TOTAL ACCESSES:   12534928 HITS:    6651430 MISSES:    5883498
LLC LOAD ACCESSES:    2943399 HITS:    2443646 MISSES:     499753
LLC RFO ACCESSES:     146292 HITS:      74552 MISSES:      71740
LLC PREFETCH ACCESSES:    9159257 HITS:    3902626 MISSES:    5256631
LLC WRITEBACK ACCESSES:     285980 HITS:     230606 MISSES:      55374
LLC 0 RQ ACCESS:    3089691
LLC 0 RQ TO_CACHE:    3089674
LLC 0 RQ MERGED:          0
LLC 0 RQ FORWARD:          0
LLC WQ ACCESS:     285980
LLC WQ TO_CACHE:     285980
LLC WQ MERGED:          0
LLC WQ FORWARD:         31
Major fault: 0 Minor fault: 6524
CPU 0 L1D next line prefetcher final stats
CPU 0 L2C PC-based stride prefetcher final stats
All Misses: 7684387
All Hits: 7374005
SD Algo Stats - Switches: 0 SRR-Repls: 532485 BRR-Repls: 0

DRAM Statistics
 CHANNEL 0
 RQ ROW_BUFFER_HIT:    4985046  ROW_BUFFER_MISS:     833659
 DBUS_CONGESTED:    2047063
 WQ ROW_BUFFER_HIT:      10196  ROW_BUFFER_MISS:      84250  FULL:          0

 AVG_CONGESTED_CYCLE: 12
LOADS RETIRED: 175418235
INSTR RETIRED: 500000000
