
*** ChampSim Multicore Out-of-Order Simulator ***

Warmup Instructions: 100000000
Simulation Instructions: 500000000
Number of CPUs: 1
LLC sets: 2048
LLC ways: 16
Clean RRIP Policies: 122102301221023 Dirty RRIP Policies: 2112201321122013 PSEL Width: 10 Track Set: 4294967295 PSEL Mask: 1 Demote Mask: 3330143333301433DS Algo: 0Window size: 0
Off-chip DRAM Size: 4096 MB Channels: 1 Width: 64-bit Data Rate: 1600 MT/s

CPU 0 runs /mnt/beegfs/iconst01/spec2017/Gcc.trace.gz
NOT SORTED
TRACE STRING: /mnt/beegfs/iconst01/spec2017/Gcc.trace.gz
SORTED
TRACE STRING: /mnt/beegfs/iconst01/spec2017/Gcc.trace.gz
INITIAL
TRACE STRING: /mnt/beegfs/iconst01/spec2017/Gcc.trace.gz

champsim_seed used: 269

CPU 0 L1D next line prefetcher
CPU 0 L2C IP-based stride prefetcher
Initialize DRRIP state
Assign rand_sets[0]: 454  LLC: 2048
rand_sets[0]: 454
Assign rand_sets[1]: 1662  LLC: 2048
rand_sets[1]: 1662
Assign rand_sets[2]: 1921  LLC: 2048
rand_sets[2]: 1921
Assign rand_sets[3]: 1131  LLC: 2048
rand_sets[3]: 1131
Assign rand_sets[4]: 331  LLC: 2048
rand_sets[4]: 331
Assign rand_sets[5]: 1531  LLC: 2048
rand_sets[5]: 1531
Assign rand_sets[6]: 482  LLC: 2048
rand_sets[6]: 482
Assign rand_sets[7]: 1275  LLC: 2048
rand_sets[7]: 1275
Assign rand_sets[8]: 1876  LLC: 2048
rand_sets[8]: 1876
Assign rand_sets[9]: 2038  LLC: 2048
rand_sets[9]: 2038
Assign rand_sets[10]: 701  LLC: 2048
rand_sets[10]: 701
Assign rand_sets[11]: 479  LLC: 2048
rand_sets[11]: 479
Assign rand_sets[12]: 892  LLC: 2048
rand_sets[12]: 892
Assign rand_sets[13]: 1820  LLC: 2048
rand_sets[13]: 1820
Assign rand_sets[14]: 1505  LLC: 2048
rand_sets[14]: 1505
Assign rand_sets[15]: 1159  LLC: 2048
rand_sets[15]: 1159
Assign rand_sets[16]: 513  LLC: 2048
rand_sets[16]: 513
Assign rand_sets[17]: 703  LLC: 2048
rand_sets[17]: 703
Assign rand_sets[18]: 561  LLC: 2048
rand_sets[18]: 561
Assign rand_sets[19]: 990  LLC: 2048
rand_sets[19]: 990
Assign rand_sets[20]: 342  LLC: 2048
rand_sets[20]: 342
Assign rand_sets[21]: 882  LLC: 2048
rand_sets[21]: 882
Assign rand_sets[22]: 15  LLC: 2048
rand_sets[22]: 15
Assign rand_sets[23]: 71  LLC: 2048
rand_sets[23]: 71
Assign rand_sets[24]: 1127  LLC: 2048
rand_sets[24]: 1127
Assign rand_sets[25]: 1382  LLC: 2048
rand_sets[25]: 1382
Assign rand_sets[26]: 647  LLC: 2048
rand_sets[26]: 647
Assign rand_sets[27]: 857  LLC: 2048
rand_sets[27]: 857
Assign rand_sets[28]: 1450  LLC: 2048
rand_sets[28]: 1450
Assign rand_sets[29]: 1160  LLC: 2048
rand_sets[29]: 1160
Assign rand_sets[30]: 1852  LLC: 2048
rand_sets[30]: 1852
Assign rand_sets[31]: 1881  LLC: 2048
rand_sets[31]: 1881
Assign rand_sets[32]: 1770  LLC: 2048
rand_sets[32]: 1770
Assign rand_sets[33]: 1622  LLC: 2048
rand_sets[33]: 1622
Assign rand_sets[34]: 275  LLC: 2048
rand_sets[34]: 275
Assign rand_sets[35]: 635  LLC: 2048
rand_sets[35]: 635
Assign rand_sets[36]: 466  LLC: 2048
rand_sets[36]: 466
Assign rand_sets[37]: 1413  LLC: 2048
rand_sets[37]: 1413
Assign rand_sets[38]: 417  LLC: 2048
rand_sets[38]: 417
Assign rand_sets[39]: 472  LLC: 2048
rand_sets[39]: 472
Assign rand_sets[40]: 1340  LLC: 2048
rand_sets[40]: 1340
Assign rand_sets[41]: 852  LLC: 2048
rand_sets[41]: 852
Assign rand_sets[42]: 1365  LLC: 2048
rand_sets[42]: 1365
Assign rand_sets[43]: 47  LLC: 2048
rand_sets[43]: 47
Assign rand_sets[44]: 823  LLC: 2048
rand_sets[44]: 823
Assign rand_sets[45]: 686  LLC: 2048
rand_sets[45]: 686
Assign rand_sets[46]: 1637  LLC: 2048
rand_sets[46]: 1637
Assign rand_sets[47]: 1115  LLC: 2048
rand_sets[47]: 1115
Assign rand_sets[48]: 986  LLC: 2048
rand_sets[48]: 986
Assign rand_sets[49]: 258  LLC: 2048
rand_sets[49]: 258
Assign rand_sets[50]: 633  LLC: 2048
rand_sets[50]: 633
Assign rand_sets[51]: 920  LLC: 2048
rand_sets[51]: 920
Assign rand_sets[52]: 204  LLC: 2048
rand_sets[52]: 204
Assign rand_sets[53]: 227  LLC: 2048
rand_sets[53]: 227
Assign rand_sets[54]: 1818  LLC: 2048
rand_sets[54]: 1818
Assign rand_sets[55]: 886  LLC: 2048
rand_sets[55]: 886
Assign rand_sets[56]: 1422  LLC: 2048
rand_sets[56]: 1422
Assign rand_sets[57]: 607  LLC: 2048
rand_sets[57]: 607
Assign rand_sets[58]: 217  LLC: 2048
rand_sets[58]: 217
Assign rand_sets[59]: 1945  LLC: 2048
rand_sets[59]: 1945
Assign rand_sets[60]: 143  LLC: 2048
rand_sets[60]: 143
Assign rand_sets[61]: 1311  LLC: 2048
rand_sets[61]: 1311
Assign rand_sets[62]: 319  LLC: 2048
rand_sets[62]: 319
Assign rand_sets[63]: 1846  LLC: 2048
rand_sets[63]: 1846
 CLEAN-RRIP-POLICY-1: 0-1-2-2-1-0-2-3- CLEAN-RRIP-POLICY-2: 0-1-2-2-1-0-2-3-
 DIRTY-RRIP-POLICY-1: 2-1-1-2-2-0-1-3- DIRTY-RRIP-POLICY-2: 2-1-1-2-2-0-1-3-
 PSEL width: 10
Heartbeat CPU 0 instructions: 10000001 cycles: 7320815 heartbeat IPC: 1.36597 cumulative IPC: 1.36597 (Simulation time: 0 hr 0 min 15 sec) 
Heartbeat CPU 0 instructions: 20000000 cycles: 14325319 heartbeat IPC: 1.42765 cumulative IPC: 1.39613 (Simulation time: 0 hr 0 min 30 sec) 
Heartbeat CPU 0 instructions: 30000001 cycles: 21041710 heartbeat IPC: 1.4889 cumulative IPC: 1.42574 (Simulation time: 0 hr 0 min 46 sec) 
Heartbeat CPU 0 instructions: 40000000 cycles: 27503540 heartbeat IPC: 1.54755 cumulative IPC: 1.45436 (Simulation time: 0 hr 1 min 2 sec) 
Heartbeat CPU 0 instructions: 50000001 cycles: 33606360 heartbeat IPC: 1.63859 cumulative IPC: 1.48781 (Simulation time: 0 hr 1 min 17 sec) 
Heartbeat CPU 0 instructions: 60000000 cycles: 40088571 heartbeat IPC: 1.54268 cumulative IPC: 1.49669 (Simulation time: 0 hr 1 min 33 sec) 
Heartbeat CPU 0 instructions: 70000000 cycles: 47131568 heartbeat IPC: 1.41985 cumulative IPC: 1.4852 (Simulation time: 0 hr 1 min 48 sec) 
Heartbeat CPU 0 instructions: 80000000 cycles: 54226720 heartbeat IPC: 1.40941 cumulative IPC: 1.47529 (Simulation time: 0 hr 2 min 3 sec) 
Heartbeat CPU 0 instructions: 90000003 cycles: 61236722 heartbeat IPC: 1.42653 cumulative IPC: 1.46971 (Simulation time: 0 hr 2 min 18 sec) 
Heartbeat CPU 0 instructions: 100000000 cycles: 68409473 heartbeat IPC: 1.39416 cumulative IPC: 1.46179 (Simulation time: 0 hr 2 min 32 sec) 

Warmup complete CPU 0 instructions: 100000004 cycles: 68409474 (Simulation time: 0 hr 2 min 32 sec) 

Heartbeat CPU 0 instructions: 110000003 cycles: 96881572 heartbeat IPC: 0.351221 cumulative IPC: 0.351221 (Simulation time: 0 hr 3 min 1 sec) 
Heartbeat CPU 0 instructions: 120000000 cycles: 124612950 heartbeat IPC: 0.360602 cumulative IPC: 0.35585 (Simulation time: 0 hr 3 min 31 sec) 
Heartbeat CPU 0 instructions: 130000000 cycles: 149913850 heartbeat IPC: 0.395243 cumulative IPC: 0.368078 (Simulation time: 0 hr 3 min 59 sec) 
Heartbeat CPU 0 instructions: 140000000 cycles: 180969376 heartbeat IPC: 0.322004 cumulative IPC: 0.355366 (Simulation time: 0 hr 4 min 28 sec) 
Heartbeat CPU 0 instructions: 150000000 cycles: 211817762 heartbeat IPC: 0.324166 cumulative IPC: 0.348655 (Simulation time: 0 hr 4 min 57 sec) 
Heartbeat CPU 0 instructions: 160000000 cycles: 239582052 heartbeat IPC: 0.360175 cumulative IPC: 0.350523 (Simulation time: 0 hr 5 min 25 sec) 
Heartbeat CPU 0 instructions: 170000001 cycles: 268052645 heartbeat IPC: 0.35124 cumulative IPC: 0.350626 (Simulation time: 0 hr 5 min 55 sec) 
Heartbeat CPU 0 instructions: 180000000 cycles: 296978505 heartbeat IPC: 0.345711 cumulative IPC: 0.350004 (Simulation time: 0 hr 6 min 25 sec) 
Heartbeat CPU 0 instructions: 190000002 cycles: 325610274 heartbeat IPC: 0.349262 cumulative IPC: 0.349921 (Simulation time: 0 hr 6 min 54 sec) 
Heartbeat CPU 0 instructions: 200000000 cycles: 354504666 heartbeat IPC: 0.346088 cumulative IPC: 0.349534 (Simulation time: 0 hr 7 min 23 sec) 
Heartbeat CPU 0 instructions: 210000002 cycles: 382942632 heartbeat IPC: 0.351643 cumulative IPC: 0.349725 (Simulation time: 0 hr 7 min 52 sec) 
Heartbeat CPU 0 instructions: 220000000 cycles: 413470410 heartbeat IPC: 0.32757 cumulative IPC: 0.347765 (Simulation time: 0 hr 8 min 21 sec) 
Heartbeat CPU 0 instructions: 230000000 cycles: 441678346 heartbeat IPC: 0.35451 cumulative IPC: 0.348274 (Simulation time: 0 hr 8 min 49 sec) 
Heartbeat CPU 0 instructions: 240000000 cycles: 468190041 heartbeat IPC: 0.377192 cumulative IPC: 0.350192 (Simulation time: 0 hr 9 min 16 sec) 
Heartbeat CPU 0 instructions: 250000000 cycles: 498581664 heartbeat IPC: 0.329038 cumulative IPC: 0.348698 (Simulation time: 0 hr 9 min 47 sec) 
Heartbeat CPU 0 instructions: 260000000 cycles: 525971158 heartbeat IPC: 0.365103 cumulative IPC: 0.34968 (Simulation time: 0 hr 10 min 15 sec) 
Heartbeat CPU 0 instructions: 270000003 cycles: 554774408 heartbeat IPC: 0.347183 cumulative IPC: 0.349532 (Simulation time: 0 hr 10 min 45 sec) 
Heartbeat CPU 0 instructions: 280000000 cycles: 583352666 heartbeat IPC: 0.349916 cumulative IPC: 0.349553 (Simulation time: 0 hr 11 min 15 sec) 
Heartbeat CPU 0 instructions: 290000000 cycles: 612643204 heartbeat IPC: 0.341407 cumulative IPC: 0.349115 (Simulation time: 0 hr 11 min 45 sec) 
Heartbeat CPU 0 instructions: 300000000 cycles: 643631563 heartbeat IPC: 0.322702 cumulative IPC: 0.347692 (Simulation time: 0 hr 12 min 14 sec) 
Heartbeat CPU 0 instructions: 310000001 cycles: 673789115 heartbeat IPC: 0.331592 cumulative IPC: 0.34689 (Simulation time: 0 hr 12 min 43 sec) 
Heartbeat CPU 0 instructions: 320000000 cycles: 702922427 heartbeat IPC: 0.34325 cumulative IPC: 0.346723 (Simulation time: 0 hr 13 min 11 sec) 
Heartbeat CPU 0 instructions: 330000000 cycles: 732220304 heartbeat IPC: 0.341322 cumulative IPC: 0.346484 (Simulation time: 0 hr 13 min 40 sec) 
Heartbeat CPU 0 instructions: 340000000 cycles: 762262387 heartbeat IPC: 0.332866 cumulative IPC: 0.345895 (Simulation time: 0 hr 14 min 9 sec) 
Heartbeat CPU 0 instructions: 350000003 cycles: 789785903 heartbeat IPC: 0.363326 cumulative IPC: 0.34656 (Simulation time: 0 hr 14 min 37 sec) 
Heartbeat CPU 0 instructions: 360000000 cycles: 820336629 heartbeat IPC: 0.327324 cumulative IPC: 0.345778 (Simulation time: 0 hr 15 min 6 sec) 
Heartbeat CPU 0 instructions: 370000000 cycles: 851011626 heartbeat IPC: 0.325998 cumulative IPC: 0.345003 (Simulation time: 0 hr 15 min 34 sec) 
Heartbeat CPU 0 instructions: 380000000 cycles: 882076914 heartbeat IPC: 0.321903 cumulative IPC: 0.344121 (Simulation time: 0 hr 16 min 3 sec) 
Heartbeat CPU 0 instructions: 390000001 cycles: 912288412 heartbeat IPC: 0.331 cumulative IPC: 0.343651 (Simulation time: 0 hr 16 min 31 sec) 
Heartbeat CPU 0 instructions: 400000000 cycles: 943391572 heartbeat IPC: 0.321511 cumulative IPC: 0.342864 (Simulation time: 0 hr 16 min 59 sec) 
Heartbeat CPU 0 instructions: 410000001 cycles: 973344962 heartbeat IPC: 0.333852 cumulative IPC: 0.342566 (Simulation time: 0 hr 17 min 28 sec) 
Heartbeat CPU 0 instructions: 420000000 cycles: 1003320553 heartbeat IPC: 0.333605 cumulative IPC: 0.342279 (Simulation time: 0 hr 17 min 56 sec) 
Heartbeat CPU 0 instructions: 430000002 cycles: 1033695540 heartbeat IPC: 0.329218 cumulative IPC: 0.341868 (Simulation time: 0 hr 18 min 24 sec) 
Heartbeat CPU 0 instructions: 440000000 cycles: 1065265164 heartbeat IPC: 0.31676 cumulative IPC: 0.341072 (Simulation time: 0 hr 18 min 53 sec) 
Heartbeat CPU 0 instructions: 450000002 cycles: 1096678390 heartbeat IPC: 0.318337 cumulative IPC: 0.340378 (Simulation time: 0 hr 19 min 21 sec) 
Heartbeat CPU 0 instructions: 460000000 cycles: 1126968189 heartbeat IPC: 0.330144 cumulative IPC: 0.340085 (Simulation time: 0 hr 19 min 49 sec) 
Heartbeat CPU 0 instructions: 470000000 cycles: 1156919605 heartbeat IPC: 0.333874 cumulative IPC: 0.339914 (Simulation time: 0 hr 20 min 17 sec) 
Heartbeat CPU 0 instructions: 480000000 cycles: 1187097367 heartbeat IPC: 0.33137 cumulative IPC: 0.339684 (Simulation time: 0 hr 20 min 45 sec) 
Heartbeat CPU 0 instructions: 490000000 cycles: 1217016388 heartbeat IPC: 0.334236 cumulative IPC: 0.339542 (Simulation time: 0 hr 21 min 13 sec) 
Heartbeat CPU 0 instructions: 500000000 cycles: 1247331637 heartbeat IPC: 0.329867 cumulative IPC: 0.339293 (Simulation time: 0 hr 21 min 41 sec) 
Heartbeat CPU 0 instructions: 510000000 cycles: 1282693050 heartbeat IPC: 0.282794 cumulative IPC: 0.337648 (Simulation time: 0 hr 22 min 12 sec) 
Heartbeat CPU 0 instructions: 520000000 cycles: 1310935325 heartbeat IPC: 0.354079 cumulative IPC: 0.338021 (Simulation time: 0 hr 22 min 40 sec) 
Heartbeat CPU 0 instructions: 530000001 cycles: 1341489370 heartbeat IPC: 0.327289 cumulative IPC: 0.337764 (Simulation time: 0 hr 23 min 9 sec) 
Heartbeat CPU 0 instructions: 540000000 cycles: 1370522451 heartbeat IPC: 0.344435 cumulative IPC: 0.337912 (Simulation time: 0 hr 23 min 38 sec) 
Heartbeat CPU 0 instructions: 550000001 cycles: 1400062583 heartbeat IPC: 0.338523 cumulative IPC: 0.337926 (Simulation time: 0 hr 24 min 7 sec) 
Heartbeat CPU 0 instructions: 560000000 cycles: 1425883233 heartbeat IPC: 0.387287 cumulative IPC: 0.338865 (Simulation time: 0 hr 24 min 35 sec) 
Heartbeat CPU 0 instructions: 570000000 cycles: 1456259127 heartbeat IPC: 0.329208 cumulative IPC: 0.338653 (Simulation time: 0 hr 25 min 4 sec) 
Heartbeat CPU 0 instructions: 580000000 cycles: 1485040796 heartbeat IPC: 0.347443 cumulative IPC: 0.338832 (Simulation time: 0 hr 25 min 33 sec) 
Heartbeat CPU 0 instructions: 590000001 cycles: 1510531668 heartbeat IPC: 0.392297 cumulative IPC: 0.339777 (Simulation time: 0 hr 26 min 0 sec) 
Heartbeat CPU 0 instructions: 600000000 cycles: 1538092855 heartbeat IPC: 0.362829 cumulative IPC: 0.340209 (Simulation time: 0 hr 26 min 28 sec) 
Finished CPU 0 instructions: 500000000 cycles: 1469683403 cumulative IPC: 0.340209 (Simulation time: 0 hr 26 min 28 sec) 

CPU 0 Branch Prediction Accuracy: 86.4311% MPKI: 26.2662
Number of Branches: 96788573 Number of Mispredictions: 13133102
Number of LOAD Instructions: 164682285
Number of LOAD Instructions (ROI): 164682285
Number of STORE Instructions: 78194750
Number of STORE Instructions (ROI): 78194750
Total Destination Memory Operands: 83268534
Total Destination Memory Operands (ROI): 83268534
Total Source Memory Operands: 164712438
Total Source Memory Operands (ROI): 164712438
Number of DEPENDED LOADS: 7066290
Number of DEPENDED LOADS (ROI): 7066290
Number of SQ_ADDED: 83268522
Number of SQ_ADDED (ROI): 83268522
Number of LQ_ADDED: 236336643
Number of LQ_ADDED (ROI): 236336643
Number of Instructions read from trace: 600000066

ChampSim completed all CPUs

Region of Interest Statistics

CPU 0 cumulative IPC: 0.340209 instructions: 500000000 cycles: 1469683403
ITLB TOTAL     ACCESS:  100506180  HIT:  100301734  MISS:     204446
ITLB LOAD      ACCESS:  100506180  HIT:  100301734  MISS:     204446
ITLB RFO       ACCESS:          0  HIT:          0  MISS:          0
ITLB PREFETCH  ACCESS:          0  HIT:          0  MISS:          0
ITLB WRITEBACK ACCESS:          0  HIT:          0  MISS:          0
ITLB PREFETCH  REQUESTED:          0  ISSUED:          0  USEFUL:          0  USELESS:          0
ITLB TOTAL MSHR MERGED:     172424
ITLB LOAD MSHR MERGED:     172424
ITLB RFO MSHR MERGED:          0
ITLB PREFETCH MSHR MERGED:          0
ITLB WRITEBACK MSHR MERGED:          0
ITLB TOTAL ACCESSES:  100678604 HITS:  100301734 MISSES:     376870
ITLB LOAD ACCESSES:  100678604 HITS:  100301734 MISSES:     376870
ITLB RFO ACCESSES:          0 HITS:          0 MISSES:          0
ITLB PREFETCH ACCESSES:          0 HITS:          0 MISSES:          0
ITLB WRITEBACK ACCESSES:          0 HITS:          0 MISSES:          0
ITLB RQ ACCESS:  500000057
ITLB RQ TO_CACHE:  100678604
ITLB RQ MERGED:  399321453
ITLB RQ FORWARD:          0
ITLB WQ ACCESS:          0
ITLB WQ TO_CACHE:          0
ITLB WQ MERGED:          0
ITLB WQ FORWARD:          0
DTLB TOTAL     ACCESS:  165343007  HIT:  164708659  MISS:     634348
DTLB LOAD      ACCESS:  106295389  HIT:  105725335  MISS:     570054
DTLB RFO       ACCESS:   59047618  HIT:   58983324  MISS:      64294
DTLB PREFETCH  ACCESS:          0  HIT:          0  MISS:          0
DTLB WRITEBACK ACCESS:          0  HIT:          0  MISS:          0
DTLB PREFETCH  REQUESTED:          0  ISSUED:          0  USEFUL:          0  USELESS:          0
DTLB TOTAL MSHR MERGED:      99598
DTLB LOAD MSHR MERGED:      59295
DTLB RFO MSHR MERGED:      40303
DTLB PREFETCH MSHR MERGED:          0
DTLB WRITEBACK MSHR MERGED:          0
DTLB TOTAL ACCESSES:  165442605 HITS:  164708659 MISSES:     733946
DTLB LOAD ACCESSES:  106354684 HITS:  105725335 MISSES:     629349
DTLB RFO ACCESSES:   59087921 HITS:   58983324 MISSES:     104597
DTLB PREFETCH ACCESSES:          0 HITS:          0 MISSES:          0
DTLB WRITEBACK ACCESSES:          0 HITS:          0 MISSES:          0
DTLB RQ ACCESS:  200304630
DTLB RQ TO_CACHE:  165442605
DTLB RQ MERGED:   34862025
DTLB RQ FORWARD:          0
DTLB WQ ACCESS:          0
DTLB WQ TO_CACHE:          0
DTLB WQ MERGED:          0
DTLB WQ FORWARD:          0
L1D TOTAL     ACCESS:  281847964  HIT:  273938548  MISS:    7909416
L1D LOAD      ACCESS:  110431519  HIT:  107156668  MISS:    3274851
L1D RFO       ACCESS:   67095959  HIT:   66204201  MISS:     891758
L1D PREFETCH  ACCESS:  104320486  HIT:  100577679  MISS:    3742807
L1D WRITEBACK ACCESS:          0  HIT:          0  MISS:          0
L1D PREFETCH  REQUESTED:  110821756  ISSUED:  109122245  USEFUL:    1663617  USELESS:    2079154
L1D TOTAL MSHR MERGED:    2871684
L1D LOAD MSHR MERGED:     484958
L1D RFO MSHR MERGED:    1890905
L1D PREFETCH MSHR MERGED:     495821
L1D WRITEBACK MSHR MERGED:          0
L1D TOTAL ACCESSES:  284747379 HITS:  273966279 MISSES:   10781100
L1D LOAD ACCESSES:  110823423 HITS:  107158335 MISSES:    3665088
L1D RFO ACCESSES:   68973830 HITS:   66204201 MISSES:    2769629
L1D PREFETCH ACCESSES:  104950126 HITS:  100603743 MISSES:    4346383
L1D WRITEBACK ACCESSES:          0 HITS:          0 MISSES:          0
L1D RQ ACCESS:  130752027
L1D RQ TO_CACHE:  110821759
L1D RQ MERGED:   19928601
L1D RQ FORWARD:          0
L1D WQ ACCESS:   69552603
L1D WQ TO_CACHE:   68973831
L1D WQ MERGED:     578772
L1D WQ FORWARD:      27731
L1I TOTAL     ACCESS:  126550255  HIT:  122311710  MISS:    4238545
L1I LOAD      ACCESS:  126550255  HIT:  122311710  MISS:    4238545
L1I RFO       ACCESS:          0  HIT:          0  MISS:          0
L1I PREFETCH  ACCESS:          0  HIT:          0  MISS:          0
L1I WRITEBACK ACCESS:          0  HIT:          0  MISS:          0
L1I PREFETCH  REQUESTED:          0  ISSUED:          0  USEFUL:          0  USELESS:          0
L1I TOTAL MSHR MERGED:    1838269
L1I LOAD MSHR MERGED:    1838269
L1I RFO MSHR MERGED:          0
L1I PREFETCH MSHR MERGED:          0
L1I WRITEBACK MSHR MERGED:          0
L1I TOTAL ACCESSES:  128388527 HITS:  122311710 MISSES:    6076817
L1I LOAD ACCESSES:  128388527 HITS:  122311710 MISSES:    6076817
L1I RFO ACCESSES:          0 HITS:          0 MISSES:          0
L1I PREFETCH ACCESSES:          0 HITS:          0 MISSES:          0
L1I WRITEBACK ACCESSES:          0 HITS:          0 MISSES:          0
L1I RQ ACCESS:  500000057
L1I RQ TO_CACHE:  128388527
L1I RQ MERGED:  371611530
L1I RQ FORWARD:          0
L1I WQ ACCESS:          0
L1I WQ TO_CACHE:          0
L1I WQ MERGED:          0
L1I WQ FORWARD:          0
L2C TOTAL     ACCESS:   14904241  HIT:   11157790  MISS:    3746451
L2C LOAD      ACCESS:    7418471  HIT:    5098273  MISS:    2320198
L2C RFO       ACCESS:     878625  HIT:     409916  MISS:     468709
L2C PREFETCH  ACCESS:    4567876  HIT:    3627594  MISS:     940282
L2C WRITEBACK ACCESS:    2039269  HIT:    2022007  MISS:      17262
L2C PREFETCH  REQUESTED:     842705  ISSUED:     842705  USEFUL:     203057  USELESS:     736931
L2C TOTAL MSHR MERGED:       8068
L2C LOAD MSHR MERGED:       1132
L2C RFO MSHR MERGED:          0
L2C PREFETCH MSHR MERGED:       6936
L2C WRITEBACK MSHR MERGED:          0
L2C TOTAL ACCESSES:   14913227 HITS:   11158235 MISSES:    3754992
L2C LOAD ACCESSES:    7418675 HITS:    5098477 MISSES:    2320198
L2C RFO ACCESSES:     878724 HITS:     410015 MISSES:     468709
L2C PREFETCH ACCESSES:    4576559 HITS:    3627736 MISSES:     948823
L2C WRITEBACK ACCESSES:    2039269 HITS:    2022007 MISSES:      17262
L2C RQ ACCESS:    8297402
L2C RQ TO_CACHE:    8297099
L2C RQ MERGED:          0
L2C RQ FORWARD:          0
L2C WQ ACCESS:    2039269
L2C WQ TO_CACHE:    2039269
L2C WQ MERGED:          0
L2C WQ FORWARD:        445
LLC TOTAL     ACCESS:    4609814  HIT:    3305532  MISS:    1304282
LLC LOAD      ACCESS:    2319052  HIT:    1482241  MISS:     836811
LLC RFO       ACCESS:     468700  HIT:     350268  MISS:     118432
LLC PREFETCH  ACCESS:     941756  HIT:     691749  MISS:     250007
LLC WRITEBACK ACCESS:     880306  HIT:     781274  MISS:      99032
LLC PREFETCH  REQUESTED:          0  ISSUED:          0  USEFUL:      31292  USELESS:     216909
LLC TOTAL MSHR MERGED:        115
LLC LOAD MSHR MERGED:         37
LLC RFO MSHR MERGED:          0
LLC PREFETCH MSHR MERGED:         78
LLC WRITEBACK MSHR MERGED:          0
LLC TOTAL ACCESSES:    4609965 HITS:    3305568 MISSES:    1304397
LLC LOAD ACCESSES:    2319066 HITS:    1482255 MISSES:     836811
LLC RFO ACCESSES:     468709 HITS:     350277 MISSES:     118432
LLC PREFETCH ACCESSES:     941884 HITS:     691762 MISSES:     250122
LLC WRITEBACK ACCESSES:     880306 HITS:     781274 MISSES:      99032
LLC 0 RQ ACCESS:    2787775
LLC 0 RQ TO_CACHE:    2787752
LLC 0 RQ MERGED:          0
LLC 0 RQ FORWARD:          0
LLC WQ ACCESS:     880306
LLC WQ TO_CACHE:     880306
LLC WQ MERGED:          0
LLC WQ FORWARD:         36
Major fault: 0 Minor fault: 12862
CPU 0 L1D next line prefetcher final stats
CPU 0 L2C PC-based stride prefetcher final stats
All Misses: 1508387
All Hits: 3918429
SD Algo Stats - Switches: 0 SRR-Repls: 964289 BRR-Repls: 0

DRAM Statistics
 CHANNEL 0
 RQ ROW_BUFFER_HIT:     367534  ROW_BUFFER_MISS:     834931
 DBUS_CONGESTED:     573230
 WQ ROW_BUFFER_HIT:      26442  ROW_BUFFER_MISS:     286596  FULL:          0

 AVG_CONGESTED_CYCLE: 13
LOADS RETIRED: 136549171
INSTR RETIRED: 500000000
