
*** ChampSim Multicore Out-of-Order Simulator ***

Warmup Instructions: 100000000
Simulation Instructions: 500000000
Number of CPUs: 1
LLC sets: 2048
LLC ways: 16
Clean RRIP Policies: 1223230212232302 Dirty RRIP Policies: 2203130222031302 PSEL Width: 10 Track Set: 4294967295 PSEL Mask: 1 Demote Mask: 3014100030141000DS Algo: 0Window size: 0
Off-chip DRAM Size: 4096 MB Channels: 1 Width: 64-bit Data Rate: 1600 MT/s

CPU 0 runs /mnt/beegfs/iconst01/spec2017/Parest.trace.gz
NOT SORTED
TRACE STRING: /mnt/beegfs/iconst01/spec2017/Parest.trace.gz
SORTED
TRACE STRING: /mnt/beegfs/iconst01/spec2017/Parest.trace.gz
INITIAL
TRACE STRING: /mnt/beegfs/iconst01/spec2017/Parest.trace.gz

champsim_seed used: 623

CPU 0 L1D next line prefetcher
CPU 0 L2C IP-based stride prefetcher
Initialize DRRIP state
Assign rand_sets[0]: 454  LLC: 2048
rand_sets[0]: 454
Assign rand_sets[1]: 1662  LLC: 2048
rand_sets[1]: 1662
Assign rand_sets[2]: 1921  LLC: 2048
rand_sets[2]: 1921
Assign rand_sets[3]: 1131  LLC: 2048
rand_sets[3]: 1131
Assign rand_sets[4]: 331  LLC: 2048
rand_sets[4]: 331
Assign rand_sets[5]: 1531  LLC: 2048
rand_sets[5]: 1531
Assign rand_sets[6]: 482  LLC: 2048
rand_sets[6]: 482
Assign rand_sets[7]: 1275  LLC: 2048
rand_sets[7]: 1275
Assign rand_sets[8]: 1876  LLC: 2048
rand_sets[8]: 1876
Assign rand_sets[9]: 2038  LLC: 2048
rand_sets[9]: 2038
Assign rand_sets[10]: 701  LLC: 2048
rand_sets[10]: 701
Assign rand_sets[11]: 479  LLC: 2048
rand_sets[11]: 479
Assign rand_sets[12]: 892  LLC: 2048
rand_sets[12]: 892
Assign rand_sets[13]: 1820  LLC: 2048
rand_sets[13]: 1820
Assign rand_sets[14]: 1505  LLC: 2048
rand_sets[14]: 1505
Assign rand_sets[15]: 1159  LLC: 2048
rand_sets[15]: 1159
Assign rand_sets[16]: 513  LLC: 2048
rand_sets[16]: 513
Assign rand_sets[17]: 703  LLC: 2048
rand_sets[17]: 703
Assign rand_sets[18]: 561  LLC: 2048
rand_sets[18]: 561
Assign rand_sets[19]: 990  LLC: 2048
rand_sets[19]: 990
Assign rand_sets[20]: 342  LLC: 2048
rand_sets[20]: 342
Assign rand_sets[21]: 882  LLC: 2048
rand_sets[21]: 882
Assign rand_sets[22]: 15  LLC: 2048
rand_sets[22]: 15
Assign rand_sets[23]: 71  LLC: 2048
rand_sets[23]: 71
Assign rand_sets[24]: 1127  LLC: 2048
rand_sets[24]: 1127
Assign rand_sets[25]: 1382  LLC: 2048
rand_sets[25]: 1382
Assign rand_sets[26]: 647  LLC: 2048
rand_sets[26]: 647
Assign rand_sets[27]: 857  LLC: 2048
rand_sets[27]: 857
Assign rand_sets[28]: 1450  LLC: 2048
rand_sets[28]: 1450
Assign rand_sets[29]: 1160  LLC: 2048
rand_sets[29]: 1160
Assign rand_sets[30]: 1852  LLC: 2048
rand_sets[30]: 1852
Assign rand_sets[31]: 1881  LLC: 2048
rand_sets[31]: 1881
Assign rand_sets[32]: 1770  LLC: 2048
rand_sets[32]: 1770
Assign rand_sets[33]: 1622  LLC: 2048
rand_sets[33]: 1622
Assign rand_sets[34]: 275  LLC: 2048
rand_sets[34]: 275
Assign rand_sets[35]: 635  LLC: 2048
rand_sets[35]: 635
Assign rand_sets[36]: 466  LLC: 2048
rand_sets[36]: 466
Assign rand_sets[37]: 1413  LLC: 2048
rand_sets[37]: 1413
Assign rand_sets[38]: 417  LLC: 2048
rand_sets[38]: 417
Assign rand_sets[39]: 472  LLC: 2048
rand_sets[39]: 472
Assign rand_sets[40]: 1340  LLC: 2048
rand_sets[40]: 1340
Assign rand_sets[41]: 852  LLC: 2048
rand_sets[41]: 852
Assign rand_sets[42]: 1365  LLC: 2048
rand_sets[42]: 1365
Assign rand_sets[43]: 47  LLC: 2048
rand_sets[43]: 47
Assign rand_sets[44]: 823  LLC: 2048
rand_sets[44]: 823
Assign rand_sets[45]: 686  LLC: 2048
rand_sets[45]: 686
Assign rand_sets[46]: 1637  LLC: 2048
rand_sets[46]: 1637
Assign rand_sets[47]: 1115  LLC: 2048
rand_sets[47]: 1115
Assign rand_sets[48]: 986  LLC: 2048
rand_sets[48]: 986
Assign rand_sets[49]: 258  LLC: 2048
rand_sets[49]: 258
Assign rand_sets[50]: 633  LLC: 2048
rand_sets[50]: 633
Assign rand_sets[51]: 920  LLC: 2048
rand_sets[51]: 920
Assign rand_sets[52]: 204  LLC: 2048
rand_sets[52]: 204
Assign rand_sets[53]: 227  LLC: 2048
rand_sets[53]: 227
Assign rand_sets[54]: 1818  LLC: 2048
rand_sets[54]: 1818
Assign rand_sets[55]: 886  LLC: 2048
rand_sets[55]: 886
Assign rand_sets[56]: 1422  LLC: 2048
rand_sets[56]: 1422
Assign rand_sets[57]: 607  LLC: 2048
rand_sets[57]: 607
Assign rand_sets[58]: 217  LLC: 2048
rand_sets[58]: 217
Assign rand_sets[59]: 1945  LLC: 2048
rand_sets[59]: 1945
Assign rand_sets[60]: 143  LLC: 2048
rand_sets[60]: 143
Assign rand_sets[61]: 1311  LLC: 2048
rand_sets[61]: 1311
Assign rand_sets[62]: 319  LLC: 2048
rand_sets[62]: 319
Assign rand_sets[63]: 1846  LLC: 2048
rand_sets[63]: 1846
 CLEAN-RRIP-POLICY-1: 1-2-2-3-2-3-0-2- CLEAN-RRIP-POLICY-2: 1-2-2-3-2-3-0-2-
 DIRTY-RRIP-POLICY-1: 2-2-0-3-1-3-0-2- DIRTY-RRIP-POLICY-2: 2-2-0-3-1-3-0-2-
 PSEL width: 10
Heartbeat CPU 0 instructions: 10000001 cycles: 4387136 heartbeat IPC: 2.27939 cumulative IPC: 2.27939 (Simulation time: 0 hr 0 min 15 sec) 
Heartbeat CPU 0 instructions: 20000000 cycles: 8781327 heartbeat IPC: 2.27573 cumulative IPC: 2.27756 (Simulation time: 0 hr 0 min 29 sec) 
Heartbeat CPU 0 instructions: 30000003 cycles: 13213272 heartbeat IPC: 2.25635 cumulative IPC: 2.27044 (Simulation time: 0 hr 0 min 44 sec) 
Heartbeat CPU 0 instructions: 40000000 cycles: 17643858 heartbeat IPC: 2.25704 cumulative IPC: 2.26708 (Simulation time: 0 hr 0 min 58 sec) 
Heartbeat CPU 0 instructions: 50000000 cycles: 22052077 heartbeat IPC: 2.26849 cumulative IPC: 2.26736 (Simulation time: 0 hr 1 min 12 sec) 
Heartbeat CPU 0 instructions: 60000000 cycles: 26457789 heartbeat IPC: 2.26978 cumulative IPC: 2.26776 (Simulation time: 0 hr 1 min 26 sec) 
Heartbeat CPU 0 instructions: 70000000 cycles: 30858667 heartbeat IPC: 2.27227 cumulative IPC: 2.26841 (Simulation time: 0 hr 1 min 41 sec) 
Heartbeat CPU 0 instructions: 80000000 cycles: 35254226 heartbeat IPC: 2.27502 cumulative IPC: 2.26923 (Simulation time: 0 hr 1 min 55 sec) 
Heartbeat CPU 0 instructions: 90000000 cycles: 39648478 heartbeat IPC: 2.2757 cumulative IPC: 2.26995 (Simulation time: 0 hr 2 min 10 sec) 
Heartbeat CPU 0 instructions: 100000000 cycles: 44045771 heartbeat IPC: 2.27413 cumulative IPC: 2.27037 (Simulation time: 0 hr 2 min 25 sec) 

Warmup complete CPU 0 instructions: 100000002 cycles: 44045781 (Simulation time: 0 hr 2 min 25 sec) 

Heartbeat CPU 0 instructions: 110000000 cycles: 54059072 heartbeat IPC: 0.998672 cumulative IPC: 0.998672 (Simulation time: 0 hr 2 min 44 sec) 
Heartbeat CPU 0 instructions: 120000000 cycles: 63050017 heartbeat IPC: 1.11223 cumulative IPC: 1.0524 (Simulation time: 0 hr 3 min 2 sec) 
Heartbeat CPU 0 instructions: 130000000 cycles: 72030839 heartbeat IPC: 1.11348 cumulative IPC: 1.072 (Simulation time: 0 hr 3 min 20 sec) 
Heartbeat CPU 0 instructions: 140000000 cycles: 81098854 heartbeat IPC: 1.10278 cumulative IPC: 1.07953 (Simulation time: 0 hr 3 min 38 sec) 
Heartbeat CPU 0 instructions: 150000000 cycles: 92314752 heartbeat IPC: 0.891592 cumulative IPC: 1.03586 (Simulation time: 0 hr 3 min 57 sec) 
Heartbeat CPU 0 instructions: 160000000 cycles: 102547174 heartbeat IPC: 0.977286 cumulative IPC: 1.02562 (Simulation time: 0 hr 4 min 16 sec) 
Heartbeat CPU 0 instructions: 170000003 cycles: 112473303 heartbeat IPC: 1.00744 cumulative IPC: 1.02298 (Simulation time: 0 hr 4 min 34 sec) 
Heartbeat CPU 0 instructions: 180000000 cycles: 122183823 heartbeat IPC: 1.02981 cumulative IPC: 1.02383 (Simulation time: 0 hr 4 min 52 sec) 
Heartbeat CPU 0 instructions: 190000002 cycles: 131999395 heartbeat IPC: 1.01879 cumulative IPC: 1.02327 (Simulation time: 0 hr 5 min 11 sec) 
Heartbeat CPU 0 instructions: 200000000 cycles: 141217100 heartbeat IPC: 1.08487 cumulative IPC: 1.02911 (Simulation time: 0 hr 5 min 29 sec) 
Heartbeat CPU 0 instructions: 210000000 cycles: 150866496 heartbeat IPC: 1.03633 cumulative IPC: 1.02976 (Simulation time: 0 hr 5 min 47 sec) 
Heartbeat CPU 0 instructions: 220000000 cycles: 159725767 heartbeat IPC: 1.12876 cumulative IPC: 1.03734 (Simulation time: 0 hr 6 min 5 sec) 
Heartbeat CPU 0 instructions: 230000001 cycles: 171810209 heartbeat IPC: 0.82751 cumulative IPC: 1.0175 (Simulation time: 0 hr 6 min 25 sec) 
Heartbeat CPU 0 instructions: 240000000 cycles: 182425193 heartbeat IPC: 0.942064 cumulative IPC: 1.01171 (Simulation time: 0 hr 6 min 44 sec) 
Heartbeat CPU 0 instructions: 250000002 cycles: 192370845 heartbeat IPC: 1.00546 cumulative IPC: 1.01129 (Simulation time: 0 hr 7 min 2 sec) 
Heartbeat CPU 0 instructions: 260000000 cycles: 202018901 heartbeat IPC: 1.03648 cumulative IPC: 1.01283 (Simulation time: 0 hr 7 min 21 sec) 
Heartbeat CPU 0 instructions: 270000001 cycles: 211436089 heartbeat IPC: 1.06189 cumulative IPC: 1.01559 (Simulation time: 0 hr 7 min 39 sec) 
Heartbeat CPU 0 instructions: 280000000 cycles: 221171842 heartbeat IPC: 1.02714 cumulative IPC: 1.01623 (Simulation time: 0 hr 7 min 57 sec) 
Heartbeat CPU 0 instructions: 290000002 cycles: 230180436 heartbeat IPC: 1.11005 cumulative IPC: 1.02077 (Simulation time: 0 hr 8 min 15 sec) 
Heartbeat CPU 0 instructions: 300000000 cycles: 239684330 heartbeat IPC: 1.0522 cumulative IPC: 1.02229 (Simulation time: 0 hr 8 min 34 sec) 
Heartbeat CPU 0 instructions: 310000000 cycles: 248552838 heartbeat IPC: 1.12759 cumulative IPC: 1.02686 (Simulation time: 0 hr 8 min 52 sec) 
Heartbeat CPU 0 instructions: 320000000 cycles: 257518742 heartbeat IPC: 1.11534 cumulative IPC: 1.03058 (Simulation time: 0 hr 9 min 10 sec) 
Heartbeat CPU 0 instructions: 330000003 cycles: 266665367 heartbeat IPC: 1.0933 cumulative IPC: 1.03315 (Simulation time: 0 hr 9 min 28 sec) 
Heartbeat CPU 0 instructions: 340000000 cycles: 276551179 heartbeat IPC: 1.01155 cumulative IPC: 1.03223 (Simulation time: 0 hr 9 min 47 sec) 
Heartbeat CPU 0 instructions: 350000000 cycles: 287082308 heartbeat IPC: 0.949566 cumulative IPC: 1.02865 (Simulation time: 0 hr 10 min 5 sec) 
Heartbeat CPU 0 instructions: 360000000 cycles: 296981420 heartbeat IPC: 1.01019 cumulative IPC: 1.02793 (Simulation time: 0 hr 10 min 23 sec) 
Heartbeat CPU 0 instructions: 370000000 cycles: 306550143 heartbeat IPC: 1.04507 cumulative IPC: 1.02855 (Simulation time: 0 hr 10 min 42 sec) 
Heartbeat CPU 0 instructions: 380000000 cycles: 315902379 heartbeat IPC: 1.06926 cumulative IPC: 1.02995 (Simulation time: 0 hr 11 min 0 sec) 
Heartbeat CPU 0 instructions: 390000002 cycles: 324996606 heartbeat IPC: 1.0996 cumulative IPC: 1.03221 (Simulation time: 0 hr 11 min 18 sec) 
Heartbeat CPU 0 instructions: 400000000 cycles: 334518812 heartbeat IPC: 1.05018 cumulative IPC: 1.0328 (Simulation time: 0 hr 11 min 36 sec) 
Heartbeat CPU 0 instructions: 410000000 cycles: 343346085 heartbeat IPC: 1.13285 cumulative IPC: 1.03575 (Simulation time: 0 hr 11 min 54 sec) 
Heartbeat CPU 0 instructions: 420000000 cycles: 354077762 heartbeat IPC: 0.931821 cumulative IPC: 1.03215 (Simulation time: 0 hr 12 min 13 sec) 
Heartbeat CPU 0 instructions: 430000000 cycles: 365193444 heartbeat IPC: 0.89963 cumulative IPC: 1.02756 (Simulation time: 0 hr 12 min 32 sec) 
Heartbeat CPU 0 instructions: 440000000 cycles: 375182280 heartbeat IPC: 1.00112 cumulative IPC: 1.02677 (Simulation time: 0 hr 12 min 50 sec) 
Heartbeat CPU 0 instructions: 450000000 cycles: 385006263 heartbeat IPC: 1.01792 cumulative IPC: 1.02651 (Simulation time: 0 hr 13 min 8 sec) 
Heartbeat CPU 0 instructions: 460000000 cycles: 394715199 heartbeat IPC: 1.02998 cumulative IPC: 1.02661 (Simulation time: 0 hr 13 min 27 sec) 
Heartbeat CPU 0 instructions: 470000001 cycles: 404490243 heartbeat IPC: 1.02301 cumulative IPC: 1.02651 (Simulation time: 0 hr 13 min 45 sec) 
Heartbeat CPU 0 instructions: 480000000 cycles: 413620151 heartbeat IPC: 1.0953 cumulative IPC: 1.02821 (Simulation time: 0 hr 14 min 3 sec) 
Heartbeat CPU 0 instructions: 490000002 cycles: 423264257 heartbeat IPC: 1.0369 cumulative IPC: 1.02843 (Simulation time: 0 hr 14 min 21 sec) 
Heartbeat CPU 0 instructions: 500000000 cycles: 432439409 heartbeat IPC: 1.0899 cumulative IPC: 1.02988 (Simulation time: 0 hr 14 min 39 sec) 
Heartbeat CPU 0 instructions: 510000000 cycles: 441373492 heartbeat IPC: 1.11931 cumulative IPC: 1.03189 (Simulation time: 0 hr 14 min 57 sec) 
Heartbeat CPU 0 instructions: 520000000 cycles: 450601233 heartbeat IPC: 1.08369 cumulative IPC: 1.03307 (Simulation time: 0 hr 15 min 15 sec) 
Heartbeat CPU 0 instructions: 530000001 cycles: 460718611 heartbeat IPC: 0.988398 cumulative IPC: 1.03198 (Simulation time: 0 hr 15 min 34 sec) 
Heartbeat CPU 0 instructions: 540000000 cycles: 471400817 heartbeat IPC: 0.936136 cumulative IPC: 1.02959 (Simulation time: 0 hr 15 min 52 sec) 
Heartbeat CPU 0 instructions: 550000003 cycles: 481491312 heartbeat IPC: 0.991032 cumulative IPC: 1.0287 (Simulation time: 0 hr 16 min 10 sec) 
Heartbeat CPU 0 instructions: 560000000 cycles: 491257081 heartbeat IPC: 1.02398 cumulative IPC: 1.0286 (Simulation time: 0 hr 16 min 29 sec) 
Heartbeat CPU 0 instructions: 570000002 cycles: 500779983 heartbeat IPC: 1.0501 cumulative IPC: 1.02904 (Simulation time: 0 hr 16 min 47 sec) 
Heartbeat CPU 0 instructions: 580000000 cycles: 510061699 heartbeat IPC: 1.07739 cumulative IPC: 1.03001 (Simulation time: 0 hr 17 min 5 sec) 
Heartbeat CPU 0 instructions: 590000002 cycles: 519692349 heartbeat IPC: 1.03835 cumulative IPC: 1.03018 (Simulation time: 0 hr 17 min 23 sec) 
Heartbeat CPU 0 instructions: 600000000 cycles: 528808136 heartbeat IPC: 1.097 cumulative IPC: 1.03143 (Simulation time: 0 hr 17 min 41 sec) 
Finished CPU 0 instructions: 500000000 cycles: 484762369 cumulative IPC: 1.03143 (Simulation time: 0 hr 17 min 41 sec) 

CPU 0 Branch Prediction Accuracy: 97.8526% MPKI: 2.66709
Number of Branches: 62099103 Number of Mispredictions: 1333545
Number of LOAD Instructions: 210576465
Number of LOAD Instructions (ROI): 210576465
Number of STORE Instructions: 16915507
Number of STORE Instructions (ROI): 16915507
Total Destination Memory Operands: 16918869
Total Destination Memory Operands (ROI): 16918869
Total Source Memory Operands: 210576465
Total Source Memory Operands (ROI): 210576465
Number of DEPENDED LOADS: 343489
Number of DEPENDED LOADS (ROI): 343489
Number of SQ_ADDED: 16918826
Number of SQ_ADDED (ROI): 16918826
Number of LQ_ADDED: 210602752
Number of LQ_ADDED (ROI): 210602752
Number of Instructions read from trace: 600000257

ChampSim completed all CPUs

Region of Interest Statistics

CPU 0 cumulative IPC: 1.03143 instructions: 500000000 cycles: 484762369
ITLB TOTAL     ACCESS:   76374354  HIT:   76374316  MISS:         38
ITLB LOAD      ACCESS:   76374354  HIT:   76374316  MISS:         38
ITLB RFO       ACCESS:          0  HIT:          0  MISS:          0
ITLB PREFETCH  ACCESS:          0  HIT:          0  MISS:          0
ITLB WRITEBACK ACCESS:          0  HIT:          0  MISS:          0
ITLB PREFETCH  REQUESTED:          0  ISSUED:          0  USEFUL:          0  USELESS:          0
ITLB TOTAL MSHR MERGED:         37
ITLB LOAD MSHR MERGED:         37
ITLB RFO MSHR MERGED:          0
ITLB PREFETCH MSHR MERGED:          0
ITLB WRITEBACK MSHR MERGED:          0
ITLB TOTAL ACCESSES:   76374391 HITS:   76374316 MISSES:         75
ITLB LOAD ACCESSES:   76374391 HITS:   76374316 MISSES:         75
ITLB RFO ACCESSES:          0 HITS:          0 MISSES:          0
ITLB PREFETCH ACCESSES:          0 HITS:          0 MISSES:          0
ITLB WRITEBACK ACCESSES:          0 HITS:          0 MISSES:          0
ITLB RQ ACCESS:  500000188
ITLB RQ TO_CACHE:   76374392
ITLB RQ MERGED:  423625796
ITLB RQ FORWARD:          0
ITLB WQ ACCESS:          0
ITLB WQ TO_CACHE:          0
ITLB WQ MERGED:          0
ITLB WQ FORWARD:          0
DTLB TOTAL     ACCESS:  136723264  HIT:  136520469  MISS:     202795
DTLB LOAD      ACCESS:  128661338  HIT:  128461264  MISS:     200074
DTLB RFO       ACCESS:    8061926  HIT:    8059205  MISS:       2721
DTLB PREFETCH  ACCESS:          0  HIT:          0  MISS:          0
DTLB WRITEBACK ACCESS:          0  HIT:          0  MISS:          0
DTLB PREFETCH  REQUESTED:          0  ISSUED:          0  USEFUL:          0  USELESS:          0
DTLB TOTAL MSHR MERGED:     447245
DTLB LOAD MSHR MERGED:     443413
DTLB RFO MSHR MERGED:       3832
DTLB PREFETCH MSHR MERGED:          0
DTLB WRITEBACK MSHR MERGED:          0
DTLB TOTAL ACCESSES:  137170509 HITS:  136520469 MISSES:     650040
DTLB LOAD ACCESSES:  129104751 HITS:  128461264 MISSES:     643487
DTLB RFO ACCESSES:    8065758 HITS:    8059205 MISSES:       6553
DTLB PREFETCH ACCESSES:          0 HITS:          0 MISSES:          0
DTLB WRITEBACK ACCESSES:          0 HITS:          0 MISSES:          0
DTLB RQ ACCESS:  189421068
DTLB RQ TO_CACHE:  137170509
DTLB RQ MERGED:   52250559
DTLB RQ FORWARD:          0
DTLB WQ ACCESS:          0
DTLB WQ TO_CACHE:          0
DTLB WQ MERGED:          0
DTLB WQ FORWARD:          0
L1D TOTAL     ACCESS:  125209350  HIT:  107652258  MISS:   17557092
L1D LOAD      ACCESS:   72295826  HIT:   62014806  MISS:   10281020
L1D RFO       ACCESS:   14014579  HIT:   13861739  MISS:     152840
L1D PREFETCH  ACCESS:   38898945  HIT:   31775713  MISS:    7123232
L1D WRITEBACK ACCESS:          0  HIT:          0  MISS:          0
L1D PREFETCH  REQUESTED:   85510910  ISSUED:   84189178  USEFUL:    5863763  USELESS:    1259480
L1D TOTAL MSHR MERGED:   31719394
L1D LOAD MSHR MERGED:   18388749
L1D RFO MSHR MERGED:     265333
L1D PREFETCH MSHR MERGED:   13065312
L1D WRITEBACK MSHR MERGED:          0
L1D TOTAL ACCESSES:  156929232 HITS:  107652747 MISSES:   49276485
L1D LOAD ACCESSES:   85510914 HITS:   62014810 MISSES:   23496104
L1D RFO ACCESSES:   14279879 HITS:   13861739 MISSES:     418140
L1D PREFETCH ACCESSES:   57138439 HITS:   31776198 MISSES:   25362241
L1D WRITEBACK ACCESSES:          0 HITS:          0 MISSES:          0
L1D RQ ACCESS:  175132046
L1D RQ TO_CACHE:   85510910
L1D RQ MERGED:   89621132
L1D RQ FORWARD:          0
L1D WQ ACCESS:   14289037
L1D WQ TO_CACHE:   14279879
L1D WQ MERGED:       9158
L1D WQ FORWARD:        489
L1I TOTAL     ACCESS:   93402907  HIT:   93401111  MISS:       1796
L1I LOAD      ACCESS:   93402907  HIT:   93401111  MISS:       1796
L1I RFO       ACCESS:          0  HIT:          0  MISS:          0
L1I PREFETCH  ACCESS:          0  HIT:          0  MISS:          0
L1I WRITEBACK ACCESS:          0  HIT:          0  MISS:          0
L1I PREFETCH  REQUESTED:          0  ISSUED:          0  USEFUL:          0  USELESS:          0
L1I TOTAL MSHR MERGED:       2336
L1I LOAD MSHR MERGED:       2336
L1I RFO MSHR MERGED:          0
L1I PREFETCH MSHR MERGED:          0
L1I WRITEBACK MSHR MERGED:          0
L1I TOTAL ACCESSES:   93405243 HITS:   93401111 MISSES:       4132
L1I LOAD ACCESSES:   93405243 HITS:   93401111 MISSES:       4132
L1I RFO ACCESSES:          0 HITS:          0 MISSES:          0
L1I PREFETCH ACCESSES:          0 HITS:          0 MISSES:          0
L1I WRITEBACK ACCESSES:          0 HITS:          0 MISSES:          0
L1I RQ ACCESS:  500000187
L1I RQ TO_CACHE:   93405243
L1I RQ MERGED:  406594944
L1I RQ FORWARD:          0
L1I WQ ACCESS:          0
L1I WQ TO_CACHE:          0
L1I WQ MERGED:          0
L1I WQ FORWARD:          0
L2C TOTAL     ACCESS:   20897408  HIT:    8668679  MISS:   12228729
L2C LOAD      ACCESS:    5109129  HIT:    2141858  MISS:    2967271
L2C RFO       ACCESS:     152806  HIT:       6512  MISS:     146294
L2C PREFETCH  ACCESS:   13862720  HIT:    4747662  MISS:    9115058
L2C WRITEBACK ACCESS:    1772753  HIT:    1772647  MISS:        106
L2C PREFETCH  REQUESTED:    1805160  ISSUED:    1805160  USEFUL:    1063080  USELESS:    8053645
L2C TOTAL MSHR MERGED:      97397
L2C LOAD MSHR MERGED:      23062
L2C RFO MSHR MERGED:          0
L2C PREFETCH MSHR MERGED:      74335
L2C WRITEBACK MSHR MERGED:          0
L2C TOTAL ACCESSES:   21017640 HITS:    8668716 MISSES:   12348924
L2C LOAD ACCESSES:    5109151 HITS:    2141880 MISSES:    2967271
L2C RFO ACCESSES:     152807 HITS:       6513 MISSES:     146294
L2C PREFETCH ACCESSES:   13982929 HITS:    4747676 MISSES:    9235253
L2C WRITEBACK ACCESSES:    1772753 HITS:    1772647 MISSES:        106
L2C RQ ACCESS:    5261958
L2C RQ TO_CACHE:    5261935
L2C RQ MERGED:          0
L2C RQ FORWARD:          0
L2C WQ ACCESS:    1772753
L2C WQ TO_CACHE:    1772753
L2C WQ MERGED:          0
L2C WQ FORWARD:         37
LLC TOTAL     ACCESS:   12532189  HIT:    6676422  MISS:    5855767
LLC LOAD      ACCESS:    2944189  HIT:    2418262  MISS:     525927
LLC RFO       ACCESS:     146294  HIT:      94084  MISS:      52210
LLC PREFETCH  ACCESS:    9155729  HIT:    3915922  MISS:    5239807
LLC WRITEBACK ACCESS:     285977  HIT:     248154  MISS:      37823
LLC PREFETCH  REQUESTED:          0  ISSUED:          0  USEFUL:       3588  USELESS:    5236346
LLC TOTAL MSHR MERGED:        930
LLC LOAD MSHR MERGED:        161
LLC RFO MSHR MERGED:          0
LLC PREFETCH MSHR MERGED:        769
LLC WRITEBACK MSHR MERGED:          0
LLC TOTAL ACCESSES:   12533157 HITS:    6676460 MISSES:    5856697
LLC LOAD ACCESSES:    2944209 HITS:    2418282 MISSES:     525927
LLC RFO ACCESSES:     146294 HITS:      94084 MISSES:      52210
LLC PREFETCH ACCESSES:    9156677 HITS:    3915940 MISSES:    5240737
LLC WRITEBACK ACCESSES:     285977 HITS:     248154 MISSES:      37823
LLC 0 RQ ACCESS:    3090503
LLC 0 RQ TO_CACHE:    3090483
LLC 0 RQ MERGED:          0
LLC 0 RQ FORWARD:          0
LLC WQ ACCESS:     285977
LLC WQ TO_CACHE:     285977
LLC WQ MERGED:          0
LLC WQ FORWARD:         38
Major fault: 0 Minor fault: 6524
CPU 0 L1D next line prefetcher final stats
CPU 0 L2C PC-based stride prefetcher final stats
All Misses: 7655802
All Hits: 7401401
SD Algo Stats - Switches: 0 SRR-Repls: 555360 BRR-Repls: 0

DRAM Statistics
 CHANNEL 0
 RQ ROW_BUFFER_HIT:    5046777  ROW_BUFFER_MISS:     767159
 DBUS_CONGESTED:    2128731
 WQ ROW_BUFFER_HIT:       5499  ROW_BUFFER_MISS:      56016  FULL:          0

 AVG_CONGESTED_CYCLE: 12
LOADS RETIRED: 175418235
INSTR RETIRED: 500000000
