
*** ChampSim Multicore Out-of-Order Simulator ***

Warmup Instructions: 100000000
Simulation Instructions: 500000000
Number of CPUs: 1
LLC sets: 2048
LLC ways: 16
Clean RRIP Policies: 2213230222132302 Dirty RRIP Policies: 2203130222031302 PSEL Width: 10 Track Set: 4294967295 PSEL Mask: 1 Demote Mask: 4043100040431000DS Algo: 0Window size: 0
Off-chip DRAM Size: 4096 MB Channels: 1 Width: 64-bit Data Rate: 1600 MT/s

CPU 0 runs /mnt/beegfs/iconst01/spec2017/Xz.trace.gz
NOT SORTED
TRACE STRING: /mnt/beegfs/iconst01/spec2017/Xz.trace.gz
SORTED
TRACE STRING: /mnt/beegfs/iconst01/spec2017/Xz.trace.gz
INITIAL
TRACE STRING: /mnt/beegfs/iconst01/spec2017/Xz.trace.gz

champsim_seed used: 210

CPU 0 L1D next line prefetcher
CPU 0 L2C IP-based stride prefetcher
Initialize DRRIP state
Assign rand_sets[0]: 454  LLC: 2048
rand_sets[0]: 454
Assign rand_sets[1]: 1662  LLC: 2048
rand_sets[1]: 1662
Assign rand_sets[2]: 1921  LLC: 2048
rand_sets[2]: 1921
Assign rand_sets[3]: 1131  LLC: 2048
rand_sets[3]: 1131
Assign rand_sets[4]: 331  LLC: 2048
rand_sets[4]: 331
Assign rand_sets[5]: 1531  LLC: 2048
rand_sets[5]: 1531
Assign rand_sets[6]: 482  LLC: 2048
rand_sets[6]: 482
Assign rand_sets[7]: 1275  LLC: 2048
rand_sets[7]: 1275
Assign rand_sets[8]: 1876  LLC: 2048
rand_sets[8]: 1876
Assign rand_sets[9]: 2038  LLC: 2048
rand_sets[9]: 2038
Assign rand_sets[10]: 701  LLC: 2048
rand_sets[10]: 701
Assign rand_sets[11]: 479  LLC: 2048
rand_sets[11]: 479
Assign rand_sets[12]: 892  LLC: 2048
rand_sets[12]: 892
Assign rand_sets[13]: 1820  LLC: 2048
rand_sets[13]: 1820
Assign rand_sets[14]: 1505  LLC: 2048
rand_sets[14]: 1505
Assign rand_sets[15]: 1159  LLC: 2048
rand_sets[15]: 1159
Assign rand_sets[16]: 513  LLC: 2048
rand_sets[16]: 513
Assign rand_sets[17]: 703  LLC: 2048
rand_sets[17]: 703
Assign rand_sets[18]: 561  LLC: 2048
rand_sets[18]: 561
Assign rand_sets[19]: 990  LLC: 2048
rand_sets[19]: 990
Assign rand_sets[20]: 342  LLC: 2048
rand_sets[20]: 342
Assign rand_sets[21]: 882  LLC: 2048
rand_sets[21]: 882
Assign rand_sets[22]: 15  LLC: 2048
rand_sets[22]: 15
Assign rand_sets[23]: 71  LLC: 2048
rand_sets[23]: 71
Assign rand_sets[24]: 1127  LLC: 2048
rand_sets[24]: 1127
Assign rand_sets[25]: 1382  LLC: 2048
rand_sets[25]: 1382
Assign rand_sets[26]: 647  LLC: 2048
rand_sets[26]: 647
Assign rand_sets[27]: 857  LLC: 2048
rand_sets[27]: 857
Assign rand_sets[28]: 1450  LLC: 2048
rand_sets[28]: 1450
Assign rand_sets[29]: 1160  LLC: 2048
rand_sets[29]: 1160
Assign rand_sets[30]: 1852  LLC: 2048
rand_sets[30]: 1852
Assign rand_sets[31]: 1881  LLC: 2048
rand_sets[31]: 1881
Assign rand_sets[32]: 1770  LLC: 2048
rand_sets[32]: 1770
Assign rand_sets[33]: 1622  LLC: 2048
rand_sets[33]: 1622
Assign rand_sets[34]: 275  LLC: 2048
rand_sets[34]: 275
Assign rand_sets[35]: 635  LLC: 2048
rand_sets[35]: 635
Assign rand_sets[36]: 466  LLC: 2048
rand_sets[36]: 466
Assign rand_sets[37]: 1413  LLC: 2048
rand_sets[37]: 1413
Assign rand_sets[38]: 417  LLC: 2048
rand_sets[38]: 417
Assign rand_sets[39]: 472  LLC: 2048
rand_sets[39]: 472
Assign rand_sets[40]: 1340  LLC: 2048
rand_sets[40]: 1340
Assign rand_sets[41]: 852  LLC: 2048
rand_sets[41]: 852
Assign rand_sets[42]: 1365  LLC: 2048
rand_sets[42]: 1365
Assign rand_sets[43]: 47  LLC: 2048
rand_sets[43]: 47
Assign rand_sets[44]: 823  LLC: 2048
rand_sets[44]: 823
Assign rand_sets[45]: 686  LLC: 2048
rand_sets[45]: 686
Assign rand_sets[46]: 1637  LLC: 2048
rand_sets[46]: 1637
Assign rand_sets[47]: 1115  LLC: 2048
rand_sets[47]: 1115
Assign rand_sets[48]: 986  LLC: 2048
rand_sets[48]: 986
Assign rand_sets[49]: 258  LLC: 2048
rand_sets[49]: 258
Assign rand_sets[50]: 633  LLC: 2048
rand_sets[50]: 633
Assign rand_sets[51]: 920  LLC: 2048
rand_sets[51]: 920
Assign rand_sets[52]: 204  LLC: 2048
rand_sets[52]: 204
Assign rand_sets[53]: 227  LLC: 2048
rand_sets[53]: 227
Assign rand_sets[54]: 1818  LLC: 2048
rand_sets[54]: 1818
Assign rand_sets[55]: 886  LLC: 2048
rand_sets[55]: 886
Assign rand_sets[56]: 1422  LLC: 2048
rand_sets[56]: 1422
Assign rand_sets[57]: 607  LLC: 2048
rand_sets[57]: 607
Assign rand_sets[58]: 217  LLC: 2048
rand_sets[58]: 217
Assign rand_sets[59]: 1945  LLC: 2048
rand_sets[59]: 1945
Assign rand_sets[60]: 143  LLC: 2048
rand_sets[60]: 143
Assign rand_sets[61]: 1311  LLC: 2048
rand_sets[61]: 1311
Assign rand_sets[62]: 319  LLC: 2048
rand_sets[62]: 319
Assign rand_sets[63]: 1846  LLC: 2048
rand_sets[63]: 1846
 CLEAN-RRIP-POLICY-1: 2-2-1-3-2-3-0-2- CLEAN-RRIP-POLICY-2: 2-2-1-3-2-3-0-2-
 DIRTY-RRIP-POLICY-1: 2-2-0-3-1-3-0-2- DIRTY-RRIP-POLICY-2: 2-2-0-3-1-3-0-2-
 PSEL width: 10
Heartbeat CPU 0 instructions: 10000000 cycles: 4305270 heartbeat IPC: 2.32273 cumulative IPC: 2.32273 (Simulation time: 0 hr 0 min 12 sec) 
Heartbeat CPU 0 instructions: 20000000 cycles: 8617101 heartbeat IPC: 2.3192 cumulative IPC: 2.32097 (Simulation time: 0 hr 0 min 24 sec) 
Heartbeat CPU 0 instructions: 30000003 cycles: 13160978 heartbeat IPC: 2.20076 cumulative IPC: 2.27947 (Simulation time: 0 hr 0 min 36 sec) 
Heartbeat CPU 0 instructions: 40000000 cycles: 17515456 heartbeat IPC: 2.29649 cumulative IPC: 2.2837 (Simulation time: 0 hr 0 min 48 sec) 
Heartbeat CPU 0 instructions: 50000001 cycles: 21878284 heartbeat IPC: 2.29209 cumulative IPC: 2.28537 (Simulation time: 0 hr 1 min 0 sec) 
Heartbeat CPU 0 instructions: 60000000 cycles: 26178491 heartbeat IPC: 2.32547 cumulative IPC: 2.29196 (Simulation time: 0 hr 1 min 12 sec) 
Heartbeat CPU 0 instructions: 70000001 cycles: 30244378 heartbeat IPC: 2.45949 cumulative IPC: 2.31448 (Simulation time: 0 hr 1 min 23 sec) 
Heartbeat CPU 0 instructions: 80000000 cycles: 34523171 heartbeat IPC: 2.33711 cumulative IPC: 2.31728 (Simulation time: 0 hr 1 min 34 sec) 
Heartbeat CPU 0 instructions: 90000001 cycles: 38739808 heartbeat IPC: 2.37156 cumulative IPC: 2.32319 (Simulation time: 0 hr 1 min 46 sec) 
Heartbeat CPU 0 instructions: 100000000 cycles: 42980207 heartbeat IPC: 2.35827 cumulative IPC: 2.32665 (Simulation time: 0 hr 1 min 57 sec) 

Warmup complete CPU 0 instructions: 100000001 cycles: 42980208 (Simulation time: 0 hr 1 min 57 sec) 

Heartbeat CPU 0 instructions: 110000000 cycles: 53114044 heartbeat IPC: 0.986793 cumulative IPC: 0.986793 (Simulation time: 0 hr 2 min 14 sec) 
Heartbeat CPU 0 instructions: 120000000 cycles: 63748475 heartbeat IPC: 0.940342 cumulative IPC: 0.963008 (Simulation time: 0 hr 2 min 32 sec) 
Heartbeat CPU 0 instructions: 130000001 cycles: 74349944 heartbeat IPC: 0.943266 cumulative IPC: 0.956336 (Simulation time: 0 hr 2 min 50 sec) 
Heartbeat CPU 0 instructions: 140000000 cycles: 84041870 heartbeat IPC: 1.03179 cumulative IPC: 0.974145 (Simulation time: 0 hr 3 min 7 sec) 
Heartbeat CPU 0 instructions: 150000001 cycles: 94356502 heartbeat IPC: 0.969497 cumulative IPC: 0.973212 (Simulation time: 0 hr 3 min 24 sec) 
Heartbeat CPU 0 instructions: 160000000 cycles: 104410095 heartbeat IPC: 0.994669 cumulative IPC: 0.976723 (Simulation time: 0 hr 3 min 41 sec) 
Heartbeat CPU 0 instructions: 170000000 cycles: 114089807 heartbeat IPC: 1.03309 cumulative IPC: 0.984396 (Simulation time: 0 hr 3 min 58 sec) 
Heartbeat CPU 0 instructions: 180000000 cycles: 124645983 heartbeat IPC: 0.947313 cumulative IPC: 0.979603 (Simulation time: 0 hr 4 min 16 sec) 
Heartbeat CPU 0 instructions: 190000001 cycles: 134911473 heartbeat IPC: 0.974138 cumulative IPC: 0.978992 (Simulation time: 0 hr 4 min 33 sec) 
Heartbeat CPU 0 instructions: 200000000 cycles: 145480482 heartbeat IPC: 0.946162 cumulative IPC: 0.975607 (Simulation time: 0 hr 4 min 51 sec) 
Heartbeat CPU 0 instructions: 210000002 cycles: 157948796 heartbeat IPC: 0.802033 cumulative IPC: 0.956783 (Simulation time: 0 hr 5 min 9 sec) 
Heartbeat CPU 0 instructions: 220000000 cycles: 170494643 heartbeat IPC: 0.797076 cumulative IPC: 0.94107 (Simulation time: 0 hr 5 min 28 sec) 
Heartbeat CPU 0 instructions: 230000000 cycles: 182677776 heartbeat IPC: 0.820807 cumulative IPC: 0.930582 (Simulation time: 0 hr 5 min 47 sec) 
Heartbeat CPU 0 instructions: 240000000 cycles: 194817772 heartbeat IPC: 0.823723 cumulative IPC: 0.922038 (Simulation time: 0 hr 6 min 5 sec) 
Heartbeat CPU 0 instructions: 250000000 cycles: 206792702 heartbeat IPC: 0.835078 cumulative IPC: 0.915681 (Simulation time: 0 hr 6 min 24 sec) 
Heartbeat CPU 0 instructions: 260000000 cycles: 218359887 heartbeat IPC: 0.864515 cumulative IPC: 0.912306 (Simulation time: 0 hr 6 min 42 sec) 
Heartbeat CPU 0 instructions: 270000003 cycles: 230248599 heartbeat IPC: 0.841134 cumulative IPC: 0.907788 (Simulation time: 0 hr 7 min 0 sec) 
Heartbeat CPU 0 instructions: 280000000 cycles: 241794629 heartbeat IPC: 0.866098 cumulative IPC: 0.905367 (Simulation time: 0 hr 7 min 19 sec) 
Heartbeat CPU 0 instructions: 290000002 cycles: 253327464 heartbeat IPC: 0.86709 cumulative IPC: 0.903268 (Simulation time: 0 hr 7 min 37 sec) 
Heartbeat CPU 0 instructions: 300000000 cycles: 265784199 heartbeat IPC: 0.802778 cumulative IPC: 0.89765 (Simulation time: 0 hr 7 min 55 sec) 
Heartbeat CPU 0 instructions: 310000000 cycles: 277943696 heartbeat IPC: 0.822402 cumulative IPC: 0.893756 (Simulation time: 0 hr 8 min 14 sec) 
Heartbeat CPU 0 instructions: 320000000 cycles: 290600559 heartbeat IPC: 0.790085 cumulative IPC: 0.888457 (Simulation time: 0 hr 8 min 33 sec) 
Heartbeat CPU 0 instructions: 330000003 cycles: 302549675 heartbeat IPC: 0.836882 cumulative IPC: 0.886083 (Simulation time: 0 hr 8 min 51 sec) 
Heartbeat CPU 0 instructions: 340000000 cycles: 314674233 heartbeat IPC: 0.824772 cumulative IPC: 0.883347 (Simulation time: 0 hr 9 min 9 sec) 
Heartbeat CPU 0 instructions: 350000001 cycles: 325688207 heartbeat IPC: 0.907938 cumulative IPC: 0.884305 (Simulation time: 0 hr 9 min 27 sec) 
Heartbeat CPU 0 instructions: 360000000 cycles: 337501581 heartbeat IPC: 0.846498 cumulative IPC: 0.882788 (Simulation time: 0 hr 9 min 45 sec) 
Heartbeat CPU 0 instructions: 370000001 cycles: 348923901 heartbeat IPC: 0.875479 cumulative IPC: 0.882515 (Simulation time: 0 hr 10 min 4 sec) 
Heartbeat CPU 0 instructions: 380000000 cycles: 359935225 heartbeat IPC: 0.908156 cumulative IPC: 0.883406 (Simulation time: 0 hr 10 min 22 sec) 
Heartbeat CPU 0 instructions: 390000003 cycles: 370575201 heartbeat IPC: 0.939852 cumulative IPC: 0.885239 (Simulation time: 0 hr 10 min 39 sec) 
Heartbeat CPU 0 instructions: 400000000 cycles: 380813328 heartbeat IPC: 0.976741 cumulative IPC: 0.888012 (Simulation time: 0 hr 10 min 57 sec) 
Heartbeat CPU 0 instructions: 410000000 cycles: 391340646 heartbeat IPC: 0.94991 cumulative IPC: 0.889883 (Simulation time: 0 hr 11 min 15 sec) 
Heartbeat CPU 0 instructions: 420000000 cycles: 400737925 heartbeat IPC: 1.06414 cumulative IPC: 0.89446 (Simulation time: 0 hr 11 min 32 sec) 
Heartbeat CPU 0 instructions: 430000002 cycles: 409830020 heartbeat IPC: 1.09986 cumulative IPC: 0.899551 (Simulation time: 0 hr 11 min 49 sec) 
Heartbeat CPU 0 instructions: 440000000 cycles: 420110505 heartbeat IPC: 0.972717 cumulative IPC: 0.901545 (Simulation time: 0 hr 12 min 7 sec) 
Heartbeat CPU 0 instructions: 450000002 cycles: 431222342 heartbeat IPC: 0.899941 cumulative IPC: 0.901499 (Simulation time: 0 hr 12 min 24 sec) 
Heartbeat CPU 0 instructions: 460000000 cycles: 442786266 heartbeat IPC: 0.864758 cumulative IPC: 0.900437 (Simulation time: 0 hr 12 min 42 sec) 
Heartbeat CPU 0 instructions: 470000003 cycles: 452992568 heartbeat IPC: 0.979787 cumulative IPC: 0.902412 (Simulation time: 0 hr 13 min 0 sec) 
Heartbeat CPU 0 instructions: 480000000 cycles: 463541278 heartbeat IPC: 0.947983 cumulative IPC: 0.903555 (Simulation time: 0 hr 13 min 17 sec) 
Heartbeat CPU 0 instructions: 490000000 cycles: 473507514 heartbeat IPC: 1.00339 cumulative IPC: 0.905866 (Simulation time: 0 hr 13 min 35 sec) 
Heartbeat CPU 0 instructions: 500000000 cycles: 485310122 heartbeat IPC: 0.84727 cumulative IPC: 0.904302 (Simulation time: 0 hr 13 min 53 sec) 
Heartbeat CPU 0 instructions: 510000002 cycles: 497741249 heartbeat IPC: 0.804432 cumulative IPC: 0.901572 (Simulation time: 0 hr 14 min 11 sec) 
Heartbeat CPU 0 instructions: 520000000 cycles: 509614091 heartbeat IPC: 0.842258 cumulative IPC: 0.900063 (Simulation time: 0 hr 14 min 30 sec) 
Heartbeat CPU 0 instructions: 530000001 cycles: 521467183 heartbeat IPC: 0.843662 cumulative IPC: 0.898666 (Simulation time: 0 hr 14 min 48 sec) 
Heartbeat CPU 0 instructions: 540000000 cycles: 533082021 heartbeat IPC: 0.860968 cumulative IPC: 0.897773 (Simulation time: 0 hr 15 min 6 sec) 
Heartbeat CPU 0 instructions: 550000001 cycles: 544476980 heartbeat IPC: 0.877581 cumulative IPC: 0.897314 (Simulation time: 0 hr 15 min 24 sec) 
Heartbeat CPU 0 instructions: 560000000 cycles: 556044003 heartbeat IPC: 0.864527 cumulative IPC: 0.896575 (Simulation time: 0 hr 15 min 42 sec) 
Heartbeat CPU 0 instructions: 570000000 cycles: 567458718 heartbeat IPC: 0.876062 cumulative IPC: 0.896128 (Simulation time: 0 hr 16 min 0 sec) 
Heartbeat CPU 0 instructions: 580000000 cycles: 578217696 heartbeat IPC: 0.929456 cumulative IPC: 0.896798 (Simulation time: 0 hr 16 min 18 sec) 
Heartbeat CPU 0 instructions: 590000003 cycles: 589619323 heartbeat IPC: 0.877068 cumulative IPC: 0.896387 (Simulation time: 0 hr 16 min 36 sec) 
Heartbeat CPU 0 instructions: 600000000 cycles: 600207533 heartbeat IPC: 0.944446 cumulative IPC: 0.8973 (Simulation time: 0 hr 16 min 53 sec) 
Finished CPU 0 instructions: 500000001 cycles: 557227333 cumulative IPC: 0.8973 (Simulation time: 0 hr 16 min 53 sec) 

CPU 0 Branch Prediction Accuracy: 93.0095% MPKI: 10.0046
Number of Branches: 71558147 Number of Mispredictions: 5002285
Number of LOAD Instructions: 145708893
Number of LOAD Instructions (ROI): 145708893
Number of STORE Instructions: 40463820
Number of STORE Instructions (ROI): 40463820
Total Destination Memory Operands: 45240498
Total Destination Memory Operands (ROI): 45240498
Total Source Memory Operands: 145708893
Total Source Memory Operands (ROI): 145708893
Number of DEPENDED LOADS: 10670995
Number of DEPENDED LOADS (ROI): 10670995
Number of SQ_ADDED: 45240498
Number of SQ_ADDED (ROI): 45240498
Number of LQ_ADDED: 193329665
Number of LQ_ADDED (ROI): 193329665
Number of Instructions read from trace: 600000002

ChampSim completed all CPUs

Region of Interest Statistics

CPU 0 cumulative IPC: 0.8973 instructions: 500000001 cycles: 557227333
ITLB TOTAL     ACCESS:   77991706  HIT:   77991705  MISS:          1
ITLB LOAD      ACCESS:   77991706  HIT:   77991705  MISS:          1
ITLB RFO       ACCESS:          0  HIT:          0  MISS:          0
ITLB PREFETCH  ACCESS:          0  HIT:          0  MISS:          0
ITLB WRITEBACK ACCESS:          0  HIT:          0  MISS:          0
ITLB PREFETCH  REQUESTED:          0  ISSUED:          0  USEFUL:          0  USELESS:          0
ITLB TOTAL MSHR MERGED:          0
ITLB LOAD MSHR MERGED:          0
ITLB RFO MSHR MERGED:          0
ITLB PREFETCH MSHR MERGED:          0
ITLB WRITEBACK MSHR MERGED:          0
ITLB TOTAL ACCESSES:   77991706 HITS:   77991705 MISSES:          1
ITLB LOAD ACCESSES:   77991706 HITS:   77991705 MISSES:          1
ITLB RFO ACCESSES:          0 HITS:          0 MISSES:          0
ITLB PREFETCH ACCESSES:          0 HITS:          0 MISSES:          0
ITLB WRITEBACK ACCESSES:          0 HITS:          0 MISSES:          0
ITLB RQ ACCESS:  499999995
ITLB RQ TO_CACHE:   77991706
ITLB RQ MERGED:  422008289
ITLB RQ FORWARD:          0
ITLB WQ ACCESS:          0
ITLB WQ TO_CACHE:          0
ITLB WQ MERGED:          0
ITLB WQ FORWARD:          0
DTLB TOTAL     ACCESS:   98671260  HIT:   97789923  MISS:     881337
DTLB LOAD      ACCESS:   70891508  HIT:   70029974  MISS:     861534
DTLB RFO       ACCESS:   27779752  HIT:   27759949  MISS:      19803
DTLB PREFETCH  ACCESS:          0  HIT:          0  MISS:          0
DTLB WRITEBACK ACCESS:          0  HIT:          0  MISS:          0
DTLB PREFETCH  REQUESTED:          0  ISSUED:          0  USEFUL:          0  USELESS:          0
DTLB TOTAL MSHR MERGED:      87360
DTLB LOAD MSHR MERGED:      65620
DTLB RFO MSHR MERGED:      21740
DTLB PREFETCH MSHR MERGED:          0
DTLB WRITEBACK MSHR MERGED:          0
DTLB TOTAL ACCESSES:   98758620 HITS:   97789923 MISSES:     968697
DTLB LOAD ACCESSES:   70957128 HITS:   70029974 MISSES:     927154
DTLB RFO ACCESSES:   27801492 HITS:   27759949 MISSES:      41543
DTLB PREFETCH ACCESSES:          0 HITS:          0 MISSES:          0
DTLB WRITEBACK ACCESSES:          0 HITS:          0 MISSES:          0
DTLB RQ ACCESS:  150274056
DTLB RQ TO_CACHE:   98758620
DTLB RQ MERGED:   51515436
DTLB RQ FORWARD:          0
DTLB WQ ACCESS:          0
DTLB WQ TO_CACHE:          0
DTLB WQ MERGED:          0
DTLB WQ FORWARD:          0
L1D TOTAL     ACCESS:  173331981  HIT:  169163340  MISS:    4168641
L1D LOAD      ACCESS:   75282829  HIT:   73401550  MISS:    1881279
L1D RFO       ACCESS:   36778352  HIT:   36571742  MISS:     206610
L1D PREFETCH  ACCESS:   61270800  HIT:   59190048  MISS:    2080752
L1D WRITEBACK ACCESS:          0  HIT:          0  MISS:          0
L1D PREFETCH  REQUESTED:   75386628  ISSUED:   74822435  USEFUL:     415192  USELESS:    1665549
L1D TOTAL MSHR MERGED:     373877
L1D LOAD MSHR MERGED:     112503
L1D RFO MSHR MERGED:     133054
L1D PREFETCH MSHR MERGED:     128320
L1D WRITEBACK MSHR MERGED:          0
L1D TOTAL ACCESSES:  173857523 HITS:  169315005 MISSES:    4542518
L1D LOAD ACCESSES:   75389585 HITS:   73404507 MISSES:    1985078
L1D RFO ACCESSES:   36910009 HITS:   36571742 MISSES:     338267
L1D PREFETCH ACCESSES:   61557929 HITS:   59338756 MISSES:    2219173
L1D WRITEBACK ACCESSES:          0 HITS:          0 MISSES:          0
L1D RQ ACCESS:  112611653
L1D RQ TO_CACHE:   75386628
L1D RQ MERGED:   37222068
L1D RQ FORWARD:          0
L1D WQ ACCESS:   37662403
L1D WQ TO_CACHE:   36910009
L1D WQ MERGED:     752394
L1D WQ FORWARD:     151665
L1I TOTAL     ACCESS:  100699721  HIT:  100699696  MISS:         25
L1I LOAD      ACCESS:  100699721  HIT:  100699696  MISS:         25
L1I RFO       ACCESS:          0  HIT:          0  MISS:          0
L1I PREFETCH  ACCESS:          0  HIT:          0  MISS:          0
L1I WRITEBACK ACCESS:          0  HIT:          0  MISS:          0
L1I PREFETCH  REQUESTED:          0  ISSUED:          0  USEFUL:          0  USELESS:          0
L1I TOTAL MSHR MERGED:         10
L1I LOAD MSHR MERGED:         10
L1I RFO MSHR MERGED:          0
L1I PREFETCH MSHR MERGED:          0
L1I WRITEBACK MSHR MERGED:          0
L1I TOTAL ACCESSES:  100699731 HITS:  100699696 MISSES:         35
L1I LOAD ACCESSES:  100699731 HITS:  100699696 MISSES:         35
L1I RFO ACCESSES:          0 HITS:          0 MISSES:          0
L1I PREFETCH ACCESSES:          0 HITS:          0 MISSES:          0
L1I WRITEBACK ACCESSES:          0 HITS:          0 MISSES:          0
L1I RQ ACCESS:  499999995
L1I RQ TO_CACHE:  100699731
L1I RQ MERGED:  399300264
L1I RQ FORWARD:          0
L1I WQ ACCESS:          0
L1I WQ TO_CACHE:          0
L1I WQ MERGED:          0
L1I WQ FORWARD:          0
L2C TOTAL     ACCESS:    5852605  HIT:    4009415  MISS:    1843190
L2C LOAD      ACCESS:    1872476  HIT:    1061520  MISS:     810956
L2C RFO       ACCESS:     205204  HIT:     100564  MISS:     104640
L2C PREFETCH  ACCESS:    2169291  HIT:    1246116  MISS:     923175
L2C WRITEBACK ACCESS:    1605634  HIT:    1601215  MISS:       4419
L2C PREFETCH  REQUESTED:      91705  ISSUED:      91705  USEFUL:      86459  USELESS:     836739
L2C TOTAL MSHR MERGED:       1011
L2C LOAD MSHR MERGED:        257
L2C RFO MSHR MERGED:          0
L2C PREFETCH MSHR MERGED:        754
L2C WRITEBACK MSHR MERGED:          0
L2C TOTAL ACCESSES:    5853944 HITS:    4009585 MISSES:    1844359
L2C LOAD ACCESSES:    1872600 HITS:    1061644 MISSES:     810956
L2C RFO ACCESSES:     205213 HITS:     100573 MISSES:     104640
L2C PREFETCH ACCESSES:    2170497 HITS:    1246153 MISSES:     924344
L2C WRITEBACK ACCESSES:    1605634 HITS:    1601215 MISSES:       4419
L2C RQ ACCESS:    2077813
L2C RQ TO_CACHE:    2077680
L2C RQ MERGED:          0
L2C RQ FORWARD:          0
L2C WQ ACCESS:    1605634
L2C WQ TO_CACHE:    1605634
L2C WQ MERGED:          0
L2C WQ FORWARD:        170
LLC TOTAL     ACCESS:    2673574  HIT:    2168510  MISS:     505064
LLC LOAD      ACCESS:     810690  HIT:     631977  MISS:     178713
LLC RFO       ACCESS:     104640  HIT:      60044  MISS:      44596
LLC PREFETCH  ACCESS:     923569  HIT:     679769  MISS:     243800
LLC WRITEBACK ACCESS:     834675  HIT:     796720  MISS:      37955
LLC PREFETCH  REQUESTED:          0  ISSUED:          0  USEFUL:       8376  USELESS:     235699
LLC TOTAL MSHR MERGED:          9
LLC LOAD MSHR MERGED:          3
LLC RFO MSHR MERGED:          0
LLC PREFETCH MSHR MERGED:          6
LLC WRITEBACK MSHR MERGED:          0
LLC TOTAL ACCESSES:    2673594 HITS:    2168521 MISSES:     505073
LLC LOAD ACCESSES:     810699 HITS:     631986 MISSES:     178713
LLC RFO ACCESSES:     104640 HITS:      60044 MISSES:      44596
LLC PREFETCH ACCESSES:     923580 HITS:     679771 MISSES:     243809
LLC WRITEBACK ACCESSES:     834675 HITS:     796720 MISSES:      37955
LLC 0 RQ ACCESS:     915339
LLC 0 RQ TO_CACHE:     915330
LLC 0 RQ MERGED:          0
LLC 0 RQ FORWARD:          0
LLC WQ ACCESS:     834675
LLC WQ TO_CACHE:     834675
LLC WQ MERGED:          0
LLC WQ FORWARD:         11
Major fault: 0 Minor fault: 11278
CPU 0 L1D next line prefetcher final stats
CPU 0 L2C PC-based stride prefetcher final stats
All Misses: 618912
All Hits: 2435680
SD Algo Stats - Switches: 0 SRR-Repls: 212187 BRR-Repls: 0

DRAM Statistics
 CHANNEL 0
 RQ ROW_BUFFER_HIT:      29482  ROW_BUFFER_MISS:     437145
 DBUS_CONGESTED:     352080
 WQ ROW_BUFFER_HIT:      14303  ROW_BUFFER_MISS:     204837  FULL:          0

 AVG_CONGESTED_CYCLE: 13
LOADS RETIRED: 121769268
INSTR RETIRED: 500000000
