
*** ChampSim Multicore Out-of-Order Simulator ***

Warmup Instructions: 100000000
Simulation Instructions: 500000000
Number of CPUs: 1
LLC sets: 2048
LLC ways: 16
Clean RRIP Policies: 2210230222102302 Dirty RRIP Policies: 1200030212000302 PSEL Width: 10 Track Set: 4294967295 PSEL Mask: 1 Demote Mask: 3040100030401000DS Algo: 0Window size: 0
Off-chip DRAM Size: 4096 MB Channels: 1 Width: 64-bit Data Rate: 1600 MT/s

CPU 0 runs /mnt/beegfs/iconst01/spec2017/Xalancbmk.trace.gz
NOT SORTED
TRACE STRING: /mnt/beegfs/iconst01/spec2017/Xalancbmk.trace.gz
SORTED
TRACE STRING: /mnt/beegfs/iconst01/spec2017/Xalancbmk.trace.gz
INITIAL
TRACE STRING: /mnt/beegfs/iconst01/spec2017/Xalancbmk.trace.gz

champsim_seed used: 913

CPU 0 L1D next line prefetcher
CPU 0 L2C IP-based stride prefetcher
Initialize DRRIP state
Assign rand_sets[0]: 454  LLC: 2048
rand_sets[0]: 454
Assign rand_sets[1]: 1662  LLC: 2048
rand_sets[1]: 1662
Assign rand_sets[2]: 1921  LLC: 2048
rand_sets[2]: 1921
Assign rand_sets[3]: 1131  LLC: 2048
rand_sets[3]: 1131
Assign rand_sets[4]: 331  LLC: 2048
rand_sets[4]: 331
Assign rand_sets[5]: 1531  LLC: 2048
rand_sets[5]: 1531
Assign rand_sets[6]: 482  LLC: 2048
rand_sets[6]: 482
Assign rand_sets[7]: 1275  LLC: 2048
rand_sets[7]: 1275
Assign rand_sets[8]: 1876  LLC: 2048
rand_sets[8]: 1876
Assign rand_sets[9]: 2038  LLC: 2048
rand_sets[9]: 2038
Assign rand_sets[10]: 701  LLC: 2048
rand_sets[10]: 701
Assign rand_sets[11]: 479  LLC: 2048
rand_sets[11]: 479
Assign rand_sets[12]: 892  LLC: 2048
rand_sets[12]: 892
Assign rand_sets[13]: 1820  LLC: 2048
rand_sets[13]: 1820
Assign rand_sets[14]: 1505  LLC: 2048
rand_sets[14]: 1505
Assign rand_sets[15]: 1159  LLC: 2048
rand_sets[15]: 1159
Assign rand_sets[16]: 513  LLC: 2048
rand_sets[16]: 513
Assign rand_sets[17]: 703  LLC: 2048
rand_sets[17]: 703
Assign rand_sets[18]: 561  LLC: 2048
rand_sets[18]: 561
Assign rand_sets[19]: 990  LLC: 2048
rand_sets[19]: 990
Assign rand_sets[20]: 342  LLC: 2048
rand_sets[20]: 342
Assign rand_sets[21]: 882  LLC: 2048
rand_sets[21]: 882
Assign rand_sets[22]: 15  LLC: 2048
rand_sets[22]: 15
Assign rand_sets[23]: 71  LLC: 2048
rand_sets[23]: 71
Assign rand_sets[24]: 1127  LLC: 2048
rand_sets[24]: 1127
Assign rand_sets[25]: 1382  LLC: 2048
rand_sets[25]: 1382
Assign rand_sets[26]: 647  LLC: 2048
rand_sets[26]: 647
Assign rand_sets[27]: 857  LLC: 2048
rand_sets[27]: 857
Assign rand_sets[28]: 1450  LLC: 2048
rand_sets[28]: 1450
Assign rand_sets[29]: 1160  LLC: 2048
rand_sets[29]: 1160
Assign rand_sets[30]: 1852  LLC: 2048
rand_sets[30]: 1852
Assign rand_sets[31]: 1881  LLC: 2048
rand_sets[31]: 1881
Assign rand_sets[32]: 1770  LLC: 2048
rand_sets[32]: 1770
Assign rand_sets[33]: 1622  LLC: 2048
rand_sets[33]: 1622
Assign rand_sets[34]: 275  LLC: 2048
rand_sets[34]: 275
Assign rand_sets[35]: 635  LLC: 2048
rand_sets[35]: 635
Assign rand_sets[36]: 466  LLC: 2048
rand_sets[36]: 466
Assign rand_sets[37]: 1413  LLC: 2048
rand_sets[37]: 1413
Assign rand_sets[38]: 417  LLC: 2048
rand_sets[38]: 417
Assign rand_sets[39]: 472  LLC: 2048
rand_sets[39]: 472
Assign rand_sets[40]: 1340  LLC: 2048
rand_sets[40]: 1340
Assign rand_sets[41]: 852  LLC: 2048
rand_sets[41]: 852
Assign rand_sets[42]: 1365  LLC: 2048
rand_sets[42]: 1365
Assign rand_sets[43]: 47  LLC: 2048
rand_sets[43]: 47
Assign rand_sets[44]: 823  LLC: 2048
rand_sets[44]: 823
Assign rand_sets[45]: 686  LLC: 2048
rand_sets[45]: 686
Assign rand_sets[46]: 1637  LLC: 2048
rand_sets[46]: 1637
Assign rand_sets[47]: 1115  LLC: 2048
rand_sets[47]: 1115
Assign rand_sets[48]: 986  LLC: 2048
rand_sets[48]: 986
Assign rand_sets[49]: 258  LLC: 2048
rand_sets[49]: 258
Assign rand_sets[50]: 633  LLC: 2048
rand_sets[50]: 633
Assign rand_sets[51]: 920  LLC: 2048
rand_sets[51]: 920
Assign rand_sets[52]: 204  LLC: 2048
rand_sets[52]: 204
Assign rand_sets[53]: 227  LLC: 2048
rand_sets[53]: 227
Assign rand_sets[54]: 1818  LLC: 2048
rand_sets[54]: 1818
Assign rand_sets[55]: 886  LLC: 2048
rand_sets[55]: 886
Assign rand_sets[56]: 1422  LLC: 2048
rand_sets[56]: 1422
Assign rand_sets[57]: 607  LLC: 2048
rand_sets[57]: 607
Assign rand_sets[58]: 217  LLC: 2048
rand_sets[58]: 217
Assign rand_sets[59]: 1945  LLC: 2048
rand_sets[59]: 1945
Assign rand_sets[60]: 143  LLC: 2048
rand_sets[60]: 143
Assign rand_sets[61]: 1311  LLC: 2048
rand_sets[61]: 1311
Assign rand_sets[62]: 319  LLC: 2048
rand_sets[62]: 319
Assign rand_sets[63]: 1846  LLC: 2048
rand_sets[63]: 1846
 CLEAN-RRIP-POLICY-1: 2-2-1-0-2-3-0-2- CLEAN-RRIP-POLICY-2: 2-2-1-0-2-3-0-2-
 DIRTY-RRIP-POLICY-1: 1-2-0-0-0-3-0-2- DIRTY-RRIP-POLICY-2: 1-2-0-0-0-3-0-2-
 PSEL width: 10
Heartbeat CPU 0 instructions: 10000003 cycles: 4616077 heartbeat IPC: 2.16634 cumulative IPC: 2.16634 (Simulation time: 0 hr 0 min 15 sec) 
Heartbeat CPU 0 instructions: 20000000 cycles: 9053167 heartbeat IPC: 2.25373 cumulative IPC: 2.20917 (Simulation time: 0 hr 0 min 29 sec) 
Heartbeat CPU 0 instructions: 30000000 cycles: 13509685 heartbeat IPC: 2.2439 cumulative IPC: 2.22063 (Simulation time: 0 hr 0 min 44 sec) 
Heartbeat CPU 0 instructions: 40000000 cycles: 18164676 heartbeat IPC: 2.14823 cumulative IPC: 2.20208 (Simulation time: 0 hr 0 min 59 sec) 
Heartbeat CPU 0 instructions: 50000002 cycles: 22622109 heartbeat IPC: 2.24344 cumulative IPC: 2.21023 (Simulation time: 0 hr 1 min 14 sec) 
Heartbeat CPU 0 instructions: 60000000 cycles: 27308052 heartbeat IPC: 2.13404 cumulative IPC: 2.19715 (Simulation time: 0 hr 1 min 30 sec) 
Heartbeat CPU 0 instructions: 70000003 cycles: 31750846 heartbeat IPC: 2.25084 cumulative IPC: 2.20467 (Simulation time: 0 hr 1 min 44 sec) 
Heartbeat CPU 0 instructions: 80000000 cycles: 36223631 heartbeat IPC: 2.23574 cumulative IPC: 2.2085 (Simulation time: 0 hr 1 min 59 sec) 
Heartbeat CPU 0 instructions: 90000002 cycles: 40730484 heartbeat IPC: 2.21884 cumulative IPC: 2.20965 (Simulation time: 0 hr 2 min 13 sec) 
Heartbeat CPU 0 instructions: 100000000 cycles: 45247854 heartbeat IPC: 2.21368 cumulative IPC: 2.21005 (Simulation time: 0 hr 2 min 28 sec) 

Warmup complete CPU 0 instructions: 100000003 cycles: 45247855 (Simulation time: 0 hr 2 min 28 sec) 

Heartbeat CPU 0 instructions: 110000000 cycles: 74959331 heartbeat IPC: 0.33657 cumulative IPC: 0.33657 (Simulation time: 0 hr 3 min 1 sec) 
Heartbeat CPU 0 instructions: 120000000 cycles: 109355613 heartbeat IPC: 0.290729 cumulative IPC: 0.311975 (Simulation time: 0 hr 3 min 38 sec) 
Heartbeat CPU 0 instructions: 130000000 cycles: 134911349 heartbeat IPC: 0.391302 cumulative IPC: 0.334584 (Simulation time: 0 hr 4 min 8 sec) 
Heartbeat CPU 0 instructions: 140000000 cycles: 159432754 heartbeat IPC: 0.407807 cumulative IPC: 0.350309 (Simulation time: 0 hr 4 min 38 sec) 
Heartbeat CPU 0 instructions: 150000000 cycles: 185631181 heartbeat IPC: 0.381702 cumulative IPC: 0.356168 (Simulation time: 0 hr 5 min 9 sec) 
Heartbeat CPU 0 instructions: 160000000 cycles: 212654087 heartbeat IPC: 0.370056 cumulative IPC: 0.35841 (Simulation time: 0 hr 5 min 40 sec) 
Heartbeat CPU 0 instructions: 170000002 cycles: 235858990 heartbeat IPC: 0.430943 cumulative IPC: 0.36724 (Simulation time: 0 hr 6 min 9 sec) 
Heartbeat CPU 0 instructions: 180000000 cycles: 259962625 heartbeat IPC: 0.414875 cumulative IPC: 0.372587 (Simulation time: 0 hr 6 min 38 sec) 
Heartbeat CPU 0 instructions: 190000000 cycles: 281149527 heartbeat IPC: 0.47199 cumulative IPC: 0.381515 (Simulation time: 0 hr 7 min 6 sec) 
Heartbeat CPU 0 instructions: 200000000 cycles: 302792984 heartbeat IPC: 0.462033 cumulative IPC: 0.388281 (Simulation time: 0 hr 7 min 33 sec) 
Heartbeat CPU 0 instructions: 210000001 cycles: 331264629 heartbeat IPC: 0.351227 cumulative IPC: 0.384593 (Simulation time: 0 hr 8 min 6 sec) 
Heartbeat CPU 0 instructions: 220000000 cycles: 359659629 heartbeat IPC: 0.352175 cumulative IPC: 0.381665 (Simulation time: 0 hr 8 min 38 sec) 
Heartbeat CPU 0 instructions: 230000000 cycles: 383974269 heartbeat IPC: 0.411275 cumulative IPC: 0.383791 (Simulation time: 0 hr 9 min 8 sec) 
Heartbeat CPU 0 instructions: 240000000 cycles: 411245388 heartbeat IPC: 0.366688 cumulative IPC: 0.382516 (Simulation time: 0 hr 9 min 39 sec) 
Heartbeat CPU 0 instructions: 250000001 cycles: 438838557 heartbeat IPC: 0.362409 cumulative IPC: 0.381107 (Simulation time: 0 hr 10 min 11 sec) 
Heartbeat CPU 0 instructions: 260000000 cycles: 461159910 heartbeat IPC: 0.448001 cumulative IPC: 0.384697 (Simulation time: 0 hr 10 min 39 sec) 
Heartbeat CPU 0 instructions: 270000000 cycles: 484103859 heartbeat IPC: 0.435845 cumulative IPC: 0.387371 (Simulation time: 0 hr 11 min 8 sec) 
Heartbeat CPU 0 instructions: 280000000 cycles: 515654670 heartbeat IPC: 0.316949 cumulative IPC: 0.382648 (Simulation time: 0 hr 11 min 42 sec) 
Heartbeat CPU 0 instructions: 290000000 cycles: 538453662 heartbeat IPC: 0.438616 cumulative IPC: 0.385235 (Simulation time: 0 hr 12 min 11 sec) 
Heartbeat CPU 0 instructions: 300000000 cycles: 560148748 heartbeat IPC: 0.460934 cumulative IPC: 0.388424 (Simulation time: 0 hr 12 min 38 sec) 
Heartbeat CPU 0 instructions: 310000000 cycles: 581550111 heartbeat IPC: 0.46726 cumulative IPC: 0.39157 (Simulation time: 0 hr 13 min 5 sec) 
Heartbeat CPU 0 instructions: 320000000 cycles: 614925947 heartbeat IPC: 0.299618 cumulative IPC: 0.386183 (Simulation time: 0 hr 13 min 40 sec) 
Heartbeat CPU 0 instructions: 330000001 cycles: 635567794 heartbeat IPC: 0.484453 cumulative IPC: 0.389619 (Simulation time: 0 hr 14 min 6 sec) 
Heartbeat CPU 0 instructions: 340000000 cycles: 656636668 heartbeat IPC: 0.474634 cumulative IPC: 0.392549 (Simulation time: 0 hr 14 min 33 sec) 
Heartbeat CPU 0 instructions: 350000002 cycles: 684361249 heartbeat IPC: 0.360691 cumulative IPC: 0.391167 (Simulation time: 0 hr 15 min 4 sec) 
Heartbeat CPU 0 instructions: 360000000 cycles: 707806266 heartbeat IPC: 0.42653 cumulative IPC: 0.392418 (Simulation time: 0 hr 15 min 33 sec) 
Heartbeat CPU 0 instructions: 370000001 cycles: 734568409 heartbeat IPC: 0.373662 cumulative IPC: 0.39169 (Simulation time: 0 hr 16 min 3 sec) 
Heartbeat CPU 0 instructions: 380000000 cycles: 759357962 heartbeat IPC: 0.403396 cumulative IPC: 0.392096 (Simulation time: 0 hr 16 min 32 sec) 
Heartbeat CPU 0 instructions: 390000000 cycles: 778793033 heartbeat IPC: 0.514534 cumulative IPC: 0.39534 (Simulation time: 0 hr 16 min 58 sec) 
Heartbeat CPU 0 instructions: 400000000 cycles: 800755367 heartbeat IPC: 0.455325 cumulative IPC: 0.397084 (Simulation time: 0 hr 17 min 25 sec) 
Heartbeat CPU 0 instructions: 410000001 cycles: 829229352 heartbeat IPC: 0.351198 cumulative IPC: 0.395417 (Simulation time: 0 hr 17 min 56 sec) 
Heartbeat CPU 0 instructions: 420000000 cycles: 855794473 heartbeat IPC: 0.376433 cumulative IPC: 0.394795 (Simulation time: 0 hr 18 min 27 sec) 
Heartbeat CPU 0 instructions: 430000002 cycles: 878625405 heartbeat IPC: 0.438002 cumulative IPC: 0.395979 (Simulation time: 0 hr 18 min 54 sec) 
Heartbeat CPU 0 instructions: 440000000 cycles: 899895571 heartbeat IPC: 0.470142 cumulative IPC: 0.397825 (Simulation time: 0 hr 19 min 21 sec) 
Heartbeat CPU 0 instructions: 450000002 cycles: 929358147 heartbeat IPC: 0.339414 cumulative IPC: 0.395878 (Simulation time: 0 hr 19 min 53 sec) 
Heartbeat CPU 0 instructions: 460000000 cycles: 958917914 heartbeat IPC: 0.338298 cumulative IPC: 0.394015 (Simulation time: 0 hr 20 min 25 sec) 
Heartbeat CPU 0 instructions: 470000002 cycles: 987224860 heartbeat IPC: 0.35327 cumulative IPC: 0.392791 (Simulation time: 0 hr 20 min 57 sec) 
Heartbeat CPU 0 instructions: 480000000 cycles: 1013026418 heartbeat IPC: 0.387573 cumulative IPC: 0.392652 (Simulation time: 0 hr 21 min 26 sec) 
Heartbeat CPU 0 instructions: 490000000 cycles: 1035308047 heartbeat IPC: 0.4488 cumulative IPC: 0.393915 (Simulation time: 0 hr 21 min 54 sec) 
Heartbeat CPU 0 instructions: 500000000 cycles: 1062092054 heartbeat IPC: 0.373357 cumulative IPC: 0.393374 (Simulation time: 0 hr 22 min 24 sec) 
Heartbeat CPU 0 instructions: 510000000 cycles: 1089127101 heartbeat IPC: 0.36989 cumulative IPC: 0.392766 (Simulation time: 0 hr 22 min 54 sec) 
Heartbeat CPU 0 instructions: 520000000 cycles: 1111739773 heartbeat IPC: 0.44223 cumulative IPC: 0.393815 (Simulation time: 0 hr 23 min 22 sec) 
Heartbeat CPU 0 instructions: 530000003 cycles: 1139294115 heartbeat IPC: 0.362919 cumulative IPC: 0.393036 (Simulation time: 0 hr 23 min 53 sec) 
Heartbeat CPU 0 instructions: 540000000 cycles: 1164023699 heartbeat IPC: 0.404374 cumulative IPC: 0.393287 (Simulation time: 0 hr 24 min 22 sec) 
Heartbeat CPU 0 instructions: 550000000 cycles: 1191512969 heartbeat IPC: 0.363778 cumulative IPC: 0.392579 (Simulation time: 0 hr 24 min 53 sec) 
Heartbeat CPU 0 instructions: 560000000 cycles: 1216124724 heartbeat IPC: 0.40631 cumulative IPC: 0.392868 (Simulation time: 0 hr 25 min 21 sec) 
Heartbeat CPU 0 instructions: 570000002 cycles: 1241387546 heartbeat IPC: 0.395839 cumulative IPC: 0.392931 (Simulation time: 0 hr 25 min 51 sec) 
Heartbeat CPU 0 instructions: 580000000 cycles: 1263589247 heartbeat IPC: 0.450416 cumulative IPC: 0.393978 (Simulation time: 0 hr 26 min 18 sec) 
Heartbeat CPU 0 instructions: 590000001 cycles: 1289115866 heartbeat IPC: 0.391748 cumulative IPC: 0.393932 (Simulation time: 0 hr 26 min 47 sec) 
Heartbeat CPU 0 instructions: 600000000 cycles: 1309230168 heartbeat IPC: 0.497159 cumulative IPC: 0.395575 (Simulation time: 0 hr 27 min 13 sec) 
Finished CPU 0 instructions: 500000000 cycles: 1263982334 cumulative IPC: 0.395575 (Simulation time: 0 hr 27 min 13 sec) 

CPU 0 Branch Prediction Accuracy: 99.5434% MPKI: 1.33026
Number of Branches: 145676990 Number of Mispredictions: 665128
Number of LOAD Instructions: 188863207
Number of LOAD Instructions (ROI): 188863207
Number of STORE Instructions: 7332002
Number of STORE Instructions (ROI): 7332002
Total Destination Memory Operands: 10029285
Total Destination Memory Operands (ROI): 10029285
Total Source Memory Operands: 188863207
Total Source Memory Operands (ROI): 188863207
Number of DEPENDED LOADS: 296195
Number of DEPENDED LOADS (ROI): 296195
Number of SQ_ADDED: 10029285
Number of SQ_ADDED (ROI): 10029285
Number of LQ_ADDED: 201255297
Number of LQ_ADDED (ROI): 201255297
Number of Instructions read from trace: 600000010

ChampSim completed all CPUs

Region of Interest Statistics

CPU 0 cumulative IPC: 0.395575 instructions: 500000000 cycles: 1263982334
ITLB TOTAL     ACCESS:  145933932  HIT:  145894368  MISS:      39564
ITLB LOAD      ACCESS:  145933932  HIT:  145894368  MISS:      39564
ITLB RFO       ACCESS:          0  HIT:          0  MISS:          0
ITLB PREFETCH  ACCESS:          0  HIT:          0  MISS:          0
ITLB WRITEBACK ACCESS:          0  HIT:          0  MISS:          0
ITLB PREFETCH  REQUESTED:          0  ISSUED:          0  USEFUL:          0  USELESS:          0
ITLB TOTAL MSHR MERGED:      57437
ITLB LOAD MSHR MERGED:      57437
ITLB RFO MSHR MERGED:          0
ITLB PREFETCH MSHR MERGED:          0
ITLB WRITEBACK MSHR MERGED:          0
ITLB TOTAL ACCESSES:  145991369 HITS:  145894368 MISSES:      97001
ITLB LOAD ACCESSES:  145991369 HITS:  145894368 MISSES:      97001
ITLB RFO ACCESSES:          0 HITS:          0 MISSES:          0
ITLB PREFETCH ACCESSES:          0 HITS:          0 MISSES:          0
ITLB WRITEBACK ACCESSES:          0 HITS:          0 MISSES:          0
ITLB RQ ACCESS:  499999754
ITLB RQ TO_CACHE:  145991369
ITLB RQ MERGED:  354008385
ITLB RQ FORWARD:          0
ITLB WQ ACCESS:          0
ITLB WQ TO_CACHE:          0
ITLB WQ MERGED:          0
ITLB WQ FORWARD:          0
DTLB TOTAL     ACCESS:  135369860  HIT:  134201520  MISS:    1168340
DTLB LOAD      ACCESS:  127327469  HIT:  126168221  MISS:    1159248
DTLB RFO       ACCESS:    8042391  HIT:    8033299  MISS:       9092
DTLB PREFETCH  ACCESS:          0  HIT:          0  MISS:          0
DTLB WRITEBACK ACCESS:          0  HIT:          0  MISS:          0
DTLB PREFETCH  REQUESTED:          0  ISSUED:          0  USEFUL:          0  USELESS:          0
DTLB TOTAL MSHR MERGED:     563161
DTLB LOAD MSHR MERGED:     558925
DTLB RFO MSHR MERGED:       4236
DTLB PREFETCH MSHR MERGED:          0
DTLB WRITEBACK MSHR MERGED:          0
DTLB TOTAL ACCESSES:  135933021 HITS:  134201520 MISSES:    1731501
DTLB LOAD ACCESSES:  127886394 HITS:  126168221 MISSES:    1718173
DTLB RFO ACCESSES:    8046627 HITS:    8033299 MISSES:      13328
DTLB PREFETCH ACCESSES:          0 HITS:          0 MISSES:          0
DTLB WRITEBACK ACCESSES:          0 HITS:          0 MISSES:          0
DTLB RQ ACCESS:  165758246
DTLB RQ TO_CACHE:  135933021
DTLB RQ MERGED:   29825225
DTLB RQ FORWARD:          0
DTLB WQ ACCESS:          0
DTLB WQ TO_CACHE:          0
DTLB WQ MERGED:          0
DTLB WQ FORWARD:          0
L1D TOTAL     ACCESS:  158496786  HIT:  141181086  MISS:   17315700
L1D LOAD      ACCESS:   90263940  HIT:   79480738  MISS:   10783202
L1D RFO       ACCESS:    8496026  HIT:    8408884  MISS:      87142
L1D PREFETCH  ACCESS:   59736820  HIT:   53291464  MISS:    6445356
L1D WRITEBACK ACCESS:          0  HIT:          0  MISS:          0
L1D PREFETCH  REQUESTED:   93831758  ISSUED:   92963057  USEFUL:    2363884  USELESS:    4081546
L1D TOTAL MSHR MERGED:   13752908
L1D LOAD MSHR MERGED:    6645536
L1D RFO MSHR MERGED:     128691
L1D PREFETCH MSHR MERGED:    6978681
L1D WRITEBACK MSHR MERGED:          0
L1D TOTAL ACCESSES:  172249874 HITS:  141181265 MISSES:   31068609
L1D LOAD ACCESSES:   93831766 HITS:   79480746 MISSES:   14351020
L1D RFO ACCESSES:    8622877 HITS:    8408884 MISSES:     213993
L1D PREFETCH ACCESSES:   69795231 HITS:   53291635 MISSES:   16503596
L1D WRITEBACK ACCESSES:          0 HITS:          0 MISSES:          0
L1D RQ ACCESS:  157119040
L1D RQ TO_CACHE:   93831758
L1D RQ MERGED:   63287274
L1D RQ FORWARD:          0
L1D WQ ACCESS:    8639208
L1D WQ TO_CACHE:    8622877
L1D WQ MERGED:      16331
L1D WQ FORWARD:        179
L1I TOTAL     ACCESS:  178847423  HIT:  178183967  MISS:     663456
L1I LOAD      ACCESS:  178847423  HIT:  178183967  MISS:     663456
L1I RFO       ACCESS:          0  HIT:          0  MISS:          0
L1I PREFETCH  ACCESS:          0  HIT:          0  MISS:          0
L1I WRITEBACK ACCESS:          0  HIT:          0  MISS:          0
L1I PREFETCH  REQUESTED:          0  ISSUED:          0  USEFUL:          0  USELESS:          0
L1I TOTAL MSHR MERGED:     625798
L1I LOAD MSHR MERGED:     625798
L1I RFO MSHR MERGED:          0
L1I PREFETCH MSHR MERGED:          0
L1I WRITEBACK MSHR MERGED:          0
L1I TOTAL ACCESSES:  179473221 HITS:  178183967 MISSES:    1289254
L1I LOAD ACCESSES:  179473221 HITS:  178183967 MISSES:    1289254
L1I RFO ACCESSES:          0 HITS:          0 MISSES:          0
L1I PREFETCH ACCESSES:          0 HITS:          0 MISSES:          0
L1I WRITEBACK ACCESSES:          0 HITS:          0 MISSES:          0
L1I RQ ACCESS:  499999757
L1I RQ TO_CACHE:  179473221
L1I RQ MERGED:  320526536
L1I RQ FORWARD:          0
L1I WQ ACCESS:          0
L1I WQ TO_CACHE:          0
L1I WQ MERGED:          0
L1I WQ FORWARD:          0
L2C TOTAL     ACCESS:   19267464  HIT:    2050729  MISS:   17216735
L2C LOAD      ACCESS:    8368842  HIT:     948786  MISS:    7420056
L2C RFO       ACCESS:      85279  HIT:      53728  MISS:      31551
L2C PREFETCH  ACCESS:   10528374  HIT:     766057  MISS:    9762317
L2C WRITEBACK ACCESS:     284969  HIT:     282158  MISS:       2811
L2C PREFETCH  REQUESTED:    1005580  ISSUED:    1005580  USEFUL:     272715  USELESS:    9488690
L2C TOTAL MSHR MERGED:        603
L2C LOAD MSHR MERGED:        109
L2C RFO MSHR MERGED:          1
L2C PREFETCH MSHR MERGED:        493
L2C WRITEBACK MSHR MERGED:          0
L2C TOTAL ACCESSES:   19268439 HITS:    2050913 MISSES:   17217526
L2C LOAD ACCESSES:    8368940 HITS:     948884 MISSES:    7420056
L2C RFO ACCESSES:      85302 HITS:      53751 MISSES:      31551
L2C PREFETCH ACCESSES:   10529228 HITS:     766120 MISSES:    9763108
L2C WRITEBACK ACCESSES:     284969 HITS:     282158 MISSES:       2811
L2C RQ ACCESS:    8454242
L2C RQ TO_CACHE:    8454121
L2C RQ MERGED:          0
L2C RQ FORWARD:          0
L2C WQ ACCESS:     284969
L2C WQ TO_CACHE:     284969
L2C WQ MERGED:          0
L2C WQ FORWARD:        184
LLC TOTAL     ACCESS:   17320161  HIT:    2878370  MISS:   14441791
LLC LOAD      ACCESS:    7419947  HIT:     745972  MISS:    6673975
LLC RFO       ACCESS:      31550  HIT:       5958  MISS:      25592
LLC PREFETCH  ACCESS:    9762605  HIT:    2042905  MISS:    7719700
LLC WRITEBACK ACCESS:     106059  HIT:      83535  MISS:      22524
LLC PREFETCH  REQUESTED:          0  ISSUED:          0  USEFUL:     136962  USELESS:    7581292
LLC TOTAL MSHR MERGED:          7
LLC LOAD MSHR MERGED:          0
LLC RFO MSHR MERGED:          0
LLC PREFETCH MSHR MERGED:          7
LLC WRITEBACK MSHR MERGED:          0
LLC TOTAL ACCESSES:   17320169 HITS:    2878370 MISSES:   14441799
LLC LOAD ACCESSES:    7419947 HITS:     745972 MISSES:    6673975
LLC RFO ACCESSES:      31550 HITS:       5958 MISSES:      25592
LLC PREFETCH ACCESSES:    9762613 HITS:    2042905 MISSES:    7719708
LLC WRITEBACK ACCESSES:     106059 HITS:      83535 MISSES:      22524
LLC 0 RQ ACCESS:    7451497
LLC 0 RQ TO_CACHE:    7451497
LLC 0 RQ MERGED:          0
LLC 0 RQ FORWARD:          0
LLC WQ ACCESS:     106059
LLC WQ TO_CACHE:     106059
LLC WQ MERGED:          0
LLC WQ FORWARD:          0
Major fault: 0 Minor fault: 6432
CPU 0 L1D next line prefetcher final stats
CPU 0 L2C PC-based stride prefetcher final stats
All Misses: 17068550
All Hits: 3469912
SD Algo Stats - Switches: 0 SRR-Repls: 7392920 BRR-Repls: 0

DRAM Statistics
 CHANNEL 0
 RQ ROW_BUFFER_HIT:   11207199  ROW_BUFFER_MISS:    3205304
 DBUS_CONGESTED:    7720487
 WQ ROW_BUFFER_HIT:       2790  ROW_BUFFER_MISS:      80268  FULL:          0

 AVG_CONGESTED_CYCLE: 13
LOADS RETIRED: 157382665
INSTR RETIRED: 500000000
