
*** ChampSim Multicore Out-of-Order Simulator ***

Warmup Instructions: 100000000
Simulation Instructions: 500000000
Number of CPUs: 1
LLC sets: 2048
LLC ways: 16
Clean RRIP Policies: 2210230222102302 Dirty RRIP Policies: 1200030212000302 PSEL Width: 10 Track Set: 4294967295 PSEL Mask: 1 Demote Mask: 3040100030401000DS Algo: 0Window size: 0
Off-chip DRAM Size: 4096 MB Channels: 1 Width: 64-bit Data Rate: 1600 MT/s

CPU 0 runs /mnt/beegfs/iconst01/spec2017/Xz.trace.gz
NOT SORTED
TRACE STRING: /mnt/beegfs/iconst01/spec2017/Xz.trace.gz
SORTED
TRACE STRING: /mnt/beegfs/iconst01/spec2017/Xz.trace.gz
INITIAL
TRACE STRING: /mnt/beegfs/iconst01/spec2017/Xz.trace.gz

champsim_seed used: 210

CPU 0 L1D next line prefetcher
CPU 0 L2C IP-based stride prefetcher
Initialize DRRIP state
Assign rand_sets[0]: 454  LLC: 2048
rand_sets[0]: 454
Assign rand_sets[1]: 1662  LLC: 2048
rand_sets[1]: 1662
Assign rand_sets[2]: 1921  LLC: 2048
rand_sets[2]: 1921
Assign rand_sets[3]: 1131  LLC: 2048
rand_sets[3]: 1131
Assign rand_sets[4]: 331  LLC: 2048
rand_sets[4]: 331
Assign rand_sets[5]: 1531  LLC: 2048
rand_sets[5]: 1531
Assign rand_sets[6]: 482  LLC: 2048
rand_sets[6]: 482
Assign rand_sets[7]: 1275  LLC: 2048
rand_sets[7]: 1275
Assign rand_sets[8]: 1876  LLC: 2048
rand_sets[8]: 1876
Assign rand_sets[9]: 2038  LLC: 2048
rand_sets[9]: 2038
Assign rand_sets[10]: 701  LLC: 2048
rand_sets[10]: 701
Assign rand_sets[11]: 479  LLC: 2048
rand_sets[11]: 479
Assign rand_sets[12]: 892  LLC: 2048
rand_sets[12]: 892
Assign rand_sets[13]: 1820  LLC: 2048
rand_sets[13]: 1820
Assign rand_sets[14]: 1505  LLC: 2048
rand_sets[14]: 1505
Assign rand_sets[15]: 1159  LLC: 2048
rand_sets[15]: 1159
Assign rand_sets[16]: 513  LLC: 2048
rand_sets[16]: 513
Assign rand_sets[17]: 703  LLC: 2048
rand_sets[17]: 703
Assign rand_sets[18]: 561  LLC: 2048
rand_sets[18]: 561
Assign rand_sets[19]: 990  LLC: 2048
rand_sets[19]: 990
Assign rand_sets[20]: 342  LLC: 2048
rand_sets[20]: 342
Assign rand_sets[21]: 882  LLC: 2048
rand_sets[21]: 882
Assign rand_sets[22]: 15  LLC: 2048
rand_sets[22]: 15
Assign rand_sets[23]: 71  LLC: 2048
rand_sets[23]: 71
Assign rand_sets[24]: 1127  LLC: 2048
rand_sets[24]: 1127
Assign rand_sets[25]: 1382  LLC: 2048
rand_sets[25]: 1382
Assign rand_sets[26]: 647  LLC: 2048
rand_sets[26]: 647
Assign rand_sets[27]: 857  LLC: 2048
rand_sets[27]: 857
Assign rand_sets[28]: 1450  LLC: 2048
rand_sets[28]: 1450
Assign rand_sets[29]: 1160  LLC: 2048
rand_sets[29]: 1160
Assign rand_sets[30]: 1852  LLC: 2048
rand_sets[30]: 1852
Assign rand_sets[31]: 1881  LLC: 2048
rand_sets[31]: 1881
Assign rand_sets[32]: 1770  LLC: 2048
rand_sets[32]: 1770
Assign rand_sets[33]: 1622  LLC: 2048
rand_sets[33]: 1622
Assign rand_sets[34]: 275  LLC: 2048
rand_sets[34]: 275
Assign rand_sets[35]: 635  LLC: 2048
rand_sets[35]: 635
Assign rand_sets[36]: 466  LLC: 2048
rand_sets[36]: 466
Assign rand_sets[37]: 1413  LLC: 2048
rand_sets[37]: 1413
Assign rand_sets[38]: 417  LLC: 2048
rand_sets[38]: 417
Assign rand_sets[39]: 472  LLC: 2048
rand_sets[39]: 472
Assign rand_sets[40]: 1340  LLC: 2048
rand_sets[40]: 1340
Assign rand_sets[41]: 852  LLC: 2048
rand_sets[41]: 852
Assign rand_sets[42]: 1365  LLC: 2048
rand_sets[42]: 1365
Assign rand_sets[43]: 47  LLC: 2048
rand_sets[43]: 47
Assign rand_sets[44]: 823  LLC: 2048
rand_sets[44]: 823
Assign rand_sets[45]: 686  LLC: 2048
rand_sets[45]: 686
Assign rand_sets[46]: 1637  LLC: 2048
rand_sets[46]: 1637
Assign rand_sets[47]: 1115  LLC: 2048
rand_sets[47]: 1115
Assign rand_sets[48]: 986  LLC: 2048
rand_sets[48]: 986
Assign rand_sets[49]: 258  LLC: 2048
rand_sets[49]: 258
Assign rand_sets[50]: 633  LLC: 2048
rand_sets[50]: 633
Assign rand_sets[51]: 920  LLC: 2048
rand_sets[51]: 920
Assign rand_sets[52]: 204  LLC: 2048
rand_sets[52]: 204
Assign rand_sets[53]: 227  LLC: 2048
rand_sets[53]: 227
Assign rand_sets[54]: 1818  LLC: 2048
rand_sets[54]: 1818
Assign rand_sets[55]: 886  LLC: 2048
rand_sets[55]: 886
Assign rand_sets[56]: 1422  LLC: 2048
rand_sets[56]: 1422
Assign rand_sets[57]: 607  LLC: 2048
rand_sets[57]: 607
Assign rand_sets[58]: 217  LLC: 2048
rand_sets[58]: 217
Assign rand_sets[59]: 1945  LLC: 2048
rand_sets[59]: 1945
Assign rand_sets[60]: 143  LLC: 2048
rand_sets[60]: 143
Assign rand_sets[61]: 1311  LLC: 2048
rand_sets[61]: 1311
Assign rand_sets[62]: 319  LLC: 2048
rand_sets[62]: 319
Assign rand_sets[63]: 1846  LLC: 2048
rand_sets[63]: 1846
 CLEAN-RRIP-POLICY-1: 2-2-1-0-2-3-0-2- CLEAN-RRIP-POLICY-2: 2-2-1-0-2-3-0-2-
 DIRTY-RRIP-POLICY-1: 1-2-0-0-0-3-0-2- DIRTY-RRIP-POLICY-2: 1-2-0-0-0-3-0-2-
 PSEL width: 10
Heartbeat CPU 0 instructions: 10000000 cycles: 4305123 heartbeat IPC: 2.32281 cumulative IPC: 2.32281 (Simulation time: 0 hr 0 min 11 sec) 
Heartbeat CPU 0 instructions: 20000000 cycles: 8616717 heartbeat IPC: 2.31933 cumulative IPC: 2.32107 (Simulation time: 0 hr 0 min 23 sec) 
Heartbeat CPU 0 instructions: 30000003 cycles: 13160472 heartbeat IPC: 2.20082 cumulative IPC: 2.27955 (Simulation time: 0 hr 0 min 36 sec) 
Heartbeat CPU 0 instructions: 40000000 cycles: 17514974 heartbeat IPC: 2.29647 cumulative IPC: 2.28376 (Simulation time: 0 hr 0 min 48 sec) 
Heartbeat CPU 0 instructions: 50000001 cycles: 21877862 heartbeat IPC: 2.29206 cumulative IPC: 2.28542 (Simulation time: 0 hr 1 min 0 sec) 
Heartbeat CPU 0 instructions: 60000000 cycles: 26178050 heartbeat IPC: 2.32548 cumulative IPC: 2.292 (Simulation time: 0 hr 1 min 12 sec) 
Heartbeat CPU 0 instructions: 70000001 cycles: 30243969 heartbeat IPC: 2.45947 cumulative IPC: 2.31451 (Simulation time: 0 hr 1 min 23 sec) 
Heartbeat CPU 0 instructions: 80000000 cycles: 34522790 heartbeat IPC: 2.33709 cumulative IPC: 2.31731 (Simulation time: 0 hr 1 min 34 sec) 
Heartbeat CPU 0 instructions: 90000001 cycles: 38739437 heartbeat IPC: 2.37155 cumulative IPC: 2.32321 (Simulation time: 0 hr 1 min 46 sec) 
Heartbeat CPU 0 instructions: 100000000 cycles: 42979864 heartbeat IPC: 2.35825 cumulative IPC: 2.32667 (Simulation time: 0 hr 1 min 57 sec) 

Warmup complete CPU 0 instructions: 100000001 cycles: 42979865 (Simulation time: 0 hr 1 min 57 sec) 

Heartbeat CPU 0 instructions: 110000000 cycles: 53143958 heartbeat IPC: 0.983856 cumulative IPC: 0.983856 (Simulation time: 0 hr 2 min 15 sec) 
Heartbeat CPU 0 instructions: 120000000 cycles: 63847868 heartbeat IPC: 0.934238 cumulative IPC: 0.958405 (Simulation time: 0 hr 2 min 33 sec) 
Heartbeat CPU 0 instructions: 130000001 cycles: 74502147 heartbeat IPC: 0.93859 cumulative IPC: 0.951708 (Simulation time: 0 hr 2 min 50 sec) 
Heartbeat CPU 0 instructions: 140000000 cycles: 84226035 heartbeat IPC: 1.0284 cumulative IPC: 0.969787 (Simulation time: 0 hr 3 min 8 sec) 
Heartbeat CPU 0 instructions: 150000001 cycles: 94589589 heartbeat IPC: 0.96492 cumulative IPC: 0.96881 (Simulation time: 0 hr 3 min 25 sec) 
Heartbeat CPU 0 instructions: 160000000 cycles: 104698323 heartbeat IPC: 0.989243 cumulative IPC: 0.972156 (Simulation time: 0 hr 3 min 43 sec) 
Heartbeat CPU 0 instructions: 170000000 cycles: 114411548 heartbeat IPC: 1.02952 cumulative IPC: 0.979957 (Simulation time: 0 hr 4 min 0 sec) 
Heartbeat CPU 0 instructions: 180000000 cycles: 125017206 heartbeat IPC: 0.942893 cumulative IPC: 0.975166 (Simulation time: 0 hr 4 min 18 sec) 
Heartbeat CPU 0 instructions: 190000001 cycles: 135338883 heartbeat IPC: 0.968835 cumulative IPC: 0.974458 (Simulation time: 0 hr 4 min 36 sec) 
Heartbeat CPU 0 instructions: 200000000 cycles: 145982850 heartbeat IPC: 0.939499 cumulative IPC: 0.970846 (Simulation time: 0 hr 4 min 53 sec) 
Heartbeat CPU 0 instructions: 210000002 cycles: 158513480 heartbeat IPC: 0.798045 cumulative IPC: 0.952104 (Simulation time: 0 hr 5 min 12 sec) 
Heartbeat CPU 0 instructions: 220000000 cycles: 171118116 heartbeat IPC: 0.793359 cumulative IPC: 0.936489 (Simulation time: 0 hr 5 min 32 sec) 
Heartbeat CPU 0 instructions: 230000000 cycles: 183369885 heartbeat IPC: 0.816209 cumulative IPC: 0.925992 (Simulation time: 0 hr 5 min 51 sec) 
Heartbeat CPU 0 instructions: 240000000 cycles: 195584836 heartbeat IPC: 0.818669 cumulative IPC: 0.917401 (Simulation time: 0 hr 6 min 9 sec) 
Heartbeat CPU 0 instructions: 250000000 cycles: 207641013 heartbeat IPC: 0.82945 cumulative IPC: 0.910962 (Simulation time: 0 hr 6 min 28 sec) 
Heartbeat CPU 0 instructions: 260000000 cycles: 219269659 heartbeat IPC: 0.859945 cumulative IPC: 0.907596 (Simulation time: 0 hr 6 min 47 sec) 
Heartbeat CPU 0 instructions: 270000003 cycles: 231239448 heartbeat IPC: 0.835437 cumulative IPC: 0.903009 (Simulation time: 0 hr 7 min 6 sec) 
Heartbeat CPU 0 instructions: 280000000 cycles: 242868478 heartbeat IPC: 0.859917 cumulative IPC: 0.900501 (Simulation time: 0 hr 7 min 24 sec) 
Heartbeat CPU 0 instructions: 290000002 cycles: 254492334 heartbeat IPC: 0.8603 cumulative IPC: 0.898292 (Simulation time: 0 hr 7 min 43 sec) 
Heartbeat CPU 0 instructions: 300000000 cycles: 267043156 heartbeat IPC: 0.79676 cumulative IPC: 0.892605 (Simulation time: 0 hr 8 min 2 sec) 
Heartbeat CPU 0 instructions: 310000000 cycles: 279322896 heartbeat IPC: 0.814349 cumulative IPC: 0.888539 (Simulation time: 0 hr 8 min 21 sec) 
Heartbeat CPU 0 instructions: 320000000 cycles: 292106159 heartbeat IPC: 0.782273 cumulative IPC: 0.883086 (Simulation time: 0 hr 8 min 40 sec) 
Heartbeat CPU 0 instructions: 330000003 cycles: 304173735 heartbeat IPC: 0.828667 cumulative IPC: 0.880572 (Simulation time: 0 hr 8 min 58 sec) 
Heartbeat CPU 0 instructions: 340000000 cycles: 316397375 heartbeat IPC: 0.818087 cumulative IPC: 0.877778 (Simulation time: 0 hr 9 min 17 sec) 
Heartbeat CPU 0 instructions: 350000001 cycles: 327463612 heartbeat IPC: 0.90365 cumulative IPC: 0.878785 (Simulation time: 0 hr 9 min 35 sec) 
Heartbeat CPU 0 instructions: 360000000 cycles: 339369541 heartbeat IPC: 0.839918 cumulative IPC: 0.877224 (Simulation time: 0 hr 9 min 54 sec) 
Heartbeat CPU 0 instructions: 370000001 cycles: 350857151 heartbeat IPC: 0.870503 cumulative IPC: 0.876973 (Simulation time: 0 hr 10 min 12 sec) 
Heartbeat CPU 0 instructions: 380000000 cycles: 361905014 heartbeat IPC: 0.905152 cumulative IPC: 0.877949 (Simulation time: 0 hr 10 min 31 sec) 
Heartbeat CPU 0 instructions: 390000003 cycles: 372597723 heartbeat IPC: 0.935217 cumulative IPC: 0.879807 (Simulation time: 0 hr 10 min 49 sec) 
Heartbeat CPU 0 instructions: 400000000 cycles: 382865715 heartbeat IPC: 0.9739 cumulative IPC: 0.882649 (Simulation time: 0 hr 11 min 7 sec) 
Heartbeat CPU 0 instructions: 410000000 cycles: 393455431 heartbeat IPC: 0.944312 cumulative IPC: 0.884512 (Simulation time: 0 hr 11 min 25 sec) 
Heartbeat CPU 0 instructions: 420000000 cycles: 402864173 heartbeat IPC: 1.06284 cumulative IPC: 0.889175 (Simulation time: 0 hr 11 min 42 sec) 
Heartbeat CPU 0 instructions: 430000002 cycles: 411961823 heartbeat IPC: 1.09919 cumulative IPC: 0.894353 (Simulation time: 0 hr 12 min 0 sec) 
Heartbeat CPU 0 instructions: 440000000 cycles: 422277705 heartbeat IPC: 0.969379 cumulative IPC: 0.896393 (Simulation time: 0 hr 12 min 18 sec) 
Heartbeat CPU 0 instructions: 450000002 cycles: 433429354 heartbeat IPC: 0.896729 cumulative IPC: 0.896403 (Simulation time: 0 hr 12 min 36 sec) 
Heartbeat CPU 0 instructions: 460000000 cycles: 445054945 heartbeat IPC: 0.860171 cumulative IPC: 0.895355 (Simulation time: 0 hr 12 min 54 sec) 
Heartbeat CPU 0 instructions: 470000003 cycles: 455295184 heartbeat IPC: 0.97654 cumulative IPC: 0.897371 (Simulation time: 0 hr 13 min 11 sec) 
Heartbeat CPU 0 instructions: 480000000 cycles: 465885333 heartbeat IPC: 0.944273 cumulative IPC: 0.898546 (Simulation time: 0 hr 13 min 29 sec) 
Heartbeat CPU 0 instructions: 490000000 cycles: 475875826 heartbeat IPC: 1.00095 cumulative IPC: 0.900909 (Simulation time: 0 hr 13 min 46 sec) 
Heartbeat CPU 0 instructions: 500000000 cycles: 487758322 heartbeat IPC: 0.841574 cumulative IPC: 0.899324 (Simulation time: 0 hr 14 min 4 sec) 
Heartbeat CPU 0 instructions: 510000002 cycles: 500269260 heartbeat IPC: 0.799301 cumulative IPC: 0.896588 (Simulation time: 0 hr 14 min 23 sec) 
Heartbeat CPU 0 instructions: 520000000 cycles: 512213158 heartbeat IPC: 0.837247 cumulative IPC: 0.895077 (Simulation time: 0 hr 14 min 41 sec) 
Heartbeat CPU 0 instructions: 530000001 cycles: 524145177 heartbeat IPC: 0.838081 cumulative IPC: 0.893664 (Simulation time: 0 hr 15 min 0 sec) 
Heartbeat CPU 0 instructions: 540000000 cycles: 535861105 heartbeat IPC: 0.853539 cumulative IPC: 0.89271 (Simulation time: 0 hr 15 min 18 sec) 
Heartbeat CPU 0 instructions: 550000001 cycles: 547354935 heartbeat IPC: 0.870032 cumulative IPC: 0.892193 (Simulation time: 0 hr 15 min 36 sec) 
Heartbeat CPU 0 instructions: 560000000 cycles: 559023580 heartbeat IPC: 0.856997 cumulative IPC: 0.891397 (Simulation time: 0 hr 15 min 54 sec) 
Heartbeat CPU 0 instructions: 570000000 cycles: 570524518 heartbeat IPC: 0.869494 cumulative IPC: 0.89092 (Simulation time: 0 hr 16 min 12 sec) 
Heartbeat CPU 0 instructions: 580000000 cycles: 581378337 heartbeat IPC: 0.921335 cumulative IPC: 0.891533 (Simulation time: 0 hr 16 min 30 sec) 
Heartbeat CPU 0 instructions: 590000003 cycles: 592889621 heartbeat IPC: 0.868713 cumulative IPC: 0.891055 (Simulation time: 0 hr 16 min 48 sec) 
Heartbeat CPU 0 instructions: 600000000 cycles: 603539174 heartbeat IPC: 0.939006 cumulative IPC: 0.891966 (Simulation time: 0 hr 17 min 5 sec) 
Finished CPU 0 instructions: 500000001 cycles: 560559317 cumulative IPC: 0.891966 (Simulation time: 0 hr 17 min 5 sec) 

CPU 0 Branch Prediction Accuracy: 93.0095% MPKI: 10.0046
Number of Branches: 71558147 Number of Mispredictions: 5002285
Number of LOAD Instructions: 145708893
Number of LOAD Instructions (ROI): 145708893
Number of STORE Instructions: 40463820
Number of STORE Instructions (ROI): 40463820
Total Destination Memory Operands: 45240498
Total Destination Memory Operands (ROI): 45240498
Total Source Memory Operands: 145708893
Total Source Memory Operands (ROI): 145708893
Number of DEPENDED LOADS: 10679123
Number of DEPENDED LOADS (ROI): 10679123
Number of SQ_ADDED: 45240498
Number of SQ_ADDED (ROI): 45240498
Number of LQ_ADDED: 193325559
Number of LQ_ADDED (ROI): 193325559
Number of Instructions read from trace: 600000002

ChampSim completed all CPUs

Region of Interest Statistics

CPU 0 cumulative IPC: 0.891966 instructions: 500000001 cycles: 560559317
ITLB TOTAL     ACCESS:   77991040  HIT:   77991039  MISS:          1
ITLB LOAD      ACCESS:   77991040  HIT:   77991039  MISS:          1
ITLB RFO       ACCESS:          0  HIT:          0  MISS:          0
ITLB PREFETCH  ACCESS:          0  HIT:          0  MISS:          0
ITLB WRITEBACK ACCESS:          0  HIT:          0  MISS:          0
ITLB PREFETCH  REQUESTED:          0  ISSUED:          0  USEFUL:          0  USELESS:          0
ITLB TOTAL MSHR MERGED:          0
ITLB LOAD MSHR MERGED:          0
ITLB RFO MSHR MERGED:          0
ITLB PREFETCH MSHR MERGED:          0
ITLB WRITEBACK MSHR MERGED:          0
ITLB TOTAL ACCESSES:   77991040 HITS:   77991039 MISSES:          1
ITLB LOAD ACCESSES:   77991040 HITS:   77991039 MISSES:          1
ITLB RFO ACCESSES:          0 HITS:          0 MISSES:          0
ITLB PREFETCH ACCESSES:          0 HITS:          0 MISSES:          0
ITLB WRITEBACK ACCESSES:          0 HITS:          0 MISSES:          0
ITLB RQ ACCESS:  499999995
ITLB RQ TO_CACHE:   77991040
ITLB RQ MERGED:  422008955
ITLB RQ FORWARD:          0
ITLB WQ ACCESS:          0
ITLB WQ TO_CACHE:          0
ITLB WQ MERGED:          0
ITLB WQ FORWARD:          0
DTLB TOTAL     ACCESS:   98675000  HIT:   97793664  MISS:     881336
DTLB LOAD      ACCESS:   70895137  HIT:   70033604  MISS:     861533
DTLB RFO       ACCESS:   27779863  HIT:   27760060  MISS:      19803
DTLB PREFETCH  ACCESS:          0  HIT:          0  MISS:          0
DTLB WRITEBACK ACCESS:          0  HIT:          0  MISS:          0
DTLB PREFETCH  REQUESTED:          0  ISSUED:          0  USEFUL:          0  USELESS:          0
DTLB TOTAL MSHR MERGED:      87384
DTLB LOAD MSHR MERGED:      65645
DTLB RFO MSHR MERGED:      21739
DTLB PREFETCH MSHR MERGED:          0
DTLB WRITEBACK MSHR MERGED:          0
DTLB TOTAL ACCESSES:   98762384 HITS:   97793664 MISSES:     968720
DTLB LOAD ACCESSES:   70960782 HITS:   70033604 MISSES:     927178
DTLB RFO ACCESSES:   27801602 HITS:   27760060 MISSES:      41542
DTLB PREFETCH ACCESSES:          0 HITS:          0 MISSES:          0
DTLB WRITEBACK ACCESSES:          0 HITS:          0 MISSES:          0
DTLB RQ ACCESS:  150265934
DTLB RQ TO_CACHE:   98762384
DTLB RQ MERGED:   51503550
DTLB RQ FORWARD:          0
DTLB WQ ACCESS:          0
DTLB WQ TO_CACHE:          0
DTLB WQ MERGED:          0
DTLB WQ FORWARD:          0
L1D TOTAL     ACCESS:  173311299  HIT:  169142672  MISS:    4168627
L1D LOAD      ACCESS:   75274427  HIT:   73393102  MISS:    1881325
L1D RFO       ACCESS:   36778270  HIT:   36571650  MISS:     206620
L1D PREFETCH  ACCESS:   61258602  HIT:   59177920  MISS:    2080682
L1D WRITEBACK ACCESS:          0  HIT:          0  MISS:          0
L1D PREFETCH  REQUESTED:   75378614  ISSUED:   74814416  USEFUL:     415126  USELESS:    1665545
L1D TOTAL MSHR MERGED:     377495
L1D LOAD MSHR MERGED:     112946
L1D RFO MSHR MERGED:     133045
L1D PREFETCH MSHR MERGED:     131504
L1D WRITEBACK MSHR MERGED:          0
L1D TOTAL ACCESSES:  173840588 HITS:  169294466 MISSES:    4546122
L1D LOAD ACCESSES:   75381661 HITS:   73396149 MISSES:    1985512
L1D RFO ACCESSES:   36909903 HITS:   36571650 MISSES:     338253
L1D PREFETCH ACCESSES:   61549024 HITS:   59326667 MISSES:    2222357
L1D WRITEBACK ACCESSES:          0 HITS:          0 MISSES:          0
L1D RQ ACCESS:  112603531
L1D RQ TO_CACHE:   75378614
L1D RQ MERGED:   37221870
L1D RQ FORWARD:          0
L1D WQ ACCESS:   37662403
L1D WQ TO_CACHE:   36909903
L1D WQ MERGED:     752500
L1D WQ FORWARD:     151794
L1I TOTAL     ACCESS:  100698994  HIT:  100698969  MISS:         25
L1I LOAD      ACCESS:  100698994  HIT:  100698969  MISS:         25
L1I RFO       ACCESS:          0  HIT:          0  MISS:          0
L1I PREFETCH  ACCESS:          0  HIT:          0  MISS:          0
L1I WRITEBACK ACCESS:          0  HIT:          0  MISS:          0
L1I PREFETCH  REQUESTED:          0  ISSUED:          0  USEFUL:          0  USELESS:          0
L1I TOTAL MSHR MERGED:         10
L1I LOAD MSHR MERGED:         10
L1I RFO MSHR MERGED:          0
L1I PREFETCH MSHR MERGED:          0
L1I WRITEBACK MSHR MERGED:          0
L1I TOTAL ACCESSES:  100699004 HITS:  100698969 MISSES:         35
L1I LOAD ACCESSES:  100699004 HITS:  100698969 MISSES:         35
L1I RFO ACCESSES:          0 HITS:          0 MISSES:          0
L1I PREFETCH ACCESSES:          0 HITS:          0 MISSES:          0
L1I WRITEBACK ACCESSES:          0 HITS:          0 MISSES:          0
L1I RQ ACCESS:  499999995
L1I RQ TO_CACHE:  100699004
L1I RQ MERGED:  399300991
L1I RQ FORWARD:          0
L1I WQ ACCESS:          0
L1I WQ TO_CACHE:          0
L1I WQ MERGED:          0
L1I WQ FORWARD:          0
L2C TOTAL     ACCESS:    5852594  HIT:    4009413  MISS:    1843181
L2C LOAD      ACCESS:    1872467  HIT:    1061520  MISS:     810947
L2C RFO       ACCESS:     205201  HIT:     100561  MISS:     104640
L2C PREFETCH  ACCESS:    2169296  HIT:    1246125  MISS:     923171
L2C WRITEBACK ACCESS:    1605630  HIT:    1601207  MISS:       4423
L2C PREFETCH  REQUESTED:      91712  ISSUED:      91712  USEFUL:      86462  USELESS:     836732
L2C TOTAL MSHR MERGED:       1012
L2C LOAD MSHR MERGED:        259
L2C RFO MSHR MERGED:          0
L2C PREFETCH MSHR MERGED:        753
L2C WRITEBACK MSHR MERGED:          0
L2C TOTAL ACCESSES:    5853917 HITS:    4009581 MISSES:    1844336
L2C LOAD ACCESSES:    1872591 HITS:    1061644 MISSES:     810947
L2C RFO ACCESSES:     205208 HITS:     100568 MISSES:     104640
L2C PREFETCH ACCESSES:    2170488 HITS:    1246162 MISSES:     924326
L2C WRITEBACK ACCESSES:    1605630 HITS:    1601207 MISSES:       4423
L2C RQ ACCESS:    2077799
L2C RQ TO_CACHE:    2077668
L2C RQ MERGED:          0
L2C RQ FORWARD:          0
L2C WQ ACCESS:    1605630
L2C WQ TO_CACHE:    1605630
L2C WQ MERGED:          0
L2C WQ FORWARD:        168
LLC TOTAL     ACCESS:    2673554  HIT:    2189005  MISS:     484549
LLC LOAD      ACCESS:     810679  HIT:     607391  MISS:     203288
LLC RFO       ACCESS:     104640  HIT:      59152  MISS:      45488
LLC PREFETCH  ACCESS:     923560  HIT:     709122  MISS:     214438
LLC WRITEBACK ACCESS:     834675  HIT:     813340  MISS:      21335
LLC PREFETCH  REQUESTED:          0  ISSUED:          0  USEFUL:      40669  USELESS:     173500
LLC TOTAL MSHR MERGED:          5
LLC LOAD MSHR MERGED:          2
LLC RFO MSHR MERGED:          0
LLC PREFETCH MSHR MERGED:          3
LLC WRITEBACK MSHR MERGED:          0
LLC TOTAL ACCESSES:    2673570 HITS:    2189016 MISSES:     484554
LLC LOAD ACCESSES:     810688 HITS:     607400 MISSES:     203288
LLC RFO ACCESSES:     104640 HITS:      59152 MISSES:      45488
LLC PREFETCH ACCESSES:     923567 HITS:     709124 MISSES:     214443
LLC WRITEBACK ACCESSES:     834675 HITS:     813340 MISSES:      21335
LLC 0 RQ ACCESS:     915328
LLC 0 RQ TO_CACHE:     915319
LLC 0 RQ MERGED:          0
LLC 0 RQ FORWARD:          0
LLC WQ ACCESS:     834675
LLC WQ TO_CACHE:     834675
LLC WQ MERGED:          0
LLC WQ FORWARD:         11
Major fault: 0 Minor fault: 11278
CPU 0 L1D next line prefetcher final stats
CPU 0 L2C PC-based stride prefetcher final stats
All Misses: 579675
All Hits: 2474897
SD Algo Stats - Switches: 0 SRR-Repls: 235181 BRR-Repls: 0

DRAM Statistics
 CHANNEL 0
 RQ ROW_BUFFER_HIT:      30270  ROW_BUFFER_MISS:     432486
 DBUS_CONGESTED:     416883
 WQ ROW_BUFFER_HIT:      21583  ROW_BUFFER_MISS:     251775  FULL:          0

 AVG_CONGESTED_CYCLE: 13
LOADS RETIRED: 121769268
INSTR RETIRED: 500000000
