
*** ChampSim Multicore Out-of-Order Simulator ***

Warmup Instructions: 100000000
Simulation Instructions: 500000000
Number of CPUs: 1
LLC sets: 2048
LLC ways: 16
Clean RRIP Policies: 321032003210320 Dirty RRIP Policies: 2311032023110320 PSEL Width: 10 Track Set: 4294967295 PSEL Mask: 1 Demote Mask: 4402233444022334DS Algo: 0Window size: 0
Off-chip DRAM Size: 4096 MB Channels: 1 Width: 64-bit Data Rate: 1600 MT/s

CPU 0 runs /mnt/beegfs/iconst01/spec2017/Bwaves.trace.gz
NOT SORTED
TRACE STRING: /mnt/beegfs/iconst01/spec2017/Bwaves.trace.gz
SORTED
TRACE STRING: /mnt/beegfs/iconst01/spec2017/Bwaves.trace.gz
INITIAL
TRACE STRING: /mnt/beegfs/iconst01/spec2017/Bwaves.trace.gz

champsim_seed used: 616

CPU 0 L1D next line prefetcher
CPU 0 L2C IP-based stride prefetcher
Initialize DRRIP state
Assign rand_sets[0]: 454  LLC: 2048
rand_sets[0]: 454
Assign rand_sets[1]: 1662  LLC: 2048
rand_sets[1]: 1662
Assign rand_sets[2]: 1921  LLC: 2048
rand_sets[2]: 1921
Assign rand_sets[3]: 1131  LLC: 2048
rand_sets[3]: 1131
Assign rand_sets[4]: 331  LLC: 2048
rand_sets[4]: 331
Assign rand_sets[5]: 1531  LLC: 2048
rand_sets[5]: 1531
Assign rand_sets[6]: 482  LLC: 2048
rand_sets[6]: 482
Assign rand_sets[7]: 1275  LLC: 2048
rand_sets[7]: 1275
Assign rand_sets[8]: 1876  LLC: 2048
rand_sets[8]: 1876
Assign rand_sets[9]: 2038  LLC: 2048
rand_sets[9]: 2038
Assign rand_sets[10]: 701  LLC: 2048
rand_sets[10]: 701
Assign rand_sets[11]: 479  LLC: 2048
rand_sets[11]: 479
Assign rand_sets[12]: 892  LLC: 2048
rand_sets[12]: 892
Assign rand_sets[13]: 1820  LLC: 2048
rand_sets[13]: 1820
Assign rand_sets[14]: 1505  LLC: 2048
rand_sets[14]: 1505
Assign rand_sets[15]: 1159  LLC: 2048
rand_sets[15]: 1159
Assign rand_sets[16]: 513  LLC: 2048
rand_sets[16]: 513
Assign rand_sets[17]: 703  LLC: 2048
rand_sets[17]: 703
Assign rand_sets[18]: 561  LLC: 2048
rand_sets[18]: 561
Assign rand_sets[19]: 990  LLC: 2048
rand_sets[19]: 990
Assign rand_sets[20]: 342  LLC: 2048
rand_sets[20]: 342
Assign rand_sets[21]: 882  LLC: 2048
rand_sets[21]: 882
Assign rand_sets[22]: 15  LLC: 2048
rand_sets[22]: 15
Assign rand_sets[23]: 71  LLC: 2048
rand_sets[23]: 71
Assign rand_sets[24]: 1127  LLC: 2048
rand_sets[24]: 1127
Assign rand_sets[25]: 1382  LLC: 2048
rand_sets[25]: 1382
Assign rand_sets[26]: 647  LLC: 2048
rand_sets[26]: 647
Assign rand_sets[27]: 857  LLC: 2048
rand_sets[27]: 857
Assign rand_sets[28]: 1450  LLC: 2048
rand_sets[28]: 1450
Assign rand_sets[29]: 1160  LLC: 2048
rand_sets[29]: 1160
Assign rand_sets[30]: 1852  LLC: 2048
rand_sets[30]: 1852
Assign rand_sets[31]: 1881  LLC: 2048
rand_sets[31]: 1881
Assign rand_sets[32]: 1770  LLC: 2048
rand_sets[32]: 1770
Assign rand_sets[33]: 1622  LLC: 2048
rand_sets[33]: 1622
Assign rand_sets[34]: 275  LLC: 2048
rand_sets[34]: 275
Assign rand_sets[35]: 635  LLC: 2048
rand_sets[35]: 635
Assign rand_sets[36]: 466  LLC: 2048
rand_sets[36]: 466
Assign rand_sets[37]: 1413  LLC: 2048
rand_sets[37]: 1413
Assign rand_sets[38]: 417  LLC: 2048
rand_sets[38]: 417
Assign rand_sets[39]: 472  LLC: 2048
rand_sets[39]: 472
Assign rand_sets[40]: 1340  LLC: 2048
rand_sets[40]: 1340
Assign rand_sets[41]: 852  LLC: 2048
rand_sets[41]: 852
Assign rand_sets[42]: 1365  LLC: 2048
rand_sets[42]: 1365
Assign rand_sets[43]: 47  LLC: 2048
rand_sets[43]: 47
Assign rand_sets[44]: 823  LLC: 2048
rand_sets[44]: 823
Assign rand_sets[45]: 686  LLC: 2048
rand_sets[45]: 686
Assign rand_sets[46]: 1637  LLC: 2048
rand_sets[46]: 1637
Assign rand_sets[47]: 1115  LLC: 2048
rand_sets[47]: 1115
Assign rand_sets[48]: 986  LLC: 2048
rand_sets[48]: 986
Assign rand_sets[49]: 258  LLC: 2048
rand_sets[49]: 258
Assign rand_sets[50]: 633  LLC: 2048
rand_sets[50]: 633
Assign rand_sets[51]: 920  LLC: 2048
rand_sets[51]: 920
Assign rand_sets[52]: 204  LLC: 2048
rand_sets[52]: 204
Assign rand_sets[53]: 227  LLC: 2048
rand_sets[53]: 227
Assign rand_sets[54]: 1818  LLC: 2048
rand_sets[54]: 1818
Assign rand_sets[55]: 886  LLC: 2048
rand_sets[55]: 886
Assign rand_sets[56]: 1422  LLC: 2048
rand_sets[56]: 1422
Assign rand_sets[57]: 607  LLC: 2048
rand_sets[57]: 607
Assign rand_sets[58]: 217  LLC: 2048
rand_sets[58]: 217
Assign rand_sets[59]: 1945  LLC: 2048
rand_sets[59]: 1945
Assign rand_sets[60]: 143  LLC: 2048
rand_sets[60]: 143
Assign rand_sets[61]: 1311  LLC: 2048
rand_sets[61]: 1311
Assign rand_sets[62]: 319  LLC: 2048
rand_sets[62]: 319
Assign rand_sets[63]: 1846  LLC: 2048
rand_sets[63]: 1846
 CLEAN-RRIP-POLICY-1: 0-3-2-1-0-3-2-0- CLEAN-RRIP-POLICY-2: 0-3-2-1-0-3-2-0-
 DIRTY-RRIP-POLICY-1: 2-3-1-1-0-3-2-0- DIRTY-RRIP-POLICY-2: 2-3-1-1-0-3-2-0-
 PSEL width: 10
Heartbeat CPU 0 instructions: 10000000 cycles: 4301292 heartbeat IPC: 2.32488 cumulative IPC: 2.32488 (Simulation time: 0 hr 0 min 11 sec) 
Heartbeat CPU 0 instructions: 20000000 cycles: 8590211 heartbeat IPC: 2.33159 cumulative IPC: 2.32823 (Simulation time: 0 hr 0 min 22 sec) 
Heartbeat CPU 0 instructions: 30000000 cycles: 12882266 heartbeat IPC: 2.32989 cumulative IPC: 2.32878 (Simulation time: 0 hr 0 min 34 sec) 
Heartbeat CPU 0 instructions: 40000000 cycles: 17228855 heartbeat IPC: 2.30065 cumulative IPC: 2.32169 (Simulation time: 0 hr 0 min 46 sec) 
Heartbeat CPU 0 instructions: 50000002 cycles: 21518545 heartbeat IPC: 2.33117 cumulative IPC: 2.32358 (Simulation time: 0 hr 0 min 58 sec) 
Heartbeat CPU 0 instructions: 60000000 cycles: 25808242 heartbeat IPC: 2.33117 cumulative IPC: 2.32484 (Simulation time: 0 hr 1 min 9 sec) 
Heartbeat CPU 0 instructions: 70000002 cycles: 30100360 heartbeat IPC: 2.32985 cumulative IPC: 2.32555 (Simulation time: 0 hr 1 min 21 sec) 
Heartbeat CPU 0 instructions: 80000000 cycles: 34398956 heartbeat IPC: 2.32634 cumulative IPC: 2.32565 (Simulation time: 0 hr 1 min 33 sec) 
Heartbeat CPU 0 instructions: 90000000 cycles: 38685634 heartbeat IPC: 2.33281 cumulative IPC: 2.32645 (Simulation time: 0 hr 1 min 45 sec) 
Heartbeat CPU 0 instructions: 100000000 cycles: 42960709 heartbeat IPC: 2.33914 cumulative IPC: 2.32771 (Simulation time: 0 hr 1 min 56 sec) 

Warmup complete CPU 0 instructions: 100000002 cycles: 42960710 (Simulation time: 0 hr 1 min 56 sec) 

Heartbeat CPU 0 instructions: 110000003 cycles: 52805252 heartbeat IPC: 1.01579 cumulative IPC: 1.01579 (Simulation time: 0 hr 2 min 13 sec) 
Heartbeat CPU 0 instructions: 120000000 cycles: 62575472 heartbeat IPC: 1.02352 cumulative IPC: 1.01964 (Simulation time: 0 hr 2 min 30 sec) 
Heartbeat CPU 0 instructions: 130000002 cycles: 72373990 heartbeat IPC: 1.02056 cumulative IPC: 1.01995 (Simulation time: 0 hr 2 min 47 sec) 
Heartbeat CPU 0 instructions: 140000000 cycles: 82301676 heartbeat IPC: 1.00728 cumulative IPC: 1.01675 (Simulation time: 0 hr 3 min 4 sec) 
Heartbeat CPU 0 instructions: 150000003 cycles: 92243677 heartbeat IPC: 1.00583 cumulative IPC: 1.01455 (Simulation time: 0 hr 3 min 21 sec) 
Heartbeat CPU 0 instructions: 160000000 cycles: 102163271 heartbeat IPC: 1.00811 cumulative IPC: 1.01347 (Simulation time: 0 hr 3 min 39 sec) 
Heartbeat CPU 0 instructions: 170000003 cycles: 112117880 heartbeat IPC: 1.00456 cumulative IPC: 1.01219 (Simulation time: 0 hr 3 min 56 sec) 
Heartbeat CPU 0 instructions: 180000000 cycles: 122062974 heartbeat IPC: 1.00552 cumulative IPC: 1.01135 (Simulation time: 0 hr 4 min 13 sec) 
Heartbeat CPU 0 instructions: 190000001 cycles: 131954349 heartbeat IPC: 1.01098 cumulative IPC: 1.01131 (Simulation time: 0 hr 4 min 30 sec) 
Heartbeat CPU 0 instructions: 200000000 cycles: 141732125 heartbeat IPC: 1.02273 cumulative IPC: 1.01244 (Simulation time: 0 hr 4 min 47 sec) 
Heartbeat CPU 0 instructions: 210000000 cycles: 151625018 heartbeat IPC: 1.01083 cumulative IPC: 1.01229 (Simulation time: 0 hr 5 min 5 sec) 
Heartbeat CPU 0 instructions: 220000000 cycles: 161358301 heartbeat IPC: 1.0274 cumulative IPC: 1.01353 (Simulation time: 0 hr 5 min 22 sec) 
Heartbeat CPU 0 instructions: 230000000 cycles: 171099879 heartbeat IPC: 1.02653 cumulative IPC: 1.01452 (Simulation time: 0 hr 5 min 38 sec) 
Heartbeat CPU 0 instructions: 240000000 cycles: 181275866 heartbeat IPC: 0.982706 cumulative IPC: 1.01218 (Simulation time: 0 hr 5 min 56 sec) 
Heartbeat CPU 0 instructions: 250000002 cycles: 191114463 heartbeat IPC: 1.01641 cumulative IPC: 1.01246 (Simulation time: 0 hr 6 min 13 sec) 
Heartbeat CPU 0 instructions: 260000000 cycles: 200837875 heartbeat IPC: 1.02845 cumulative IPC: 1.01345 (Simulation time: 0 hr 6 min 30 sec) 
Heartbeat CPU 0 instructions: 270000000 cycles: 210533305 heartbeat IPC: 1.03141 cumulative IPC: 1.01449 (Simulation time: 0 hr 6 min 47 sec) 
Heartbeat CPU 0 instructions: 280000000 cycles: 220255535 heartbeat IPC: 1.02857 cumulative IPC: 1.01526 (Simulation time: 0 hr 7 min 4 sec) 
Heartbeat CPU 0 instructions: 290000000 cycles: 229963866 heartbeat IPC: 1.03004 cumulative IPC: 1.01603 (Simulation time: 0 hr 7 min 22 sec) 
Heartbeat CPU 0 instructions: 300000000 cycles: 239679504 heartbeat IPC: 1.02927 cumulative IPC: 1.01668 (Simulation time: 0 hr 7 min 39 sec) 
Heartbeat CPU 0 instructions: 310000001 cycles: 249368056 heartbeat IPC: 1.03215 cumulative IPC: 1.01741 (Simulation time: 0 hr 7 min 55 sec) 
Heartbeat CPU 0 instructions: 320000000 cycles: 259083577 heartbeat IPC: 1.02928 cumulative IPC: 1.01794 (Simulation time: 0 hr 8 min 12 sec) 
Heartbeat CPU 0 instructions: 330000002 cycles: 269111213 heartbeat IPC: 0.997244 cumulative IPC: 1.01702 (Simulation time: 0 hr 8 min 30 sec) 
Heartbeat CPU 0 instructions: 340000000 cycles: 279196933 heartbeat IPC: 0.991501 cumulative IPC: 1.01593 (Simulation time: 0 hr 8 min 47 sec) 
Heartbeat CPU 0 instructions: 350000003 cycles: 289041432 heartbeat IPC: 1.0158 cumulative IPC: 1.01593 (Simulation time: 0 hr 9 min 5 sec) 
Heartbeat CPU 0 instructions: 360000000 cycles: 298852390 heartbeat IPC: 1.01927 cumulative IPC: 1.01605 (Simulation time: 0 hr 9 min 22 sec) 
Heartbeat CPU 0 instructions: 370000001 cycles: 308659830 heartbeat IPC: 1.01963 cumulative IPC: 1.01619 (Simulation time: 0 hr 9 min 39 sec) 
Heartbeat CPU 0 instructions: 380000000 cycles: 318425419 heartbeat IPC: 1.024 cumulative IPC: 1.01646 (Simulation time: 0 hr 9 min 56 sec) 
Heartbeat CPU 0 instructions: 390000001 cycles: 328338905 heartbeat IPC: 1.00873 cumulative IPC: 1.0162 (Simulation time: 0 hr 10 min 13 sec) 
Heartbeat CPU 0 instructions: 400000000 cycles: 338288462 heartbeat IPC: 1.00507 cumulative IPC: 1.01582 (Simulation time: 0 hr 10 min 30 sec) 
Heartbeat CPU 0 instructions: 410000002 cycles: 348236513 heartbeat IPC: 1.00522 cumulative IPC: 1.01548 (Simulation time: 0 hr 10 min 47 sec) 
Heartbeat CPU 0 instructions: 420000000 cycles: 358157899 heartbeat IPC: 1.00792 cumulative IPC: 1.01524 (Simulation time: 0 hr 11 min 5 sec) 
Heartbeat CPU 0 instructions: 430000001 cycles: 368097865 heartbeat IPC: 1.00604 cumulative IPC: 1.01496 (Simulation time: 0 hr 11 min 22 sec) 
Heartbeat CPU 0 instructions: 440000000 cycles: 378019618 heartbeat IPC: 1.00789 cumulative IPC: 1.01475 (Simulation time: 0 hr 11 min 39 sec) 
Heartbeat CPU 0 instructions: 450000003 cycles: 387716464 heartbeat IPC: 1.03126 cumulative IPC: 1.01521 (Simulation time: 0 hr 11 min 56 sec) 
Heartbeat CPU 0 instructions: 460000000 cycles: 397654843 heartbeat IPC: 1.0062 cumulative IPC: 1.01496 (Simulation time: 0 hr 12 min 13 sec) 
Heartbeat CPU 0 instructions: 470000001 cycles: 407386566 heartbeat IPC: 1.02757 cumulative IPC: 1.0153 (Simulation time: 0 hr 12 min 30 sec) 
Heartbeat CPU 0 instructions: 480000000 cycles: 417125269 heartbeat IPC: 1.02683 cumulative IPC: 1.0156 (Simulation time: 0 hr 12 min 47 sec) 
Heartbeat CPU 0 instructions: 490000002 cycles: 427141883 heartbeat IPC: 0.998342 cumulative IPC: 1.01515 (Simulation time: 0 hr 13 min 4 sec) 
Heartbeat CPU 0 instructions: 500000000 cycles: 437151522 heartbeat IPC: 0.999037 cumulative IPC: 1.01474 (Simulation time: 0 hr 13 min 21 sec) 
Heartbeat CPU 0 instructions: 510000002 cycles: 446857927 heartbeat IPC: 1.03025 cumulative IPC: 1.01511 (Simulation time: 0 hr 13 min 38 sec) 
Heartbeat CPU 0 instructions: 520000000 cycles: 456569390 heartbeat IPC: 1.02971 cumulative IPC: 1.01545 (Simulation time: 0 hr 13 min 54 sec) 
Heartbeat CPU 0 instructions: 530000002 cycles: 466271259 heartbeat IPC: 1.03073 cumulative IPC: 1.0158 (Simulation time: 0 hr 14 min 11 sec) 
Heartbeat CPU 0 instructions: 540000000 cycles: 475996426 heartbeat IPC: 1.02826 cumulative IPC: 1.01608 (Simulation time: 0 hr 14 min 28 sec) 
Heartbeat CPU 0 instructions: 550000001 cycles: 485695101 heartbeat IPC: 1.03107 cumulative IPC: 1.01641 (Simulation time: 0 hr 14 min 45 sec) 
Heartbeat CPU 0 instructions: 560000000 cycles: 495407940 heartbeat IPC: 1.02956 cumulative IPC: 1.01669 (Simulation time: 0 hr 15 min 1 sec) 
Heartbeat CPU 0 instructions: 570000002 cycles: 505104476 heartbeat IPC: 1.0313 cumulative IPC: 1.017 (Simulation time: 0 hr 15 min 18 sec) 
Heartbeat CPU 0 instructions: 580000000 cycles: 515119141 heartbeat IPC: 0.998535 cumulative IPC: 1.01661 (Simulation time: 0 hr 15 min 35 sec) 
Heartbeat CPU 0 instructions: 590000000 cycles: 525148223 heartbeat IPC: 0.9971 cumulative IPC: 1.0162 (Simulation time: 0 hr 15 min 52 sec) 
Heartbeat CPU 0 instructions: 600000000 cycles: 535055234 heartbeat IPC: 1.00939 cumulative IPC: 1.01607 (Simulation time: 0 hr 16 min 9 sec) 
Finished CPU 0 instructions: 500000000 cycles: 492094533 cumulative IPC: 1.01607 (Simulation time: 0 hr 16 min 9 sec) 

CPU 0 Branch Prediction Accuracy: 92.9125% MPKI: 10.756
Number of Branches: 75879920 Number of Mispredictions: 5377988
Number of LOAD Instructions: 153642898
Number of LOAD Instructions (ROI): 153642898
Number of STORE Instructions: 31440677
Number of STORE Instructions (ROI): 31440677
Total Destination Memory Operands: 31725032
Total Destination Memory Operands (ROI): 31725032
Total Source Memory Operands: 153642898
Total Source Memory Operands (ROI): 153642898
Number of DEPENDED LOADS: 1892587
Number of DEPENDED LOADS (ROI): 1892587
Number of SQ_ADDED: 31725032
Number of SQ_ADDED (ROI): 31725032
Number of LQ_ADDED: 153654783
Number of LQ_ADDED (ROI): 153654783
Number of Instructions read from trace: 600000003

ChampSim completed all CPUs

Region of Interest Statistics

CPU 0 cumulative IPC: 1.01607 instructions: 500000000 cycles: 492094533
ITLB TOTAL     ACCESS:   82135801  HIT:   82135801  MISS:          0
ITLB LOAD      ACCESS:   82135801  HIT:   82135801  MISS:          0
ITLB RFO       ACCESS:          0  HIT:          0  MISS:          0
ITLB PREFETCH  ACCESS:          0  HIT:          0  MISS:          0
ITLB WRITEBACK ACCESS:          0  HIT:          0  MISS:          0
ITLB PREFETCH  REQUESTED:          0  ISSUED:          0  USEFUL:          0  USELESS:          0
ITLB TOTAL MSHR MERGED:          0
ITLB LOAD MSHR MERGED:          0
ITLB RFO MSHR MERGED:          0
ITLB PREFETCH MSHR MERGED:          0
ITLB WRITEBACK MSHR MERGED:          0
ITLB TOTAL ACCESSES:   82135801 HITS:   82135801 MISSES:          0
ITLB LOAD ACCESSES:   82135801 HITS:   82135801 MISSES:          0
ITLB RFO ACCESSES:          0 HITS:          0 MISSES:          0
ITLB PREFETCH ACCESSES:          0 HITS:          0 MISSES:          0
ITLB WRITEBACK ACCESSES:          0 HITS:          0 MISSES:          0
ITLB RQ ACCESS:  499999926
ITLB RQ TO_CACHE:   82135801
ITLB RQ MERGED:  417864125
ITLB RQ FORWARD:          0
ITLB WQ ACCESS:          0
ITLB WQ TO_CACHE:          0
ITLB WQ MERGED:          0
ITLB WQ FORWARD:          0
DTLB TOTAL     ACCESS:   87138200  HIT:   87137323  MISS:        877
DTLB LOAD      ACCESS:   68494627  HIT:   68494526  MISS:        101
DTLB RFO       ACCESS:   18643573  HIT:   18642797  MISS:        776
DTLB PREFETCH  ACCESS:          0  HIT:          0  MISS:          0
DTLB WRITEBACK ACCESS:          0  HIT:          0  MISS:          0
DTLB PREFETCH  REQUESTED:          0  ISSUED:          0  USEFUL:          0  USELESS:          0
DTLB TOTAL MSHR MERGED:       1089
DTLB LOAD MSHR MERGED:         26
DTLB RFO MSHR MERGED:       1063
DTLB PREFETCH MSHR MERGED:          0
DTLB WRITEBACK MSHR MERGED:          0
DTLB TOTAL ACCESSES:   87139289 HITS:   87137323 MISSES:       1966
DTLB LOAD ACCESSES:   68494653 HITS:   68494526 MISSES:        127
DTLB RFO ACCESSES:   18644636 HITS:   18642797 MISSES:       1839
DTLB PREFETCH ACCESSES:          0 HITS:          0 MISSES:          0
DTLB WRITEBACK ACCESSES:          0 HITS:          0 MISSES:          0
DTLB RQ ACCESS:  152860112
DTLB RQ TO_CACHE:   87139289
DTLB RQ MERGED:   65720823
DTLB RQ FORWARD:          0
DTLB WQ ACCESS:          0
DTLB WQ TO_CACHE:          0
DTLB WQ MERGED:          0
DTLB WQ FORWARD:          0
L1D TOTAL     ACCESS:  151314777  HIT:  151254913  MISS:      59864
L1D LOAD      ACCESS:   73265248  HIT:   73263447  MISS:       1801
L1D RFO       ACCESS:   25966491  HIT:   25915184  MISS:      51307
L1D PREFETCH  ACCESS:   52083038  HIT:   52076282  MISS:       6756
L1D WRITEBACK ACCESS:          0  HIT:          0  MISS:          0
L1D PREFETCH  REQUESTED:   73265529  ISSUED:   72835325  USEFUL:       5366  USELESS:       1388
L1D TOTAL MSHR MERGED:     297510
L1D LOAD MSHR MERGED:        334
L1D RFO MSHR MERGED:     293149
L1D PREFETCH MSHR MERGED:       4027
L1D WRITEBACK MSHR MERGED:          0
L1D TOTAL ACCESSES:  151616472 HITS:  151259098 MISSES:     357374
L1D LOAD ACCESSES:   73265881 HITS:   73263799 MISSES:       2082
L1D RFO ACCESSES:   26259638 HITS:   25915184 MISSES:     344454
L1D PREFETCH ACCESSES:   52090953 HITS:   52080115 MISSES:      10838
L1D WRITEBACK ACCESSES:          0 HITS:          0 MISSES:          0
L1D RQ ACCESS:  126388218
L1D RQ TO_CACHE:   73265529
L1D RQ MERGED:   53122337
L1D RQ FORWARD:          0
L1D WQ ACCESS:   26471896
L1D WQ TO_CACHE:   26259639
L1D WQ MERGED:     212257
L1D WQ FORWARD:       4185
L1I TOTAL     ACCESS:   94261510  HIT:   94261504  MISS:          6
L1I LOAD      ACCESS:   94261510  HIT:   94261504  MISS:          6
L1I RFO       ACCESS:          0  HIT:          0  MISS:          0
L1I PREFETCH  ACCESS:          0  HIT:          0  MISS:          0
L1I WRITEBACK ACCESS:          0  HIT:          0  MISS:          0
L1I PREFETCH  REQUESTED:          0  ISSUED:          0  USEFUL:          0  USELESS:          0
L1I TOTAL MSHR MERGED:          4
L1I LOAD MSHR MERGED:          4
L1I RFO MSHR MERGED:          0
L1I PREFETCH MSHR MERGED:          0
L1I WRITEBACK MSHR MERGED:          0
L1I TOTAL ACCESSES:   94261514 HITS:   94261504 MISSES:         10
L1I LOAD ACCESSES:   94261514 HITS:   94261504 MISSES:         10
L1I RFO ACCESSES:          0 HITS:          0 MISSES:          0
L1I PREFETCH ACCESSES:          0 HITS:          0 MISSES:          0
L1I WRITEBACK ACCESSES:          0 HITS:          0 MISSES:          0
L1I RQ ACCESS:  499999932
L1I RQ TO_CACHE:   94261514
L1I RQ MERGED:  405738418
L1I RQ FORWARD:          0
L1I WQ ACCESS:          0
L1I WQ TO_CACHE:          0
L1I WQ MERGED:          0
L1I WQ FORWARD:          0
L2C TOTAL     ACCESS:     111550  HIT:      56085  MISS:      55465
L2C LOAD      ACCESS:       1754  HIT:       1448  MISS:        306
L2C RFO       ACCESS:      51305  HIT:       1523  MISS:      49782
L2C PREFETCH  ACCESS:       6811  HIT:       1659  MISS:       5152
L2C WRITEBACK ACCESS:      51680  HIT:      51455  MISS:        225
L2C PREFETCH  REQUESTED:          0  ISSUED:          0  USEFUL:        122  USELESS:       5055
L2C TOTAL MSHR MERGED:          0
L2C LOAD MSHR MERGED:          0
L2C RFO MSHR MERGED:          0
L2C PREFETCH MSHR MERGED:          0
L2C WRITEBACK MSHR MERGED:          0
L2C TOTAL ACCESSES:     111550 HITS:      56085 MISSES:      55465
L2C LOAD ACCESSES:       1754 HITS:       1448 MISSES:        306
L2C RFO ACCESSES:      51305 HITS:       1523 MISSES:      49782
L2C PREFETCH ACCESSES:       6811 HITS:       1659 MISSES:       5152
L2C WRITEBACK ACCESSES:      51680 HITS:      51455 MISSES:        225
L2C RQ ACCESS:      53059
L2C RQ TO_CACHE:      53059
L2C RQ MERGED:          0
L2C RQ FORWARD:          0
L2C WQ ACCESS:      51680
L2C WQ TO_CACHE:      51680
L2C WQ MERGED:          0
L2C WQ FORWARD:          0
LLC TOTAL     ACCESS:     105240  HIT:        803  MISS:     104437
LLC LOAD      ACCESS:        306  HIT:        177  MISS:        129
LLC RFO       ACCESS:      49782  HIT:         99  MISS:      49683
LLC PREFETCH  ACCESS:       5152  HIT:        227  MISS:       4925
LLC WRITEBACK ACCESS:      50000  HIT:        300  MISS:      49700
LLC PREFETCH  REQUESTED:          0  ISSUED:          0  USEFUL:          3  USELESS:          0
LLC TOTAL MSHR MERGED:          0
LLC LOAD MSHR MERGED:          0
LLC RFO MSHR MERGED:          0
LLC PREFETCH MSHR MERGED:          0
LLC WRITEBACK MSHR MERGED:          0
LLC TOTAL ACCESSES:     105240 HITS:        803 MISSES:     104437
LLC LOAD ACCESSES:        306 HITS:        177 MISSES:        129
LLC RFO ACCESSES:      49782 HITS:         99 MISSES:      49683
LLC PREFETCH ACCESSES:       5152 HITS:        227 MISSES:       4925
LLC WRITEBACK ACCESSES:      50000 HITS:        300 MISSES:      49700
LLC 0 RQ ACCESS:      50088
LLC 0 RQ TO_CACHE:      50088
LLC 0 RQ MERGED:          0
LLC 0 RQ FORWARD:          0
LLC WQ ACCESS:      50000
LLC WQ TO_CACHE:      50000
LLC WQ MERGED:          0
LLC WQ FORWARD:          0
Major fault: 0 Minor fault: 1116
CPU 0 L1D next line prefetcher final stats
CPU 0 L2C PC-based stride prefetcher final stats
All Misses: 128966
All Hits: 972
SD Algo Stats - Switches: 0 SRR-Repls: 472 BRR-Repls: 0

DRAM Statistics
 CHANNEL 0
 RQ ROW_BUFFER_HIT:      32010  ROW_BUFFER_MISS:      22727
 DBUS_CONGESTED:      69266
 WQ ROW_BUFFER_HIT:      25766  ROW_BUFFER_MISS:      24822  FULL:          0

 AVG_CONGESTED_CYCLE: 14
LOADS RETIRED: 127961192
INSTR RETIRED: 500000000
