
*** ChampSim Multicore Out-of-Order Simulator ***

Warmup Instructions: 100000000
Simulation Instructions: 500000000
Number of CPUs: 1
LLC sets: 2048
LLC ways: 16
Clean RRIP Policies: 1122000311220003 Dirty RRIP Policies: 2112200321122003 PSEL Width: 10 Track Set: 4294967295 PSEL Mask: 1 Demote Mask: 1230123312301233DS Algo: 0Window size: 0
Off-chip DRAM Size: 4096 MB Channels: 1 Width: 64-bit Data Rate: 1600 MT/s

CPU 0 runs /mnt/beegfs/iconst01/spec2017/Gcc.trace.gz
NOT SORTED
TRACE STRING: /mnt/beegfs/iconst01/spec2017/Gcc.trace.gz
SORTED
TRACE STRING: /mnt/beegfs/iconst01/spec2017/Gcc.trace.gz
INITIAL
TRACE STRING: /mnt/beegfs/iconst01/spec2017/Gcc.trace.gz

champsim_seed used: 269

CPU 0 L1D next line prefetcher
CPU 0 L2C IP-based stride prefetcher
Initialize DRRIP state
Assign rand_sets[0]: 454  LLC: 2048
rand_sets[0]: 454
Assign rand_sets[1]: 1662  LLC: 2048
rand_sets[1]: 1662
Assign rand_sets[2]: 1921  LLC: 2048
rand_sets[2]: 1921
Assign rand_sets[3]: 1131  LLC: 2048
rand_sets[3]: 1131
Assign rand_sets[4]: 331  LLC: 2048
rand_sets[4]: 331
Assign rand_sets[5]: 1531  LLC: 2048
rand_sets[5]: 1531
Assign rand_sets[6]: 482  LLC: 2048
rand_sets[6]: 482
Assign rand_sets[7]: 1275  LLC: 2048
rand_sets[7]: 1275
Assign rand_sets[8]: 1876  LLC: 2048
rand_sets[8]: 1876
Assign rand_sets[9]: 2038  LLC: 2048
rand_sets[9]: 2038
Assign rand_sets[10]: 701  LLC: 2048
rand_sets[10]: 701
Assign rand_sets[11]: 479  LLC: 2048
rand_sets[11]: 479
Assign rand_sets[12]: 892  LLC: 2048
rand_sets[12]: 892
Assign rand_sets[13]: 1820  LLC: 2048
rand_sets[13]: 1820
Assign rand_sets[14]: 1505  LLC: 2048
rand_sets[14]: 1505
Assign rand_sets[15]: 1159  LLC: 2048
rand_sets[15]: 1159
Assign rand_sets[16]: 513  LLC: 2048
rand_sets[16]: 513
Assign rand_sets[17]: 703  LLC: 2048
rand_sets[17]: 703
Assign rand_sets[18]: 561  LLC: 2048
rand_sets[18]: 561
Assign rand_sets[19]: 990  LLC: 2048
rand_sets[19]: 990
Assign rand_sets[20]: 342  LLC: 2048
rand_sets[20]: 342
Assign rand_sets[21]: 882  LLC: 2048
rand_sets[21]: 882
Assign rand_sets[22]: 15  LLC: 2048
rand_sets[22]: 15
Assign rand_sets[23]: 71  LLC: 2048
rand_sets[23]: 71
Assign rand_sets[24]: 1127  LLC: 2048
rand_sets[24]: 1127
Assign rand_sets[25]: 1382  LLC: 2048
rand_sets[25]: 1382
Assign rand_sets[26]: 647  LLC: 2048
rand_sets[26]: 647
Assign rand_sets[27]: 857  LLC: 2048
rand_sets[27]: 857
Assign rand_sets[28]: 1450  LLC: 2048
rand_sets[28]: 1450
Assign rand_sets[29]: 1160  LLC: 2048
rand_sets[29]: 1160
Assign rand_sets[30]: 1852  LLC: 2048
rand_sets[30]: 1852
Assign rand_sets[31]: 1881  LLC: 2048
rand_sets[31]: 1881
Assign rand_sets[32]: 1770  LLC: 2048
rand_sets[32]: 1770
Assign rand_sets[33]: 1622  LLC: 2048
rand_sets[33]: 1622
Assign rand_sets[34]: 275  LLC: 2048
rand_sets[34]: 275
Assign rand_sets[35]: 635  LLC: 2048
rand_sets[35]: 635
Assign rand_sets[36]: 466  LLC: 2048
rand_sets[36]: 466
Assign rand_sets[37]: 1413  LLC: 2048
rand_sets[37]: 1413
Assign rand_sets[38]: 417  LLC: 2048
rand_sets[38]: 417
Assign rand_sets[39]: 472  LLC: 2048
rand_sets[39]: 472
Assign rand_sets[40]: 1340  LLC: 2048
rand_sets[40]: 1340
Assign rand_sets[41]: 852  LLC: 2048
rand_sets[41]: 852
Assign rand_sets[42]: 1365  LLC: 2048
rand_sets[42]: 1365
Assign rand_sets[43]: 47  LLC: 2048
rand_sets[43]: 47
Assign rand_sets[44]: 823  LLC: 2048
rand_sets[44]: 823
Assign rand_sets[45]: 686  LLC: 2048
rand_sets[45]: 686
Assign rand_sets[46]: 1637  LLC: 2048
rand_sets[46]: 1637
Assign rand_sets[47]: 1115  LLC: 2048
rand_sets[47]: 1115
Assign rand_sets[48]: 986  LLC: 2048
rand_sets[48]: 986
Assign rand_sets[49]: 258  LLC: 2048
rand_sets[49]: 258
Assign rand_sets[50]: 633  LLC: 2048
rand_sets[50]: 633
Assign rand_sets[51]: 920  LLC: 2048
rand_sets[51]: 920
Assign rand_sets[52]: 204  LLC: 2048
rand_sets[52]: 204
Assign rand_sets[53]: 227  LLC: 2048
rand_sets[53]: 227
Assign rand_sets[54]: 1818  LLC: 2048
rand_sets[54]: 1818
Assign rand_sets[55]: 886  LLC: 2048
rand_sets[55]: 886
Assign rand_sets[56]: 1422  LLC: 2048
rand_sets[56]: 1422
Assign rand_sets[57]: 607  LLC: 2048
rand_sets[57]: 607
Assign rand_sets[58]: 217  LLC: 2048
rand_sets[58]: 217
Assign rand_sets[59]: 1945  LLC: 2048
rand_sets[59]: 1945
Assign rand_sets[60]: 143  LLC: 2048
rand_sets[60]: 143
Assign rand_sets[61]: 1311  LLC: 2048
rand_sets[61]: 1311
Assign rand_sets[62]: 319  LLC: 2048
rand_sets[62]: 319
Assign rand_sets[63]: 1846  LLC: 2048
rand_sets[63]: 1846
 CLEAN-RRIP-POLICY-1: 1-1-2-2-0-0-0-3- CLEAN-RRIP-POLICY-2: 1-1-2-2-0-0-0-3-
 DIRTY-RRIP-POLICY-1: 2-1-1-2-2-0-0-3- DIRTY-RRIP-POLICY-2: 2-1-1-2-2-0-0-3-
 PSEL width: 10
Heartbeat CPU 0 instructions: 10000001 cycles: 7320815 heartbeat IPC: 1.36597 cumulative IPC: 1.36597 (Simulation time: 0 hr 0 min 15 sec) 
Heartbeat CPU 0 instructions: 20000000 cycles: 14325306 heartbeat IPC: 1.42766 cumulative IPC: 1.39613 (Simulation time: 0 hr 0 min 29 sec) 
Heartbeat CPU 0 instructions: 30000001 cycles: 21041684 heartbeat IPC: 1.4889 cumulative IPC: 1.42574 (Simulation time: 0 hr 0 min 45 sec) 
Heartbeat CPU 0 instructions: 40000000 cycles: 27503490 heartbeat IPC: 1.54755 cumulative IPC: 1.45436 (Simulation time: 0 hr 1 min 1 sec) 
Heartbeat CPU 0 instructions: 50000001 cycles: 33606268 heartbeat IPC: 1.6386 cumulative IPC: 1.48782 (Simulation time: 0 hr 1 min 17 sec) 
Heartbeat CPU 0 instructions: 60000000 cycles: 40088397 heartbeat IPC: 1.5427 cumulative IPC: 1.49669 (Simulation time: 0 hr 1 min 33 sec) 
Heartbeat CPU 0 instructions: 70000000 cycles: 47131087 heartbeat IPC: 1.41991 cumulative IPC: 1.48522 (Simulation time: 0 hr 1 min 48 sec) 
Heartbeat CPU 0 instructions: 80000000 cycles: 54225915 heartbeat IPC: 1.40948 cumulative IPC: 1.47531 (Simulation time: 0 hr 2 min 3 sec) 
Heartbeat CPU 0 instructions: 90000003 cycles: 61235602 heartbeat IPC: 1.4266 cumulative IPC: 1.46973 (Simulation time: 0 hr 2 min 18 sec) 
Heartbeat CPU 0 instructions: 100000000 cycles: 68408031 heartbeat IPC: 1.39423 cumulative IPC: 1.46182 (Simulation time: 0 hr 2 min 32 sec) 

Warmup complete CPU 0 instructions: 100000004 cycles: 68408032 (Simulation time: 0 hr 2 min 32 sec) 

Heartbeat CPU 0 instructions: 110000003 cycles: 96804005 heartbeat IPC: 0.352163 cumulative IPC: 0.352163 (Simulation time: 0 hr 3 min 1 sec) 
Heartbeat CPU 0 instructions: 120000000 cycles: 124484545 heartbeat IPC: 0.361265 cumulative IPC: 0.356655 (Simulation time: 0 hr 3 min 31 sec) 
Heartbeat CPU 0 instructions: 130000000 cycles: 149725206 heartbeat IPC: 0.396186 cumulative IPC: 0.368926 (Simulation time: 0 hr 3 min 59 sec) 
Heartbeat CPU 0 instructions: 140000000 cycles: 180636134 heartbeat IPC: 0.32351 cumulative IPC: 0.356417 (Simulation time: 0 hr 4 min 28 sec) 
Heartbeat CPU 0 instructions: 150000000 cycles: 211383975 heartbeat IPC: 0.325226 cumulative IPC: 0.349709 (Simulation time: 0 hr 4 min 56 sec) 
Heartbeat CPU 0 instructions: 160000000 cycles: 239097525 heartbeat IPC: 0.360834 cumulative IPC: 0.351515 (Simulation time: 0 hr 5 min 24 sec) 
Heartbeat CPU 0 instructions: 170000001 cycles: 267498924 heartbeat IPC: 0.352095 cumulative IPC: 0.351598 (Simulation time: 0 hr 5 min 54 sec) 
Heartbeat CPU 0 instructions: 180000000 cycles: 296347337 heartbeat IPC: 0.346639 cumulative IPC: 0.350971 (Simulation time: 0 hr 6 min 23 sec) 
Heartbeat CPU 0 instructions: 190000002 cycles: 324887901 heartbeat IPC: 0.350379 cumulative IPC: 0.350905 (Simulation time: 0 hr 6 min 51 sec) 
Heartbeat CPU 0 instructions: 200000000 cycles: 353709148 heartbeat IPC: 0.346966 cumulative IPC: 0.350507 (Simulation time: 0 hr 7 min 21 sec) 
Heartbeat CPU 0 instructions: 210000002 cycles: 382073436 heartbeat IPC: 0.352556 cumulative IPC: 0.350692 (Simulation time: 0 hr 7 min 49 sec) 
Heartbeat CPU 0 instructions: 220000000 cycles: 412485059 heartbeat IPC: 0.328822 cumulative IPC: 0.348759 (Simulation time: 0 hr 8 min 17 sec) 
Heartbeat CPU 0 instructions: 230000000 cycles: 440607905 heartbeat IPC: 0.355583 cumulative IPC: 0.349275 (Simulation time: 0 hr 8 min 45 sec) 
Heartbeat CPU 0 instructions: 240000000 cycles: 466997426 heartbeat IPC: 0.378938 cumulative IPC: 0.351239 (Simulation time: 0 hr 9 min 13 sec) 
Heartbeat CPU 0 instructions: 250000000 cycles: 497319468 heartbeat IPC: 0.329793 cumulative IPC: 0.349723 (Simulation time: 0 hr 9 min 43 sec) 
Heartbeat CPU 0 instructions: 260000000 cycles: 524618881 heartbeat IPC: 0.366308 cumulative IPC: 0.350715 (Simulation time: 0 hr 10 min 11 sec) 
Heartbeat CPU 0 instructions: 270000003 cycles: 553351889 heartbeat IPC: 0.348032 cumulative IPC: 0.350556 (Simulation time: 0 hr 10 min 41 sec) 
Heartbeat CPU 0 instructions: 280000000 cycles: 581871025 heartbeat IPC: 0.350642 cumulative IPC: 0.350561 (Simulation time: 0 hr 11 min 10 sec) 
Heartbeat CPU 0 instructions: 290000000 cycles: 611094146 heartbeat IPC: 0.342195 cumulative IPC: 0.35011 (Simulation time: 0 hr 11 min 40 sec) 
Heartbeat CPU 0 instructions: 300000000 cycles: 641970796 heartbeat IPC: 0.323869 cumulative IPC: 0.348698 (Simulation time: 0 hr 12 min 9 sec) 
Heartbeat CPU 0 instructions: 310000001 cycles: 672034623 heartbeat IPC: 0.332626 cumulative IPC: 0.347897 (Simulation time: 0 hr 12 min 38 sec) 
Heartbeat CPU 0 instructions: 320000000 cycles: 701066621 heartbeat IPC: 0.344447 cumulative IPC: 0.347739 (Simulation time: 0 hr 13 min 6 sec) 
Heartbeat CPU 0 instructions: 330000000 cycles: 730279273 heartbeat IPC: 0.342317 cumulative IPC: 0.3475 (Simulation time: 0 hr 13 min 35 sec) 
Heartbeat CPU 0 instructions: 340000000 cycles: 760208863 heartbeat IPC: 0.334118 cumulative IPC: 0.346921 (Simulation time: 0 hr 14 min 4 sec) 
Heartbeat CPU 0 instructions: 350000003 cycles: 787654208 heartbeat IPC: 0.364361 cumulative IPC: 0.347586 (Simulation time: 0 hr 14 min 32 sec) 
Heartbeat CPU 0 instructions: 360000000 cycles: 817978331 heartbeat IPC: 0.32977 cumulative IPC: 0.346865 (Simulation time: 0 hr 15 min 0 sec) 
Heartbeat CPU 0 instructions: 370000000 cycles: 848402703 heartbeat IPC: 0.328684 cumulative IPC: 0.346156 (Simulation time: 0 hr 15 min 28 sec) 
Heartbeat CPU 0 instructions: 380000000 cycles: 879221582 heartbeat IPC: 0.324476 cumulative IPC: 0.345332 (Simulation time: 0 hr 15 min 56 sec) 
Heartbeat CPU 0 instructions: 390000001 cycles: 909159466 heartbeat IPC: 0.334025 cumulative IPC: 0.34493 (Simulation time: 0 hr 16 min 24 sec) 
Heartbeat CPU 0 instructions: 400000000 cycles: 940020498 heartbeat IPC: 0.324033 cumulative IPC: 0.34419 (Simulation time: 0 hr 16 min 53 sec) 
Heartbeat CPU 0 instructions: 410000001 cycles: 969685672 heartbeat IPC: 0.337096 cumulative IPC: 0.343956 (Simulation time: 0 hr 17 min 21 sec) 
Heartbeat CPU 0 instructions: 420000000 cycles: 999366464 heartbeat IPC: 0.336918 cumulative IPC: 0.343732 (Simulation time: 0 hr 17 min 49 sec) 
Heartbeat CPU 0 instructions: 430000002 cycles: 1029469459 heartbeat IPC: 0.332193 cumulative IPC: 0.34337 (Simulation time: 0 hr 18 min 17 sec) 
Heartbeat CPU 0 instructions: 440000000 cycles: 1060813404 heartbeat IPC: 0.319041 cumulative IPC: 0.342602 (Simulation time: 0 hr 18 min 45 sec) 
Heartbeat CPU 0 instructions: 450000002 cycles: 1091979294 heartbeat IPC: 0.320864 cumulative IPC: 0.34194 (Simulation time: 0 hr 19 min 13 sec) 
Heartbeat CPU 0 instructions: 460000000 cycles: 1121991180 heartbeat IPC: 0.333201 cumulative IPC: 0.341691 (Simulation time: 0 hr 19 min 40 sec) 
Heartbeat CPU 0 instructions: 470000000 cycles: 1151648609 heartbeat IPC: 0.337184 cumulative IPC: 0.341568 (Simulation time: 0 hr 20 min 8 sec) 
Heartbeat CPU 0 instructions: 480000000 cycles: 1181535194 heartbeat IPC: 0.334598 cumulative IPC: 0.341381 (Simulation time: 0 hr 20 min 35 sec) 
Heartbeat CPU 0 instructions: 490000000 cycles: 1211141663 heartbeat IPC: 0.337764 cumulative IPC: 0.341287 (Simulation time: 0 hr 21 min 3 sec) 
Heartbeat CPU 0 instructions: 500000000 cycles: 1241201176 heartbeat IPC: 0.332673 cumulative IPC: 0.341066 (Simulation time: 0 hr 21 min 30 sec) 
Heartbeat CPU 0 instructions: 510000000 cycles: 1276539738 heartbeat IPC: 0.282977 cumulative IPC: 0.339367 (Simulation time: 0 hr 22 min 1 sec) 
Heartbeat CPU 0 instructions: 520000000 cycles: 1304713270 heartbeat IPC: 0.354943 cumulative IPC: 0.339722 (Simulation time: 0 hr 22 min 29 sec) 
Heartbeat CPU 0 instructions: 530000001 cycles: 1335202708 heartbeat IPC: 0.327982 cumulative IPC: 0.339439 (Simulation time: 0 hr 22 min 57 sec) 
Heartbeat CPU 0 instructions: 540000000 cycles: 1364142330 heartbeat IPC: 0.345547 cumulative IPC: 0.339576 (Simulation time: 0 hr 23 min 25 sec) 
Heartbeat CPU 0 instructions: 550000001 cycles: 1393608351 heartbeat IPC: 0.339374 cumulative IPC: 0.339571 (Simulation time: 0 hr 23 min 55 sec) 
Heartbeat CPU 0 instructions: 560000000 cycles: 1419316854 heartbeat IPC: 0.388976 cumulative IPC: 0.340512 (Simulation time: 0 hr 24 min 22 sec) 
Heartbeat CPU 0 instructions: 570000000 cycles: 1449607996 heartbeat IPC: 0.33013 cumulative IPC: 0.340284 (Simulation time: 0 hr 24 min 51 sec) 
Heartbeat CPU 0 instructions: 580000000 cycles: 1478285295 heartbeat IPC: 0.348708 cumulative IPC: 0.340455 (Simulation time: 0 hr 25 min 19 sec) 
Heartbeat CPU 0 instructions: 590000001 cycles: 1503584017 heartbeat IPC: 0.395277 cumulative IPC: 0.341422 (Simulation time: 0 hr 25 min 46 sec) 
Heartbeat CPU 0 instructions: 600000000 cycles: 1530770694 heartbeat IPC: 0.367827 cumulative IPC: 0.341912 (Simulation time: 0 hr 26 min 13 sec) 
Finished CPU 0 instructions: 500000000 cycles: 1462362684 cumulative IPC: 0.341912 (Simulation time: 0 hr 26 min 13 sec) 

CPU 0 Branch Prediction Accuracy: 86.4311% MPKI: 26.2662
Number of Branches: 96788573 Number of Mispredictions: 13133102
Number of LOAD Instructions: 164682285
Number of LOAD Instructions (ROI): 164682285
Number of STORE Instructions: 78194750
Number of STORE Instructions (ROI): 78194750
Total Destination Memory Operands: 83268534
Total Destination Memory Operands (ROI): 83268534
Total Source Memory Operands: 164712438
Total Source Memory Operands (ROI): 164712438
Number of DEPENDED LOADS: 7065221
Number of DEPENDED LOADS (ROI): 7065221
Number of SQ_ADDED: 83268522
Number of SQ_ADDED (ROI): 83268522
Number of LQ_ADDED: 236351289
Number of LQ_ADDED (ROI): 236351289
Number of Instructions read from trace: 600000066

ChampSim completed all CPUs

Region of Interest Statistics

CPU 0 cumulative IPC: 0.341912 instructions: 500000000 cycles: 1462362684
ITLB TOTAL     ACCESS:  100506785  HIT:  100302339  MISS:     204446
ITLB LOAD      ACCESS:  100506785  HIT:  100302339  MISS:     204446
ITLB RFO       ACCESS:          0  HIT:          0  MISS:          0
ITLB PREFETCH  ACCESS:          0  HIT:          0  MISS:          0
ITLB WRITEBACK ACCESS:          0  HIT:          0  MISS:          0
ITLB PREFETCH  REQUESTED:          0  ISSUED:          0  USEFUL:          0  USELESS:          0
ITLB TOTAL MSHR MERGED:     172423
ITLB LOAD MSHR MERGED:     172423
ITLB RFO MSHR MERGED:          0
ITLB PREFETCH MSHR MERGED:          0
ITLB WRITEBACK MSHR MERGED:          0
ITLB TOTAL ACCESSES:  100679208 HITS:  100302339 MISSES:     376869
ITLB LOAD ACCESSES:  100679208 HITS:  100302339 MISSES:     376869
ITLB RFO ACCESSES:          0 HITS:          0 MISSES:          0
ITLB PREFETCH ACCESSES:          0 HITS:          0 MISSES:          0
ITLB WRITEBACK ACCESSES:          0 HITS:          0 MISSES:          0
ITLB RQ ACCESS:  500000057
ITLB RQ TO_CACHE:  100679208
ITLB RQ MERGED:  399320849
ITLB RQ FORWARD:          0
ITLB WQ ACCESS:          0
ITLB WQ TO_CACHE:          0
ITLB WQ MERGED:          0
ITLB WQ FORWARD:          0
DTLB TOTAL     ACCESS:  165342883  HIT:  164708530  MISS:     634353
DTLB LOAD      ACCESS:  106295608  HIT:  105725580  MISS:     570028
DTLB RFO       ACCESS:   59047275  HIT:   58982950  MISS:      64325
DTLB PREFETCH  ACCESS:          0  HIT:          0  MISS:          0
DTLB WRITEBACK ACCESS:          0  HIT:          0  MISS:          0
DTLB PREFETCH  REQUESTED:          0  ISSUED:          0  USEFUL:          0  USELESS:          0
DTLB TOTAL MSHR MERGED:      99640
DTLB LOAD MSHR MERGED:      59351
DTLB RFO MSHR MERGED:      40289
DTLB PREFETCH MSHR MERGED:          0
DTLB WRITEBACK MSHR MERGED:          0
DTLB TOTAL ACCESSES:  165442523 HITS:  164708530 MISSES:     733993
DTLB LOAD ACCESSES:  106354959 HITS:  105725580 MISSES:     629379
DTLB RFO ACCESSES:   59087564 HITS:   58982950 MISSES:     104614
DTLB PREFETCH ACCESSES:          0 HITS:          0 MISSES:          0
DTLB WRITEBACK ACCESSES:          0 HITS:          0 MISSES:          0
DTLB RQ ACCESS:  200305691
DTLB RQ TO_CACHE:  165442523
DTLB RQ MERGED:   34863168
DTLB RQ FORWARD:          0
DTLB WQ ACCESS:          0
DTLB WQ TO_CACHE:          0
DTLB WQ MERGED:          0
DTLB WQ FORWARD:          0
L1D TOTAL     ACCESS:  281848708  HIT:  273939244  MISS:    7909464
L1D LOAD      ACCESS:  110432126  HIT:  107157621  MISS:    3274505
L1D RFO       ACCESS:   67095720  HIT:   66204041  MISS:     891679
L1D PREFETCH  ACCESS:  104320862  HIT:  100577582  MISS:    3743280
L1D WRITEBACK ACCESS:          0  HIT:          0  MISS:          0
L1D PREFETCH  REQUESTED:  110821380  ISSUED:  109121904  USEFUL:    1664049  USELESS:    2079195
L1D TOTAL MSHR MERGED:    2869532
L1D LOAD MSHR MERGED:     483597
L1D RFO MSHR MERGED:    1891040
L1D PREFETCH MSHR MERGED:     494895
L1D WRITEBACK MSHR MERGED:          0
L1D TOTAL ACCESSES:  284745829 HITS:  273966833 MISSES:   10778996
L1D LOAD ACCESSES:  110822952 HITS:  107159193 MISSES:    3663759
L1D RFO ACCESSES:   68973783 HITS:   66204041 MISSES:    2769742
L1D PREFETCH ACCESSES:  104949094 HITS:  100603599 MISSES:    4345495
L1D WRITEBACK ACCESSES:          0 HITS:          0 MISSES:          0
L1D RQ ACCESS:  130753088
L1D RQ TO_CACHE:  110821383
L1D RQ MERGED:   19930133
L1D RQ FORWARD:          0
L1D WQ ACCESS:   69552603
L1D WQ TO_CACHE:   68973784
L1D WQ MERGED:     578819
L1D WQ FORWARD:      27589
L1I TOTAL     ACCESS:  126550957  HIT:  122312408  MISS:    4238549
L1I LOAD      ACCESS:  126550957  HIT:  122312408  MISS:    4238549
L1I RFO       ACCESS:          0  HIT:          0  MISS:          0
L1I PREFETCH  ACCESS:          0  HIT:          0  MISS:          0
L1I WRITEBACK ACCESS:          0  HIT:          0  MISS:          0
L1I PREFETCH  REQUESTED:          0  ISSUED:          0  USEFUL:          0  USELESS:          0
L1I TOTAL MSHR MERGED:    1838350
L1I LOAD MSHR MERGED:    1838350
L1I RFO MSHR MERGED:          0
L1I PREFETCH MSHR MERGED:          0
L1I WRITEBACK MSHR MERGED:          0
L1I TOTAL ACCESSES:  128389310 HITS:  122312408 MISSES:    6076902
L1I LOAD ACCESSES:  128389310 HITS:  122312408 MISSES:    6076902
L1I RFO ACCESSES:          0 HITS:          0 MISSES:          0
L1I PREFETCH ACCESSES:          0 HITS:          0 MISSES:          0
L1I WRITEBACK ACCESSES:          0 HITS:          0 MISSES:          0
L1I RQ ACCESS:  500000057
L1I RQ TO_CACHE:  128389310
L1I RQ MERGED:  371610747
L1I RQ FORWARD:          0
L1I WQ ACCESS:          0
L1I WQ TO_CACHE:          0
L1I WQ MERGED:          0
L1I WQ FORWARD:          0
L2C TOTAL     ACCESS:   14904354  HIT:   11157851  MISS:    3746503
L2C LOAD      ACCESS:    7418508  HIT:    5098393  MISS:    2320115
L2C RFO       ACCESS:     878605  HIT:     409942  MISS:     468663
L2C PREFETCH  ACCESS:    4567965  HIT:    3627502  MISS:     940463
L2C WRITEBACK ACCESS:    2039276  HIT:    2022014  MISS:      17262
L2C PREFETCH  REQUESTED:     842701  ISSUED:     842701  USEFUL:     203124  USELESS:     737045
L2C TOTAL MSHR MERGED:       8011
L2C LOAD MSHR MERGED:       1122
L2C RFO MSHR MERGED:          0
L2C PREFETCH MSHR MERGED:       6889
L2C WRITEBACK MSHR MERGED:          0
L2C TOTAL ACCESSES:   14913284 HITS:   11158292 MISSES:    3754992
L2C LOAD ACCESSES:    7418711 HITS:    5098596 MISSES:    2320115
L2C RFO ACCESSES:     878702 HITS:     410039 MISSES:     468663
L2C PREFETCH ACCESSES:    4576595 HITS:    3627643 MISSES:     948952
L2C WRITEBACK ACCESSES:    2039276 HITS:    2022014 MISSES:      17262
L2C RQ ACCESS:    8297416
L2C RQ TO_CACHE:    8297116
L2C RQ MERGED:          0
L2C RQ FORWARD:          0
L2C WQ ACCESS:    2039276
L2C WQ TO_CACHE:    2039276
L2C WQ MERGED:          0
L2C WQ FORWARD:        441
LLC TOTAL     ACCESS:    4609845  HIT:    3389468  MISS:    1220377
LLC LOAD      ACCESS:    2318978  HIT:    1545884  MISS:     773094
LLC RFO       ACCESS:     468654  HIT:     353430  MISS:     115224
LLC PREFETCH  ACCESS:     941915  HIT:     696706  MISS:     245209
LLC WRITEBACK ACCESS:     880298  HIT:     793448  MISS:      86850
LLC PREFETCH  REQUESTED:          0  ISSUED:          0  USEFUL:      31014  USELESS:     212452
LLC TOTAL MSHR MERGED:        127
LLC LOAD MSHR MERGED:         43
LLC RFO MSHR MERGED:          0
LLC PREFETCH MSHR MERGED:         84
LLC WRITEBACK MSHR MERGED:          0
LLC TOTAL ACCESSES:    4610011 HITS:    3389507 MISSES:    1220504
LLC LOAD ACCESSES:    2318993 HITS:    1545899 MISSES:     773094
LLC RFO ACCESSES:     468663 HITS:     353439 MISSES:     115224
LLC PREFETCH ACCESSES:     942057 HITS:     696721 MISSES:     245336
LLC WRITEBACK ACCESSES:     880298 HITS:     793448 MISSES:      86850
LLC 0 RQ ACCESS:    2787656
LLC 0 RQ TO_CACHE:    2787632
LLC 0 RQ MERGED:          0
LLC 0 RQ FORWARD:          0
LLC WQ ACCESS:     880298
LLC WQ TO_CACHE:     880298
LLC WQ MERGED:          0
LLC WQ FORWARD:         39
Major fault: 0 Minor fault: 12862
CPU 0 L1D next line prefetcher final stats
CPU 0 L2C PC-based stride prefetcher final stats
All Misses: 1421018
All Hits: 4005831
SD Algo Stats - Switches: 0 SRR-Repls: 898906 BRR-Repls: 0

DRAM Statistics
 CHANNEL 0
 RQ ROW_BUFFER_HIT:     345171  ROW_BUFFER_MISS:     785822
 DBUS_CONGESTED:     548936
 WQ ROW_BUFFER_HIT:      25642  ROW_BUFFER_MISS:     274001  FULL:          0

 AVG_CONGESTED_CYCLE: 13
LOADS RETIRED: 136549171
INSTR RETIRED: 500000000
