
*** ChampSim Multicore Out-of-Order Simulator ***

Warmup Instructions: 100000000
Simulation Instructions: 500000000
Number of CPUs: 1
LLC sets: 2048
LLC ways: 16
Clean RRIP Policies: 2310230223102302 Dirty RRIP Policies: 1300130213001302 PSEL Width: 10 Track Set: 4294967295 PSEL Mask: 1 Demote Mask: 1040100010401000DS Algo: 0Window size: 0
Off-chip DRAM Size: 4096 MB Channels: 1 Width: 64-bit Data Rate: 1600 MT/s

CPU 0 runs /mnt/beegfs/iconst01/spec2017/Leela.trace.gz
NOT SORTED
TRACE STRING: /mnt/beegfs/iconst01/spec2017/Leela.trace.gz
SORTED
TRACE STRING: /mnt/beegfs/iconst01/spec2017/Leela.trace.gz
INITIAL
TRACE STRING: /mnt/beegfs/iconst01/spec2017/Leela.trace.gz

champsim_seed used: 483

CPU 0 L1D next line prefetcher
CPU 0 L2C IP-based stride prefetcher
Initialize DRRIP state
Assign rand_sets[0]: 454  LLC: 2048
rand_sets[0]: 454
Assign rand_sets[1]: 1662  LLC: 2048
rand_sets[1]: 1662
Assign rand_sets[2]: 1921  LLC: 2048
rand_sets[2]: 1921
Assign rand_sets[3]: 1131  LLC: 2048
rand_sets[3]: 1131
Assign rand_sets[4]: 331  LLC: 2048
rand_sets[4]: 331
Assign rand_sets[5]: 1531  LLC: 2048
rand_sets[5]: 1531
Assign rand_sets[6]: 482  LLC: 2048
rand_sets[6]: 482
Assign rand_sets[7]: 1275  LLC: 2048
rand_sets[7]: 1275
Assign rand_sets[8]: 1876  LLC: 2048
rand_sets[8]: 1876
Assign rand_sets[9]: 2038  LLC: 2048
rand_sets[9]: 2038
Assign rand_sets[10]: 701  LLC: 2048
rand_sets[10]: 701
Assign rand_sets[11]: 479  LLC: 2048
rand_sets[11]: 479
Assign rand_sets[12]: 892  LLC: 2048
rand_sets[12]: 892
Assign rand_sets[13]: 1820  LLC: 2048
rand_sets[13]: 1820
Assign rand_sets[14]: 1505  LLC: 2048
rand_sets[14]: 1505
Assign rand_sets[15]: 1159  LLC: 2048
rand_sets[15]: 1159
Assign rand_sets[16]: 513  LLC: 2048
rand_sets[16]: 513
Assign rand_sets[17]: 703  LLC: 2048
rand_sets[17]: 703
Assign rand_sets[18]: 561  LLC: 2048
rand_sets[18]: 561
Assign rand_sets[19]: 990  LLC: 2048
rand_sets[19]: 990
Assign rand_sets[20]: 342  LLC: 2048
rand_sets[20]: 342
Assign rand_sets[21]: 882  LLC: 2048
rand_sets[21]: 882
Assign rand_sets[22]: 15  LLC: 2048
rand_sets[22]: 15
Assign rand_sets[23]: 71  LLC: 2048
rand_sets[23]: 71
Assign rand_sets[24]: 1127  LLC: 2048
rand_sets[24]: 1127
Assign rand_sets[25]: 1382  LLC: 2048
rand_sets[25]: 1382
Assign rand_sets[26]: 647  LLC: 2048
rand_sets[26]: 647
Assign rand_sets[27]: 857  LLC: 2048
rand_sets[27]: 857
Assign rand_sets[28]: 1450  LLC: 2048
rand_sets[28]: 1450
Assign rand_sets[29]: 1160  LLC: 2048
rand_sets[29]: 1160
Assign rand_sets[30]: 1852  LLC: 2048
rand_sets[30]: 1852
Assign rand_sets[31]: 1881  LLC: 2048
rand_sets[31]: 1881
Assign rand_sets[32]: 1770  LLC: 2048
rand_sets[32]: 1770
Assign rand_sets[33]: 1622  LLC: 2048
rand_sets[33]: 1622
Assign rand_sets[34]: 275  LLC: 2048
rand_sets[34]: 275
Assign rand_sets[35]: 635  LLC: 2048
rand_sets[35]: 635
Assign rand_sets[36]: 466  LLC: 2048
rand_sets[36]: 466
Assign rand_sets[37]: 1413  LLC: 2048
rand_sets[37]: 1413
Assign rand_sets[38]: 417  LLC: 2048
rand_sets[38]: 417
Assign rand_sets[39]: 472  LLC: 2048
rand_sets[39]: 472
Assign rand_sets[40]: 1340  LLC: 2048
rand_sets[40]: 1340
Assign rand_sets[41]: 852  LLC: 2048
rand_sets[41]: 852
Assign rand_sets[42]: 1365  LLC: 2048
rand_sets[42]: 1365
Assign rand_sets[43]: 47  LLC: 2048
rand_sets[43]: 47
Assign rand_sets[44]: 823  LLC: 2048
rand_sets[44]: 823
Assign rand_sets[45]: 686  LLC: 2048
rand_sets[45]: 686
Assign rand_sets[46]: 1637  LLC: 2048
rand_sets[46]: 1637
Assign rand_sets[47]: 1115  LLC: 2048
rand_sets[47]: 1115
Assign rand_sets[48]: 986  LLC: 2048
rand_sets[48]: 986
Assign rand_sets[49]: 258  LLC: 2048
rand_sets[49]: 258
Assign rand_sets[50]: 633  LLC: 2048
rand_sets[50]: 633
Assign rand_sets[51]: 920  LLC: 2048
rand_sets[51]: 920
Assign rand_sets[52]: 204  LLC: 2048
rand_sets[52]: 204
Assign rand_sets[53]: 227  LLC: 2048
rand_sets[53]: 227
Assign rand_sets[54]: 1818  LLC: 2048
rand_sets[54]: 1818
Assign rand_sets[55]: 886  LLC: 2048
rand_sets[55]: 886
Assign rand_sets[56]: 1422  LLC: 2048
rand_sets[56]: 1422
Assign rand_sets[57]: 607  LLC: 2048
rand_sets[57]: 607
Assign rand_sets[58]: 217  LLC: 2048
rand_sets[58]: 217
Assign rand_sets[59]: 1945  LLC: 2048
rand_sets[59]: 1945
Assign rand_sets[60]: 143  LLC: 2048
rand_sets[60]: 143
Assign rand_sets[61]: 1311  LLC: 2048
rand_sets[61]: 1311
Assign rand_sets[62]: 319  LLC: 2048
rand_sets[62]: 319
Assign rand_sets[63]: 1846  LLC: 2048
rand_sets[63]: 1846
 CLEAN-RRIP-POLICY-1: 2-3-1-0-2-3-0-2- CLEAN-RRIP-POLICY-2: 2-3-1-0-2-3-0-2-
 DIRTY-RRIP-POLICY-1: 1-3-0-0-1-3-0-2- DIRTY-RRIP-POLICY-2: 1-3-0-0-1-3-0-2-
 PSEL width: 10
Heartbeat CPU 0 instructions: 10000000 cycles: 5810760 heartbeat IPC: 1.72095 cumulative IPC: 1.72095 (Simulation time: 0 hr 0 min 12 sec) 
Heartbeat CPU 0 instructions: 20000000 cycles: 11606059 heartbeat IPC: 1.72554 cumulative IPC: 1.72324 (Simulation time: 0 hr 0 min 24 sec) 
Heartbeat CPU 0 instructions: 30000000 cycles: 17388024 heartbeat IPC: 1.72952 cumulative IPC: 1.72533 (Simulation time: 0 hr 0 min 36 sec) 
Heartbeat CPU 0 instructions: 40000000 cycles: 23169613 heartbeat IPC: 1.72963 cumulative IPC: 1.7264 (Simulation time: 0 hr 0 min 48 sec) 
Heartbeat CPU 0 instructions: 50000003 cycles: 28984169 heartbeat IPC: 1.71982 cumulative IPC: 1.72508 (Simulation time: 0 hr 1 min 0 sec) 
Heartbeat CPU 0 instructions: 60000000 cycles: 34769434 heartbeat IPC: 1.72853 cumulative IPC: 1.72565 (Simulation time: 0 hr 1 min 12 sec) 
Heartbeat CPU 0 instructions: 70000001 cycles: 40536488 heartbeat IPC: 1.73399 cumulative IPC: 1.72684 (Simulation time: 0 hr 1 min 24 sec) 
Heartbeat CPU 0 instructions: 80000000 cycles: 46308609 heartbeat IPC: 1.73247 cumulative IPC: 1.72754 (Simulation time: 0 hr 1 min 36 sec) 
Heartbeat CPU 0 instructions: 90000002 cycles: 52118090 heartbeat IPC: 1.72132 cumulative IPC: 1.72685 (Simulation time: 0 hr 1 min 48 sec) 
Heartbeat CPU 0 instructions: 100000000 cycles: 57935761 heartbeat IPC: 1.7189 cumulative IPC: 1.72605 (Simulation time: 0 hr 2 min 0 sec) 

Warmup complete CPU 0 instructions: 100000001 cycles: 57935762 (Simulation time: 0 hr 2 min 0 sec) 

Heartbeat CPU 0 instructions: 110000001 cycles: 76357532 heartbeat IPC: 0.542836 cumulative IPC: 0.542836 (Simulation time: 0 hr 2 min 21 sec) 
Heartbeat CPU 0 instructions: 120000000 cycles: 94736058 heartbeat IPC: 0.544113 cumulative IPC: 0.543474 (Simulation time: 0 hr 2 min 41 sec) 
Heartbeat CPU 0 instructions: 130000002 cycles: 113055721 heartbeat IPC: 0.545862 cumulative IPC: 0.544267 (Simulation time: 0 hr 3 min 2 sec) 
Heartbeat CPU 0 instructions: 140000000 cycles: 131291258 heartbeat IPC: 0.54838 cumulative IPC: 0.54529 (Simulation time: 0 hr 3 min 22 sec) 
Heartbeat CPU 0 instructions: 150000002 cycles: 149398815 heartbeat IPC: 0.552256 cumulative IPC: 0.546669 (Simulation time: 0 hr 3 min 43 sec) 
Heartbeat CPU 0 instructions: 160000000 cycles: 167551061 heartbeat IPC: 0.550896 cumulative IPC: 0.547369 (Simulation time: 0 hr 4 min 3 sec) 
Heartbeat CPU 0 instructions: 170000001 cycles: 185752696 heartbeat IPC: 0.549401 cumulative IPC: 0.547658 (Simulation time: 0 hr 4 min 24 sec) 
Heartbeat CPU 0 instructions: 180000000 cycles: 204054010 heartbeat IPC: 0.546409 cumulative IPC: 0.547502 (Simulation time: 0 hr 4 min 45 sec) 
Heartbeat CPU 0 instructions: 190000001 cycles: 222401693 heartbeat IPC: 0.545028 cumulative IPC: 0.547226 (Simulation time: 0 hr 5 min 5 sec) 
Heartbeat CPU 0 instructions: 200000000 cycles: 240606124 heartbeat IPC: 0.549317 cumulative IPC: 0.547434 (Simulation time: 0 hr 5 min 26 sec) 
Heartbeat CPU 0 instructions: 210000002 cycles: 258733419 heartbeat IPC: 0.551654 cumulative IPC: 0.547815 (Simulation time: 0 hr 5 min 46 sec) 
Heartbeat CPU 0 instructions: 220000000 cycles: 276886392 heartbeat IPC: 0.550874 cumulative IPC: 0.548069 (Simulation time: 0 hr 6 min 7 sec) 
Heartbeat CPU 0 instructions: 230000002 cycles: 295105866 heartbeat IPC: 0.548863 cumulative IPC: 0.54813 (Simulation time: 0 hr 6 min 28 sec) 
Heartbeat CPU 0 instructions: 240000000 cycles: 313382959 heartbeat IPC: 0.547133 cumulative IPC: 0.548058 (Simulation time: 0 hr 6 min 48 sec) 
Heartbeat CPU 0 instructions: 250000003 cycles: 331551653 heartbeat IPC: 0.550397 cumulative IPC: 0.548214 (Simulation time: 0 hr 7 min 9 sec) 
Heartbeat CPU 0 instructions: 260000000 cycles: 349696849 heartbeat IPC: 0.55111 cumulative IPC: 0.548394 (Simulation time: 0 hr 7 min 29 sec) 
Heartbeat CPU 0 instructions: 270000001 cycles: 367933640 heartbeat IPC: 0.548342 cumulative IPC: 0.548391 (Simulation time: 0 hr 7 min 50 sec) 
Heartbeat CPU 0 instructions: 280000000 cycles: 387127736 heartbeat IPC: 0.520993 cumulative IPC: 0.546793 (Simulation time: 0 hr 8 min 11 sec) 
Heartbeat CPU 0 instructions: 290000001 cycles: 405140003 heartbeat IPC: 0.555177 cumulative IPC: 0.547228 (Simulation time: 0 hr 8 min 32 sec) 
Heartbeat CPU 0 instructions: 300000000 cycles: 423212471 heartbeat IPC: 0.553328 cumulative IPC: 0.54753 (Simulation time: 0 hr 8 min 53 sec) 
Heartbeat CPU 0 instructions: 310000000 cycles: 441427438 heartbeat IPC: 0.548999 cumulative IPC: 0.5476 (Simulation time: 0 hr 9 min 13 sec) 
Heartbeat CPU 0 instructions: 320000000 cycles: 459803550 heartbeat IPC: 0.544185 cumulative IPC: 0.547444 (Simulation time: 0 hr 9 min 34 sec) 
Heartbeat CPU 0 instructions: 330000000 cycles: 478098437 heartbeat IPC: 0.546601 cumulative IPC: 0.547407 (Simulation time: 0 hr 9 min 55 sec) 
Heartbeat CPU 0 instructions: 340000000 cycles: 496426793 heartbeat IPC: 0.545603 cumulative IPC: 0.547332 (Simulation time: 0 hr 10 min 15 sec) 
Heartbeat CPU 0 instructions: 350000000 cycles: 514658725 heartbeat IPC: 0.548488 cumulative IPC: 0.547378 (Simulation time: 0 hr 10 min 36 sec) 
Heartbeat CPU 0 instructions: 360000000 cycles: 532785088 heartbeat IPC: 0.551683 cumulative IPC: 0.547542 (Simulation time: 0 hr 10 min 57 sec) 
Heartbeat CPU 0 instructions: 370000000 cycles: 550796473 heartbeat IPC: 0.555204 cumulative IPC: 0.547822 (Simulation time: 0 hr 11 min 17 sec) 
Heartbeat CPU 0 instructions: 380000000 cycles: 568950942 heartbeat IPC: 0.550829 cumulative IPC: 0.547929 (Simulation time: 0 hr 11 min 38 sec) 
Heartbeat CPU 0 instructions: 390000003 cycles: 587222247 heartbeat IPC: 0.547306 cumulative IPC: 0.547907 (Simulation time: 0 hr 11 min 58 sec) 
Heartbeat CPU 0 instructions: 400000000 cycles: 605393574 heartbeat IPC: 0.550317 cumulative IPC: 0.547987 (Simulation time: 0 hr 12 min 19 sec) 
Heartbeat CPU 0 instructions: 410000002 cycles: 623618556 heartbeat IPC: 0.548697 cumulative IPC: 0.54801 (Simulation time: 0 hr 12 min 39 sec) 
Heartbeat CPU 0 instructions: 420000000 cycles: 641872398 heartbeat IPC: 0.54783 cumulative IPC: 0.548005 (Simulation time: 0 hr 13 min 0 sec) 
Heartbeat CPU 0 instructions: 430000003 cycles: 660207837 heartbeat IPC: 0.545392 cumulative IPC: 0.547925 (Simulation time: 0 hr 13 min 20 sec) 
Heartbeat CPU 0 instructions: 440000000 cycles: 678542780 heartbeat IPC: 0.545407 cumulative IPC: 0.547851 (Simulation time: 0 hr 13 min 41 sec) 
Heartbeat CPU 0 instructions: 450000003 cycles: 696779708 heartbeat IPC: 0.548338 cumulative IPC: 0.547865 (Simulation time: 0 hr 14 min 1 sec) 
Heartbeat CPU 0 instructions: 460000000 cycles: 714973719 heartbeat IPC: 0.549631 cumulative IPC: 0.547914 (Simulation time: 0 hr 14 min 21 sec) 
Heartbeat CPU 0 instructions: 470000001 cycles: 733089697 heartbeat IPC: 0.551999 cumulative IPC: 0.548023 (Simulation time: 0 hr 14 min 42 sec) 
Heartbeat CPU 0 instructions: 480000000 cycles: 751352669 heartbeat IPC: 0.547556 cumulative IPC: 0.548011 (Simulation time: 0 hr 15 min 2 sec) 
Heartbeat CPU 0 instructions: 490000000 cycles: 769590318 heartbeat IPC: 0.548316 cumulative IPC: 0.548019 (Simulation time: 0 hr 15 min 23 sec) 
Heartbeat CPU 0 instructions: 500000000 cycles: 787832064 heartbeat IPC: 0.548193 cumulative IPC: 0.548023 (Simulation time: 0 hr 15 min 43 sec) 
Heartbeat CPU 0 instructions: 510000003 cycles: 806016240 heartbeat IPC: 0.549929 cumulative IPC: 0.548069 (Simulation time: 0 hr 16 min 3 sec) 
Heartbeat CPU 0 instructions: 520000000 cycles: 824165305 heartbeat IPC: 0.550992 cumulative IPC: 0.548139 (Simulation time: 0 hr 16 min 24 sec) 
Heartbeat CPU 0 instructions: 530000001 cycles: 842425852 heartbeat IPC: 0.547629 cumulative IPC: 0.548127 (Simulation time: 0 hr 16 min 44 sec) 
Heartbeat CPU 0 instructions: 540000000 cycles: 860699819 heartbeat IPC: 0.547226 cumulative IPC: 0.548106 (Simulation time: 0 hr 17 min 4 sec) 
Heartbeat CPU 0 instructions: 550000002 cycles: 878941308 heartbeat IPC: 0.548201 cumulative IPC: 0.548108 (Simulation time: 0 hr 17 min 25 sec) 
Heartbeat CPU 0 instructions: 560000000 cycles: 897093018 heartbeat IPC: 0.550912 cumulative IPC: 0.548169 (Simulation time: 0 hr 17 min 45 sec) 
Heartbeat CPU 0 instructions: 570000003 cycles: 915320405 heartbeat IPC: 0.548625 cumulative IPC: 0.548179 (Simulation time: 0 hr 18 min 6 sec) 
Heartbeat CPU 0 instructions: 580000000 cycles: 933473025 heartbeat IPC: 0.550884 cumulative IPC: 0.548235 (Simulation time: 0 hr 18 min 26 sec) 
Heartbeat CPU 0 instructions: 590000000 cycles: 951624321 heartbeat IPC: 0.550925 cumulative IPC: 0.548289 (Simulation time: 0 hr 18 min 46 sec) 
Heartbeat CPU 0 instructions: 600000000 cycles: 969799889 heartbeat IPC: 0.550189 cumulative IPC: 0.548327 (Simulation time: 0 hr 19 min 7 sec) 
Finished CPU 0 instructions: 500000002 cycles: 911864141 cumulative IPC: 0.548327 (Simulation time: 0 hr 19 min 7 sec) 

CPU 0 Branch Prediction Accuracy: 84.5197% MPKI: 17.7348
Number of Branches: 57281827 Number of Mispredictions: 8867420
Number of LOAD Instructions: 149599668
Number of LOAD Instructions (ROI): 149599668
Number of STORE Instructions: 48204126
Number of STORE Instructions (ROI): 48204126
Total Destination Memory Operands: 56787011
Total Destination Memory Operands (ROI): 56787011
Total Source Memory Operands: 149599668
Total Source Memory Operands (ROI): 149599668
Number of DEPENDED LOADS: 8173516
Number of DEPENDED LOADS (ROI): 8173516
Number of SQ_ADDED: 56787004
Number of SQ_ADDED (ROI): 56787004
Number of LQ_ADDED: 236123099
Number of LQ_ADDED (ROI): 236123099
Number of Instructions read from trace: 600000094

ChampSim completed all CPUs

Region of Interest Statistics

CPU 0 cumulative IPC: 0.548327 instructions: 500000002 cycles: 911864141
ITLB TOTAL     ACCESS:   88352084  HIT:   88352040  MISS:         44
ITLB LOAD      ACCESS:   88352084  HIT:   88352040  MISS:         44
ITLB RFO       ACCESS:          0  HIT:          0  MISS:          0
ITLB PREFETCH  ACCESS:          0  HIT:          0  MISS:          0
ITLB WRITEBACK ACCESS:          0  HIT:          0  MISS:          0
ITLB PREFETCH  REQUESTED:          0  ISSUED:          0  USEFUL:          0  USELESS:          0
ITLB TOTAL MSHR MERGED:         55
ITLB LOAD MSHR MERGED:         55
ITLB RFO MSHR MERGED:          0
ITLB PREFETCH MSHR MERGED:          0
ITLB WRITEBACK MSHR MERGED:          0
ITLB TOTAL ACCESSES:   88352139 HITS:   88352040 MISSES:         99
ITLB LOAD ACCESSES:   88352139 HITS:   88352040 MISSES:         99
ITLB RFO ACCESSES:          0 HITS:          0 MISSES:          0
ITLB PREFETCH ACCESSES:          0 HITS:          0 MISSES:          0
ITLB WRITEBACK ACCESSES:          0 HITS:          0 MISSES:          0
ITLB RQ ACCESS:  500000064
ITLB RQ TO_CACHE:   88352139
ITLB RQ MERGED:  411647925
ITLB RQ FORWARD:          0
ITLB WQ ACCESS:          0
ITLB WQ TO_CACHE:          0
ITLB WQ MERGED:          0
ITLB WQ FORWARD:          0
DTLB TOTAL     ACCESS:  121280898  HIT:  121188111  MISS:      92787
DTLB LOAD      ACCESS:   81232472  HIT:   81143637  MISS:      88835
DTLB RFO       ACCESS:   40048426  HIT:   40044474  MISS:       3952
DTLB PREFETCH  ACCESS:          0  HIT:          0  MISS:          0
DTLB WRITEBACK ACCESS:          0  HIT:          0  MISS:          0
DTLB PREFETCH  REQUESTED:          0  ISSUED:          0  USEFUL:          0  USELESS:          0
DTLB TOTAL MSHR MERGED:       2661
DTLB LOAD MSHR MERGED:       2333
DTLB RFO MSHR MERGED:        328
DTLB PREFETCH MSHR MERGED:          0
DTLB WRITEBACK MSHR MERGED:          0
DTLB TOTAL ACCESSES:  121283559 HITS:  121188111 MISSES:      95448
DTLB LOAD ACCESSES:   81234805 HITS:   81143637 MISSES:      91168
DTLB RFO ACCESSES:   40048754 HITS:   40044474 MISSES:       4280
DTLB PREFETCH ACCESSES:          0 HITS:          0 MISSES:          0
DTLB WRITEBACK ACCESSES:          0 HITS:          0 MISSES:          0
DTLB RQ ACCESS:  164789716
DTLB RQ TO_CACHE:  121283559
DTLB RQ MERGED:   43506157
DTLB RQ FORWARD:          0
DTLB WQ ACCESS:          0
DTLB WQ TO_CACHE:          0
DTLB WQ MERGED:          0
DTLB WQ FORWARD:          0
L1D TOTAL     ACCESS:  217694771  HIT:  214695887  MISS:    2998884
L1D LOAD      ACCESS:   90566625  HIT:   89160938  MISS:    1405687
L1D RFO       ACCESS:   46154168  HIT:   45771804  MISS:     382364
L1D PREFETCH  ACCESS:   80973978  HIT:   79763145  MISS:    1210833
L1D WRITEBACK ACCESS:          0  HIT:          0  MISS:          0
L1D PREFETCH  REQUESTED:   90616318  ISSUED:   88239251  USEFUL:     597433  USELESS:     613419
L1D TOTAL MSHR MERGED:     357425
L1D LOAD MSHR MERGED:      55712
L1D RFO MSHR MERGED:     175344
L1D PREFETCH MSHR MERGED:     126369
L1D WRITEBACK MSHR MERGED:          0
L1D TOTAL ACCESSES:  218056758 HITS:  214700449 MISSES:    3356309
L1D LOAD ACCESSES:   90616318 HITS:   89160938 MISSES:    1455380
L1D RFO ACCESSES:   46328309 HITS:   45771804 MISSES:     556505
L1D PREFETCH ACCESSES:   81112131 HITS:   79767707 MISSES:    1344424
L1D WRITEBACK ACCESSES:          0 HITS:          0 MISSES:          0
L1D RQ ACCESS:  117521796
L1D RQ TO_CACHE:   90616318
L1D RQ MERGED:   26905478
L1D RQ FORWARD:          0
L1D WQ ACCESS:   47267919
L1D WQ TO_CACHE:   46328309
L1D WQ MERGED:     939610
L1D WQ FORWARD:       4562
L1I TOTAL     ACCESS:  112806682  HIT:  112711279  MISS:      95403
L1I LOAD      ACCESS:  112806682  HIT:  112711279  MISS:      95403
L1I RFO       ACCESS:          0  HIT:          0  MISS:          0
L1I PREFETCH  ACCESS:          0  HIT:          0  MISS:          0
L1I WRITEBACK ACCESS:          0  HIT:          0  MISS:          0
L1I PREFETCH  REQUESTED:          0  ISSUED:          0  USEFUL:          0  USELESS:          0
L1I TOTAL MSHR MERGED:      59474
L1I LOAD MSHR MERGED:      59474
L1I RFO MSHR MERGED:          0
L1I PREFETCH MSHR MERGED:          0
L1I WRITEBACK MSHR MERGED:          0
L1I TOTAL ACCESSES:  112866156 HITS:  112711279 MISSES:     154877
L1I LOAD ACCESSES:  112866156 HITS:  112711279 MISSES:     154877
L1I RFO ACCESSES:          0 HITS:          0 MISSES:          0
L1I PREFETCH ACCESSES:          0 HITS:          0 MISSES:          0
L1I WRITEBACK ACCESSES:          0 HITS:          0 MISSES:          0
L1I RQ ACCESS:  500000064
L1I RQ TO_CACHE:  112866156
L1I RQ MERGED:  387133908
L1I RQ FORWARD:          0
L1I WQ ACCESS:          0
L1I WQ TO_CACHE:          0
L1I WQ MERGED:          0
L1I WQ FORWARD:          0
L2C TOTAL     ACCESS:    4791665  HIT:    4716589  MISS:      75076
L2C LOAD      ACCESS:    1495053  HIT:    1468358  MISS:      26695
L2C RFO       ACCESS:     381153  HIT:     372272  MISS:       8881
L2C PREFETCH  ACCESS:    2135754  HIT:    2096386  MISS:      39368
L2C WRITEBACK ACCESS:     779705  HIT:     779573  MISS:        132
L2C PREFETCH  REQUESTED:     923258  ISSUED:     923258  USEFUL:      13165  USELESS:      26320
L2C TOTAL MSHR MERGED:       5551
L2C LOAD MSHR MERGED:        263
L2C RFO MSHR MERGED:          0
L2C PREFETCH MSHR MERGED:       5288
L2C WRITEBACK MSHR MERGED:          0
L2C TOTAL ACCESSES:    4797249 HITS:    4716622 MISSES:      80627
L2C LOAD ACCESSES:    1495071 HITS:    1468376 MISSES:      26695
L2C RFO ACCESSES:     381161 HITS:     372280 MISSES:       8881
L2C PREFETCH ACCESSES:    2141312 HITS:    2096393 MISSES:      44919
L2C WRITEBACK ACCESSES:     779705 HITS:     779573 MISSES:        132
L2C RQ ACCESS:    1876232
L2C RQ TO_CACHE:    1876206
L2C RQ MERGED:          0
L2C RQ FORWARD:          0
L2C WQ ACCESS:     779705
L2C WQ TO_CACHE:     779705
L2C WQ MERGED:          0
L2C WQ FORWARD:         33
LLC TOTAL     ACCESS:      95472  HIT:      66291  MISS:      29181
LLC LOAD      ACCESS:      26432  HIT:      23535  MISS:       2897
LLC RFO       ACCESS:       8881  HIT:        180  MISS:       8701
LLC PREFETCH  ACCESS:      39631  HIT:      29320  MISS:      10311
LLC WRITEBACK ACCESS:      20528  HIT:      13256  MISS:       7272
LLC PREFETCH  REQUESTED:          0  ISSUED:          0  USEFUL:        896  USELESS:         49
LLC TOTAL MSHR MERGED:          0
LLC LOAD MSHR MERGED:          0
LLC RFO MSHR MERGED:          0
LLC PREFETCH MSHR MERGED:          0
LLC WRITEBACK MSHR MERGED:          0
LLC TOTAL ACCESSES:      95472 HITS:      66291 MISSES:      29181
LLC LOAD ACCESSES:      26432 HITS:      23535 MISSES:       2897
LLC RFO ACCESSES:       8881 HITS:        180 MISSES:       8701
LLC PREFETCH ACCESSES:      39631 HITS:      29320 MISSES:      10311
LLC WRITEBACK ACCESSES:      20528 HITS:      13256 MISSES:       7272
LLC 0 RQ ACCESS:      35313
LLC 0 RQ TO_CACHE:      35313
LLC 0 RQ MERGED:          0
LLC 0 RQ FORWARD:          0
LLC WQ ACCESS:      20528
LLC WQ TO_CACHE:      20528
LLC WQ MERGED:          0
LLC WQ FORWARD:          0
Major fault: 0 Minor fault: 1378
CPU 0 L1D next line prefetcher final stats
CPU 0 L2C PC-based stride prefetcher final stats
All Misses: 37509
All Hits: 75440
SD Algo Stats - Switches: 0 SRR-Repls: 5687 BRR-Repls: 0

DRAM Statistics
 CHANNEL 0
 RQ ROW_BUFFER_HIT:      14869  ROW_BUFFER_MISS:       6980
 DBUS_CONGESTED:      10947
 WQ ROW_BUFFER_HIT:       2925  ROW_BUFFER_MISS:       3749  FULL:          0

 AVG_CONGESTED_CYCLE: 14
LOADS RETIRED: 124527094
INSTR RETIRED: 500000000
