
*** ChampSim Multicore Out-of-Order Simulator ***

Warmup Instructions: 100000000
Simulation Instructions: 500000000
Number of CPUs: 1
LLC sets: 2048
LLC ways: 16
Clean RRIP Policies: 2310230223102302 Dirty RRIP Policies: 1300130213001302 PSEL Width: 10 Track Set: 4294967295 PSEL Mask: 1 Demote Mask: 1040100010401000DS Algo: 0Window size: 0
Off-chip DRAM Size: 4096 MB Channels: 1 Width: 64-bit Data Rate: 1600 MT/s

CPU 0 runs /mnt/beegfs/iconst01/spec2017/Roms.trace.gz
NOT SORTED
TRACE STRING: /mnt/beegfs/iconst01/spec2017/Roms.trace.gz
SORTED
TRACE STRING: /mnt/beegfs/iconst01/spec2017/Roms.trace.gz
INITIAL
TRACE STRING: /mnt/beegfs/iconst01/spec2017/Roms.trace.gz

champsim_seed used: 417

CPU 0 L1D next line prefetcher
CPU 0 L2C IP-based stride prefetcher
Initialize DRRIP state
Assign rand_sets[0]: 454  LLC: 2048
rand_sets[0]: 454
Assign rand_sets[1]: 1662  LLC: 2048
rand_sets[1]: 1662
Assign rand_sets[2]: 1921  LLC: 2048
rand_sets[2]: 1921
Assign rand_sets[3]: 1131  LLC: 2048
rand_sets[3]: 1131
Assign rand_sets[4]: 331  LLC: 2048
rand_sets[4]: 331
Assign rand_sets[5]: 1531  LLC: 2048
rand_sets[5]: 1531
Assign rand_sets[6]: 482  LLC: 2048
rand_sets[6]: 482
Assign rand_sets[7]: 1275  LLC: 2048
rand_sets[7]: 1275
Assign rand_sets[8]: 1876  LLC: 2048
rand_sets[8]: 1876
Assign rand_sets[9]: 2038  LLC: 2048
rand_sets[9]: 2038
Assign rand_sets[10]: 701  LLC: 2048
rand_sets[10]: 701
Assign rand_sets[11]: 479  LLC: 2048
rand_sets[11]: 479
Assign rand_sets[12]: 892  LLC: 2048
rand_sets[12]: 892
Assign rand_sets[13]: 1820  LLC: 2048
rand_sets[13]: 1820
Assign rand_sets[14]: 1505  LLC: 2048
rand_sets[14]: 1505
Assign rand_sets[15]: 1159  LLC: 2048
rand_sets[15]: 1159
Assign rand_sets[16]: 513  LLC: 2048
rand_sets[16]: 513
Assign rand_sets[17]: 703  LLC: 2048
rand_sets[17]: 703
Assign rand_sets[18]: 561  LLC: 2048
rand_sets[18]: 561
Assign rand_sets[19]: 990  LLC: 2048
rand_sets[19]: 990
Assign rand_sets[20]: 342  LLC: 2048
rand_sets[20]: 342
Assign rand_sets[21]: 882  LLC: 2048
rand_sets[21]: 882
Assign rand_sets[22]: 15  LLC: 2048
rand_sets[22]: 15
Assign rand_sets[23]: 71  LLC: 2048
rand_sets[23]: 71
Assign rand_sets[24]: 1127  LLC: 2048
rand_sets[24]: 1127
Assign rand_sets[25]: 1382  LLC: 2048
rand_sets[25]: 1382
Assign rand_sets[26]: 647  LLC: 2048
rand_sets[26]: 647
Assign rand_sets[27]: 857  LLC: 2048
rand_sets[27]: 857
Assign rand_sets[28]: 1450  LLC: 2048
rand_sets[28]: 1450
Assign rand_sets[29]: 1160  LLC: 2048
rand_sets[29]: 1160
Assign rand_sets[30]: 1852  LLC: 2048
rand_sets[30]: 1852
Assign rand_sets[31]: 1881  LLC: 2048
rand_sets[31]: 1881
Assign rand_sets[32]: 1770  LLC: 2048
rand_sets[32]: 1770
Assign rand_sets[33]: 1622  LLC: 2048
rand_sets[33]: 1622
Assign rand_sets[34]: 275  LLC: 2048
rand_sets[34]: 275
Assign rand_sets[35]: 635  LLC: 2048
rand_sets[35]: 635
Assign rand_sets[36]: 466  LLC: 2048
rand_sets[36]: 466
Assign rand_sets[37]: 1413  LLC: 2048
rand_sets[37]: 1413
Assign rand_sets[38]: 417  LLC: 2048
rand_sets[38]: 417
Assign rand_sets[39]: 472  LLC: 2048
rand_sets[39]: 472
Assign rand_sets[40]: 1340  LLC: 2048
rand_sets[40]: 1340
Assign rand_sets[41]: 852  LLC: 2048
rand_sets[41]: 852
Assign rand_sets[42]: 1365  LLC: 2048
rand_sets[42]: 1365
Assign rand_sets[43]: 47  LLC: 2048
rand_sets[43]: 47
Assign rand_sets[44]: 823  LLC: 2048
rand_sets[44]: 823
Assign rand_sets[45]: 686  LLC: 2048
rand_sets[45]: 686
Assign rand_sets[46]: 1637  LLC: 2048
rand_sets[46]: 1637
Assign rand_sets[47]: 1115  LLC: 2048
rand_sets[47]: 1115
Assign rand_sets[48]: 986  LLC: 2048
rand_sets[48]: 986
Assign rand_sets[49]: 258  LLC: 2048
rand_sets[49]: 258
Assign rand_sets[50]: 633  LLC: 2048
rand_sets[50]: 633
Assign rand_sets[51]: 920  LLC: 2048
rand_sets[51]: 920
Assign rand_sets[52]: 204  LLC: 2048
rand_sets[52]: 204
Assign rand_sets[53]: 227  LLC: 2048
rand_sets[53]: 227
Assign rand_sets[54]: 1818  LLC: 2048
rand_sets[54]: 1818
Assign rand_sets[55]: 886  LLC: 2048
rand_sets[55]: 886
Assign rand_sets[56]: 1422  LLC: 2048
rand_sets[56]: 1422
Assign rand_sets[57]: 607  LLC: 2048
rand_sets[57]: 607
Assign rand_sets[58]: 217  LLC: 2048
rand_sets[58]: 217
Assign rand_sets[59]: 1945  LLC: 2048
rand_sets[59]: 1945
Assign rand_sets[60]: 143  LLC: 2048
rand_sets[60]: 143
Assign rand_sets[61]: 1311  LLC: 2048
rand_sets[61]: 1311
Assign rand_sets[62]: 319  LLC: 2048
rand_sets[62]: 319
Assign rand_sets[63]: 1846  LLC: 2048
rand_sets[63]: 1846
 CLEAN-RRIP-POLICY-1: 2-3-1-0-2-3-0-2- CLEAN-RRIP-POLICY-2: 2-3-1-0-2-3-0-2-
 DIRTY-RRIP-POLICY-1: 1-3-0-0-1-3-0-2- DIRTY-RRIP-POLICY-2: 1-3-0-0-1-3-0-2-
 PSEL width: 10
Heartbeat CPU 0 instructions: 10000000 cycles: 4688053 heartbeat IPC: 2.13308 cumulative IPC: 2.13308 (Simulation time: 0 hr 0 min 17 sec) 
Heartbeat CPU 0 instructions: 20000000 cycles: 9325312 heartbeat IPC: 2.15645 cumulative IPC: 2.1447 (Simulation time: 0 hr 0 min 34 sec) 
Heartbeat CPU 0 instructions: 30000003 cycles: 14019684 heartbeat IPC: 2.13021 cumulative IPC: 2.13985 (Simulation time: 0 hr 0 min 52 sec) 
Heartbeat CPU 0 instructions: 40000000 cycles: 18670084 heartbeat IPC: 2.15035 cumulative IPC: 2.14246 (Simulation time: 0 hr 1 min 9 sec) 
Heartbeat CPU 0 instructions: 50000003 cycles: 23323447 heartbeat IPC: 2.14898 cumulative IPC: 2.14377 (Simulation time: 0 hr 1 min 26 sec) 
Heartbeat CPU 0 instructions: 60000000 cycles: 27976059 heartbeat IPC: 2.14933 cumulative IPC: 2.14469 (Simulation time: 0 hr 1 min 43 sec) 
Heartbeat CPU 0 instructions: 70000002 cycles: 32367196 heartbeat IPC: 2.27731 cumulative IPC: 2.16268 (Simulation time: 0 hr 1 min 58 sec) 
Heartbeat CPU 0 instructions: 80000000 cycles: 36304006 heartbeat IPC: 2.54013 cumulative IPC: 2.20361 (Simulation time: 0 hr 2 min 10 sec) 
Heartbeat CPU 0 instructions: 90000000 cycles: 40249231 heartbeat IPC: 2.53471 cumulative IPC: 2.23607 (Simulation time: 0 hr 2 min 22 sec) 
Heartbeat CPU 0 instructions: 100000000 cycles: 44211501 heartbeat IPC: 2.52381 cumulative IPC: 2.26185 (Simulation time: 0 hr 2 min 34 sec) 

Warmup complete CPU 0 instructions: 100000002 cycles: 44211502 (Simulation time: 0 hr 2 min 34 sec) 

Heartbeat CPU 0 instructions: 110000000 cycles: 51993447 heartbeat IPC: 1.28503 cumulative IPC: 1.28503 (Simulation time: 0 hr 2 min 52 sec) 
Heartbeat CPU 0 instructions: 120000000 cycles: 60025980 heartbeat IPC: 1.24494 cumulative IPC: 1.26466 (Simulation time: 0 hr 3 min 10 sec) 
Heartbeat CPU 0 instructions: 130000002 cycles: 68115949 heartbeat IPC: 1.2361 cumulative IPC: 1.255 (Simulation time: 0 hr 3 min 29 sec) 
Heartbeat CPU 0 instructions: 140000000 cycles: 76059588 heartbeat IPC: 1.25887 cumulative IPC: 1.25596 (Simulation time: 0 hr 3 min 47 sec) 
Heartbeat CPU 0 instructions: 150000003 cycles: 84152688 heartbeat IPC: 1.23562 cumulative IPC: 1.25184 (Simulation time: 0 hr 4 min 5 sec) 
Heartbeat CPU 0 instructions: 160000000 cycles: 94154586 heartbeat IPC: 0.99981 cumulative IPC: 1.20137 (Simulation time: 0 hr 4 min 26 sec) 
Heartbeat CPU 0 instructions: 170000000 cycles: 106208617 heartbeat IPC: 0.829598 cumulative IPC: 1.12908 (Simulation time: 0 hr 4 min 50 sec) 
Heartbeat CPU 0 instructions: 180000000 cycles: 118248311 heartbeat IPC: 0.830586 cumulative IPC: 1.08054 (Simulation time: 0 hr 5 min 13 sec) 
Heartbeat CPU 0 instructions: 190000000 cycles: 130402340 heartbeat IPC: 0.822772 cumulative IPC: 1.04419 (Simulation time: 0 hr 5 min 37 sec) 
Heartbeat CPU 0 instructions: 200000000 cycles: 142639256 heartbeat IPC: 0.817199 cumulative IPC: 1.01597 (Simulation time: 0 hr 6 min 0 sec) 
Heartbeat CPU 0 instructions: 210000003 cycles: 154914346 heartbeat IPC: 0.814658 cumulative IPC: 0.993651 (Simulation time: 0 hr 6 min 23 sec) 
Heartbeat CPU 0 instructions: 220000000 cycles: 166770387 heartbeat IPC: 0.843452 cumulative IPC: 0.979121 (Simulation time: 0 hr 6 min 46 sec) 
Heartbeat CPU 0 instructions: 230000000 cycles: 177730342 heartbeat IPC: 0.912413 cumulative IPC: 0.973645 (Simulation time: 0 hr 7 min 9 sec) 
Heartbeat CPU 0 instructions: 240000000 cycles: 188718328 heartbeat IPC: 0.910085 cumulative IPC: 0.968812 (Simulation time: 0 hr 7 min 32 sec) 
Heartbeat CPU 0 instructions: 250000002 cycles: 198290284 heartbeat IPC: 1.04472 cumulative IPC: 0.973528 (Simulation time: 0 hr 7 min 53 sec) 
Heartbeat CPU 0 instructions: 260000000 cycles: 205886147 heartbeat IPC: 1.31651 cumulative IPC: 0.989642 (Simulation time: 0 hr 8 min 13 sec) 
Heartbeat CPU 0 instructions: 270000003 cycles: 214099019 heartbeat IPC: 1.2176 cumulative IPC: 1.00066 (Simulation time: 0 hr 8 min 33 sec) 
Heartbeat CPU 0 instructions: 280000000 cycles: 222327012 heartbeat IPC: 1.21536 cumulative IPC: 1.01058 (Simulation time: 0 hr 8 min 53 sec) 
Heartbeat CPU 0 instructions: 290000000 cycles: 230634769 heartbeat IPC: 1.20369 cumulative IPC: 1.01919 (Simulation time: 0 hr 9 min 14 sec) 
Heartbeat CPU 0 instructions: 300000000 cycles: 238931076 heartbeat IPC: 1.20536 cumulative IPC: 1.02712 (Simulation time: 0 hr 9 min 34 sec) 
Heartbeat CPU 0 instructions: 310000000 cycles: 247145395 heartbeat IPC: 1.21739 cumulative IPC: 1.03482 (Simulation time: 0 hr 9 min 55 sec) 
Heartbeat CPU 0 instructions: 320000000 cycles: 255292761 heartbeat IPC: 1.22739 cumulative IPC: 1.04225 (Simulation time: 0 hr 10 min 16 sec) 
Heartbeat CPU 0 instructions: 330000002 cycles: 263466631 heartbeat IPC: 1.22341 cumulative IPC: 1.04901 (Simulation time: 0 hr 10 min 37 sec) 
Heartbeat CPU 0 instructions: 340000000 cycles: 272776602 heartbeat IPC: 1.07412 cumulative IPC: 1.05003 (Simulation time: 0 hr 10 min 59 sec) 
Heartbeat CPU 0 instructions: 350000001 cycles: 281631755 heartbeat IPC: 1.12929 cumulative IPC: 1.05299 (Simulation time: 0 hr 11 min 21 sec) 
Heartbeat CPU 0 instructions: 360000000 cycles: 290457147 heartbeat IPC: 1.13309 cumulative IPC: 1.05586 (Simulation time: 0 hr 11 min 42 sec) 
Heartbeat CPU 0 instructions: 370000001 cycles: 299244733 heartbeat IPC: 1.13797 cumulative IPC: 1.05869 (Simulation time: 0 hr 12 min 3 sec) 
Heartbeat CPU 0 instructions: 380000000 cycles: 308007702 heartbeat IPC: 1.14117 cumulative IPC: 1.06143 (Simulation time: 0 hr 12 min 24 sec) 
Heartbeat CPU 0 instructions: 390000001 cycles: 316657399 heartbeat IPC: 1.15611 cumulative IPC: 1.06443 (Simulation time: 0 hr 12 min 45 sec) 
Heartbeat CPU 0 instructions: 400000000 cycles: 325364357 heartbeat IPC: 1.14851 cumulative IPC: 1.06704 (Simulation time: 0 hr 13 min 5 sec) 
Heartbeat CPU 0 instructions: 410000003 cycles: 334029169 heartbeat IPC: 1.15409 cumulative IPC: 1.06964 (Simulation time: 0 hr 13 min 26 sec) 
Heartbeat CPU 0 instructions: 420000000 cycles: 342748252 heartbeat IPC: 1.14691 cumulative IPC: 1.07189 (Simulation time: 0 hr 13 min 47 sec) 
Heartbeat CPU 0 instructions: 430000001 cycles: 351381616 heartbeat IPC: 1.1583 cumulative IPC: 1.07432 (Simulation time: 0 hr 14 min 8 sec) 
Heartbeat CPU 0 instructions: 440000000 cycles: 360000832 heartbeat IPC: 1.1602 cumulative IPC: 1.07667 (Simulation time: 0 hr 14 min 28 sec) 
Heartbeat CPU 0 instructions: 450000001 cycles: 369786905 heartbeat IPC: 1.02186 cumulative IPC: 1.07502 (Simulation time: 0 hr 14 min 51 sec) 
Heartbeat CPU 0 instructions: 460000000 cycles: 378494547 heartbeat IPC: 1.14842 cumulative IPC: 1.07693 (Simulation time: 0 hr 15 min 12 sec) 
Heartbeat CPU 0 instructions: 470000003 cycles: 387077070 heartbeat IPC: 1.16516 cumulative IPC: 1.07914 (Simulation time: 0 hr 15 min 32 sec) 
Heartbeat CPU 0 instructions: 480000000 cycles: 395620177 heartbeat IPC: 1.17053 cumulative IPC: 1.08136 (Simulation time: 0 hr 15 min 53 sec) 
Heartbeat CPU 0 instructions: 490000000 cycles: 404214939 heartbeat IPC: 1.1635 cumulative IPC: 1.08332 (Simulation time: 0 hr 16 min 14 sec) 
Heartbeat CPU 0 instructions: 500000000 cycles: 412788482 heartbeat IPC: 1.16638 cumulative IPC: 1.08525 (Simulation time: 0 hr 16 min 34 sec) 
Heartbeat CPU 0 instructions: 510000001 cycles: 421349255 heartbeat IPC: 1.16812 cumulative IPC: 1.08714 (Simulation time: 0 hr 16 min 55 sec) 
Heartbeat CPU 0 instructions: 520000000 cycles: 429921915 heartbeat IPC: 1.1665 cumulative IPC: 1.0889 (Simulation time: 0 hr 17 min 16 sec) 
Heartbeat CPU 0 instructions: 530000001 cycles: 438487435 heartbeat IPC: 1.16747 cumulative IPC: 1.09061 (Simulation time: 0 hr 17 min 36 sec) 
Heartbeat CPU 0 instructions: 540000000 cycles: 447298312 heartbeat IPC: 1.13496 cumulative IPC: 1.09158 (Simulation time: 0 hr 17 min 57 sec) 
Heartbeat CPU 0 instructions: 550000000 cycles: 456118653 heartbeat IPC: 1.13374 cumulative IPC: 1.09248 (Simulation time: 0 hr 18 min 18 sec) 
Heartbeat CPU 0 instructions: 560000000 cycles: 464764663 heartbeat IPC: 1.1566 cumulative IPC: 1.0938 (Simulation time: 0 hr 18 min 39 sec) 
Heartbeat CPU 0 instructions: 570000001 cycles: 476184864 heartbeat IPC: 0.875641 cumulative IPC: 1.08803 (Simulation time: 0 hr 19 min 2 sec) 
Heartbeat CPU 0 instructions: 580000000 cycles: 487252694 heartbeat IPC: 0.903519 cumulative IPC: 1.08342 (Simulation time: 0 hr 19 min 24 sec) 
Heartbeat CPU 0 instructions: 590000001 cycles: 498719323 heartbeat IPC: 0.872096 cumulative IPC: 1.07809 (Simulation time: 0 hr 19 min 46 sec) 
Heartbeat CPU 0 instructions: 600000000 cycles: 509733257 heartbeat IPC: 0.907941 cumulative IPC: 1.07406 (Simulation time: 0 hr 20 min 8 sec) 
Finished CPU 0 instructions: 500000001 cycles: 465521768 cumulative IPC: 1.07406 (Simulation time: 0 hr 20 min 8 sec) 

CPU 0 Branch Prediction Accuracy: 99.7422% MPKI: 0.173296
Number of Branches: 33608403 Number of Mispredictions: 86648
Number of LOAD Instructions: 180215231
Number of LOAD Instructions (ROI): 180215231
Number of STORE Instructions: 36067263
Number of STORE Instructions (ROI): 36067263
Total Destination Memory Operands: 38428915
Total Destination Memory Operands (ROI): 38428915
Total Source Memory Operands: 180215231
Total Source Memory Operands (ROI): 180215231
Number of DEPENDED LOADS: 3042025
Number of DEPENDED LOADS (ROI): 3042025
Number of SQ_ADDED: 38428892
Number of SQ_ADDED (ROI): 38428892
Number of LQ_ADDED: 207409973
Number of LQ_ADDED (ROI): 207409973
Number of Instructions read from trace: 600000257

ChampSim completed all CPUs

Region of Interest Statistics

CPU 0 cumulative IPC: 1.07406 instructions: 500000001 cycles: 465521768
ITLB TOTAL     ACCESS:   91418742  HIT:   91418723  MISS:         19
ITLB LOAD      ACCESS:   91418742  HIT:   91418723  MISS:         19
ITLB RFO       ACCESS:          0  HIT:          0  MISS:          0
ITLB PREFETCH  ACCESS:          0  HIT:          0  MISS:          0
ITLB WRITEBACK ACCESS:          0  HIT:          0  MISS:          0
ITLB PREFETCH  REQUESTED:          0  ISSUED:          0  USEFUL:          0  USELESS:          0
ITLB TOTAL MSHR MERGED:         40
ITLB LOAD MSHR MERGED:         40
ITLB RFO MSHR MERGED:          0
ITLB PREFETCH MSHR MERGED:          0
ITLB WRITEBACK MSHR MERGED:          0
ITLB TOTAL ACCESSES:   91418782 HITS:   91418723 MISSES:         59
ITLB LOAD ACCESSES:   91418782 HITS:   91418723 MISSES:         59
ITLB RFO ACCESSES:          0 HITS:          0 MISSES:          0
ITLB PREFETCH ACCESSES:          0 HITS:          0 MISSES:          0
ITLB WRITEBACK ACCESSES:          0 HITS:          0 MISSES:          0
ITLB RQ ACCESS:  500000003
ITLB RQ TO_CACHE:   91418782
ITLB RQ MERGED:  408581221
ITLB RQ FORWARD:          0
ITLB WQ ACCESS:          0
ITLB WQ TO_CACHE:          0
ITLB WQ MERGED:          0
ITLB WQ FORWARD:          0
DTLB TOTAL     ACCESS:  142747130  HIT:  142380668  MISS:     366462
DTLB LOAD      ACCESS:  119987862  HIT:  119674276  MISS:     313586
DTLB RFO       ACCESS:   22759268  HIT:   22706392  MISS:      52876
DTLB PREFETCH  ACCESS:          0  HIT:          0  MISS:          0
DTLB WRITEBACK ACCESS:          0  HIT:          0  MISS:          0
DTLB PREFETCH  REQUESTED:          0  ISSUED:          0  USEFUL:          0  USELESS:          0
DTLB TOTAL MSHR MERGED:     293221
DTLB LOAD MSHR MERGED:     244468
DTLB RFO MSHR MERGED:      48753
DTLB PREFETCH MSHR MERGED:          0
DTLB WRITEBACK MSHR MERGED:          0
DTLB TOTAL ACCESSES:  143040351 HITS:  142380668 MISSES:     659683
DTLB LOAD ACCESSES:  120232330 HITS:  119674276 MISSES:     558054
DTLB RFO ACCESSES:   22808021 HITS:   22706392 MISSES:     101629
DTLB PREFETCH ACCESSES:          0 HITS:          0 MISSES:          0
DTLB WRITEBACK ACCESSES:          0 HITS:          0 MISSES:          0
DTLB RQ ACCESS:  184790952
DTLB RQ TO_CACHE:  143040351
DTLB RQ MERGED:   41750601
DTLB RQ FORWARD:          0
DTLB WQ ACCESS:          0
DTLB WQ TO_CACHE:          0
DTLB WQ MERGED:          0
DTLB WQ FORWARD:          0
L1D TOTAL     ACCESS:  190072834  HIT:  176574688  MISS:   13498146
L1D LOAD      ACCESS:  113427330  HIT:  110514394  MISS:    2912936
L1D RFO       ACCESS:   17288848  HIT:   14507091  MISS:    2781757
L1D PREFETCH  ACCESS:   59356656  HIT:   51553203  MISS:    7803453
L1D WRITEBACK ACCESS:          0  HIT:          0  MISS:          0
L1D PREFETCH  REQUESTED:  117170240  ISSUED:  115808146  USEFUL:    7592061  USELESS:     211393
L1D TOTAL MSHR MERGED:   30814370
L1D LOAD MSHR MERGED:    6066318
L1D RFO MSHR MERGED:   10963842
L1D PREFETCH MSHR MERGED:   13784210
L1D WRITEBACK MSHR MERGED:          0
L1D TOTAL ACCESSES:  220887592 HITS:  176575074 MISSES:   44312518
L1D LOAD ACCESSES:  117170274 HITS:  110514428 MISSES:    6655846
L1D RFO ACCESSES:   28252628 HITS:   14507091 MISSES:   13745537
L1D PREFETCH ACCESSES:   75464690 HITS:   51553555 MISSES:   23911135
L1D WRITEBACK ACCESSES:          0 HITS:          0 MISSES:          0
L1D RQ ACCESS:  156534886
L1D RQ TO_CACHE:  117170243
L1D RQ MERGED:   39364609
L1D RQ FORWARD:          0
L1D WQ ACCESS:   28256066
L1D WQ TO_CACHE:   28252628
L1D WQ MERGED:       3438
L1D WQ FORWARD:        386
L1I TOTAL     ACCESS:  115469338  HIT:  115468390  MISS:        948
L1I LOAD      ACCESS:  115469338  HIT:  115468390  MISS:        948
L1I RFO       ACCESS:          0  HIT:          0  MISS:          0
L1I PREFETCH  ACCESS:          0  HIT:          0  MISS:          0
L1I WRITEBACK ACCESS:          0  HIT:          0  MISS:          0
L1I PREFETCH  REQUESTED:          0  ISSUED:          0  USEFUL:          0  USELESS:          0
L1I TOTAL MSHR MERGED:       1578
L1I LOAD MSHR MERGED:       1578
L1I RFO MSHR MERGED:          0
L1I PREFETCH MSHR MERGED:          0
L1I WRITEBACK MSHR MERGED:          0
L1I TOTAL ACCESSES:  115470916 HITS:  115468390 MISSES:       2526
L1I LOAD ACCESSES:  115470916 HITS:  115468390 MISSES:       2526
L1I RFO ACCESSES:          0 HITS:          0 MISSES:          0
L1I PREFETCH ACCESSES:          0 HITS:          0 MISSES:          0
L1I WRITEBACK ACCESSES:          0 HITS:          0 MISSES:          0
L1I RQ ACCESS:  500000007
L1I RQ TO_CACHE:  115470916
L1I RQ MERGED:  384529091
L1I RQ FORWARD:          0
L1I WQ ACCESS:          0
L1I WQ TO_CACHE:          0
L1I WQ MERGED:          0
L1I WQ FORWARD:          0
L2C TOTAL     ACCESS:   16750413  HIT:    4905155  MISS:   11845258
L2C LOAD      ACCESS:     590445  HIT:     102475  MISS:     487970
L2C RFO       ACCESS:    2781695  HIT:     266736  MISS:    2514959
L2C PREFETCH  ACCESS:   10157613  HIT:    1317565  MISS:    8840048
L2C WRITEBACK ACCESS:    3220660  HIT:    3218379  MISS:       2281
L2C PREFETCH  REQUESTED:      33502  ISSUED:      33502  USEFUL:      97471  USELESS:    8740639
L2C TOTAL MSHR MERGED:        327
L2C LOAD MSHR MERGED:          2
L2C RFO MSHR MERGED:          0
L2C PREFETCH MSHR MERGED:        325
L2C WRITEBACK MSHR MERGED:          0
L2C TOTAL ACCESSES:   16751631 HITS:    4905209 MISSES:   11846422
L2C LOAD ACCESSES:     590476 HITS:     102506 MISSES:     487970
L2C RFO ACCESSES:    2781695 HITS:     266736 MISSES:    2514959
L2C PREFETCH ACCESSES:   10158800 HITS:    1317588 MISSES:    8841212
L2C WRITEBACK ACCESSES:    3220660 HITS:    3218379 MISSES:       2281
L2C RQ ACCESS:    3372171
L2C RQ TO_CACHE:    3372140
L2C RQ MERGED:          0
L2C RQ FORWARD:          0
L2C WQ ACCESS:    3220660
L2C WQ TO_CACHE:    3220660
L2C WQ MERGED:          0
L2C WQ FORWARD:         54
LLC TOTAL     ACCESS:   14744070  HIT:    7884544  MISS:    6859526
LLC LOAD      ACCESS:     487964  HIT:     250035  MISS:     237929
LLC RFO       ACCESS:    2514930  HIT:    1390226  MISS:    1124704
LLC PREFETCH  ACCESS:    8840756  HIT:    4182877  MISS:    4657879
LLC WRITEBACK ACCESS:    2900420  HIT:    2061406  MISS:     839014
LLC PREFETCH  REQUESTED:          0  ISSUED:          0  USEFUL:     330974  USELESS:    4330602
LLC TOTAL MSHR MERGED:          6
LLC LOAD MSHR MERGED:          0
LLC RFO MSHR MERGED:          0
LLC PREFETCH MSHR MERGED:          6
LLC WRITEBACK MSHR MERGED:          0
LLC TOTAL ACCESSES:   14744197 HITS:    7884663 MISSES:    6859534
LLC LOAD ACCESSES:     487968 HITS:     250039 MISSES:     237929
LLC RFO ACCESSES:    2514959 HITS:    1390255 MISSES:    1124704
LLC PREFETCH ACCESSES:    8840850 HITS:    4182963 MISSES:    4657887
LLC WRITEBACK ACCESSES:    2900420 HITS:    2061406 MISSES:     839014
LLC 0 RQ ACCESS:    3002927
LLC 0 RQ TO_CACHE:    3002894
LLC 0 RQ MERGED:          0
LLC 0 RQ FORWARD:          0
LLC WQ ACCESS:    2900420
LLC WQ TO_CACHE:    2900420
LLC WQ MERGED:          0
LLC WQ FORWARD:        119
Major fault: 0 Minor fault: 57518
CPU 0 L1D next line prefetcher final stats
CPU 0 L2C PC-based stride prefetcher final stats
All Misses: 7250590
All Hits: 8989662
SD Algo Stats - Switches: 0 SRR-Repls: 244519 BRR-Repls: 0

DRAM Statistics
 CHANNEL 0
 RQ ROW_BUFFER_HIT:    3286800  ROW_BUFFER_MISS:    2730848
 DBUS_CONGESTED:    3388943
 WQ ROW_BUFFER_HIT:     321873  ROW_BUFFER_MISS:    1365261  FULL:        795

 AVG_CONGESTED_CYCLE: 13
LOADS RETIRED: 157818985
INSTR RETIRED: 500000000
