
*** ChampSim Multicore Out-of-Order Simulator ***

Warmup Instructions: 100000000
Simulation Instructions: 500000000
Number of CPUs: 1
LLC sets: 2048
LLC ways: 16
Clean RRIP Policies: 2213230222132302 Dirty RRIP Policies: 1203130212031302 PSEL Width: 10 Track Set: 4294967295 PSEL Mask: 1 Demote Mask: 40100000401000DS Algo: 0Window size: 0
Off-chip DRAM Size: 4096 MB Channels: 1 Width: 64-bit Data Rate: 1600 MT/s

CPU 0 runs /mnt/beegfs/iconst01/spec2017/Cam4.trace.gz
NOT SORTED
TRACE STRING: /mnt/beegfs/iconst01/spec2017/Cam4.trace.gz
SORTED
TRACE STRING: /mnt/beegfs/iconst01/spec2017/Cam4.trace.gz
INITIAL
TRACE STRING: /mnt/beegfs/iconst01/spec2017/Cam4.trace.gz

champsim_seed used: 325

CPU 0 L1D next line prefetcher
CPU 0 L2C IP-based stride prefetcher
Initialize DRRIP state
Assign rand_sets[0]: 454  LLC: 2048
rand_sets[0]: 454
Assign rand_sets[1]: 1662  LLC: 2048
rand_sets[1]: 1662
Assign rand_sets[2]: 1921  LLC: 2048
rand_sets[2]: 1921
Assign rand_sets[3]: 1131  LLC: 2048
rand_sets[3]: 1131
Assign rand_sets[4]: 331  LLC: 2048
rand_sets[4]: 331
Assign rand_sets[5]: 1531  LLC: 2048
rand_sets[5]: 1531
Assign rand_sets[6]: 482  LLC: 2048
rand_sets[6]: 482
Assign rand_sets[7]: 1275  LLC: 2048
rand_sets[7]: 1275
Assign rand_sets[8]: 1876  LLC: 2048
rand_sets[8]: 1876
Assign rand_sets[9]: 2038  LLC: 2048
rand_sets[9]: 2038
Assign rand_sets[10]: 701  LLC: 2048
rand_sets[10]: 701
Assign rand_sets[11]: 479  LLC: 2048
rand_sets[11]: 479
Assign rand_sets[12]: 892  LLC: 2048
rand_sets[12]: 892
Assign rand_sets[13]: 1820  LLC: 2048
rand_sets[13]: 1820
Assign rand_sets[14]: 1505  LLC: 2048
rand_sets[14]: 1505
Assign rand_sets[15]: 1159  LLC: 2048
rand_sets[15]: 1159
Assign rand_sets[16]: 513  LLC: 2048
rand_sets[16]: 513
Assign rand_sets[17]: 703  LLC: 2048
rand_sets[17]: 703
Assign rand_sets[18]: 561  LLC: 2048
rand_sets[18]: 561
Assign rand_sets[19]: 990  LLC: 2048
rand_sets[19]: 990
Assign rand_sets[20]: 342  LLC: 2048
rand_sets[20]: 342
Assign rand_sets[21]: 882  LLC: 2048
rand_sets[21]: 882
Assign rand_sets[22]: 15  LLC: 2048
rand_sets[22]: 15
Assign rand_sets[23]: 71  LLC: 2048
rand_sets[23]: 71
Assign rand_sets[24]: 1127  LLC: 2048
rand_sets[24]: 1127
Assign rand_sets[25]: 1382  LLC: 2048
rand_sets[25]: 1382
Assign rand_sets[26]: 647  LLC: 2048
rand_sets[26]: 647
Assign rand_sets[27]: 857  LLC: 2048
rand_sets[27]: 857
Assign rand_sets[28]: 1450  LLC: 2048
rand_sets[28]: 1450
Assign rand_sets[29]: 1160  LLC: 2048
rand_sets[29]: 1160
Assign rand_sets[30]: 1852  LLC: 2048
rand_sets[30]: 1852
Assign rand_sets[31]: 1881  LLC: 2048
rand_sets[31]: 1881
Assign rand_sets[32]: 1770  LLC: 2048
rand_sets[32]: 1770
Assign rand_sets[33]: 1622  LLC: 2048
rand_sets[33]: 1622
Assign rand_sets[34]: 275  LLC: 2048
rand_sets[34]: 275
Assign rand_sets[35]: 635  LLC: 2048
rand_sets[35]: 635
Assign rand_sets[36]: 466  LLC: 2048
rand_sets[36]: 466
Assign rand_sets[37]: 1413  LLC: 2048
rand_sets[37]: 1413
Assign rand_sets[38]: 417  LLC: 2048
rand_sets[38]: 417
Assign rand_sets[39]: 472  LLC: 2048
rand_sets[39]: 472
Assign rand_sets[40]: 1340  LLC: 2048
rand_sets[40]: 1340
Assign rand_sets[41]: 852  LLC: 2048
rand_sets[41]: 852
Assign rand_sets[42]: 1365  LLC: 2048
rand_sets[42]: 1365
Assign rand_sets[43]: 47  LLC: 2048
rand_sets[43]: 47
Assign rand_sets[44]: 823  LLC: 2048
rand_sets[44]: 823
Assign rand_sets[45]: 686  LLC: 2048
rand_sets[45]: 686
Assign rand_sets[46]: 1637  LLC: 2048
rand_sets[46]: 1637
Assign rand_sets[47]: 1115  LLC: 2048
rand_sets[47]: 1115
Assign rand_sets[48]: 986  LLC: 2048
rand_sets[48]: 986
Assign rand_sets[49]: 258  LLC: 2048
rand_sets[49]: 258
Assign rand_sets[50]: 633  LLC: 2048
rand_sets[50]: 633
Assign rand_sets[51]: 920  LLC: 2048
rand_sets[51]: 920
Assign rand_sets[52]: 204  LLC: 2048
rand_sets[52]: 204
Assign rand_sets[53]: 227  LLC: 2048
rand_sets[53]: 227
Assign rand_sets[54]: 1818  LLC: 2048
rand_sets[54]: 1818
Assign rand_sets[55]: 886  LLC: 2048
rand_sets[55]: 886
Assign rand_sets[56]: 1422  LLC: 2048
rand_sets[56]: 1422
Assign rand_sets[57]: 607  LLC: 2048
rand_sets[57]: 607
Assign rand_sets[58]: 217  LLC: 2048
rand_sets[58]: 217
Assign rand_sets[59]: 1945  LLC: 2048
rand_sets[59]: 1945
Assign rand_sets[60]: 143  LLC: 2048
rand_sets[60]: 143
Assign rand_sets[61]: 1311  LLC: 2048
rand_sets[61]: 1311
Assign rand_sets[62]: 319  LLC: 2048
rand_sets[62]: 319
Assign rand_sets[63]: 1846  LLC: 2048
rand_sets[63]: 1846
 CLEAN-RRIP-POLICY-1: 2-2-1-3-2-3-0-2- CLEAN-RRIP-POLICY-2: 2-2-1-3-2-3-0-2-
 DIRTY-RRIP-POLICY-1: 1-2-0-3-1-3-0-2- DIRTY-RRIP-POLICY-2: 1-2-0-3-1-3-0-2-
 PSEL width: 10
Heartbeat CPU 0 instructions: 10000000 cycles: 4859184 heartbeat IPC: 2.05796 cumulative IPC: 2.05796 (Simulation time: 0 hr 0 min 16 sec) 
Heartbeat CPU 0 instructions: 20000000 cycles: 9790786 heartbeat IPC: 2.02774 cumulative IPC: 2.04274 (Simulation time: 0 hr 0 min 33 sec) 
Heartbeat CPU 0 instructions: 30000001 cycles: 14562950 heartbeat IPC: 2.09549 cumulative IPC: 2.06002 (Simulation time: 0 hr 0 min 48 sec) 
Heartbeat CPU 0 instructions: 40000000 cycles: 19399936 heartbeat IPC: 2.0674 cumulative IPC: 2.06186 (Simulation time: 0 hr 1 min 5 sec) 
Heartbeat CPU 0 instructions: 50000000 cycles: 24256456 heartbeat IPC: 2.05909 cumulative IPC: 2.06131 (Simulation time: 0 hr 1 min 22 sec) 
Heartbeat CPU 0 instructions: 60000000 cycles: 29181872 heartbeat IPC: 2.03029 cumulative IPC: 2.05607 (Simulation time: 0 hr 1 min 39 sec) 
Heartbeat CPU 0 instructions: 70000001 cycles: 33956837 heartbeat IPC: 2.09426 cumulative IPC: 2.06144 (Simulation time: 0 hr 1 min 54 sec) 
Heartbeat CPU 0 instructions: 80000000 cycles: 38793088 heartbeat IPC: 2.06772 cumulative IPC: 2.06222 (Simulation time: 0 hr 2 min 11 sec) 
Heartbeat CPU 0 instructions: 90000002 cycles: 43647124 heartbeat IPC: 2.06014 cumulative IPC: 2.06199 (Simulation time: 0 hr 2 min 28 sec) 
Heartbeat CPU 0 instructions: 100000000 cycles: 48565902 heartbeat IPC: 2.03302 cumulative IPC: 2.05906 (Simulation time: 0 hr 2 min 45 sec) 

Warmup complete CPU 0 instructions: 100000001 cycles: 48565903 (Simulation time: 0 hr 2 min 45 sec) 

Heartbeat CPU 0 instructions: 110000000 cycles: 61632111 heartbeat IPC: 0.765333 cumulative IPC: 0.765333 (Simulation time: 0 hr 3 min 8 sec) 
Heartbeat CPU 0 instructions: 120000000 cycles: 75378596 heartbeat IPC: 0.727459 cumulative IPC: 0.745915 (Simulation time: 0 hr 3 min 34 sec) 
Heartbeat CPU 0 instructions: 130000000 cycles: 89120358 heartbeat IPC: 0.727709 cumulative IPC: 0.739746 (Simulation time: 0 hr 3 min 59 sec) 
Heartbeat CPU 0 instructions: 140000000 cycles: 103373187 heartbeat IPC: 0.701615 cumulative IPC: 0.72983 (Simulation time: 0 hr 4 min 25 sec) 
Heartbeat CPU 0 instructions: 150000003 cycles: 116514573 heartbeat IPC: 0.760955 cumulative IPC: 0.73585 (Simulation time: 0 hr 4 min 48 sec) 
Heartbeat CPU 0 instructions: 160000000 cycles: 130258755 heartbeat IPC: 0.72758 cumulative IPC: 0.734458 (Simulation time: 0 hr 5 min 14 sec) 
Heartbeat CPU 0 instructions: 170000001 cycles: 144035563 heartbeat IPC: 0.725858 cumulative IPC: 0.733217 (Simulation time: 0 hr 5 min 39 sec) 
Heartbeat CPU 0 instructions: 180000000 cycles: 158273207 heartbeat IPC: 0.702363 cumulative IPC: 0.729213 (Simulation time: 0 hr 6 min 5 sec) 
Heartbeat CPU 0 instructions: 190000003 cycles: 171391108 heartbeat IPC: 0.762317 cumulative IPC: 0.732749 (Simulation time: 0 hr 6 min 28 sec) 
Heartbeat CPU 0 instructions: 200000000 cycles: 185133654 heartbeat IPC: 0.727667 cumulative IPC: 0.732237 (Simulation time: 0 hr 6 min 53 sec) 
Heartbeat CPU 0 instructions: 210000002 cycles: 198912992 heartbeat IPC: 0.725724 cumulative IPC: 0.73164 (Simulation time: 0 hr 7 min 19 sec) 
Heartbeat CPU 0 instructions: 220000000 cycles: 213156636 heartbeat IPC: 0.702067 cumulative IPC: 0.729081 (Simulation time: 0 hr 7 min 44 sec) 
Heartbeat CPU 0 instructions: 230000001 cycles: 226210445 heartbeat IPC: 0.76606 cumulative IPC: 0.731798 (Simulation time: 0 hr 8 min 8 sec) 
Heartbeat CPU 0 instructions: 240000000 cycles: 239942524 heartbeat IPC: 0.728222 cumulative IPC: 0.731542 (Simulation time: 0 hr 8 min 33 sec) 
Heartbeat CPU 0 instructions: 250000001 cycles: 253668150 heartbeat IPC: 0.728564 cumulative IPC: 0.731343 (Simulation time: 0 hr 8 min 59 sec) 
Heartbeat CPU 0 instructions: 260000000 cycles: 267803871 heartbeat IPC: 0.707428 cumulative IPC: 0.729801 (Simulation time: 0 hr 9 min 24 sec) 
Heartbeat CPU 0 instructions: 270000003 cycles: 280970007 heartbeat IPC: 0.759525 cumulative IPC: 0.731485 (Simulation time: 0 hr 9 min 47 sec) 
Heartbeat CPU 0 instructions: 280000000 cycles: 294715397 heartbeat IPC: 0.727516 cumulative IPC: 0.731263 (Simulation time: 0 hr 10 min 13 sec) 
Heartbeat CPU 0 instructions: 290000001 cycles: 308485221 heartbeat IPC: 0.726226 cumulative IPC: 0.730996 (Simulation time: 0 hr 10 min 38 sec) 
Heartbeat CPU 0 instructions: 300000000 cycles: 322571317 heartbeat IPC: 0.70992 cumulative IPC: 0.729913 (Simulation time: 0 hr 11 min 4 sec) 
Heartbeat CPU 0 instructions: 310000000 cycles: 335757041 heartbeat IPC: 0.758396 cumulative IPC: 0.73122 (Simulation time: 0 hr 11 min 27 sec) 
Heartbeat CPU 0 instructions: 320000000 cycles: 349543830 heartbeat IPC: 0.725332 cumulative IPC: 0.730951 (Simulation time: 0 hr 11 min 53 sec) 
Heartbeat CPU 0 instructions: 330000000 cycles: 363332521 heartbeat IPC: 0.725232 cumulative IPC: 0.7307 (Simulation time: 0 hr 12 min 18 sec) 
Heartbeat CPU 0 instructions: 340000000 cycles: 377392707 heartbeat IPC: 0.711228 cumulative IPC: 0.729868 (Simulation time: 0 hr 12 min 43 sec) 
Heartbeat CPU 0 instructions: 350000000 cycles: 390612544 heartbeat IPC: 0.756439 cumulative IPC: 0.730894 (Simulation time: 0 hr 13 min 6 sec) 
Heartbeat CPU 0 instructions: 360000000 cycles: 404434077 heartbeat IPC: 0.723509 cumulative IPC: 0.730608 (Simulation time: 0 hr 13 min 31 sec) 
Heartbeat CPU 0 instructions: 370000003 cycles: 418224987 heartbeat IPC: 0.725116 cumulative IPC: 0.730403 (Simulation time: 0 hr 13 min 56 sec) 
Heartbeat CPU 0 instructions: 380000000 cycles: 432246928 heartbeat IPC: 0.713168 cumulative IPC: 0.729773 (Simulation time: 0 hr 14 min 21 sec) 
Heartbeat CPU 0 instructions: 390000003 cycles: 445467178 heartbeat IPC: 0.756416 cumulative IPC: 0.73066 (Simulation time: 0 hr 14 min 44 sec) 
Heartbeat CPU 0 instructions: 400000000 cycles: 459280234 heartbeat IPC: 0.723953 cumulative IPC: 0.730435 (Simulation time: 0 hr 15 min 9 sec) 
Heartbeat CPU 0 instructions: 410000000 cycles: 473039808 heartbeat IPC: 0.726767 cumulative IPC: 0.730316 (Simulation time: 0 hr 15 min 34 sec) 
Heartbeat CPU 0 instructions: 420000000 cycles: 487051267 heartbeat IPC: 0.713702 cumulative IPC: 0.729785 (Simulation time: 0 hr 15 min 59 sec) 
Heartbeat CPU 0 instructions: 430000003 cycles: 500303241 heartbeat IPC: 0.754605 cumulative IPC: 0.730513 (Simulation time: 0 hr 16 min 21 sec) 
Heartbeat CPU 0 instructions: 440000000 cycles: 514119112 heartbeat IPC: 0.723805 cumulative IPC: 0.730314 (Simulation time: 0 hr 16 min 46 sec) 
Heartbeat CPU 0 instructions: 450000000 cycles: 527895990 heartbeat IPC: 0.725854 cumulative IPC: 0.730186 (Simulation time: 0 hr 17 min 11 sec) 
Heartbeat CPU 0 instructions: 460000000 cycles: 541886276 heartbeat IPC: 0.714782 cumulative IPC: 0.729749 (Simulation time: 0 hr 17 min 36 sec) 
Heartbeat CPU 0 instructions: 470000001 cycles: 555113913 heartbeat IPC: 0.755993 cumulative IPC: 0.730434 (Simulation time: 0 hr 17 min 58 sec) 
Heartbeat CPU 0 instructions: 480000000 cycles: 568902140 heartbeat IPC: 0.725256 cumulative IPC: 0.730297 (Simulation time: 0 hr 18 min 23 sec) 
Heartbeat CPU 0 instructions: 490000002 cycles: 582656733 heartbeat IPC: 0.72703 cumulative IPC: 0.730213 (Simulation time: 0 hr 18 min 48 sec) 
Heartbeat CPU 0 instructions: 500000000 cycles: 596648455 heartbeat IPC: 0.714708 cumulative IPC: 0.729817 (Simulation time: 0 hr 19 min 13 sec) 
Heartbeat CPU 0 instructions: 510000002 cycles: 609924442 heartbeat IPC: 0.75324 cumulative IPC: 0.730371 (Simulation time: 0 hr 19 min 35 sec) 
Heartbeat CPU 0 instructions: 520000000 cycles: 623700912 heartbeat IPC: 0.725875 cumulative IPC: 0.730263 (Simulation time: 0 hr 20 min 0 sec) 
Heartbeat CPU 0 instructions: 530000003 cycles: 637434425 heartbeat IPC: 0.728146 cumulative IPC: 0.730214 (Simulation time: 0 hr 20 min 25 sec) 
Heartbeat CPU 0 instructions: 540000000 cycles: 651446069 heartbeat IPC: 0.713692 cumulative IPC: 0.72983 (Simulation time: 0 hr 20 min 50 sec) 
Heartbeat CPU 0 instructions: 550000003 cycles: 664713131 heartbeat IPC: 0.753747 cumulative IPC: 0.730345 (Simulation time: 0 hr 21 min 12 sec) 
Heartbeat CPU 0 instructions: 560000000 cycles: 678467740 heartbeat IPC: 0.727029 cumulative IPC: 0.730273 (Simulation time: 0 hr 21 min 37 sec) 
Heartbeat CPU 0 instructions: 570000001 cycles: 692230990 heartbeat IPC: 0.726573 cumulative IPC: 0.730193 (Simulation time: 0 hr 22 min 2 sec) 
Heartbeat CPU 0 instructions: 580000000 cycles: 706265926 heartbeat IPC: 0.712508 cumulative IPC: 0.729816 (Simulation time: 0 hr 22 min 26 sec) 
Heartbeat CPU 0 instructions: 590000000 cycles: 719482733 heartbeat IPC: 0.756612 cumulative IPC: 0.730344 (Simulation time: 0 hr 22 min 49 sec) 
Heartbeat CPU 0 instructions: 600000000 cycles: 733241064 heartbeat IPC: 0.726832 cumulative IPC: 0.730273 (Simulation time: 0 hr 23 min 14 sec) 
Finished CPU 0 instructions: 500000001 cycles: 684675169 cumulative IPC: 0.730273 (Simulation time: 0 hr 23 min 14 sec) 

CPU 0 Branch Prediction Accuracy: 97.5275% MPKI: 2.1997
Number of Branches: 44482865 Number of Mispredictions: 1099852
Number of LOAD Instructions: 144955155
Number of LOAD Instructions (ROI): 144955155
Number of STORE Instructions: 55921098
Number of STORE Instructions (ROI): 55921098
Total Destination Memory Operands: 57111147
Total Destination Memory Operands (ROI): 57111147
Total Source Memory Operands: 144955155
Total Source Memory Operands (ROI): 144955155
Number of DEPENDED LOADS: 13454885
Number of DEPENDED LOADS (ROI): 13454885
Number of SQ_ADDED: 57111126
Number of SQ_ADDED (ROI): 57111126
Number of LQ_ADDED: 174192531
Number of LQ_ADDED (ROI): 174192531
Number of Instructions read from trace: 600000256

ChampSim completed all CPUs

Region of Interest Statistics

CPU 0 cumulative IPC: 0.730273 instructions: 500000001 cycles: 684675169
ITLB TOTAL     ACCESS:  136064061  HIT:  136061508  MISS:       2553
ITLB LOAD      ACCESS:  136064061  HIT:  136061508  MISS:       2553
ITLB RFO       ACCESS:          0  HIT:          0  MISS:          0
ITLB PREFETCH  ACCESS:          0  HIT:          0  MISS:          0
ITLB WRITEBACK ACCESS:          0  HIT:          0  MISS:          0
ITLB PREFETCH  REQUESTED:          0  ISSUED:          0  USEFUL:          0  USELESS:          0
ITLB TOTAL MSHR MERGED:       4363
ITLB LOAD MSHR MERGED:       4363
ITLB RFO MSHR MERGED:          0
ITLB PREFETCH MSHR MERGED:          0
ITLB WRITEBACK MSHR MERGED:          0
ITLB TOTAL ACCESSES:  136068424 HITS:  136061508 MISSES:       6916
ITLB LOAD ACCESSES:  136068424 HITS:  136061508 MISSES:       6916
ITLB RFO ACCESSES:          0 HITS:          0 MISSES:          0
ITLB PREFETCH ACCESSES:          0 HITS:          0 MISSES:          0
ITLB WRITEBACK ACCESSES:          0 HITS:          0 MISSES:          0
ITLB RQ ACCESS:  500000202
ITLB RQ TO_CACHE:  136068424
ITLB RQ MERGED:  363931778
ITLB RQ FORWARD:          0
ITLB WQ ACCESS:          0
ITLB WQ TO_CACHE:          0
ITLB WQ MERGED:          0
ITLB WQ FORWARD:          0
DTLB TOTAL     ACCESS:  111547859  HIT:  111411665  MISS:     136194
DTLB LOAD      ACCESS:   78949795  HIT:   78824169  MISS:     125626
DTLB RFO       ACCESS:   32598064  HIT:   32587496  MISS:      10568
DTLB PREFETCH  ACCESS:          0  HIT:          0  MISS:          0
DTLB WRITEBACK ACCESS:          0  HIT:          0  MISS:          0
DTLB PREFETCH  REQUESTED:          0  ISSUED:          0  USEFUL:          0  USELESS:          0
DTLB TOTAL MSHR MERGED:      63682
DTLB LOAD MSHR MERGED:      50957
DTLB RFO MSHR MERGED:      12725
DTLB PREFETCH MSHR MERGED:          0
DTLB WRITEBACK MSHR MERGED:          0
DTLB TOTAL ACCESSES:  111611541 HITS:  111411665 MISSES:     199876
DTLB LOAD ACCESSES:   79000752 HITS:   78824169 MISSES:     176583
DTLB RFO ACCESSES:   32610789 HITS:   32587496 MISSES:      23293
DTLB PREFETCH ACCESSES:          0 HITS:          0 MISSES:          0
DTLB WRITEBACK ACCESSES:          0 HITS:          0 MISSES:          0
DTLB RQ ACCESS:  157180537
DTLB RQ TO_CACHE:  111611541
DTLB RQ MERGED:   45568996
DTLB RQ FORWARD:          0
DTLB WQ ACCESS:          0
DTLB WQ TO_CACHE:          0
DTLB WQ MERGED:          0
DTLB WQ FORWARD:          0
L1D TOTAL     ACCESS:  198242855  HIT:  188401746  MISS:    9841109
L1D LOAD      ACCESS:   79950600  HIT:   75688561  MISS:    4262039
L1D RFO       ACCESS:   44537532  HIT:   43637138  MISS:     900394
L1D PREFETCH  ACCESS:   73754723  HIT:   69076047  MISS:    4678676
L1D WRITEBACK ACCESS:          0  HIT:          0  MISS:          0
L1D PREFETCH  REQUESTED:   80345536  ISSUED:   79889943  USEFUL:    1820401  USELESS:    2858184
L1D TOTAL MSHR MERGED:    2486134
L1D LOAD MSHR MERGED:     518498
L1D RFO MSHR MERGED:    1415348
L1D PREFETCH MSHR MERGED:     552288
L1D WRITEBACK MSHR MERGED:          0
L1D TOTAL ACCESSES:  200750129 HITS:  188422886 MISSES:   12327243
L1D LOAD ACCESSES:   80358054 HITS:   75701079 MISSES:    4656975
L1D RFO ACCESSES:   45949844 HITS:   43637138 MISSES:    2312706
L1D PREFETCH ACCESSES:   74442231 HITS:   69084669 MISSES:    5357562
L1D WRITEBACK ACCESSES:          0 HITS:          0 MISSES:          0
L1D RQ ACCESS:  109538567
L1D RQ TO_CACHE:   80345536
L1D RQ MERGED:   29180513
L1D RQ FORWARD:          0
L1D WQ ACCESS:   47641970
L1D WQ TO_CACHE:   45949844
L1D WQ MERGED:    1692126
L1D WQ FORWARD:      21140
L1I TOTAL     ACCESS:  161534653  HIT:  161270679  MISS:     263974
L1I LOAD      ACCESS:  161534653  HIT:  161270679  MISS:     263974
L1I RFO       ACCESS:          0  HIT:          0  MISS:          0
L1I PREFETCH  ACCESS:          0  HIT:          0  MISS:          0
L1I WRITEBACK ACCESS:          0  HIT:          0  MISS:          0
L1I PREFETCH  REQUESTED:          0  ISSUED:          0  USEFUL:          0  USELESS:          0
L1I TOTAL MSHR MERGED:     261125
L1I LOAD MSHR MERGED:     261125
L1I RFO MSHR MERGED:          0
L1I PREFETCH MSHR MERGED:          0
L1I WRITEBACK MSHR MERGED:          0
L1I TOTAL ACCESSES:  161795778 HITS:  161270679 MISSES:     525099
L1I LOAD ACCESSES:  161795778 HITS:  161270679 MISSES:     525099
L1I RFO ACCESSES:          0 HITS:          0 MISSES:          0
L1I PREFETCH ACCESSES:          0 HITS:          0 MISSES:          0
L1I WRITEBACK ACCESSES:          0 HITS:          0 MISSES:          0
L1I RQ ACCESS:  500000202
L1I RQ TO_CACHE:  161795778
L1I RQ MERGED:  338204424
L1I RQ FORWARD:          0
L1I WQ ACCESS:          0
L1I WQ TO_CACHE:          0
L1I WQ MERGED:          0
L1I WQ FORWARD:          0
L2C TOTAL     ACCESS:   11771887  HIT:   10382580  MISS:    1389307
L2C LOAD      ACCESS:    4402386  HIT:    3905775  MISS:     496611
L2C RFO       ACCESS:     897294  HIT:     536254  MISS:     361040
L2C PREFETCH  ACCESS:    5284657  HIT:    4755947  MISS:     528710
L2C WRITEBACK ACCESS:    1187550  HIT:    1184604  MISS:       2946
L2C PREFETCH  REQUESTED:     504699  ISSUED:     504699  USEFUL:     114919  USELESS:     413984
L2C TOTAL MSHR MERGED:       1989
L2C LOAD MSHR MERGED:        417
L2C RFO MSHR MERGED:          0
L2C PREFETCH MSHR MERGED:       1572
L2C WRITEBACK MSHR MERGED:          0
L2C TOTAL ACCESSES:   11776595 HITS:   10382797 MISSES:    1393798
L2C LOAD ACCESSES:    4402451 HITS:    3905840 MISSES:     496611
L2C RFO ACCESSES:     897358 HITS:     536318 MISSES:     361040
L2C PREFETCH ACCESSES:    5289236 HITS:    4756035 MISSES:     533201
L2C WRITEBACK ACCESSES:    1187550 HITS:    1184604 MISSES:       2946
L2C RQ ACCESS:    5299809
L2C RQ TO_CACHE:    5299680
L2C RQ MERGED:          0
L2C RQ FORWARD:          0
L2C WQ ACCESS:    1187550
L2C WQ TO_CACHE:    1187550
L2C WQ MERGED:          0
L2C WQ FORWARD:        217
LLC TOTAL     ACCESS:    1849497  HIT:    1156554  MISS:     692943
LLC LOAD      ACCESS:     496192  HIT:     245145  MISS:     251047
LLC RFO       ACCESS:     361038  HIT:     237130  MISS:     123908
LLC PREFETCH  ACCESS:     531529  HIT:     318350  MISS:     213179
LLC WRITEBACK ACCESS:     460738  HIT:     355929  MISS:     104809
LLC PREFETCH  REQUESTED:          0  ISSUED:          0  USEFUL:       2692  USELESS:     210636
LLC TOTAL MSHR MERGED:         66
LLC LOAD MSHR MERGED:         27
LLC RFO MSHR MERGED:          0
LLC PREFETCH MSHR MERGED:         39
LLC WRITEBACK MSHR MERGED:          0
LLC TOTAL ACCESSES:    1849589 HITS:    1156580 MISSES:     693009
LLC LOAD ACCESSES:     496194 HITS:     245147 MISSES:     251047
LLC RFO ACCESSES:     361040 HITS:     237132 MISSES:     123908
LLC PREFETCH ACCESSES:     531617 HITS:     318372 MISSES:     213245
LLC WRITEBACK ACCESSES:     460738 HITS:     355929 MISSES:     104809
LLC 0 RQ ACCESS:     857234
LLC 0 RQ TO_CACHE:     857230
LLC 0 RQ MERGED:          0
LLC 0 RQ FORWARD:          0
LLC WQ ACCESS:     460738
LLC WQ TO_CACHE:     460738
LLC WQ MERGED:          0
LLC WQ FORWARD:         26
Major fault: 0 Minor fault: 3073
CPU 0 L1D next line prefetcher final stats
CPU 0 L2C PC-based stride prefetcher final stats
All Misses: 846257
All Hits: 1329931
SD Algo Stats - Switches: 0 SRR-Repls: 288816 BRR-Repls: 0

DRAM Statistics
 CHANNEL 0
 RQ ROW_BUFFER_HIT:     402765  ROW_BUFFER_MISS:     185112
 DBUS_CONGESTED:     431390
 WQ ROW_BUFFER_HIT:      16111  ROW_BUFFER_MISS:     114446  FULL:          0

 AVG_CONGESTED_CYCLE: 13
LOADS RETIRED: 120673965
INSTR RETIRED: 500000000
