
*** ChampSim Multicore Out-of-Order Simulator ***

Warmup Instructions: 100000000
Simulation Instructions: 500000000
Number of CPUs: 1
LLC sets: 2048
LLC ways: 16
Clean RRIP Policies: 1122131211221312 Dirty RRIP Policies: 2112132221121322 PSEL Width: 10 Track Set: 4294967295 PSEL Mask: 1 Demote Mask: 2230140022301400DS Algo: 0Window size: 0
Off-chip DRAM Size: 4096 MB Channels: 1 Width: 64-bit Data Rate: 1600 MT/s

CPU 0 runs /mnt/beegfs/iconst01/spec2017/Gcc.trace.gz
NOT SORTED
TRACE STRING: /mnt/beegfs/iconst01/spec2017/Gcc.trace.gz
SORTED
TRACE STRING: /mnt/beegfs/iconst01/spec2017/Gcc.trace.gz
INITIAL
TRACE STRING: /mnt/beegfs/iconst01/spec2017/Gcc.trace.gz

champsim_seed used: 269

CPU 0 L1D next line prefetcher
CPU 0 L2C IP-based stride prefetcher
Initialize DRRIP state
Assign rand_sets[0]: 454  LLC: 2048
rand_sets[0]: 454
Assign rand_sets[1]: 1662  LLC: 2048
rand_sets[1]: 1662
Assign rand_sets[2]: 1921  LLC: 2048
rand_sets[2]: 1921
Assign rand_sets[3]: 1131  LLC: 2048
rand_sets[3]: 1131
Assign rand_sets[4]: 331  LLC: 2048
rand_sets[4]: 331
Assign rand_sets[5]: 1531  LLC: 2048
rand_sets[5]: 1531
Assign rand_sets[6]: 482  LLC: 2048
rand_sets[6]: 482
Assign rand_sets[7]: 1275  LLC: 2048
rand_sets[7]: 1275
Assign rand_sets[8]: 1876  LLC: 2048
rand_sets[8]: 1876
Assign rand_sets[9]: 2038  LLC: 2048
rand_sets[9]: 2038
Assign rand_sets[10]: 701  LLC: 2048
rand_sets[10]: 701
Assign rand_sets[11]: 479  LLC: 2048
rand_sets[11]: 479
Assign rand_sets[12]: 892  LLC: 2048
rand_sets[12]: 892
Assign rand_sets[13]: 1820  LLC: 2048
rand_sets[13]: 1820
Assign rand_sets[14]: 1505  LLC: 2048
rand_sets[14]: 1505
Assign rand_sets[15]: 1159  LLC: 2048
rand_sets[15]: 1159
Assign rand_sets[16]: 513  LLC: 2048
rand_sets[16]: 513
Assign rand_sets[17]: 703  LLC: 2048
rand_sets[17]: 703
Assign rand_sets[18]: 561  LLC: 2048
rand_sets[18]: 561
Assign rand_sets[19]: 990  LLC: 2048
rand_sets[19]: 990
Assign rand_sets[20]: 342  LLC: 2048
rand_sets[20]: 342
Assign rand_sets[21]: 882  LLC: 2048
rand_sets[21]: 882
Assign rand_sets[22]: 15  LLC: 2048
rand_sets[22]: 15
Assign rand_sets[23]: 71  LLC: 2048
rand_sets[23]: 71
Assign rand_sets[24]: 1127  LLC: 2048
rand_sets[24]: 1127
Assign rand_sets[25]: 1382  LLC: 2048
rand_sets[25]: 1382
Assign rand_sets[26]: 647  LLC: 2048
rand_sets[26]: 647
Assign rand_sets[27]: 857  LLC: 2048
rand_sets[27]: 857
Assign rand_sets[28]: 1450  LLC: 2048
rand_sets[28]: 1450
Assign rand_sets[29]: 1160  LLC: 2048
rand_sets[29]: 1160
Assign rand_sets[30]: 1852  LLC: 2048
rand_sets[30]: 1852
Assign rand_sets[31]: 1881  LLC: 2048
rand_sets[31]: 1881
Assign rand_sets[32]: 1770  LLC: 2048
rand_sets[32]: 1770
Assign rand_sets[33]: 1622  LLC: 2048
rand_sets[33]: 1622
Assign rand_sets[34]: 275  LLC: 2048
rand_sets[34]: 275
Assign rand_sets[35]: 635  LLC: 2048
rand_sets[35]: 635
Assign rand_sets[36]: 466  LLC: 2048
rand_sets[36]: 466
Assign rand_sets[37]: 1413  LLC: 2048
rand_sets[37]: 1413
Assign rand_sets[38]: 417  LLC: 2048
rand_sets[38]: 417
Assign rand_sets[39]: 472  LLC: 2048
rand_sets[39]: 472
Assign rand_sets[40]: 1340  LLC: 2048
rand_sets[40]: 1340
Assign rand_sets[41]: 852  LLC: 2048
rand_sets[41]: 852
Assign rand_sets[42]: 1365  LLC: 2048
rand_sets[42]: 1365
Assign rand_sets[43]: 47  LLC: 2048
rand_sets[43]: 47
Assign rand_sets[44]: 823  LLC: 2048
rand_sets[44]: 823
Assign rand_sets[45]: 686  LLC: 2048
rand_sets[45]: 686
Assign rand_sets[46]: 1637  LLC: 2048
rand_sets[46]: 1637
Assign rand_sets[47]: 1115  LLC: 2048
rand_sets[47]: 1115
Assign rand_sets[48]: 986  LLC: 2048
rand_sets[48]: 986
Assign rand_sets[49]: 258  LLC: 2048
rand_sets[49]: 258
Assign rand_sets[50]: 633  LLC: 2048
rand_sets[50]: 633
Assign rand_sets[51]: 920  LLC: 2048
rand_sets[51]: 920
Assign rand_sets[52]: 204  LLC: 2048
rand_sets[52]: 204
Assign rand_sets[53]: 227  LLC: 2048
rand_sets[53]: 227
Assign rand_sets[54]: 1818  LLC: 2048
rand_sets[54]: 1818
Assign rand_sets[55]: 886  LLC: 2048
rand_sets[55]: 886
Assign rand_sets[56]: 1422  LLC: 2048
rand_sets[56]: 1422
Assign rand_sets[57]: 607  LLC: 2048
rand_sets[57]: 607
Assign rand_sets[58]: 217  LLC: 2048
rand_sets[58]: 217
Assign rand_sets[59]: 1945  LLC: 2048
rand_sets[59]: 1945
Assign rand_sets[60]: 143  LLC: 2048
rand_sets[60]: 143
Assign rand_sets[61]: 1311  LLC: 2048
rand_sets[61]: 1311
Assign rand_sets[62]: 319  LLC: 2048
rand_sets[62]: 319
Assign rand_sets[63]: 1846  LLC: 2048
rand_sets[63]: 1846
 CLEAN-RRIP-POLICY-1: 1-1-2-2-1-3-1-2- CLEAN-RRIP-POLICY-2: 1-1-2-2-1-3-1-2-
 DIRTY-RRIP-POLICY-1: 2-1-1-2-1-3-2-2- DIRTY-RRIP-POLICY-2: 2-1-1-2-1-3-2-2-
 PSEL width: 10
Heartbeat CPU 0 instructions: 10000001 cycles: 7315907 heartbeat IPC: 1.36688 cumulative IPC: 1.36688 (Simulation time: 0 hr 0 min 14 sec) 
Heartbeat CPU 0 instructions: 20000000 cycles: 14307874 heartbeat IPC: 1.43021 cumulative IPC: 1.39783 (Simulation time: 0 hr 0 min 29 sec) 
Heartbeat CPU 0 instructions: 30000001 cycles: 21021045 heartbeat IPC: 1.48961 cumulative IPC: 1.42714 (Simulation time: 0 hr 0 min 45 sec) 
Heartbeat CPU 0 instructions: 40000000 cycles: 27481913 heartbeat IPC: 1.54778 cumulative IPC: 1.4555 (Simulation time: 0 hr 1 min 1 sec) 
Heartbeat CPU 0 instructions: 50000001 cycles: 33583847 heartbeat IPC: 1.63882 cumulative IPC: 1.48881 (Simulation time: 0 hr 1 min 16 sec) 
Heartbeat CPU 0 instructions: 60000000 cycles: 40065180 heartbeat IPC: 1.54289 cumulative IPC: 1.49756 (Simulation time: 0 hr 1 min 32 sec) 
Heartbeat CPU 0 instructions: 70000000 cycles: 47105040 heartbeat IPC: 1.42048 cumulative IPC: 1.48604 (Simulation time: 0 hr 1 min 47 sec) 
Heartbeat CPU 0 instructions: 80000000 cycles: 54195473 heartbeat IPC: 1.41035 cumulative IPC: 1.47614 (Simulation time: 0 hr 2 min 1 sec) 
Heartbeat CPU 0 instructions: 90000003 cycles: 61200435 heartbeat IPC: 1.42756 cumulative IPC: 1.47058 (Simulation time: 0 hr 2 min 16 sec) 
Heartbeat CPU 0 instructions: 100000000 cycles: 68368403 heartbeat IPC: 1.3951 cumulative IPC: 1.46266 (Simulation time: 0 hr 2 min 30 sec) 

Warmup complete CPU 0 instructions: 100000004 cycles: 68368404 (Simulation time: 0 hr 2 min 30 sec) 

Heartbeat CPU 0 instructions: 110000003 cycles: 96079370 heartbeat IPC: 0.360868 cumulative IPC: 0.360868 (Simulation time: 0 hr 2 min 59 sec) 
Heartbeat CPU 0 instructions: 120000000 cycles: 123566608 heartbeat IPC: 0.363805 cumulative IPC: 0.362331 (Simulation time: 0 hr 3 min 27 sec) 
Heartbeat CPU 0 instructions: 130000000 cycles: 148584466 heartbeat IPC: 0.399714 cumulative IPC: 0.37399 (Simulation time: 0 hr 3 min 56 sec) 
Heartbeat CPU 0 instructions: 140000000 cycles: 178266973 heartbeat IPC: 0.336899 cumulative IPC: 0.363972 (Simulation time: 0 hr 4 min 24 sec) 
Heartbeat CPU 0 instructions: 150000000 cycles: 208194061 heartbeat IPC: 0.334145 cumulative IPC: 0.357588 (Simulation time: 0 hr 4 min 52 sec) 
Heartbeat CPU 0 instructions: 160000000 cycles: 235639070 heartbeat IPC: 0.364365 cumulative IPC: 0.3587 (Simulation time: 0 hr 5 min 19 sec) 
Heartbeat CPU 0 instructions: 170000001 cycles: 263711771 heartbeat IPC: 0.356218 cumulative IPC: 0.358343 (Simulation time: 0 hr 5 min 49 sec) 
Heartbeat CPU 0 instructions: 180000000 cycles: 292222935 heartbeat IPC: 0.35074 cumulative IPC: 0.357375 (Simulation time: 0 hr 6 min 18 sec) 
Heartbeat CPU 0 instructions: 190000002 cycles: 320339280 heartbeat IPC: 0.355665 cumulative IPC: 0.357184 (Simulation time: 0 hr 6 min 46 sec) 
Heartbeat CPU 0 instructions: 200000000 cycles: 348749450 heartbeat IPC: 0.351987 cumulative IPC: 0.356657 (Simulation time: 0 hr 7 min 15 sec) 
Heartbeat CPU 0 instructions: 210000002 cycles: 376689507 heartbeat IPC: 0.357909 cumulative IPC: 0.356771 (Simulation time: 0 hr 7 min 44 sec) 
Heartbeat CPU 0 instructions: 220000000 cycles: 406002079 heartbeat IPC: 0.34115 cumulative IPC: 0.355415 (Simulation time: 0 hr 8 min 11 sec) 
Heartbeat CPU 0 instructions: 230000000 cycles: 433581407 heartbeat IPC: 0.36259 cumulative IPC: 0.355957 (Simulation time: 0 hr 8 min 39 sec) 
Heartbeat CPU 0 instructions: 240000000 cycles: 459511574 heartbeat IPC: 0.385651 cumulative IPC: 0.357925 (Simulation time: 0 hr 9 min 6 sec) 
Heartbeat CPU 0 instructions: 250000000 cycles: 489679035 heartbeat IPC: 0.331483 cumulative IPC: 0.356032 (Simulation time: 0 hr 9 min 35 sec) 
Heartbeat CPU 0 instructions: 260000000 cycles: 516794081 heartbeat IPC: 0.368799 cumulative IPC: 0.356804 (Simulation time: 0 hr 10 min 3 sec) 
Heartbeat CPU 0 instructions: 270000003 cycles: 545288481 heartbeat IPC: 0.350946 cumulative IPC: 0.356454 (Simulation time: 0 hr 10 min 33 sec) 
Heartbeat CPU 0 instructions: 280000000 cycles: 573553527 heartbeat IPC: 0.353794 cumulative IPC: 0.356305 (Simulation time: 0 hr 11 min 2 sec) 
Heartbeat CPU 0 instructions: 290000000 cycles: 602544666 heartbeat IPC: 0.344933 cumulative IPC: 0.355688 (Simulation time: 0 hr 11 min 32 sec) 
Heartbeat CPU 0 instructions: 300000000 cycles: 632728364 heartbeat IPC: 0.331305 cumulative IPC: 0.354384 (Simulation time: 0 hr 12 min 0 sec) 
Heartbeat CPU 0 instructions: 310000001 cycles: 662232461 heartbeat IPC: 0.338936 cumulative IPC: 0.353616 (Simulation time: 0 hr 12 min 28 sec) 
Heartbeat CPU 0 instructions: 320000000 cycles: 690583965 heartbeat IPC: 0.352715 cumulative IPC: 0.353575 (Simulation time: 0 hr 12 min 56 sec) 
Heartbeat CPU 0 instructions: 330000000 cycles: 719318595 heartbeat IPC: 0.348012 cumulative IPC: 0.35333 (Simulation time: 0 hr 13 min 24 sec) 
Heartbeat CPU 0 instructions: 340000000 cycles: 748679493 heartbeat IPC: 0.340589 cumulative IPC: 0.35278 (Simulation time: 0 hr 13 min 52 sec) 
Heartbeat CPU 0 instructions: 350000003 cycles: 775804477 heartbeat IPC: 0.368664 cumulative IPC: 0.353389 (Simulation time: 0 hr 14 min 20 sec) 
Heartbeat CPU 0 instructions: 360000000 cycles: 804009896 heartbeat IPC: 0.354542 cumulative IPC: 0.353433 (Simulation time: 0 hr 14 min 47 sec) 
Heartbeat CPU 0 instructions: 370000000 cycles: 832191590 heartbeat IPC: 0.35484 cumulative IPC: 0.353485 (Simulation time: 0 hr 15 min 14 sec) 
Heartbeat CPU 0 instructions: 380000000 cycles: 860713508 heartbeat IPC: 0.350608 cumulative IPC: 0.353381 (Simulation time: 0 hr 15 min 41 sec) 
Heartbeat CPU 0 instructions: 390000001 cycles: 888320735 heartbeat IPC: 0.362224 cumulative IPC: 0.353679 (Simulation time: 0 hr 16 min 8 sec) 
Heartbeat CPU 0 instructions: 400000000 cycles: 916976041 heartbeat IPC: 0.348975 cumulative IPC: 0.35352 (Simulation time: 0 hr 16 min 35 sec) 
Heartbeat CPU 0 instructions: 410000001 cycles: 944252585 heartbeat IPC: 0.366615 cumulative IPC: 0.353928 (Simulation time: 0 hr 17 min 2 sec) 
Heartbeat CPU 0 instructions: 420000000 cycles: 971534267 heartbeat IPC: 0.366546 cumulative IPC: 0.354309 (Simulation time: 0 hr 17 min 29 sec) 
Heartbeat CPU 0 instructions: 430000002 cycles: 999243197 heartbeat IPC: 0.360895 cumulative IPC: 0.354505 (Simulation time: 0 hr 17 min 56 sec) 
Heartbeat CPU 0 instructions: 440000000 cycles: 1028892923 heartbeat IPC: 0.337271 cumulative IPC: 0.353973 (Simulation time: 0 hr 18 min 23 sec) 
Heartbeat CPU 0 instructions: 450000002 cycles: 1058180580 heartbeat IPC: 0.341441 cumulative IPC: 0.353602 (Simulation time: 0 hr 18 min 50 sec) 
Heartbeat CPU 0 instructions: 460000000 cycles: 1085877961 heartbeat IPC: 0.361045 cumulative IPC: 0.353805 (Simulation time: 0 hr 19 min 17 sec) 
Heartbeat CPU 0 instructions: 470000000 cycles: 1113487606 heartbeat IPC: 0.362192 cumulative IPC: 0.354027 (Simulation time: 0 hr 19 min 44 sec) 
Heartbeat CPU 0 instructions: 480000000 cycles: 1141349208 heartbeat IPC: 0.358917 cumulative IPC: 0.354154 (Simulation time: 0 hr 20 min 11 sec) 
Heartbeat CPU 0 instructions: 490000000 cycles: 1168911739 heartbeat IPC: 0.362811 cumulative IPC: 0.35437 (Simulation time: 0 hr 20 min 38 sec) 
Heartbeat CPU 0 instructions: 500000000 cycles: 1197233278 heartbeat IPC: 0.353088 cumulative IPC: 0.354338 (Simulation time: 0 hr 21 min 5 sec) 
Heartbeat CPU 0 instructions: 510000000 cycles: 1231592629 heartbeat IPC: 0.291042 cumulative IPC: 0.352469 (Simulation time: 0 hr 21 min 36 sec) 
Heartbeat CPU 0 instructions: 520000000 cycles: 1259576061 heartbeat IPC: 0.357354 cumulative IPC: 0.352583 (Simulation time: 0 hr 22 min 3 sec) 
Heartbeat CPU 0 instructions: 530000001 cycles: 1289060562 heartbeat IPC: 0.339161 cumulative IPC: 0.352259 (Simulation time: 0 hr 22 min 32 sec) 
Heartbeat CPU 0 instructions: 540000000 cycles: 1317163702 heartbeat IPC: 0.355832 cumulative IPC: 0.35234 (Simulation time: 0 hr 22 min 59 sec) 
Heartbeat CPU 0 instructions: 550000001 cycles: 1346371575 heartbeat IPC: 0.342373 cumulative IPC: 0.352112 (Simulation time: 0 hr 23 min 29 sec) 
Heartbeat CPU 0 instructions: 560000000 cycles: 1371783573 heartbeat IPC: 0.393515 cumulative IPC: 0.352919 (Simulation time: 0 hr 23 min 56 sec) 
Heartbeat CPU 0 instructions: 570000000 cycles: 1401432073 heartbeat IPC: 0.337285 cumulative IPC: 0.352571 (Simulation time: 0 hr 24 min 25 sec) 
Heartbeat CPU 0 instructions: 580000000 cycles: 1429435219 heartbeat IPC: 0.357103 cumulative IPC: 0.352665 (Simulation time: 0 hr 24 min 53 sec) 
Heartbeat CPU 0 instructions: 590000001 cycles: 1454163886 heartbeat IPC: 0.404389 cumulative IPC: 0.353588 (Simulation time: 0 hr 25 min 20 sec) 
Heartbeat CPU 0 instructions: 600000000 cycles: 1480241392 heartbeat IPC: 0.383472 cumulative IPC: 0.35414 (Simulation time: 0 hr 25 min 47 sec) 
Finished CPU 0 instructions: 500000000 cycles: 1411873010 cumulative IPC: 0.35414 (Simulation time: 0 hr 25 min 47 sec) 

CPU 0 Branch Prediction Accuracy: 86.4311% MPKI: 26.2662
Number of Branches: 96788573 Number of Mispredictions: 13133102
Number of LOAD Instructions: 164682285
Number of LOAD Instructions (ROI): 164682285
Number of STORE Instructions: 78194750
Number of STORE Instructions (ROI): 78194750
Total Destination Memory Operands: 83268534
Total Destination Memory Operands (ROI): 83268534
Total Source Memory Operands: 164712438
Total Source Memory Operands (ROI): 164712438
Number of DEPENDED LOADS: 7057464
Number of DEPENDED LOADS (ROI): 7057464
Number of SQ_ADDED: 83268522
Number of SQ_ADDED (ROI): 83268522
Number of LQ_ADDED: 236586050
Number of LQ_ADDED (ROI): 236586050
Number of Instructions read from trace: 600000066

ChampSim completed all CPUs

Region of Interest Statistics

CPU 0 cumulative IPC: 0.35414 instructions: 500000000 cycles: 1411873010
ITLB TOTAL     ACCESS:  100519137  HIT:  100314691  MISS:     204446
ITLB LOAD      ACCESS:  100519137  HIT:  100314691  MISS:     204446
ITLB RFO       ACCESS:          0  HIT:          0  MISS:          0
ITLB PREFETCH  ACCESS:          0  HIT:          0  MISS:          0
ITLB WRITEBACK ACCESS:          0  HIT:          0  MISS:          0
ITLB PREFETCH  REQUESTED:          0  ISSUED:          0  USEFUL:          0  USELESS:          0
ITLB TOTAL MSHR MERGED:     172424
ITLB LOAD MSHR MERGED:     172424
ITLB RFO MSHR MERGED:          0
ITLB PREFETCH MSHR MERGED:          0
ITLB WRITEBACK MSHR MERGED:          0
ITLB TOTAL ACCESSES:  100691561 HITS:  100314691 MISSES:     376870
ITLB LOAD ACCESSES:  100691561 HITS:  100314691 MISSES:     376870
ITLB RFO ACCESSES:          0 HITS:          0 MISSES:          0
ITLB PREFETCH ACCESSES:          0 HITS:          0 MISSES:          0
ITLB WRITEBACK ACCESSES:          0 HITS:          0 MISSES:          0
ITLB RQ ACCESS:  500000057
ITLB RQ TO_CACHE:  100691561
ITLB RQ MERGED:  399308496
ITLB RQ FORWARD:          0
ITLB WQ ACCESS:          0
ITLB WQ TO_CACHE:          0
ITLB WQ MERGED:          0
ITLB WQ FORWARD:          0
DTLB TOTAL     ACCESS:  165339517  HIT:  164705170  MISS:     634347
DTLB LOAD      ACCESS:  106294427  HIT:  105724483  MISS:     569944
DTLB RFO       ACCESS:   59045090  HIT:   58980687  MISS:      64403
DTLB PREFETCH  ACCESS:          0  HIT:          0  MISS:          0
DTLB WRITEBACK ACCESS:          0  HIT:          0  MISS:          0
DTLB PREFETCH  REQUESTED:          0  ISSUED:          0  USEFUL:          0  USELESS:          0
DTLB TOTAL MSHR MERGED:      99952
DTLB LOAD MSHR MERGED:      59424
DTLB RFO MSHR MERGED:      40528
DTLB PREFETCH MSHR MERGED:          0
DTLB WRITEBACK MSHR MERGED:          0
DTLB TOTAL ACCESSES:  165439469 HITS:  164705170 MISSES:     734299
DTLB LOAD ACCESSES:  106353851 HITS:  105724483 MISSES:     629368
DTLB RFO ACCESSES:   59085618 HITS:   58980687 MISSES:     104931
DTLB PREFETCH ACCESSES:          0 HITS:          0 MISSES:          0
DTLB WRITEBACK ACCESSES:          0 HITS:          0 MISSES:          0
DTLB RQ ACCESS:  200313440
DTLB RQ TO_CACHE:  165439469
DTLB RQ MERGED:   34873971
DTLB RQ FORWARD:          0
DTLB WQ ACCESS:          0
DTLB WQ TO_CACHE:          0
DTLB WQ MERGED:          0
DTLB WQ FORWARD:          0
L1D TOTAL     ACCESS:  281872617  HIT:  273963217  MISS:    7909400
L1D LOAD      ACCESS:  110430295  HIT:  107155536  MISS:    3274759
L1D RFO       ACCESS:   67123626  HIT:   66233230  MISS:     890396
L1D PREFETCH  ACCESS:  104318696  HIT:  100574451  MISS:    3744245
L1D WRITEBACK ACCESS:          0  HIT:          0  MISS:          0
L1D PREFETCH  REQUESTED:  110819230  ISSUED:  109119904  USEFUL:    1664870  USELESS:    2079339
L1D TOTAL MSHR MERGED:    2836026
L1D LOAD MSHR MERGED:     483246
L1D RFO MSHR MERGED:    1862065
L1D PREFETCH MSHR MERGED:     490715
L1D WRITEBACK MSHR MERGED:          0
L1D TOTAL ACCESSES:  284736065 HITS:  273990639 MISSES:   10745426
L1D LOAD ACCESSES:  110820649 HITS:  107156955 MISSES:    3663694
L1D RFO ACCESSES:   68974102 HITS:   66233230 MISSES:    2740872
L1D PREFETCH ACCESSES:  104941314 HITS:  100600454 MISSES:    4340860
L1D WRITEBACK ACCESSES:          0 HITS:          0 MISSES:          0
L1D RQ ACCESS:  130760837
L1D RQ TO_CACHE:  110819233
L1D RQ MERGED:   19940185
L1D RQ FORWARD:          0
L1D WQ ACCESS:   69552603
L1D WQ TO_CACHE:   68974103
L1D WQ MERGED:     578500
L1D WQ FORWARD:      27422
L1I TOTAL     ACCESS:  126566333  HIT:  122327780  MISS:    4238553
L1I LOAD      ACCESS:  126566333  HIT:  122327780  MISS:    4238553
L1I RFO       ACCESS:          0  HIT:          0  MISS:          0
L1I PREFETCH  ACCESS:          0  HIT:          0  MISS:          0
L1I WRITEBACK ACCESS:          0  HIT:          0  MISS:          0
L1I PREFETCH  REQUESTED:          0  ISSUED:          0  USEFUL:          0  USELESS:          0
L1I TOTAL MSHR MERGED:    1834779
L1I LOAD MSHR MERGED:    1834779
L1I RFO MSHR MERGED:          0
L1I PREFETCH MSHR MERGED:          0
L1I WRITEBACK MSHR MERGED:          0
L1I TOTAL ACCESSES:  128401115 HITS:  122327780 MISSES:    6073335
L1I LOAD ACCESSES:  128401115 HITS:  122327780 MISSES:    6073335
L1I RFO ACCESSES:          0 HITS:          0 MISSES:          0
L1I PREFETCH ACCESSES:          0 HITS:          0 MISSES:          0
L1I WRITEBACK ACCESSES:          0 HITS:          0 MISSES:          0
L1I RQ ACCESS:  500000057
L1I RQ TO_CACHE:  128401115
L1I RQ MERGED:  371598942
L1I RQ FORWARD:          0
L1I WQ ACCESS:          0
L1I WQ TO_CACHE:          0
L1I WQ MERGED:          0
L1I WQ FORWARD:          0
L2C TOTAL     ACCESS:   14905570  HIT:   11159062  MISS:    3746508
L2C LOAD      ACCESS:    7418792  HIT:    5098889  MISS:    2319903
L2C RFO       ACCESS:     878708  HIT:     409907  MISS:     468801
L2C PREFETCH  ACCESS:    4568819  HIT:    3628269  MISS:     940550
L2C WRITEBACK ACCESS:    2039251  HIT:    2021997  MISS:      17254
L2C PREFETCH  REQUESTED:     842787  ISSUED:     842787  USEFUL:     203444  USELESS:     736812
L2C TOTAL MSHR MERGED:       6809
L2C LOAD MSHR MERGED:        741
L2C RFO MSHR MERGED:          0
L2C PREFETCH MSHR MERGED:       6068
L2C WRITEBACK MSHR MERGED:          0
L2C TOTAL ACCESSES:   14913261 HITS:   11159515 MISSES:    3753746
L2C LOAD ACCESSES:    7419001 HITS:    5099098 MISSES:    2319903
L2C RFO ACCESSES:     878807 HITS:     410006 MISSES:     468801
L2C PREFETCH ACCESSES:    4576202 HITS:    3628414 MISSES:     947788
L2C WRITEBACK ACCESSES:    2039251 HITS:    2021997 MISSES:      17254
L2C RQ ACCESS:    8297811
L2C RQ TO_CACHE:    8297503
L2C RQ MERGED:          0
L2C RQ FORWARD:          0
L2C WQ ACCESS:    2039251
L2C WQ TO_CACHE:    2039251
L2C WQ MERGED:          0
L2C WQ FORWARD:        453
LLC TOTAL     ACCESS:    4609845  HIT:    4013646  MISS:     596199
LLC LOAD      ACCESS:    2319149  HIT:    2044278  MISS:     274871
LLC RFO       ACCESS:     468791  HIT:     410438  MISS:      58353
LLC PREFETCH  ACCESS:     941612  HIT:     708888  MISS:     232724
LLC WRITEBACK ACCESS:     880293  HIT:     850042  MISS:      30251
LLC PREFETCH  REQUESTED:          0  ISSUED:          0  USEFUL:      31164  USELESS:     202029
LLC TOTAL MSHR MERGED:         86
LLC LOAD MSHR MERGED:         28
LLC RFO MSHR MERGED:          0
LLC PREFETCH MSHR MERGED:         58
LLC WRITEBACK MSHR MERGED:          0
LLC TOTAL ACCESSES:    4609965 HITS:    4013680 MISSES:     596285
LLC LOAD ACCESSES:    2319162 HITS:    2044291 MISSES:     274871
LLC RFO ACCESSES:     468801 HITS:     410448 MISSES:      58353
LLC PREFETCH ACCESSES:     941709 HITS:     708899 MISSES:     232810
LLC WRITEBACK ACCESSES:     880293 HITS:     850042 MISSES:      30251
LLC 0 RQ ACCESS:    2787963
LLC 0 RQ TO_CACHE:    2787940
LLC 0 RQ MERGED:          0
LLC 0 RQ FORWARD:          0
LLC WQ ACCESS:     880293
LLC WQ TO_CACHE:     880293
LLC WQ MERGED:          0
LLC WQ FORWARD:         34
Major fault: 0 Minor fault: 12862
CPU 0 L1D next line prefetcher final stats
CPU 0 L2C PC-based stride prefetcher final stats
All Misses: 713693
All Hits: 4713158
SD Algo Stats - Switches: 0 SRR-Repls: 325805 BRR-Repls: 0

DRAM Statistics
 CHANNEL 0
 RQ ROW_BUFFER_HIT:     123862  ROW_BUFFER_MISS:     441188
 DBUS_CONGESTED:     327707
 WQ ROW_BUFFER_HIT:      11608  ROW_BUFFER_MISS:     158657  FULL:          0

 AVG_CONGESTED_CYCLE: 13
LOADS RETIRED: 136549171
INSTR RETIRED: 500000000
