
*** ChampSim Multicore Out-of-Order Simulator ***

Warmup Instructions: 100000000
Simulation Instructions: 500000000
Number of CPUs: 1
LLC sets: 2048
LLC ways: 16
Clean RRIP Policies: 2003030120030301 Dirty RRIP Policies: 1003130110031301 PSEL Width: 10 Track Set: 4294967295 PSEL Mask: 1 Demote Mask: 2102204021022040DS Algo: 0Window size: 0
Off-chip DRAM Size: 4096 MB Channels: 1 Width: 64-bit Data Rate: 1600 MT/s

CPU 0 runs /mnt/beegfs/iconst01/spec2017/Omnetpp.trace.gz
NOT SORTED
TRACE STRING: /mnt/beegfs/iconst01/spec2017/Omnetpp.trace.gz
SORTED
TRACE STRING: /mnt/beegfs/iconst01/spec2017/Omnetpp.trace.gz
INITIAL
TRACE STRING: /mnt/beegfs/iconst01/spec2017/Omnetpp.trace.gz

champsim_seed used: 739

CPU 0 L1D next line prefetcher
CPU 0 L2C IP-based stride prefetcher
Initialize DRRIP state
Assign rand_sets[0]: 454  LLC: 2048
rand_sets[0]: 454
Assign rand_sets[1]: 1662  LLC: 2048
rand_sets[1]: 1662
Assign rand_sets[2]: 1921  LLC: 2048
rand_sets[2]: 1921
Assign rand_sets[3]: 1131  LLC: 2048
rand_sets[3]: 1131
Assign rand_sets[4]: 331  LLC: 2048
rand_sets[4]: 331
Assign rand_sets[5]: 1531  LLC: 2048
rand_sets[5]: 1531
Assign rand_sets[6]: 482  LLC: 2048
rand_sets[6]: 482
Assign rand_sets[7]: 1275  LLC: 2048
rand_sets[7]: 1275
Assign rand_sets[8]: 1876  LLC: 2048
rand_sets[8]: 1876
Assign rand_sets[9]: 2038  LLC: 2048
rand_sets[9]: 2038
Assign rand_sets[10]: 701  LLC: 2048
rand_sets[10]: 701
Assign rand_sets[11]: 479  LLC: 2048
rand_sets[11]: 479
Assign rand_sets[12]: 892  LLC: 2048
rand_sets[12]: 892
Assign rand_sets[13]: 1820  LLC: 2048
rand_sets[13]: 1820
Assign rand_sets[14]: 1505  LLC: 2048
rand_sets[14]: 1505
Assign rand_sets[15]: 1159  LLC: 2048
rand_sets[15]: 1159
Assign rand_sets[16]: 513  LLC: 2048
rand_sets[16]: 513
Assign rand_sets[17]: 703  LLC: 2048
rand_sets[17]: 703
Assign rand_sets[18]: 561  LLC: 2048
rand_sets[18]: 561
Assign rand_sets[19]: 990  LLC: 2048
rand_sets[19]: 990
Assign rand_sets[20]: 342  LLC: 2048
rand_sets[20]: 342
Assign rand_sets[21]: 882  LLC: 2048
rand_sets[21]: 882
Assign rand_sets[22]: 15  LLC: 2048
rand_sets[22]: 15
Assign rand_sets[23]: 71  LLC: 2048
rand_sets[23]: 71
Assign rand_sets[24]: 1127  LLC: 2048
rand_sets[24]: 1127
Assign rand_sets[25]: 1382  LLC: 2048
rand_sets[25]: 1382
Assign rand_sets[26]: 647  LLC: 2048
rand_sets[26]: 647
Assign rand_sets[27]: 857  LLC: 2048
rand_sets[27]: 857
Assign rand_sets[28]: 1450  LLC: 2048
rand_sets[28]: 1450
Assign rand_sets[29]: 1160  LLC: 2048
rand_sets[29]: 1160
Assign rand_sets[30]: 1852  LLC: 2048
rand_sets[30]: 1852
Assign rand_sets[31]: 1881  LLC: 2048
rand_sets[31]: 1881
Assign rand_sets[32]: 1770  LLC: 2048
rand_sets[32]: 1770
Assign rand_sets[33]: 1622  LLC: 2048
rand_sets[33]: 1622
Assign rand_sets[34]: 275  LLC: 2048
rand_sets[34]: 275
Assign rand_sets[35]: 635  LLC: 2048
rand_sets[35]: 635
Assign rand_sets[36]: 466  LLC: 2048
rand_sets[36]: 466
Assign rand_sets[37]: 1413  LLC: 2048
rand_sets[37]: 1413
Assign rand_sets[38]: 417  LLC: 2048
rand_sets[38]: 417
Assign rand_sets[39]: 472  LLC: 2048
rand_sets[39]: 472
Assign rand_sets[40]: 1340  LLC: 2048
rand_sets[40]: 1340
Assign rand_sets[41]: 852  LLC: 2048
rand_sets[41]: 852
Assign rand_sets[42]: 1365  LLC: 2048
rand_sets[42]: 1365
Assign rand_sets[43]: 47  LLC: 2048
rand_sets[43]: 47
Assign rand_sets[44]: 823  LLC: 2048
rand_sets[44]: 823
Assign rand_sets[45]: 686  LLC: 2048
rand_sets[45]: 686
Assign rand_sets[46]: 1637  LLC: 2048
rand_sets[46]: 1637
Assign rand_sets[47]: 1115  LLC: 2048
rand_sets[47]: 1115
Assign rand_sets[48]: 986  LLC: 2048
rand_sets[48]: 986
Assign rand_sets[49]: 258  LLC: 2048
rand_sets[49]: 258
Assign rand_sets[50]: 633  LLC: 2048
rand_sets[50]: 633
Assign rand_sets[51]: 920  LLC: 2048
rand_sets[51]: 920
Assign rand_sets[52]: 204  LLC: 2048
rand_sets[52]: 204
Assign rand_sets[53]: 227  LLC: 2048
rand_sets[53]: 227
Assign rand_sets[54]: 1818  LLC: 2048
rand_sets[54]: 1818
Assign rand_sets[55]: 886  LLC: 2048
rand_sets[55]: 886
Assign rand_sets[56]: 1422  LLC: 2048
rand_sets[56]: 1422
Assign rand_sets[57]: 607  LLC: 2048
rand_sets[57]: 607
Assign rand_sets[58]: 217  LLC: 2048
rand_sets[58]: 217
Assign rand_sets[59]: 1945  LLC: 2048
rand_sets[59]: 1945
Assign rand_sets[60]: 143  LLC: 2048
rand_sets[60]: 143
Assign rand_sets[61]: 1311  LLC: 2048
rand_sets[61]: 1311
Assign rand_sets[62]: 319  LLC: 2048
rand_sets[62]: 319
Assign rand_sets[63]: 1846  LLC: 2048
rand_sets[63]: 1846
 CLEAN-RRIP-POLICY-1: 2-0-0-3-0-3-0-1- CLEAN-RRIP-POLICY-2: 2-0-0-3-0-3-0-1-
 DIRTY-RRIP-POLICY-1: 1-0-0-3-1-3-0-1- DIRTY-RRIP-POLICY-2: 1-0-0-3-1-3-0-1-
 PSEL width: 10
Heartbeat CPU 0 instructions: 10000000 cycles: 7320463 heartbeat IPC: 1.36603 cumulative IPC: 1.36603 (Simulation time: 0 hr 0 min 20 sec) 
Heartbeat CPU 0 instructions: 20000000 cycles: 14625426 heartbeat IPC: 1.36893 cumulative IPC: 1.36748 (Simulation time: 0 hr 0 min 40 sec) 
Heartbeat CPU 0 instructions: 30000003 cycles: 21927884 heartbeat IPC: 1.3694 cumulative IPC: 1.36812 (Simulation time: 0 hr 1 min 0 sec) 
Heartbeat CPU 0 instructions: 40000000 cycles: 29217235 heartbeat IPC: 1.37186 cumulative IPC: 1.36905 (Simulation time: 0 hr 1 min 21 sec) 
Heartbeat CPU 0 instructions: 50000000 cycles: 36494570 heartbeat IPC: 1.37413 cumulative IPC: 1.37007 (Simulation time: 0 hr 1 min 41 sec) 
Heartbeat CPU 0 instructions: 60000000 cycles: 43775474 heartbeat IPC: 1.37346 cumulative IPC: 1.37063 (Simulation time: 0 hr 2 min 1 sec) 
Heartbeat CPU 0 instructions: 70000001 cycles: 51061769 heartbeat IPC: 1.37244 cumulative IPC: 1.37089 (Simulation time: 0 hr 2 min 22 sec) 
Heartbeat CPU 0 instructions: 80000000 cycles: 58337899 heartbeat IPC: 1.37436 cumulative IPC: 1.37132 (Simulation time: 0 hr 2 min 42 sec) 
Heartbeat CPU 0 instructions: 90000000 cycles: 65644910 heartbeat IPC: 1.36855 cumulative IPC: 1.37101 (Simulation time: 0 hr 3 min 3 sec) 
Heartbeat CPU 0 instructions: 100000000 cycles: 72937909 heartbeat IPC: 1.37118 cumulative IPC: 1.37103 (Simulation time: 0 hr 3 min 23 sec) 

Warmup complete CPU 0 instructions: 100000002 cycles: 72937910 (Simulation time: 0 hr 3 min 23 sec) 

Heartbeat CPU 0 instructions: 110000002 cycles: 114116625 heartbeat IPC: 0.242844 cumulative IPC: 0.242844 (Simulation time: 0 hr 4 min 5 sec) 
Heartbeat CPU 0 instructions: 120000000 cycles: 155055225 heartbeat IPC: 0.244268 cumulative IPC: 0.243554 (Simulation time: 0 hr 4 min 47 sec) 
Heartbeat CPU 0 instructions: 130000002 cycles: 196120852 heartbeat IPC: 0.243513 cumulative IPC: 0.24354 (Simulation time: 0 hr 5 min 29 sec) 
Heartbeat CPU 0 instructions: 140000000 cycles: 237391210 heartbeat IPC: 0.242305 cumulative IPC: 0.24323 (Simulation time: 0 hr 6 min 11 sec) 
Heartbeat CPU 0 instructions: 150000002 cycles: 278228787 heartbeat IPC: 0.244873 cumulative IPC: 0.243557 (Simulation time: 0 hr 6 min 53 sec) 
Heartbeat CPU 0 instructions: 160000000 cycles: 319027101 heartbeat IPC: 0.245108 cumulative IPC: 0.243814 (Simulation time: 0 hr 7 min 35 sec) 
Heartbeat CPU 0 instructions: 170000001 cycles: 359060767 heartbeat IPC: 0.24979 cumulative IPC: 0.24465 (Simulation time: 0 hr 8 min 15 sec) 
Heartbeat CPU 0 instructions: 180000000 cycles: 399867466 heartbeat IPC: 0.245058 cumulative IPC: 0.244701 (Simulation time: 0 hr 8 min 57 sec) 
Heartbeat CPU 0 instructions: 190000002 cycles: 440687124 heartbeat IPC: 0.24498 cumulative IPC: 0.244732 (Simulation time: 0 hr 9 min 38 sec) 
Heartbeat CPU 0 instructions: 200000000 cycles: 482865896 heartbeat IPC: 0.237086 cumulative IPC: 0.243945 (Simulation time: 0 hr 10 min 20 sec) 
Heartbeat CPU 0 instructions: 210000003 cycles: 523773799 heartbeat IPC: 0.244452 cumulative IPC: 0.243991 (Simulation time: 0 hr 11 min 2 sec) 
Heartbeat CPU 0 instructions: 220000000 cycles: 564957012 heartbeat IPC: 0.242817 cumulative IPC: 0.243893 (Simulation time: 0 hr 11 min 43 sec) 
Heartbeat CPU 0 instructions: 230000000 cycles: 606074195 heartbeat IPC: 0.243207 cumulative IPC: 0.24384 (Simulation time: 0 hr 12 min 25 sec) 
Heartbeat CPU 0 instructions: 240000000 cycles: 646846670 heartbeat IPC: 0.245264 cumulative IPC: 0.243941 (Simulation time: 0 hr 13 min 6 sec) 
Heartbeat CPU 0 instructions: 250000000 cycles: 687710865 heartbeat IPC: 0.244713 cumulative IPC: 0.243993 (Simulation time: 0 hr 13 min 46 sec) 
Heartbeat CPU 0 instructions: 260000000 cycles: 728666012 heartbeat IPC: 0.24417 cumulative IPC: 0.244004 (Simulation time: 0 hr 14 min 27 sec) 
Heartbeat CPU 0 instructions: 270000000 cycles: 769743013 heartbeat IPC: 0.243445 cumulative IPC: 0.243971 (Simulation time: 0 hr 15 min 8 sec) 
Heartbeat CPU 0 instructions: 280000000 cycles: 811176246 heartbeat IPC: 0.241352 cumulative IPC: 0.243824 (Simulation time: 0 hr 15 min 49 sec) 
Heartbeat CPU 0 instructions: 290000001 cycles: 851704443 heartbeat IPC: 0.246742 cumulative IPC: 0.243976 (Simulation time: 0 hr 16 min 29 sec) 
Heartbeat CPU 0 instructions: 300000000 cycles: 892994027 heartbeat IPC: 0.242192 cumulative IPC: 0.243886 (Simulation time: 0 hr 17 min 9 sec) 
Heartbeat CPU 0 instructions: 310000000 cycles: 934227376 heartbeat IPC: 0.242522 cumulative IPC: 0.24382 (Simulation time: 0 hr 17 min 49 sec) 
Heartbeat CPU 0 instructions: 320000000 cycles: 975178179 heartbeat IPC: 0.244195 cumulative IPC: 0.243837 (Simulation time: 0 hr 18 min 29 sec) 
Heartbeat CPU 0 instructions: 330000000 cycles: 1016117025 heartbeat IPC: 0.244267 cumulative IPC: 0.243856 (Simulation time: 0 hr 19 min 8 sec) 
Heartbeat CPU 0 instructions: 340000000 cycles: 1057708735 heartbeat IPC: 0.240433 cumulative IPC: 0.243712 (Simulation time: 0 hr 19 min 48 sec) 
Heartbeat CPU 0 instructions: 350000001 cycles: 1098700982 heartbeat IPC: 0.243949 cumulative IPC: 0.243721 (Simulation time: 0 hr 20 min 28 sec) 
Heartbeat CPU 0 instructions: 360000000 cycles: 1139911179 heartbeat IPC: 0.242658 cumulative IPC: 0.24368 (Simulation time: 0 hr 21 min 7 sec) 
Heartbeat CPU 0 instructions: 370000000 cycles: 1180230166 heartbeat IPC: 0.248022 cumulative IPC: 0.243838 (Simulation time: 0 hr 21 min 46 sec) 
Heartbeat CPU 0 instructions: 380000000 cycles: 1221530748 heartbeat IPC: 0.242127 cumulative IPC: 0.243777 (Simulation time: 0 hr 22 min 26 sec) 
Heartbeat CPU 0 instructions: 390000001 cycles: 1262280951 heartbeat IPC: 0.245398 cumulative IPC: 0.243832 (Simulation time: 0 hr 23 min 5 sec) 
Heartbeat CPU 0 instructions: 400000000 cycles: 1303165867 heartbeat IPC: 0.244589 cumulative IPC: 0.243857 (Simulation time: 0 hr 23 min 45 sec) 
Heartbeat CPU 0 instructions: 410000000 cycles: 1343887471 heartbeat IPC: 0.24557 cumulative IPC: 0.243912 (Simulation time: 0 hr 24 min 24 sec) 
Heartbeat CPU 0 instructions: 420000000 cycles: 1384646572 heartbeat IPC: 0.245344 cumulative IPC: 0.243957 (Simulation time: 0 hr 25 min 3 sec) 
Heartbeat CPU 0 instructions: 430000000 cycles: 1425480926 heartbeat IPC: 0.244892 cumulative IPC: 0.243985 (Simulation time: 0 hr 25 min 42 sec) 
Heartbeat CPU 0 instructions: 440000000 cycles: 1466330314 heartbeat IPC: 0.244802 cumulative IPC: 0.244009 (Simulation time: 0 hr 26 min 22 sec) 
Heartbeat CPU 0 instructions: 450000002 cycles: 1507082892 heartbeat IPC: 0.245383 cumulative IPC: 0.244048 (Simulation time: 0 hr 27 min 1 sec) 
Heartbeat CPU 0 instructions: 460000000 cycles: 1547301892 heartbeat IPC: 0.248639 cumulative IPC: 0.244173 (Simulation time: 0 hr 27 min 40 sec) 
Heartbeat CPU 0 instructions: 470000000 cycles: 1588397214 heartbeat IPC: 0.243337 cumulative IPC: 0.24415 (Simulation time: 0 hr 28 min 20 sec) 
Heartbeat CPU 0 instructions: 480000000 cycles: 1629110893 heartbeat IPC: 0.245618 cumulative IPC: 0.244189 (Simulation time: 0 hr 28 min 59 sec) 
Heartbeat CPU 0 instructions: 490000001 cycles: 1669940606 heartbeat IPC: 0.24492 cumulative IPC: 0.244207 (Simulation time: 0 hr 29 min 38 sec) 
Heartbeat CPU 0 instructions: 500000000 cycles: 1710995197 heartbeat IPC: 0.243578 cumulative IPC: 0.244192 (Simulation time: 0 hr 30 min 17 sec) 
Heartbeat CPU 0 instructions: 510000000 cycles: 1751499178 heartbeat IPC: 0.246889 cumulative IPC: 0.244257 (Simulation time: 0 hr 30 min 56 sec) 
Heartbeat CPU 0 instructions: 520000000 cycles: 1792816387 heartbeat IPC: 0.24203 cumulative IPC: 0.244203 (Simulation time: 0 hr 31 min 33 sec) 
Heartbeat CPU 0 instructions: 530000000 cycles: 1833524871 heartbeat IPC: 0.245649 cumulative IPC: 0.244237 (Simulation time: 0 hr 32 min 11 sec) 
Heartbeat CPU 0 instructions: 540000000 cycles: 1873978166 heartbeat IPC: 0.247199 cumulative IPC: 0.244303 (Simulation time: 0 hr 32 min 48 sec) 
Heartbeat CPU 0 instructions: 550000001 cycles: 1915199282 heartbeat IPC: 0.242594 cumulative IPC: 0.244265 (Simulation time: 0 hr 33 min 25 sec) 
Heartbeat CPU 0 instructions: 560000000 cycles: 1956541249 heartbeat IPC: 0.241885 cumulative IPC: 0.244213 (Simulation time: 0 hr 34 min 3 sec) 
Heartbeat CPU 0 instructions: 570000003 cycles: 1997767040 heartbeat IPC: 0.242567 cumulative IPC: 0.244178 (Simulation time: 0 hr 34 min 41 sec) 
Heartbeat CPU 0 instructions: 580000000 cycles: 2038884504 heartbeat IPC: 0.243206 cumulative IPC: 0.244157 (Simulation time: 0 hr 35 min 18 sec) 
Heartbeat CPU 0 instructions: 590000001 cycles: 2080436222 heartbeat IPC: 0.240664 cumulative IPC: 0.244085 (Simulation time: 0 hr 35 min 56 sec) 
Heartbeat CPU 0 instructions: 600000000 cycles: 2121712003 heartbeat IPC: 0.242273 cumulative IPC: 0.244048 (Simulation time: 0 hr 36 min 35 sec) 
Finished CPU 0 instructions: 500000000 cycles: 2048774101 cumulative IPC: 0.244048 (Simulation time: 0 hr 36 min 35 sec) 

CPU 0 Branch Prediction Accuracy: 96.2429% MPKI: 5.85335
Number of Branches: 77897976 Number of Mispredictions: 2926674
Number of LOAD Instructions: 193081861
Number of LOAD Instructions (ROI): 193081861
Number of STORE Instructions: 97310749
Number of STORE Instructions (ROI): 97310749
Total Destination Memory Operands: 106368027
Total Destination Memory Operands (ROI): 106368027
Total Source Memory Operands: 193081861
Total Source Memory Operands (ROI): 193081861
Number of DEPENDED LOADS: 6447095
Number of DEPENDED LOADS (ROI): 6447095
Number of SQ_ADDED: 106367982
Number of SQ_ADDED (ROI): 106367982
Number of LQ_ADDED: 435581587
Number of LQ_ADDED (ROI): 435581587
Number of Instructions read from trace: 600000256

ChampSim completed all CPUs

Region of Interest Statistics

CPU 0 cumulative IPC: 0.244048 instructions: 500000000 cycles: 2048774101
ITLB TOTAL     ACCESS:  151312249  HIT:  151296418  MISS:      15831
ITLB LOAD      ACCESS:  151312249  HIT:  151296418  MISS:      15831
ITLB RFO       ACCESS:          0  HIT:          0  MISS:          0
ITLB PREFETCH  ACCESS:          0  HIT:          0  MISS:          0
ITLB WRITEBACK ACCESS:          0  HIT:          0  MISS:          0
ITLB PREFETCH  REQUESTED:          0  ISSUED:          0  USEFUL:          0  USELESS:          0
ITLB TOTAL MSHR MERGED:      17358
ITLB LOAD MSHR MERGED:      17358
ITLB RFO MSHR MERGED:          0
ITLB PREFETCH MSHR MERGED:          0
ITLB WRITEBACK MSHR MERGED:          0
ITLB TOTAL ACCESSES:  151329607 HITS:  151296418 MISSES:      33189
ITLB LOAD ACCESSES:  151329607 HITS:  151296418 MISSES:      33189
ITLB RFO ACCESSES:          0 HITS:          0 MISSES:          0
ITLB PREFETCH ACCESSES:          0 HITS:          0 MISSES:          0
ITLB WRITEBACK ACCESSES:          0 HITS:          0 MISSES:          0
ITLB RQ ACCESS:  500000242
ITLB RQ TO_CACHE:  151329607
ITLB RQ MERGED:  348670635
ITLB RQ FORWARD:          0
ITLB WQ ACCESS:          0
ITLB WQ TO_CACHE:          0
ITLB WQ MERGED:          0
ITLB WQ FORWARD:          0
DTLB TOTAL     ACCESS:  199567686  HIT:  194188573  MISS:    5379113
DTLB LOAD      ACCESS:  123148178  HIT:  118129529  MISS:    5018649
DTLB RFO       ACCESS:   76419508  HIT:   76059044  MISS:     360464
DTLB PREFETCH  ACCESS:          0  HIT:          0  MISS:          0
DTLB WRITEBACK ACCESS:          0  HIT:          0  MISS:          0
DTLB PREFETCH  REQUESTED:          0  ISSUED:          0  USEFUL:          0  USELESS:          0
DTLB TOTAL MSHR MERGED:     917169
DTLB LOAD MSHR MERGED:     807442
DTLB RFO MSHR MERGED:     109727
DTLB PREFETCH MSHR MERGED:          0
DTLB WRITEBACK MSHR MERGED:          0
DTLB TOTAL ACCESSES:  200484855 HITS:  194188573 MISSES:    6296282
DTLB LOAD ACCESSES:  123955620 HITS:  118129529 MISSES:    5826091
DTLB RFO ACCESSES:   76529235 HITS:   76059044 MISSES:     470191
DTLB PREFETCH ACCESSES:          0 HITS:          0 MISSES:          0
DTLB WRITEBACK ACCESSES:          0 HITS:          0 MISSES:          0
DTLB RQ ACCESS:  243880137
DTLB RQ TO_CACHE:  200484855
DTLB RQ MERGED:   43395282
DTLB RQ FORWARD:          0
DTLB WQ ACCESS:          0
DTLB WQ TO_CACHE:          0
DTLB WQ MERGED:          0
DTLB WQ FORWARD:          0
L1D TOTAL     ACCESS:  335571861  HIT:  317475925  MISS:   18095936
L1D LOAD      ACCESS:  127695679  HIT:  118749129  MISS:    8946550
L1D RFO       ACCESS:   87029253  HIT:   86249534  MISS:     779719
L1D PREFETCH  ACCESS:  120846929  HIT:  112477262  MISS:    8369667
L1D WRITEBACK ACCESS:          0  HIT:          0  MISS:          0
L1D PREFETCH  REQUESTED:  128487303  ISSUED:  126889189  USEFUL:    1737738  USELESS:    6631940
L1D TOTAL MSHR MERGED:    3892109
L1D LOAD MSHR MERGED:     958320
L1D RFO MSHR MERGED:    1106661
L1D PREFETCH MSHR MERGED:    1827128
L1D WRITEBACK MSHR MERGED:          0
L1D TOTAL ACCESSES:  339556298 HITS:  317568253 MISSES:   21988045
L1D LOAD ACCESSES:  128487790 HITS:  118749616 MISSES:    9738174
L1D RFO ACCESSES:   88075584 HITS:   86249534 MISSES:    1826050
L1D PREFETCH ACCESSES:  122992924 HITS:  112569103 MISSES:   10423821
L1D WRITEBACK ACCESSES:          0 HITS:          0 MISSES:          0
L1D RQ ACCESS:  155248752
L1D RQ TO_CACHE:  128487303
L1D RQ MERGED:   26760962
L1D RQ FORWARD:          0
L1D WQ ACCESS:   88631385
L1D WQ TO_CACHE:   88075583
L1D WQ MERGED:     555802
L1D WQ FORWARD:      92328
L1I TOTAL     ACCESS:  175595098  HIT:  175328770  MISS:     266328
L1I LOAD      ACCESS:  175595098  HIT:  175328770  MISS:     266328
L1I RFO       ACCESS:          0  HIT:          0  MISS:          0
L1I PREFETCH  ACCESS:          0  HIT:          0  MISS:          0
L1I WRITEBACK ACCESS:          0  HIT:          0  MISS:          0
L1I PREFETCH  REQUESTED:          0  ISSUED:          0  USEFUL:          0  USELESS:          0
L1I TOTAL MSHR MERGED:     221210
L1I LOAD MSHR MERGED:     221210
L1I RFO MSHR MERGED:          0
L1I PREFETCH MSHR MERGED:          0
L1I WRITEBACK MSHR MERGED:          0
L1I TOTAL ACCESSES:  175816308 HITS:  175328770 MISSES:     487538
L1I LOAD ACCESSES:  175816308 HITS:  175328770 MISSES:     487538
L1I RFO ACCESSES:          0 HITS:          0 MISSES:          0
L1I PREFETCH ACCESSES:          0 HITS:          0 MISSES:          0
L1I WRITEBACK ACCESSES:          0 HITS:          0 MISSES:          0
L1I RQ ACCESS:  500000242
L1I RQ TO_CACHE:  175816308
L1I RQ MERGED:  324183934
L1I RQ FORWARD:          0
L1I WQ ACCESS:          0
L1I WQ TO_CACHE:          0
L1I WQ MERGED:          0
L1I WQ FORWARD:          0
L2C TOTAL     ACCESS:   23738285  HIT:   12112481  MISS:   11625804
L2C LOAD      ACCESS:    9045015  HIT:    3565280  MISS:    5479735
L2C RFO       ACCESS:     719332  HIT:     129536  MISS:     589796
L2C PREFETCH  ACCESS:    8613688  HIT:    3086108  MISS:    5527580
L2C WRITEBACK ACCESS:    5360250  HIT:    5331557  MISS:      28693
L2C PREFETCH  REQUESTED:      18031  ISSUED:      18031  USEFUL:     322866  USELESS:    5204888
L2C TOTAL MSHR MERGED:         25
L2C LOAD MSHR MERGED:          3
L2C RFO MSHR MERGED:          0
L2C PREFETCH MSHR MERGED:         22
L2C WRITEBACK MSHR MERGED:          0
L2C TOTAL ACCESSES:   23740088 HITS:   12114253 MISSES:   11625835
L2C LOAD ACCESSES:    9046182 HITS:    3566447 MISSES:    5479735
L2C RFO ACCESSES:     719389 HITS:     129593 MISSES:     589796
L2C PREFETCH ACCESSES:    8614267 HITS:    3086656 MISSES:    5527611
L2C WRITEBACK ACCESSES:    5360250 HITS:    5331557 MISSES:      28693
L2C RQ ACCESS:    9765571
L2C RQ TO_CACHE:    9764347
L2C RQ MERGED:          0
L2C RQ FORWARD:          0
L2C WQ ACCESS:    5360250
L2C WQ TO_CACHE:    5360250
L2C WQ MERGED:          0
L2C WQ FORWARD:       1772
LLC TOTAL     ACCESS:   15448741  HIT:    5811161  MISS:    9637580
LLC LOAD      ACCESS:    5479704  HIT:    1704789  MISS:    3774915
LLC RFO       ACCESS:     589794  HIT:     268873  MISS:     320921
LLC PREFETCH  ACCESS:    5527575  HIT:     922330  MISS:    4605245
LLC WRITEBACK ACCESS:    3851668  HIT:    2915169  MISS:     936499
LLC PREFETCH  REQUESTED:          0  ISSUED:          0  USEFUL:      16381  USELESS:    4589216
LLC TOTAL MSHR MERGED:          0
LLC LOAD MSHR MERGED:          0
LLC RFO MSHR MERGED:          0
LLC PREFETCH MSHR MERGED:          0
LLC WRITEBACK MSHR MERGED:          0
LLC TOTAL ACCESSES:   15448785 HITS:    5811205 MISSES:    9637580
LLC LOAD ACCESSES:    5479732 HITS:    1704817 MISSES:    3774915
LLC RFO ACCESSES:     589796 HITS:     268875 MISSES:     320921
LLC PREFETCH ACCESSES:    5527589 HITS:     922344 MISSES:    4605245
LLC WRITEBACK ACCESSES:    3851668 HITS:    2915169 MISSES:     936499
LLC 0 RQ ACCESS:    6069528
LLC 0 RQ TO_CACHE:    6069498
LLC 0 RQ MERGED:          0
LLC 0 RQ FORWARD:          0
LLC WQ ACCESS:    3851668
LLC WQ TO_CACHE:    3851668
LLC WQ MERGED:          0
LLC WQ FORWARD:         44
Major fault: 0 Minor fault: 44814
CPU 0 L1D next line prefetcher final stats
CPU 0 L2C PC-based stride prefetcher final stats
All Misses: 11651143
All Hits: 6970109
SD Algo Stats - Switches: 0 SRR-Repls: 4313362 BRR-Repls: 0

DRAM Statistics
 CHANNEL 0
 RQ ROW_BUFFER_HIT:    1503000  ROW_BUFFER_MISS:    7196146
 DBUS_CONGESTED:    5805780
 WQ ROW_BUFFER_HIT:     174591  ROW_BUFFER_MISS:    2150215  FULL:          0

 AVG_CONGESTED_CYCLE: 13
LOADS RETIRED: 160808997
INSTR RETIRED: 500000000
