
*** ChampSim Multicore Out-of-Order Simulator ***

Warmup Instructions: 100000000
Simulation Instructions: 500000000
Number of CPUs: 1
LLC sets: 2048
LLC ways: 16
Clean RRIP Policies: 1013030110130301 Dirty RRIP Policies: 13030100130301 PSEL Width: 10 Track Set: 4294967295 PSEL Mask: 1 Demote Mask: 3000014430000144DS Algo: 0Window size: 0
Off-chip DRAM Size: 4096 MB Channels: 1 Width: 64-bit Data Rate: 1600 MT/s

CPU 0 runs /mnt/beegfs/iconst01/spec2017/Gcc.trace.gz
NOT SORTED
TRACE STRING: /mnt/beegfs/iconst01/spec2017/Gcc.trace.gz
SORTED
TRACE STRING: /mnt/beegfs/iconst01/spec2017/Gcc.trace.gz
INITIAL
TRACE STRING: /mnt/beegfs/iconst01/spec2017/Gcc.trace.gz

champsim_seed used: 269

CPU 0 L1D next line prefetcher
CPU 0 L2C IP-based stride prefetcher
Initialize DRRIP state
Assign rand_sets[0]: 454  LLC: 2048
rand_sets[0]: 454
Assign rand_sets[1]: 1662  LLC: 2048
rand_sets[1]: 1662
Assign rand_sets[2]: 1921  LLC: 2048
rand_sets[2]: 1921
Assign rand_sets[3]: 1131  LLC: 2048
rand_sets[3]: 1131
Assign rand_sets[4]: 331  LLC: 2048
rand_sets[4]: 331
Assign rand_sets[5]: 1531  LLC: 2048
rand_sets[5]: 1531
Assign rand_sets[6]: 482  LLC: 2048
rand_sets[6]: 482
Assign rand_sets[7]: 1275  LLC: 2048
rand_sets[7]: 1275
Assign rand_sets[8]: 1876  LLC: 2048
rand_sets[8]: 1876
Assign rand_sets[9]: 2038  LLC: 2048
rand_sets[9]: 2038
Assign rand_sets[10]: 701  LLC: 2048
rand_sets[10]: 701
Assign rand_sets[11]: 479  LLC: 2048
rand_sets[11]: 479
Assign rand_sets[12]: 892  LLC: 2048
rand_sets[12]: 892
Assign rand_sets[13]: 1820  LLC: 2048
rand_sets[13]: 1820
Assign rand_sets[14]: 1505  LLC: 2048
rand_sets[14]: 1505
Assign rand_sets[15]: 1159  LLC: 2048
rand_sets[15]: 1159
Assign rand_sets[16]: 513  LLC: 2048
rand_sets[16]: 513
Assign rand_sets[17]: 703  LLC: 2048
rand_sets[17]: 703
Assign rand_sets[18]: 561  LLC: 2048
rand_sets[18]: 561
Assign rand_sets[19]: 990  LLC: 2048
rand_sets[19]: 990
Assign rand_sets[20]: 342  LLC: 2048
rand_sets[20]: 342
Assign rand_sets[21]: 882  LLC: 2048
rand_sets[21]: 882
Assign rand_sets[22]: 15  LLC: 2048
rand_sets[22]: 15
Assign rand_sets[23]: 71  LLC: 2048
rand_sets[23]: 71
Assign rand_sets[24]: 1127  LLC: 2048
rand_sets[24]: 1127
Assign rand_sets[25]: 1382  LLC: 2048
rand_sets[25]: 1382
Assign rand_sets[26]: 647  LLC: 2048
rand_sets[26]: 647
Assign rand_sets[27]: 857  LLC: 2048
rand_sets[27]: 857
Assign rand_sets[28]: 1450  LLC: 2048
rand_sets[28]: 1450
Assign rand_sets[29]: 1160  LLC: 2048
rand_sets[29]: 1160
Assign rand_sets[30]: 1852  LLC: 2048
rand_sets[30]: 1852
Assign rand_sets[31]: 1881  LLC: 2048
rand_sets[31]: 1881
Assign rand_sets[32]: 1770  LLC: 2048
rand_sets[32]: 1770
Assign rand_sets[33]: 1622  LLC: 2048
rand_sets[33]: 1622
Assign rand_sets[34]: 275  LLC: 2048
rand_sets[34]: 275
Assign rand_sets[35]: 635  LLC: 2048
rand_sets[35]: 635
Assign rand_sets[36]: 466  LLC: 2048
rand_sets[36]: 466
Assign rand_sets[37]: 1413  LLC: 2048
rand_sets[37]: 1413
Assign rand_sets[38]: 417  LLC: 2048
rand_sets[38]: 417
Assign rand_sets[39]: 472  LLC: 2048
rand_sets[39]: 472
Assign rand_sets[40]: 1340  LLC: 2048
rand_sets[40]: 1340
Assign rand_sets[41]: 852  LLC: 2048
rand_sets[41]: 852
Assign rand_sets[42]: 1365  LLC: 2048
rand_sets[42]: 1365
Assign rand_sets[43]: 47  LLC: 2048
rand_sets[43]: 47
Assign rand_sets[44]: 823  LLC: 2048
rand_sets[44]: 823
Assign rand_sets[45]: 686  LLC: 2048
rand_sets[45]: 686
Assign rand_sets[46]: 1637  LLC: 2048
rand_sets[46]: 1637
Assign rand_sets[47]: 1115  LLC: 2048
rand_sets[47]: 1115
Assign rand_sets[48]: 986  LLC: 2048
rand_sets[48]: 986
Assign rand_sets[49]: 258  LLC: 2048
rand_sets[49]: 258
Assign rand_sets[50]: 633  LLC: 2048
rand_sets[50]: 633
Assign rand_sets[51]: 920  LLC: 2048
rand_sets[51]: 920
Assign rand_sets[52]: 204  LLC: 2048
rand_sets[52]: 204
Assign rand_sets[53]: 227  LLC: 2048
rand_sets[53]: 227
Assign rand_sets[54]: 1818  LLC: 2048
rand_sets[54]: 1818
Assign rand_sets[55]: 886  LLC: 2048
rand_sets[55]: 886
Assign rand_sets[56]: 1422  LLC: 2048
rand_sets[56]: 1422
Assign rand_sets[57]: 607  LLC: 2048
rand_sets[57]: 607
Assign rand_sets[58]: 217  LLC: 2048
rand_sets[58]: 217
Assign rand_sets[59]: 1945  LLC: 2048
rand_sets[59]: 1945
Assign rand_sets[60]: 143  LLC: 2048
rand_sets[60]: 143
Assign rand_sets[61]: 1311  LLC: 2048
rand_sets[61]: 1311
Assign rand_sets[62]: 319  LLC: 2048
rand_sets[62]: 319
Assign rand_sets[63]: 1846  LLC: 2048
rand_sets[63]: 1846
 CLEAN-RRIP-POLICY-1: 1-0-1-3-0-3-0-1- CLEAN-RRIP-POLICY-2: 1-0-1-3-0-3-0-1-
 DIRTY-RRIP-POLICY-1: 0-0-1-3-0-3-0-1- DIRTY-RRIP-POLICY-2: 0-0-1-3-0-3-0-1-
 PSEL width: 10
Heartbeat CPU 0 instructions: 10000001 cycles: 7315983 heartbeat IPC: 1.36687 cumulative IPC: 1.36687 (Simulation time: 0 hr 0 min 19 sec) 
Heartbeat CPU 0 instructions: 20000000 cycles: 14307511 heartbeat IPC: 1.4303 cumulative IPC: 1.39787 (Simulation time: 0 hr 0 min 38 sec) 
Heartbeat CPU 0 instructions: 30000001 cycles: 21020324 heartbeat IPC: 1.48969 cumulative IPC: 1.42719 (Simulation time: 0 hr 0 min 59 sec) 
Heartbeat CPU 0 instructions: 40000000 cycles: 27481128 heartbeat IPC: 1.54779 cumulative IPC: 1.45554 (Simulation time: 0 hr 1 min 20 sec) 
Heartbeat CPU 0 instructions: 50000001 cycles: 33582802 heartbeat IPC: 1.63889 cumulative IPC: 1.48886 (Simulation time: 0 hr 1 min 40 sec) 
Heartbeat CPU 0 instructions: 60000000 cycles: 40063941 heartbeat IPC: 1.54294 cumulative IPC: 1.49761 (Simulation time: 0 hr 2 min 0 sec) 
Heartbeat CPU 0 instructions: 70000000 cycles: 47101454 heartbeat IPC: 1.42096 cumulative IPC: 1.48615 (Simulation time: 0 hr 2 min 19 sec) 
Heartbeat CPU 0 instructions: 80000000 cycles: 54190839 heartbeat IPC: 1.41056 cumulative IPC: 1.47626 (Simulation time: 0 hr 2 min 39 sec) 
Heartbeat CPU 0 instructions: 90000003 cycles: 61195005 heartbeat IPC: 1.42772 cumulative IPC: 1.47071 (Simulation time: 0 hr 2 min 58 sec) 
Heartbeat CPU 0 instructions: 100000000 cycles: 68362061 heartbeat IPC: 1.39527 cumulative IPC: 1.4628 (Simulation time: 0 hr 3 min 17 sec) 

Warmup complete CPU 0 instructions: 100000004 cycles: 68362062 (Simulation time: 0 hr 3 min 17 sec) 

Heartbeat CPU 0 instructions: 110000003 cycles: 95954039 heartbeat IPC: 0.362424 cumulative IPC: 0.362424 (Simulation time: 0 hr 3 min 55 sec) 
Heartbeat CPU 0 instructions: 120000000 cycles: 123389822 heartbeat IPC: 0.364487 cumulative IPC: 0.363453 (Simulation time: 0 hr 4 min 33 sec) 
Heartbeat CPU 0 instructions: 130000000 cycles: 148345644 heartbeat IPC: 0.400708 cumulative IPC: 0.375077 (Simulation time: 0 hr 5 min 11 sec) 
Heartbeat CPU 0 instructions: 140000000 cycles: 177702735 heartbeat IPC: 0.340633 cumulative IPC: 0.365829 (Simulation time: 0 hr 5 min 48 sec) 
Heartbeat CPU 0 instructions: 150000000 cycles: 207492915 heartbeat IPC: 0.335681 cumulative IPC: 0.359374 (Simulation time: 0 hr 6 min 26 sec) 
Heartbeat CPU 0 instructions: 160000000 cycles: 234876756 heartbeat IPC: 0.365179 cumulative IPC: 0.360329 (Simulation time: 0 hr 7 min 3 sec) 
Heartbeat CPU 0 instructions: 170000001 cycles: 262842693 heartbeat IPC: 0.357578 cumulative IPC: 0.359933 (Simulation time: 0 hr 7 min 43 sec) 
Heartbeat CPU 0 instructions: 180000000 cycles: 291230570 heartbeat IPC: 0.352263 cumulative IPC: 0.358956 (Simulation time: 0 hr 8 min 22 sec) 
Heartbeat CPU 0 instructions: 190000002 cycles: 319165687 heartbeat IPC: 0.357972 cumulative IPC: 0.358846 (Simulation time: 0 hr 9 min 0 sec) 
Heartbeat CPU 0 instructions: 200000000 cycles: 347459886 heartbeat IPC: 0.353429 cumulative IPC: 0.358297 (Simulation time: 0 hr 9 min 39 sec) 
Heartbeat CPU 0 instructions: 210000002 cycles: 375235123 heartbeat IPC: 0.360033 cumulative IPC: 0.358454 (Simulation time: 0 hr 10 min 18 sec) 
Heartbeat CPU 0 instructions: 220000000 cycles: 404266887 heartbeat IPC: 0.34445 cumulative IPC: 0.357244 (Simulation time: 0 hr 10 min 54 sec) 
Heartbeat CPU 0 instructions: 230000000 cycles: 431741723 heartbeat IPC: 0.363969 cumulative IPC: 0.357753 (Simulation time: 0 hr 11 min 32 sec) 
Heartbeat CPU 0 instructions: 240000000 cycles: 457638627 heartbeat IPC: 0.386147 cumulative IPC: 0.359641 (Simulation time: 0 hr 12 min 8 sec) 
Heartbeat CPU 0 instructions: 250000000 cycles: 487717467 heartbeat IPC: 0.33246 cumulative IPC: 0.357692 (Simulation time: 0 hr 12 min 47 sec) 
Heartbeat CPU 0 instructions: 260000000 cycles: 514780923 heartbeat IPC: 0.369502 cumulative IPC: 0.358408 (Simulation time: 0 hr 13 min 25 sec) 
Heartbeat CPU 0 instructions: 270000003 cycles: 543118937 heartbeat IPC: 0.352883 cumulative IPC: 0.358078 (Simulation time: 0 hr 14 min 5 sec) 
Heartbeat CPU 0 instructions: 280000000 cycles: 571215039 heartbeat IPC: 0.355921 cumulative IPC: 0.357958 (Simulation time: 0 hr 14 min 44 sec) 
Heartbeat CPU 0 instructions: 290000000 cycles: 600036090 heartbeat IPC: 0.346969 cumulative IPC: 0.357362 (Simulation time: 0 hr 15 min 24 sec) 
Heartbeat CPU 0 instructions: 300000000 cycles: 629784876 heartbeat IPC: 0.336148 cumulative IPC: 0.356238 (Simulation time: 0 hr 16 min 1 sec) 
Heartbeat CPU 0 instructions: 310000001 cycles: 659087711 heartbeat IPC: 0.341264 cumulative IPC: 0.355495 (Simulation time: 0 hr 16 min 39 sec) 
Heartbeat CPU 0 instructions: 320000000 cycles: 687205322 heartbeat IPC: 0.355649 cumulative IPC: 0.355502 (Simulation time: 0 hr 17 min 16 sec) 
Heartbeat CPU 0 instructions: 330000000 cycles: 715773138 heartbeat IPC: 0.350044 cumulative IPC: 0.355261 (Simulation time: 0 hr 17 min 54 sec) 
Heartbeat CPU 0 instructions: 340000000 cycles: 744974772 heartbeat IPC: 0.342447 cumulative IPC: 0.354708 (Simulation time: 0 hr 18 min 32 sec) 
Heartbeat CPU 0 instructions: 350000003 cycles: 771950370 heartbeat IPC: 0.370706 cumulative IPC: 0.355321 (Simulation time: 0 hr 19 min 9 sec) 
Heartbeat CPU 0 instructions: 360000000 cycles: 799987151 heartbeat IPC: 0.356674 cumulative IPC: 0.355373 (Simulation time: 0 hr 19 min 46 sec) 
Heartbeat CPU 0 instructions: 370000000 cycles: 828155184 heartbeat IPC: 0.355012 cumulative IPC: 0.35536 (Simulation time: 0 hr 20 min 22 sec) 
Heartbeat CPU 0 instructions: 380000000 cycles: 856644783 heartbeat IPC: 0.351005 cumulative IPC: 0.355202 (Simulation time: 0 hr 20 min 58 sec) 
Heartbeat CPU 0 instructions: 390000001 cycles: 884243608 heartbeat IPC: 0.362334 cumulative IPC: 0.355444 (Simulation time: 0 hr 21 min 34 sec) 
Heartbeat CPU 0 instructions: 400000000 cycles: 912868978 heartbeat IPC: 0.34934 cumulative IPC: 0.355237 (Simulation time: 0 hr 22 min 10 sec) 
Heartbeat CPU 0 instructions: 410000001 cycles: 940169805 heartbeat IPC: 0.366289 cumulative IPC: 0.355583 (Simulation time: 0 hr 22 min 46 sec) 
Heartbeat CPU 0 instructions: 420000000 cycles: 967489519 heartbeat IPC: 0.366036 cumulative IPC: 0.355901 (Simulation time: 0 hr 23 min 22 sec) 
Heartbeat CPU 0 instructions: 430000002 cycles: 995158126 heartbeat IPC: 0.361421 cumulative IPC: 0.356065 (Simulation time: 0 hr 23 min 59 sec) 
Heartbeat CPU 0 instructions: 440000000 cycles: 1024626041 heartbeat IPC: 0.339352 cumulative IPC: 0.35555 (Simulation time: 0 hr 24 min 36 sec) 
Heartbeat CPU 0 instructions: 450000002 cycles: 1053840816 heartbeat IPC: 0.342293 cumulative IPC: 0.355157 (Simulation time: 0 hr 25 min 12 sec) 
Heartbeat CPU 0 instructions: 460000000 cycles: 1081523029 heartbeat IPC: 0.361243 cumulative IPC: 0.355324 (Simulation time: 0 hr 25 min 49 sec) 
Heartbeat CPU 0 instructions: 470000000 cycles: 1109149128 heartbeat IPC: 0.361977 cumulative IPC: 0.3555 (Simulation time: 0 hr 26 min 25 sec) 
Heartbeat CPU 0 instructions: 480000000 cycles: 1137023176 heartbeat IPC: 0.358757 cumulative IPC: 0.355585 (Simulation time: 0 hr 27 min 1 sec) 
Heartbeat CPU 0 instructions: 490000000 cycles: 1164612925 heartbeat IPC: 0.362453 cumulative IPC: 0.355758 (Simulation time: 0 hr 27 min 37 sec) 
Heartbeat CPU 0 instructions: 500000000 cycles: 1192875507 heartbeat IPC: 0.353825 cumulative IPC: 0.355709 (Simulation time: 0 hr 28 min 14 sec) 
Heartbeat CPU 0 instructions: 510000000 cycles: 1227759745 heartbeat IPC: 0.286662 cumulative IPC: 0.353632 (Simulation time: 0 hr 28 min 55 sec) 
Heartbeat CPU 0 instructions: 520000000 cycles: 1255706630 heartbeat IPC: 0.357822 cumulative IPC: 0.35373 (Simulation time: 0 hr 29 min 33 sec) 
Heartbeat CPU 0 instructions: 530000001 cycles: 1284945602 heartbeat IPC: 0.342009 cumulative IPC: 0.353449 (Simulation time: 0 hr 30 min 11 sec) 
Heartbeat CPU 0 instructions: 540000000 cycles: 1312917641 heartbeat IPC: 0.3575 cumulative IPC: 0.35354 (Simulation time: 0 hr 30 min 48 sec) 
Heartbeat CPU 0 instructions: 550000001 cycles: 1342080320 heartbeat IPC: 0.342904 cumulative IPC: 0.353296 (Simulation time: 0 hr 31 min 28 sec) 
Heartbeat CPU 0 instructions: 560000000 cycles: 1367422870 heartbeat IPC: 0.394593 cumulative IPC: 0.354102 (Simulation time: 0 hr 32 min 5 sec) 
Heartbeat CPU 0 instructions: 570000000 cycles: 1396779138 heartbeat IPC: 0.340643 cumulative IPC: 0.353805 (Simulation time: 0 hr 32 min 43 sec) 
Heartbeat CPU 0 instructions: 580000000 cycles: 1424649018 heartbeat IPC: 0.35881 cumulative IPC: 0.353907 (Simulation time: 0 hr 33 min 21 sec) 
Heartbeat CPU 0 instructions: 590000001 cycles: 1449387285 heartbeat IPC: 0.404232 cumulative IPC: 0.354809 (Simulation time: 0 hr 33 min 57 sec) 
Heartbeat CPU 0 instructions: 600000000 cycles: 1475471523 heartbeat IPC: 0.383373 cumulative IPC: 0.355338 (Simulation time: 0 hr 34 min 31 sec) 
Finished CPU 0 instructions: 500000000 cycles: 1407109483 cumulative IPC: 0.355338 (Simulation time: 0 hr 34 min 31 sec) 

CPU 0 Branch Prediction Accuracy: 86.4311% MPKI: 26.2662
Number of Branches: 96788573 Number of Mispredictions: 13133102
Number of LOAD Instructions: 164682285
Number of LOAD Instructions (ROI): 164682285
Number of STORE Instructions: 78194750
Number of STORE Instructions (ROI): 78194750
Total Destination Memory Operands: 83268534
Total Destination Memory Operands (ROI): 83268534
Total Source Memory Operands: 164712438
Total Source Memory Operands (ROI): 164712438
Number of DEPENDED LOADS: 7060598
Number of DEPENDED LOADS (ROI): 7060598
Number of SQ_ADDED: 83268522
Number of SQ_ADDED (ROI): 83268522
Number of LQ_ADDED: 236692603
Number of LQ_ADDED (ROI): 236692603
Number of Instructions read from trace: 600000066

ChampSim completed all CPUs

Region of Interest Statistics

CPU 0 cumulative IPC: 0.355338 instructions: 500000000 cycles: 1407109483
ITLB TOTAL     ACCESS:  100510273  HIT:  100305827  MISS:     204446
ITLB LOAD      ACCESS:  100510273  HIT:  100305827  MISS:     204446
ITLB RFO       ACCESS:          0  HIT:          0  MISS:          0
ITLB PREFETCH  ACCESS:          0  HIT:          0  MISS:          0
ITLB WRITEBACK ACCESS:          0  HIT:          0  MISS:          0
ITLB PREFETCH  REQUESTED:          0  ISSUED:          0  USEFUL:          0  USELESS:          0
ITLB TOTAL MSHR MERGED:     172424
ITLB LOAD MSHR MERGED:     172424
ITLB RFO MSHR MERGED:          0
ITLB PREFETCH MSHR MERGED:          0
ITLB WRITEBACK MSHR MERGED:          0
ITLB TOTAL ACCESSES:  100682697 HITS:  100305827 MISSES:     376870
ITLB LOAD ACCESSES:  100682697 HITS:  100305827 MISSES:     376870
ITLB RFO ACCESSES:          0 HITS:          0 MISSES:          0
ITLB PREFETCH ACCESSES:          0 HITS:          0 MISSES:          0
ITLB WRITEBACK ACCESSES:          0 HITS:          0 MISSES:          0
ITLB RQ ACCESS:  500000057
ITLB RQ TO_CACHE:  100682697
ITLB RQ MERGED:  399317360
ITLB RQ FORWARD:          0
ITLB WQ ACCESS:          0
ITLB WQ TO_CACHE:          0
ITLB WQ MERGED:          0
ITLB WQ FORWARD:          0
DTLB TOTAL     ACCESS:  165335353  HIT:  164701003  MISS:     634350
DTLB LOAD      ACCESS:  106291175  HIT:  105721219  MISS:     569956
DTLB RFO       ACCESS:   59044178  HIT:   58979784  MISS:      64394
DTLB PREFETCH  ACCESS:          0  HIT:          0  MISS:          0
DTLB WRITEBACK ACCESS:          0  HIT:          0  MISS:          0
DTLB PREFETCH  REQUESTED:          0  ISSUED:          0  USEFUL:          0  USELESS:          0
DTLB TOTAL MSHR MERGED:     100008
DTLB LOAD MSHR MERGED:      59448
DTLB RFO MSHR MERGED:      40560
DTLB PREFETCH MSHR MERGED:          0
DTLB WRITEBACK MSHR MERGED:          0
DTLB TOTAL ACCESSES:  165435361 HITS:  164701003 MISSES:     734358
DTLB LOAD ACCESSES:  106350623 HITS:  105721219 MISSES:     629404
DTLB RFO ACCESSES:   59084738 HITS:   58979784 MISSES:     104954
DTLB PREFETCH ACCESSES:          0 HITS:          0 MISSES:          0
DTLB WRITEBACK ACCESSES:          0 HITS:          0 MISSES:          0
DTLB RQ ACCESS:  200310299
DTLB RQ TO_CACHE:  165435361
DTLB RQ MERGED:   34874938
DTLB RQ FORWARD:          0
DTLB WQ ACCESS:          0
DTLB WQ TO_CACHE:          0
DTLB WQ MERGED:          0
DTLB WQ FORWARD:          0
L1D TOTAL     ACCESS:  281826325  HIT:  273917026  MISS:    7909299
L1D LOAD      ACCESS:  110416033  HIT:  107137889  MISS:    3278144
L1D RFO       ACCESS:   67116171  HIT:   66225529  MISS:     890642
L1D PREFETCH  ACCESS:  104294121  HIT:  100553608  MISS:    3740513
L1D WRITEBACK ACCESS:          0  HIT:          0  MISS:          0
L1D PREFETCH  REQUESTED:  110815940  ISSUED:  109116661  USEFUL:    1661265  USELESS:    2079212
L1D TOTAL MSHR MERGED:    2875534
L1D LOAD MSHR MERGED:     497510
L1D RFO MSHR MERGED:    1869852
L1D PREFETCH MSHR MERGED:     508172
L1D WRITEBACK MSHR MERGED:          0
L1D TOTAL ACCESSES:  284729328 HITS:  273944495 MISSES:   10784833
L1D LOAD ACCESSES:  110817384 HITS:  107139333 MISSES:    3678051
L1D RFO ACCESSES:   68974185 HITS:   66225529 MISSES:    2748656
L1D PREFETCH ACCESSES:  104937759 HITS:  100579633 MISSES:    4358126
L1D WRITEBACK ACCESSES:          0 HITS:          0 MISSES:          0
L1D RQ ACCESS:  130757696
L1D RQ TO_CACHE:  110815943
L1D RQ MERGED:   19940309
L1D RQ FORWARD:          0
L1D WQ ACCESS:   69552603
L1D WQ TO_CACHE:   68974186
L1D WQ MERGED:     578417
L1D WQ FORWARD:      27469
L1I TOTAL     ACCESS:  126558024  HIT:  122319470  MISS:    4238554
L1I LOAD      ACCESS:  126558024  HIT:  122319470  MISS:    4238554
L1I RFO       ACCESS:          0  HIT:          0  MISS:          0
L1I PREFETCH  ACCESS:          0  HIT:          0  MISS:          0
L1I WRITEBACK ACCESS:          0  HIT:          0  MISS:          0
L1I PREFETCH  REQUESTED:          0  ISSUED:          0  USEFUL:          0  USELESS:          0
L1I TOTAL MSHR MERGED:    1834480
L1I LOAD MSHR MERGED:    1834480
L1I RFO MSHR MERGED:          0
L1I PREFETCH MSHR MERGED:          0
L1I WRITEBACK MSHR MERGED:          0
L1I TOTAL ACCESSES:  128392507 HITS:  122319470 MISSES:    6073037
L1I LOAD ACCESSES:  128392507 HITS:  122319470 MISSES:    6073037
L1I RFO ACCESSES:          0 HITS:          0 MISSES:          0
L1I PREFETCH ACCESSES:          0 HITS:          0 MISSES:          0
L1I WRITEBACK ACCESSES:          0 HITS:          0 MISSES:          0
L1I RQ ACCESS:  500000057
L1I RQ TO_CACHE:  128392507
L1I RQ MERGED:  371607550
L1I RQ FORWARD:          0
L1I WQ ACCESS:          0
L1I WQ TO_CACHE:          0
L1I WQ MERGED:          0
L1I WQ FORWARD:          0
L2C TOTAL     ACCESS:   14905068  HIT:   11158587  MISS:    3746481
L2C LOAD      ACCESS:    7418886  HIT:    5098859  MISS:    2320027
L2C RFO       ACCESS:     878707  HIT:     409906  MISS:     468801
L2C PREFETCH  ACCESS:    4568232  HIT:    3627832  MISS:     940400
L2C WRITEBACK ACCESS:    2039243  HIT:    2021990  MISS:      17253
L2C PREFETCH  REQUESTED:     842721  ISSUED:     842721  USEFUL:     203340  USELESS:     736766
L2C TOTAL MSHR MERGED:       7128
L2C LOAD MSHR MERGED:        802
L2C RFO MSHR MERGED:          0
L2C PREFETCH MSHR MERGED:       6326
L2C WRITEBACK MSHR MERGED:          0
L2C TOTAL ACCESSES:   14913127 HITS:   11159036 MISSES:    3754091
L2C LOAD ACCESSES:    7419095 HITS:    5099068 MISSES:    2320027
L2C RFO ACCESSES:     878804 HITS:     410003 MISSES:     468801
L2C PREFETCH ACCESSES:    4575985 HITS:    3627975 MISSES:     948010
L2C WRITEBACK ACCESSES:    2039243 HITS:    2021990 MISSES:      17253
L2C RQ ACCESS:    8297902
L2C RQ TO_CACHE:    8297596
L2C RQ MERGED:          0
L2C RQ FORWARD:          0
L2C WQ ACCESS:    2039243
L2C WQ TO_CACHE:    2039243
L2C WQ MERGED:          0
L2C WQ FORWARD:        449
LLC TOTAL     ACCESS:    4609827  HIT:    3969477  MISS:     640350
LLC LOAD      ACCESS:    2319211  HIT:    2097854  MISS:     221357
LLC RFO       ACCESS:     468791  HIT:     401403  MISS:      67388
LLC PREFETCH  ACCESS:     941538  HIT:     649504  MISS:     292034
LLC WRITEBACK ACCESS:     880287  HIT:     820716  MISS:      59571
LLC PREFETCH  REQUESTED:          0  ISSUED:          0  USEFUL:      15139  USELESS:     277800
LLC TOTAL MSHR MERGED:        131
LLC LOAD MSHR MERGED:         44
LLC RFO MSHR MERGED:          0
LLC PREFETCH MSHR MERGED:         87
LLC WRITEBACK MSHR MERGED:          0
LLC TOTAL ACCESSES:    4609993 HITS:    3969512 MISSES:     640481
LLC LOAD ACCESSES:    2319225 HITS:    2097868 MISSES:     221357
LLC RFO ACCESSES:     468801 HITS:     401413 MISSES:      67388
LLC PREFETCH ACCESSES:     941680 HITS:     649515 MISSES:     292165
LLC WRITEBACK ACCESSES:     880287 HITS:     820716 MISSES:      59571
LLC 0 RQ ACCESS:    2788026
LLC 0 RQ TO_CACHE:    2788002
LLC 0 RQ MERGED:          0
LLC 0 RQ FORWARD:          0
LLC WQ ACCESS:     880287
LLC WQ TO_CACHE:     880287
LLC WQ MERGED:          0
LLC WQ FORWARD:         35
Major fault: 0 Minor fault: 12862
CPU 0 L1D next line prefetcher final stats
CPU 0 L2C PC-based stride prefetcher final stats
All Misses: 758580
All Hits: 4668253
SD Algo Stats - Switches: 0 SRR-Repls: 259685 BRR-Repls: 0

DRAM Statistics
 CHANNEL 0
 RQ ROW_BUFFER_HIT:     113635  ROW_BUFFER_MISS:     466284
 DBUS_CONGESTED:     357890
 WQ ROW_BUFFER_HIT:      15495  ROW_BUFFER_MISS:     180217  FULL:          0

 AVG_CONGESTED_CYCLE: 13
LOADS RETIRED: 136549171
INSTR RETIRED: 500000000
