
*** ChampSim Multicore Out-of-Order Simulator ***

Warmup Instructions: 100000000
Simulation Instructions: 500000000
Number of CPUs: 1
LLC sets: 2048
LLC ways: 16
Clean RRIP Policies: 1320030113200301 Dirty RRIP Policies: 1310132113101321 PSEL Width: 10 Track Set: 4294967295 PSEL Mask: 1 Demote Mask: 3112221031122210DS Algo: 0Window size: 0
Off-chip DRAM Size: 4096 MB Channels: 1 Width: 64-bit Data Rate: 1600 MT/s

CPU 0 runs /mnt/beegfs/iconst01/spec2017/Gcc.trace.gz
NOT SORTED
TRACE STRING: /mnt/beegfs/iconst01/spec2017/Gcc.trace.gz
SORTED
TRACE STRING: /mnt/beegfs/iconst01/spec2017/Gcc.trace.gz
INITIAL
TRACE STRING: /mnt/beegfs/iconst01/spec2017/Gcc.trace.gz

champsim_seed used: 269

CPU 0 L1D next line prefetcher
CPU 0 L2C IP-based stride prefetcher
Initialize DRRIP state
Assign rand_sets[0]: 454  LLC: 2048
rand_sets[0]: 454
Assign rand_sets[1]: 1662  LLC: 2048
rand_sets[1]: 1662
Assign rand_sets[2]: 1921  LLC: 2048
rand_sets[2]: 1921
Assign rand_sets[3]: 1131  LLC: 2048
rand_sets[3]: 1131
Assign rand_sets[4]: 331  LLC: 2048
rand_sets[4]: 331
Assign rand_sets[5]: 1531  LLC: 2048
rand_sets[5]: 1531
Assign rand_sets[6]: 482  LLC: 2048
rand_sets[6]: 482
Assign rand_sets[7]: 1275  LLC: 2048
rand_sets[7]: 1275
Assign rand_sets[8]: 1876  LLC: 2048
rand_sets[8]: 1876
Assign rand_sets[9]: 2038  LLC: 2048
rand_sets[9]: 2038
Assign rand_sets[10]: 701  LLC: 2048
rand_sets[10]: 701
Assign rand_sets[11]: 479  LLC: 2048
rand_sets[11]: 479
Assign rand_sets[12]: 892  LLC: 2048
rand_sets[12]: 892
Assign rand_sets[13]: 1820  LLC: 2048
rand_sets[13]: 1820
Assign rand_sets[14]: 1505  LLC: 2048
rand_sets[14]: 1505
Assign rand_sets[15]: 1159  LLC: 2048
rand_sets[15]: 1159
Assign rand_sets[16]: 513  LLC: 2048
rand_sets[16]: 513
Assign rand_sets[17]: 703  LLC: 2048
rand_sets[17]: 703
Assign rand_sets[18]: 561  LLC: 2048
rand_sets[18]: 561
Assign rand_sets[19]: 990  LLC: 2048
rand_sets[19]: 990
Assign rand_sets[20]: 342  LLC: 2048
rand_sets[20]: 342
Assign rand_sets[21]: 882  LLC: 2048
rand_sets[21]: 882
Assign rand_sets[22]: 15  LLC: 2048
rand_sets[22]: 15
Assign rand_sets[23]: 71  LLC: 2048
rand_sets[23]: 71
Assign rand_sets[24]: 1127  LLC: 2048
rand_sets[24]: 1127
Assign rand_sets[25]: 1382  LLC: 2048
rand_sets[25]: 1382
Assign rand_sets[26]: 647  LLC: 2048
rand_sets[26]: 647
Assign rand_sets[27]: 857  LLC: 2048
rand_sets[27]: 857
Assign rand_sets[28]: 1450  LLC: 2048
rand_sets[28]: 1450
Assign rand_sets[29]: 1160  LLC: 2048
rand_sets[29]: 1160
Assign rand_sets[30]: 1852  LLC: 2048
rand_sets[30]: 1852
Assign rand_sets[31]: 1881  LLC: 2048
rand_sets[31]: 1881
Assign rand_sets[32]: 1770  LLC: 2048
rand_sets[32]: 1770
Assign rand_sets[33]: 1622  LLC: 2048
rand_sets[33]: 1622
Assign rand_sets[34]: 275  LLC: 2048
rand_sets[34]: 275
Assign rand_sets[35]: 635  LLC: 2048
rand_sets[35]: 635
Assign rand_sets[36]: 466  LLC: 2048
rand_sets[36]: 466
Assign rand_sets[37]: 1413  LLC: 2048
rand_sets[37]: 1413
Assign rand_sets[38]: 417  LLC: 2048
rand_sets[38]: 417
Assign rand_sets[39]: 472  LLC: 2048
rand_sets[39]: 472
Assign rand_sets[40]: 1340  LLC: 2048
rand_sets[40]: 1340
Assign rand_sets[41]: 852  LLC: 2048
rand_sets[41]: 852
Assign rand_sets[42]: 1365  LLC: 2048
rand_sets[42]: 1365
Assign rand_sets[43]: 47  LLC: 2048
rand_sets[43]: 47
Assign rand_sets[44]: 823  LLC: 2048
rand_sets[44]: 823
Assign rand_sets[45]: 686  LLC: 2048
rand_sets[45]: 686
Assign rand_sets[46]: 1637  LLC: 2048
rand_sets[46]: 1637
Assign rand_sets[47]: 1115  LLC: 2048
rand_sets[47]: 1115
Assign rand_sets[48]: 986  LLC: 2048
rand_sets[48]: 986
Assign rand_sets[49]: 258  LLC: 2048
rand_sets[49]: 258
Assign rand_sets[50]: 633  LLC: 2048
rand_sets[50]: 633
Assign rand_sets[51]: 920  LLC: 2048
rand_sets[51]: 920
Assign rand_sets[52]: 204  LLC: 2048
rand_sets[52]: 204
Assign rand_sets[53]: 227  LLC: 2048
rand_sets[53]: 227
Assign rand_sets[54]: 1818  LLC: 2048
rand_sets[54]: 1818
Assign rand_sets[55]: 886  LLC: 2048
rand_sets[55]: 886
Assign rand_sets[56]: 1422  LLC: 2048
rand_sets[56]: 1422
Assign rand_sets[57]: 607  LLC: 2048
rand_sets[57]: 607
Assign rand_sets[58]: 217  LLC: 2048
rand_sets[58]: 217
Assign rand_sets[59]: 1945  LLC: 2048
rand_sets[59]: 1945
Assign rand_sets[60]: 143  LLC: 2048
rand_sets[60]: 143
Assign rand_sets[61]: 1311  LLC: 2048
rand_sets[61]: 1311
Assign rand_sets[62]: 319  LLC: 2048
rand_sets[62]: 319
Assign rand_sets[63]: 1846  LLC: 2048
rand_sets[63]: 1846
 CLEAN-RRIP-POLICY-1: 1-3-2-0-0-3-0-1- CLEAN-RRIP-POLICY-2: 1-3-2-0-0-3-0-1-
 DIRTY-RRIP-POLICY-1: 1-3-1-0-1-3-2-1- DIRTY-RRIP-POLICY-2: 1-3-1-0-1-3-2-1-
 PSEL width: 10
Heartbeat CPU 0 instructions: 10000001 cycles: 7315914 heartbeat IPC: 1.36688 cumulative IPC: 1.36688 (Simulation time: 0 hr 0 min 15 sec) 
Heartbeat CPU 0 instructions: 20000000 cycles: 14307990 heartbeat IPC: 1.43019 cumulative IPC: 1.39782 (Simulation time: 0 hr 0 min 29 sec) 
Heartbeat CPU 0 instructions: 30000001 cycles: 21021591 heartbeat IPC: 1.48951 cumulative IPC: 1.4271 (Simulation time: 0 hr 0 min 45 sec) 
Heartbeat CPU 0 instructions: 40000000 cycles: 27482657 heartbeat IPC: 1.54773 cumulative IPC: 1.45546 (Simulation time: 0 hr 1 min 2 sec) 
Heartbeat CPU 0 instructions: 50000001 cycles: 33584873 heartbeat IPC: 1.63875 cumulative IPC: 1.48877 (Simulation time: 0 hr 1 min 17 sec) 
Heartbeat CPU 0 instructions: 60000000 cycles: 40066381 heartbeat IPC: 1.54285 cumulative IPC: 1.49751 (Simulation time: 0 hr 1 min 33 sec) 
Heartbeat CPU 0 instructions: 70000000 cycles: 47107759 heartbeat IPC: 1.42018 cumulative IPC: 1.48595 (Simulation time: 0 hr 1 min 48 sec) 
Heartbeat CPU 0 instructions: 80000000 cycles: 54200428 heartbeat IPC: 1.40991 cumulative IPC: 1.476 (Simulation time: 0 hr 2 min 3 sec) 
Heartbeat CPU 0 instructions: 90000003 cycles: 61208403 heartbeat IPC: 1.42695 cumulative IPC: 1.47039 (Simulation time: 0 hr 2 min 18 sec) 
Heartbeat CPU 0 instructions: 100000000 cycles: 68379476 heartbeat IPC: 1.39449 cumulative IPC: 1.46243 (Simulation time: 0 hr 2 min 33 sec) 

Warmup complete CPU 0 instructions: 100000004 cycles: 68379477 (Simulation time: 0 hr 2 min 33 sec) 

Heartbeat CPU 0 instructions: 110000003 cycles: 96560099 heartbeat IPC: 0.354854 cumulative IPC: 0.354854 (Simulation time: 0 hr 3 min 2 sec) 
Heartbeat CPU 0 instructions: 120000000 cycles: 124190078 heartbeat IPC: 0.361926 cumulative IPC: 0.358355 (Simulation time: 0 hr 3 min 32 sec) 
Heartbeat CPU 0 instructions: 130000000 cycles: 149342459 heartbeat IPC: 0.397577 cumulative IPC: 0.37054 (Simulation time: 0 hr 4 min 1 sec) 
Heartbeat CPU 0 instructions: 140000000 cycles: 179991388 heartbeat IPC: 0.326276 cumulative IPC: 0.358385 (Simulation time: 0 hr 4 min 30 sec) 
Heartbeat CPU 0 instructions: 150000000 cycles: 210508823 heartbeat IPC: 0.327682 cumulative IPC: 0.351792 (Simulation time: 0 hr 4 min 59 sec) 
Heartbeat CPU 0 instructions: 160000000 cycles: 238127098 heartbeat IPC: 0.362079 cumulative IPC: 0.353466 (Simulation time: 0 hr 5 min 28 sec) 
Heartbeat CPU 0 instructions: 170000001 cycles: 266496401 heartbeat IPC: 0.352494 cumulative IPC: 0.353327 (Simulation time: 0 hr 5 min 58 sec) 
Heartbeat CPU 0 instructions: 180000000 cycles: 295278491 heartbeat IPC: 0.347438 cumulative IPC: 0.35258 (Simulation time: 0 hr 6 min 28 sec) 
Heartbeat CPU 0 instructions: 190000002 cycles: 323846354 heartbeat IPC: 0.350044 cumulative IPC: 0.352296 (Simulation time: 0 hr 6 min 57 sec) 
Heartbeat CPU 0 instructions: 200000000 cycles: 352596982 heartbeat IPC: 0.347818 cumulative IPC: 0.351843 (Simulation time: 0 hr 7 min 27 sec) 
Heartbeat CPU 0 instructions: 210000002 cycles: 380948009 heartbeat IPC: 0.352721 cumulative IPC: 0.351923 (Simulation time: 0 hr 7 min 57 sec) 
Heartbeat CPU 0 instructions: 220000000 cycles: 411257750 heartbeat IPC: 0.329927 cumulative IPC: 0.349978 (Simulation time: 0 hr 8 min 25 sec) 
Heartbeat CPU 0 instructions: 230000000 cycles: 439255082 heartbeat IPC: 0.357177 cumulative IPC: 0.350522 (Simulation time: 0 hr 8 min 54 sec) 
Heartbeat CPU 0 instructions: 240000000 cycles: 465429969 heartbeat IPC: 0.382046 cumulative IPC: 0.3526 (Simulation time: 0 hr 9 min 22 sec) 
Heartbeat CPU 0 instructions: 250000000 cycles: 495798663 heartbeat IPC: 0.329286 cumulative IPC: 0.350944 (Simulation time: 0 hr 9 min 52 sec) 
Heartbeat CPU 0 instructions: 260000000 cycles: 523045358 heartbeat IPC: 0.367017 cumulative IPC: 0.351907 (Simulation time: 0 hr 10 min 21 sec) 
Heartbeat CPU 0 instructions: 270000003 cycles: 551773499 heartbeat IPC: 0.348091 cumulative IPC: 0.35168 (Simulation time: 0 hr 10 min 52 sec) 
Heartbeat CPU 0 instructions: 280000000 cycles: 580353715 heartbeat IPC: 0.349892 cumulative IPC: 0.35158 (Simulation time: 0 hr 11 min 22 sec) 
Heartbeat CPU 0 instructions: 290000000 cycles: 609547824 heartbeat IPC: 0.342535 cumulative IPC: 0.351092 (Simulation time: 0 hr 11 min 52 sec) 
Heartbeat CPU 0 instructions: 300000000 cycles: 640668555 heartbeat IPC: 0.321329 cumulative IPC: 0.349474 (Simulation time: 0 hr 12 min 22 sec) 
Heartbeat CPU 0 instructions: 310000001 cycles: 670822378 heartbeat IPC: 0.331633 cumulative IPC: 0.348581 (Simulation time: 0 hr 12 min 51 sec) 
Heartbeat CPU 0 instructions: 320000000 cycles: 699937183 heartbeat IPC: 0.343468 cumulative IPC: 0.348345 (Simulation time: 0 hr 13 min 20 sec) 
Heartbeat CPU 0 instructions: 330000000 cycles: 729256054 heartbeat IPC: 0.341077 cumulative IPC: 0.348023 (Simulation time: 0 hr 13 min 49 sec) 
Heartbeat CPU 0 instructions: 340000000 cycles: 759213730 heartbeat IPC: 0.333804 cumulative IPC: 0.347406 (Simulation time: 0 hr 14 min 18 sec) 
Heartbeat CPU 0 instructions: 350000003 cycles: 786673143 heartbeat IPC: 0.364174 cumulative IPC: 0.348047 (Simulation time: 0 hr 14 min 47 sec) 
Heartbeat CPU 0 instructions: 360000000 cycles: 816702323 heartbeat IPC: 0.333009 cumulative IPC: 0.347444 (Simulation time: 0 hr 15 min 16 sec) 
Heartbeat CPU 0 instructions: 370000000 cycles: 846578475 heartbeat IPC: 0.334715 cumulative IPC: 0.346955 (Simulation time: 0 hr 15 min 44 sec) 
Heartbeat CPU 0 instructions: 380000000 cycles: 876664779 heartbeat IPC: 0.332377 cumulative IPC: 0.346412 (Simulation time: 0 hr 16 min 13 sec) 
Heartbeat CPU 0 instructions: 390000001 cycles: 905665730 heartbeat IPC: 0.344816 cumulative IPC: 0.346357 (Simulation time: 0 hr 16 min 41 sec) 
Heartbeat CPU 0 instructions: 400000000 cycles: 935749820 heartbeat IPC: 0.332402 cumulative IPC: 0.345873 (Simulation time: 0 hr 17 min 10 sec) 
Heartbeat CPU 0 instructions: 410000001 cycles: 964144091 heartbeat IPC: 0.352184 cumulative IPC: 0.346073 (Simulation time: 0 hr 17 min 38 sec) 
Heartbeat CPU 0 instructions: 420000000 cycles: 992490868 heartbeat IPC: 0.352774 cumulative IPC: 0.346279 (Simulation time: 0 hr 18 min 6 sec) 
Heartbeat CPU 0 instructions: 430000002 cycles: 1021312196 heartbeat IPC: 0.346965 cumulative IPC: 0.346299 (Simulation time: 0 hr 18 min 34 sec) 
Heartbeat CPU 0 instructions: 440000000 cycles: 1052084845 heartbeat IPC: 0.324964 cumulative IPC: 0.345632 (Simulation time: 0 hr 19 min 2 sec) 
Heartbeat CPU 0 instructions: 450000002 cycles: 1082621011 heartbeat IPC: 0.327481 cumulative IPC: 0.345085 (Simulation time: 0 hr 19 min 29 sec) 
Heartbeat CPU 0 instructions: 460000000 cycles: 1111341058 heartbeat IPC: 0.348189 cumulative IPC: 0.345171 (Simulation time: 0 hr 19 min 57 sec) 
Heartbeat CPU 0 instructions: 470000000 cycles: 1139751892 heartbeat IPC: 0.351978 cumulative IPC: 0.345351 (Simulation time: 0 hr 20 min 24 sec) 
Heartbeat CPU 0 instructions: 480000000 cycles: 1168352167 heartbeat IPC: 0.349647 cumulative IPC: 0.345463 (Simulation time: 0 hr 20 min 52 sec) 
Heartbeat CPU 0 instructions: 490000000 cycles: 1196672564 heartbeat IPC: 0.353102 cumulative IPC: 0.345655 (Simulation time: 0 hr 21 min 19 sec) 
Heartbeat CPU 0 instructions: 500000000 cycles: 1225678837 heartbeat IPC: 0.344753 cumulative IPC: 0.345632 (Simulation time: 0 hr 21 min 46 sec) 
Heartbeat CPU 0 instructions: 510000000 cycles: 1260178672 heartbeat IPC: 0.289856 cumulative IPC: 0.344018 (Simulation time: 0 hr 22 min 17 sec) 
Heartbeat CPU 0 instructions: 520000000 cycles: 1288379867 heartbeat IPC: 0.354595 cumulative IPC: 0.344262 (Simulation time: 0 hr 22 min 45 sec) 
Heartbeat CPU 0 instructions: 530000001 cycles: 1319035554 heartbeat IPC: 0.326204 cumulative IPC: 0.34382 (Simulation time: 0 hr 23 min 14 sec) 
Heartbeat CPU 0 instructions: 540000000 cycles: 1347894865 heartbeat IPC: 0.346509 cumulative IPC: 0.34388 (Simulation time: 0 hr 23 min 42 sec) 
Heartbeat CPU 0 instructions: 550000001 cycles: 1377432094 heartbeat IPC: 0.338556 cumulative IPC: 0.34376 (Simulation time: 0 hr 24 min 12 sec) 
Heartbeat CPU 0 instructions: 560000000 cycles: 1403117269 heartbeat IPC: 0.38933 cumulative IPC: 0.344637 (Simulation time: 0 hr 24 min 39 sec) 
Heartbeat CPU 0 instructions: 570000000 cycles: 1433586511 heartbeat IPC: 0.3282 cumulative IPC: 0.34427 (Simulation time: 0 hr 25 min 8 sec) 
Heartbeat CPU 0 instructions: 580000000 cycles: 1462182381 heartbeat IPC: 0.349701 cumulative IPC: 0.344382 (Simulation time: 0 hr 25 min 37 sec) 
Heartbeat CPU 0 instructions: 590000001 cycles: 1487169543 heartbeat IPC: 0.400206 cumulative IPC: 0.345365 (Simulation time: 0 hr 26 min 3 sec) 
Heartbeat CPU 0 instructions: 600000000 cycles: 1513751090 heartbeat IPC: 0.376201 cumulative IPC: 0.345932 (Simulation time: 0 hr 26 min 31 sec) 
Finished CPU 0 instructions: 500000000 cycles: 1445371635 cumulative IPC: 0.345932 (Simulation time: 0 hr 26 min 31 sec) 

CPU 0 Branch Prediction Accuracy: 86.4311% MPKI: 26.2662
Number of Branches: 96788573 Number of Mispredictions: 13133102
Number of LOAD Instructions: 164682285
Number of LOAD Instructions (ROI): 164682285
Number of STORE Instructions: 78194750
Number of STORE Instructions (ROI): 78194750
Total Destination Memory Operands: 83268534
Total Destination Memory Operands (ROI): 83268534
Total Source Memory Operands: 164712438
Total Source Memory Operands (ROI): 164712438
Number of DEPENDED LOADS: 7052433
Number of DEPENDED LOADS (ROI): 7052433
Number of SQ_ADDED: 83268522
Number of SQ_ADDED (ROI): 83268522
Number of LQ_ADDED: 236796095
Number of LQ_ADDED (ROI): 236796095
Number of Instructions read from trace: 600000066

ChampSim completed all CPUs

Region of Interest Statistics

CPU 0 cumulative IPC: 0.345932 instructions: 500000000 cycles: 1445371635
ITLB TOTAL     ACCESS:  100533403  HIT:  100328957  MISS:     204446
ITLB LOAD      ACCESS:  100533403  HIT:  100328957  MISS:     204446
ITLB RFO       ACCESS:          0  HIT:          0  MISS:          0
ITLB PREFETCH  ACCESS:          0  HIT:          0  MISS:          0
ITLB WRITEBACK ACCESS:          0  HIT:          0  MISS:          0
ITLB PREFETCH  REQUESTED:          0  ISSUED:          0  USEFUL:          0  USELESS:          0
ITLB TOTAL MSHR MERGED:     172423
ITLB LOAD MSHR MERGED:     172423
ITLB RFO MSHR MERGED:          0
ITLB PREFETCH MSHR MERGED:          0
ITLB WRITEBACK MSHR MERGED:          0
ITLB TOTAL ACCESSES:  100705826 HITS:  100328957 MISSES:     376869
ITLB LOAD ACCESSES:  100705826 HITS:  100328957 MISSES:     376869
ITLB RFO ACCESSES:          0 HITS:          0 MISSES:          0
ITLB PREFETCH ACCESSES:          0 HITS:          0 MISSES:          0
ITLB WRITEBACK ACCESSES:          0 HITS:          0 MISSES:          0
ITLB RQ ACCESS:  500000057
ITLB RQ TO_CACHE:  100705826
ITLB RQ MERGED:  399294231
ITLB RQ FORWARD:          0
ITLB WQ ACCESS:          0
ITLB WQ TO_CACHE:          0
ITLB WQ MERGED:          0
ITLB WQ FORWARD:          0
DTLB TOTAL     ACCESS:  165353031  HIT:  164718671  MISS:     634360
DTLB LOAD      ACCESS:  106304085  HIT:  105734115  MISS:     569970
DTLB RFO       ACCESS:   59048946  HIT:   58984556  MISS:      64390
DTLB PREFETCH  ACCESS:          0  HIT:          0  MISS:          0
DTLB WRITEBACK ACCESS:          0  HIT:          0  MISS:          0
DTLB PREFETCH  REQUESTED:          0  ISSUED:          0  USEFUL:          0  USELESS:          0
DTLB TOTAL MSHR MERGED:      99706
DTLB LOAD MSHR MERGED:      59312
DTLB RFO MSHR MERGED:      40394
DTLB PREFETCH MSHR MERGED:          0
DTLB WRITEBACK MSHR MERGED:          0
DTLB TOTAL ACCESSES:  165452737 HITS:  164718671 MISSES:     734066
DTLB LOAD ACCESSES:  106363397 HITS:  105734115 MISSES:     629282
DTLB RFO ACCESSES:   59089340 HITS:   58984556 MISSES:     104784
DTLB PREFETCH ACCESSES:          0 HITS:          0 MISSES:          0
DTLB WRITEBACK ACCESSES:          0 HITS:          0 MISSES:          0
DTLB RQ ACCESS:  200318443
DTLB RQ TO_CACHE:  165452737
DTLB RQ MERGED:   34865706
DTLB RQ FORWARD:          0
DTLB WQ ACCESS:          0
DTLB WQ TO_CACHE:          0
DTLB WQ MERGED:          0
DTLB WQ FORWARD:          0
L1D TOTAL     ACCESS:  281888386  HIT:  273978887  MISS:    7909499
L1D LOAD      ACCESS:  110437673  HIT:  107160183  MISS:    3277490
L1D RFO       ACCESS:   67133715  HIT:   66243770  MISS:     889945
L1D PREFETCH  ACCESS:  104316998  HIT:  100574934  MISS:    3742064
L1D WRITEBACK ACCESS:          0  HIT:          0  MISS:          0
L1D PREFETCH  REQUESTED:  110831293  ISSUED:  109131878  USEFUL:    1662598  USELESS:    2079430
L1D TOTAL MSHR MERGED:    2847238
L1D LOAD MSHR MERGED:     490780
L1D RFO MSHR MERGED:    1851272
L1D PREFETCH MSHR MERGED:     505186
L1D WRITEBACK MSHR MERGED:          0
L1D TOTAL ACCESSES:  284763010 HITS:  274006273 MISSES:   10756737
L1D LOAD ACCESSES:  110832709 HITS:  107161599 MISSES:    3671110
L1D RFO ACCESSES:   68973786 HITS:   66243770 MISSES:    2730016
L1D PREFETCH ACCESSES:  104956515 HITS:  100600904 MISSES:    4355611
L1D WRITEBACK ACCESSES:          0 HITS:          0 MISSES:          0
L1D RQ ACCESS:  130765840
L1D RQ TO_CACHE:  110831296
L1D RQ MERGED:   19933128
L1D RQ FORWARD:          0
L1D WQ ACCESS:   69552603
L1D WQ TO_CACHE:   68973787
L1D WQ MERGED:     578816
L1D WQ FORWARD:      27386
L1I TOTAL     ACCESS:  126579109  HIT:  122340569  MISS:    4238540
L1I LOAD      ACCESS:  126579109  HIT:  122340569  MISS:    4238540
L1I RFO       ACCESS:          0  HIT:          0  MISS:          0
L1I PREFETCH  ACCESS:          0  HIT:          0  MISS:          0
L1I WRITEBACK ACCESS:          0  HIT:          0  MISS:          0
L1I PREFETCH  REQUESTED:          0  ISSUED:          0  USEFUL:          0  USELESS:          0
L1I TOTAL MSHR MERGED:    1836291
L1I LOAD MSHR MERGED:    1836291
L1I RFO MSHR MERGED:          0
L1I PREFETCH MSHR MERGED:          0
L1I WRITEBACK MSHR MERGED:          0
L1I TOTAL ACCESSES:  128415403 HITS:  122340569 MISSES:    6074834
L1I LOAD ACCESSES:  128415403 HITS:  122340569 MISSES:    6074834
L1I RFO ACCESSES:          0 HITS:          0 MISSES:          0
L1I PREFETCH ACCESSES:          0 HITS:          0 MISSES:          0
L1I WRITEBACK ACCESSES:          0 HITS:          0 MISSES:          0
L1I RQ ACCESS:  500000057
L1I RQ TO_CACHE:  128415403
L1I RQ MERGED:  371584654
L1I RQ FORWARD:          0
L1I WQ ACCESS:          0
L1I WQ TO_CACHE:          0
L1I WQ MERGED:          0
L1I WQ FORWARD:          0
L2C TOTAL     ACCESS:   14906265  HIT:   11159728  MISS:    3746537
L2C LOAD      ACCESS:    7418663  HIT:    5098991  MISS:    2319672
L2C RFO       ACCESS:     878645  HIT:     409925  MISS:     468720
L2C PREFETCH  ACCESS:    4569697  HIT:    3628813  MISS:     940884
L2C WRITEBACK ACCESS:    2039260  HIT:    2021999  MISS:      17261
L2C PREFETCH  REQUESTED:     842804  ISSUED:     842804  USEFUL:     203686  USELESS:     736904
L2C TOTAL MSHR MERGED:       6203
L2C LOAD MSHR MERGED:        556
L2C RFO MSHR MERGED:          0
L2C PREFETCH MSHR MERGED:       5647
L2C WRITEBACK MSHR MERGED:          0
L2C TOTAL ACCESSES:   14913338 HITS:   11160175 MISSES:    3753163
L2C LOAD ACCESSES:    7418870 HITS:    5099198 MISSES:    2319672
L2C RFO ACCESSES:     878744 HITS:     410024 MISSES:     468720
L2C PREFETCH ACCESSES:    4576464 HITS:    3628954 MISSES:     947510
L2C WRITEBACK ACCESSES:    2039260 HITS:    2021999 MISSES:      17261
L2C RQ ACCESS:    8297617
L2C RQ TO_CACHE:    8297311
L2C RQ MERGED:          0
L2C RQ FORWARD:          0
L2C WQ ACCESS:    2039260
L2C WQ TO_CACHE:    2039260
L2C WQ MERGED:          0
L2C WQ FORWARD:        447
LLC TOTAL     ACCESS:    4609857  HIT:    3622909  MISS:     986948
LLC LOAD      ACCESS:    2319101  HIT:    1717658  MISS:     601443
LLC RFO       ACCESS:     468711  HIT:     424224  MISS:      44487
LLC PREFETCH  ACCESS:     941745  HIT:     637024  MISS:     304721
LLC WRITEBACK ACCESS:     880300  HIT:     844003  MISS:      36297
LLC PREFETCH  REQUESTED:          0  ISSUED:          0  USEFUL:      30860  USELESS:     272768
LLC TOTAL MSHR MERGED:         96
LLC LOAD MSHR MERGED:         30
LLC RFO MSHR MERGED:          0
LLC PREFETCH MSHR MERGED:         66
LLC WRITEBACK MSHR MERGED:          0
LLC TOTAL ACCESSES:    4609990 HITS:    3622946 MISSES:     987044
LLC LOAD ACCESSES:    2319116 HITS:    1717673 MISSES:     601443
LLC RFO ACCESSES:     468720 HITS:     424233 MISSES:      44487
LLC PREFETCH ACCESSES:     941854 HITS:     637037 MISSES:     304817
LLC WRITEBACK ACCESSES:     880300 HITS:     844003 MISSES:      36297
LLC 0 RQ ACCESS:    2787836
LLC 0 RQ TO_CACHE:    2787812
LLC 0 RQ MERGED:          0
LLC 0 RQ FORWARD:          0
LLC WQ ACCESS:     880300
LLC WQ TO_CACHE:     880300
LLC WQ MERGED:          0
LLC WQ FORWARD:         37
Major fault: 0 Minor fault: 12862
CPU 0 L1D next line prefetcher final stats
CPU 0 L2C PC-based stride prefetcher final stats
All Misses: 1131669
All Hits: 4295194
SD Algo Stats - Switches: 22 SRR-Repls: 512271 BRR-Repls: 152678

DRAM Statistics
 CHANNEL 0
 RQ ROW_BUFFER_HIT:     254093  ROW_BUFFER_MISS:     694491
 DBUS_CONGESTED:     375045
 WQ ROW_BUFFER_HIT:       7571  ROW_BUFFER_MISS:     142844  FULL:          0

 AVG_CONGESTED_CYCLE: 13
LOADS RETIRED: 136549171
INSTR RETIRED: 500000000
