
*** ChampSim Multicore Out-of-Order Simulator ***

Warmup Instructions: 100000000
Simulation Instructions: 500000000
Number of CPUs: 1
LLC sets: 2048
LLC ways: 16
Clean RRIP Policies: 1013230110132301 Dirty RRIP Policies: 2013031120130311 PSEL Width: 10 Track Set: 4294967295 PSEL Mask: 1 Demote Mask: 4340011043400110DS Algo: 0Window size: 0
Off-chip DRAM Size: 4096 MB Channels: 1 Width: 64-bit Data Rate: 1600 MT/s

CPU 0 runs /mnt/beegfs/iconst01/spec2017/Omnetpp.trace.gz
NOT SORTED
TRACE STRING: /mnt/beegfs/iconst01/spec2017/Omnetpp.trace.gz
SORTED
TRACE STRING: /mnt/beegfs/iconst01/spec2017/Omnetpp.trace.gz
INITIAL
TRACE STRING: /mnt/beegfs/iconst01/spec2017/Omnetpp.trace.gz

champsim_seed used: 739

CPU 0 L1D next line prefetcher
CPU 0 L2C IP-based stride prefetcher
Initialize DRRIP state
Assign rand_sets[0]: 454  LLC: 2048
rand_sets[0]: 454
Assign rand_sets[1]: 1662  LLC: 2048
rand_sets[1]: 1662
Assign rand_sets[2]: 1921  LLC: 2048
rand_sets[2]: 1921
Assign rand_sets[3]: 1131  LLC: 2048
rand_sets[3]: 1131
Assign rand_sets[4]: 331  LLC: 2048
rand_sets[4]: 331
Assign rand_sets[5]: 1531  LLC: 2048
rand_sets[5]: 1531
Assign rand_sets[6]: 482  LLC: 2048
rand_sets[6]: 482
Assign rand_sets[7]: 1275  LLC: 2048
rand_sets[7]: 1275
Assign rand_sets[8]: 1876  LLC: 2048
rand_sets[8]: 1876
Assign rand_sets[9]: 2038  LLC: 2048
rand_sets[9]: 2038
Assign rand_sets[10]: 701  LLC: 2048
rand_sets[10]: 701
Assign rand_sets[11]: 479  LLC: 2048
rand_sets[11]: 479
Assign rand_sets[12]: 892  LLC: 2048
rand_sets[12]: 892
Assign rand_sets[13]: 1820  LLC: 2048
rand_sets[13]: 1820
Assign rand_sets[14]: 1505  LLC: 2048
rand_sets[14]: 1505
Assign rand_sets[15]: 1159  LLC: 2048
rand_sets[15]: 1159
Assign rand_sets[16]: 513  LLC: 2048
rand_sets[16]: 513
Assign rand_sets[17]: 703  LLC: 2048
rand_sets[17]: 703
Assign rand_sets[18]: 561  LLC: 2048
rand_sets[18]: 561
Assign rand_sets[19]: 990  LLC: 2048
rand_sets[19]: 990
Assign rand_sets[20]: 342  LLC: 2048
rand_sets[20]: 342
Assign rand_sets[21]: 882  LLC: 2048
rand_sets[21]: 882
Assign rand_sets[22]: 15  LLC: 2048
rand_sets[22]: 15
Assign rand_sets[23]: 71  LLC: 2048
rand_sets[23]: 71
Assign rand_sets[24]: 1127  LLC: 2048
rand_sets[24]: 1127
Assign rand_sets[25]: 1382  LLC: 2048
rand_sets[25]: 1382
Assign rand_sets[26]: 647  LLC: 2048
rand_sets[26]: 647
Assign rand_sets[27]: 857  LLC: 2048
rand_sets[27]: 857
Assign rand_sets[28]: 1450  LLC: 2048
rand_sets[28]: 1450
Assign rand_sets[29]: 1160  LLC: 2048
rand_sets[29]: 1160
Assign rand_sets[30]: 1852  LLC: 2048
rand_sets[30]: 1852
Assign rand_sets[31]: 1881  LLC: 2048
rand_sets[31]: 1881
Assign rand_sets[32]: 1770  LLC: 2048
rand_sets[32]: 1770
Assign rand_sets[33]: 1622  LLC: 2048
rand_sets[33]: 1622
Assign rand_sets[34]: 275  LLC: 2048
rand_sets[34]: 275
Assign rand_sets[35]: 635  LLC: 2048
rand_sets[35]: 635
Assign rand_sets[36]: 466  LLC: 2048
rand_sets[36]: 466
Assign rand_sets[37]: 1413  LLC: 2048
rand_sets[37]: 1413
Assign rand_sets[38]: 417  LLC: 2048
rand_sets[38]: 417
Assign rand_sets[39]: 472  LLC: 2048
rand_sets[39]: 472
Assign rand_sets[40]: 1340  LLC: 2048
rand_sets[40]: 1340
Assign rand_sets[41]: 852  LLC: 2048
rand_sets[41]: 852
Assign rand_sets[42]: 1365  LLC: 2048
rand_sets[42]: 1365
Assign rand_sets[43]: 47  LLC: 2048
rand_sets[43]: 47
Assign rand_sets[44]: 823  LLC: 2048
rand_sets[44]: 823
Assign rand_sets[45]: 686  LLC: 2048
rand_sets[45]: 686
Assign rand_sets[46]: 1637  LLC: 2048
rand_sets[46]: 1637
Assign rand_sets[47]: 1115  LLC: 2048
rand_sets[47]: 1115
Assign rand_sets[48]: 986  LLC: 2048
rand_sets[48]: 986
Assign rand_sets[49]: 258  LLC: 2048
rand_sets[49]: 258
Assign rand_sets[50]: 633  LLC: 2048
rand_sets[50]: 633
Assign rand_sets[51]: 920  LLC: 2048
rand_sets[51]: 920
Assign rand_sets[52]: 204  LLC: 2048
rand_sets[52]: 204
Assign rand_sets[53]: 227  LLC: 2048
rand_sets[53]: 227
Assign rand_sets[54]: 1818  LLC: 2048
rand_sets[54]: 1818
Assign rand_sets[55]: 886  LLC: 2048
rand_sets[55]: 886
Assign rand_sets[56]: 1422  LLC: 2048
rand_sets[56]: 1422
Assign rand_sets[57]: 607  LLC: 2048
rand_sets[57]: 607
Assign rand_sets[58]: 217  LLC: 2048
rand_sets[58]: 217
Assign rand_sets[59]: 1945  LLC: 2048
rand_sets[59]: 1945
Assign rand_sets[60]: 143  LLC: 2048
rand_sets[60]: 143
Assign rand_sets[61]: 1311  LLC: 2048
rand_sets[61]: 1311
Assign rand_sets[62]: 319  LLC: 2048
rand_sets[62]: 319
Assign rand_sets[63]: 1846  LLC: 2048
rand_sets[63]: 1846
 CLEAN-RRIP-POLICY-1: 1-0-1-3-2-3-0-1- CLEAN-RRIP-POLICY-2: 1-0-1-3-2-3-0-1-
 DIRTY-RRIP-POLICY-1: 2-0-1-3-0-3-1-1- DIRTY-RRIP-POLICY-2: 2-0-1-3-0-3-1-1-
 PSEL width: 10
Heartbeat CPU 0 instructions: 10000000 cycles: 7320345 heartbeat IPC: 1.36606 cumulative IPC: 1.36606 (Simulation time: 0 hr 0 min 19 sec) 
Heartbeat CPU 0 instructions: 20000000 cycles: 14624611 heartbeat IPC: 1.36906 cumulative IPC: 1.36756 (Simulation time: 0 hr 0 min 38 sec) 
Heartbeat CPU 0 instructions: 30000003 cycles: 21926430 heartbeat IPC: 1.36952 cumulative IPC: 1.36821 (Simulation time: 0 hr 0 min 57 sec) 
Heartbeat CPU 0 instructions: 40000000 cycles: 29215059 heartbeat IPC: 1.372 cumulative IPC: 1.36916 (Simulation time: 0 hr 1 min 16 sec) 
Heartbeat CPU 0 instructions: 50000000 cycles: 36492090 heartbeat IPC: 1.37419 cumulative IPC: 1.37016 (Simulation time: 0 hr 1 min 35 sec) 
Heartbeat CPU 0 instructions: 60000000 cycles: 43772544 heartbeat IPC: 1.37354 cumulative IPC: 1.37072 (Simulation time: 0 hr 1 min 54 sec) 
Heartbeat CPU 0 instructions: 70000001 cycles: 51058460 heartbeat IPC: 1.37251 cumulative IPC: 1.37098 (Simulation time: 0 hr 2 min 13 sec) 
Heartbeat CPU 0 instructions: 80000000 cycles: 58334016 heartbeat IPC: 1.37447 cumulative IPC: 1.37141 (Simulation time: 0 hr 2 min 32 sec) 
Heartbeat CPU 0 instructions: 90000000 cycles: 65640829 heartbeat IPC: 1.36859 cumulative IPC: 1.3711 (Simulation time: 0 hr 2 min 51 sec) 
Heartbeat CPU 0 instructions: 100000000 cycles: 72933486 heartbeat IPC: 1.37124 cumulative IPC: 1.37111 (Simulation time: 0 hr 3 min 11 sec) 

Warmup complete CPU 0 instructions: 100000002 cycles: 72933487 (Simulation time: 0 hr 3 min 11 sec) 

Heartbeat CPU 0 instructions: 110000002 cycles: 113521038 heartbeat IPC: 0.246381 cumulative IPC: 0.246381 (Simulation time: 0 hr 3 min 48 sec) 
Heartbeat CPU 0 instructions: 120000000 cycles: 153803978 heartbeat IPC: 0.248244 cumulative IPC: 0.247309 (Simulation time: 0 hr 4 min 26 sec) 
Heartbeat CPU 0 instructions: 130000002 cycles: 194285242 heartbeat IPC: 0.247028 cumulative IPC: 0.247215 (Simulation time: 0 hr 5 min 3 sec) 
Heartbeat CPU 0 instructions: 140000000 cycles: 234917141 heartbeat IPC: 0.246112 cumulative IPC: 0.246938 (Simulation time: 0 hr 5 min 41 sec) 
Heartbeat CPU 0 instructions: 150000002 cycles: 275086204 heartbeat IPC: 0.248948 cumulative IPC: 0.247338 (Simulation time: 0 hr 6 min 18 sec) 
Heartbeat CPU 0 instructions: 160000000 cycles: 315284810 heartbeat IPC: 0.248765 cumulative IPC: 0.247574 (Simulation time: 0 hr 6 min 56 sec) 
Heartbeat CPU 0 instructions: 170000001 cycles: 354741133 heartbeat IPC: 0.253445 cumulative IPC: 0.248396 (Simulation time: 0 hr 7 min 33 sec) 
Heartbeat CPU 0 instructions: 180000000 cycles: 394959276 heartbeat IPC: 0.248644 cumulative IPC: 0.248427 (Simulation time: 0 hr 8 min 10 sec) 
Heartbeat CPU 0 instructions: 190000002 cycles: 435164454 heartbeat IPC: 0.248724 cumulative IPC: 0.24846 (Simulation time: 0 hr 8 min 47 sec) 
Heartbeat CPU 0 instructions: 200000000 cycles: 476491927 heartbeat IPC: 0.24197 cumulative IPC: 0.247796 (Simulation time: 0 hr 9 min 26 sec) 
Heartbeat CPU 0 instructions: 210000003 cycles: 516690905 heartbeat IPC: 0.248763 cumulative IPC: 0.247883 (Simulation time: 0 hr 10 min 4 sec) 
Heartbeat CPU 0 instructions: 220000000 cycles: 557133507 heartbeat IPC: 0.247264 cumulative IPC: 0.247831 (Simulation time: 0 hr 10 min 42 sec) 
Heartbeat CPU 0 instructions: 230000000 cycles: 597577219 heartbeat IPC: 0.247257 cumulative IPC: 0.247787 (Simulation time: 0 hr 11 min 20 sec) 
Heartbeat CPU 0 instructions: 240000000 cycles: 637743056 heartbeat IPC: 0.248968 cumulative IPC: 0.247871 (Simulation time: 0 hr 11 min 57 sec) 
Heartbeat CPU 0 instructions: 250000000 cycles: 677946595 heartbeat IPC: 0.248734 cumulative IPC: 0.247929 (Simulation time: 0 hr 12 min 34 sec) 
Heartbeat CPU 0 instructions: 260000000 cycles: 718244055 heartbeat IPC: 0.248155 cumulative IPC: 0.247943 (Simulation time: 0 hr 13 min 12 sec) 
Heartbeat CPU 0 instructions: 270000000 cycles: 758608414 heartbeat IPC: 0.247743 cumulative IPC: 0.247931 (Simulation time: 0 hr 13 min 49 sec) 
Heartbeat CPU 0 instructions: 280000000 cycles: 799333786 heartbeat IPC: 0.245547 cumulative IPC: 0.247797 (Simulation time: 0 hr 14 min 27 sec) 
Heartbeat CPU 0 instructions: 290000001 cycles: 839251596 heartbeat IPC: 0.250515 cumulative IPC: 0.247939 (Simulation time: 0 hr 15 min 4 sec) 
Heartbeat CPU 0 instructions: 300000000 cycles: 879858428 heartbeat IPC: 0.246264 cumulative IPC: 0.247855 (Simulation time: 0 hr 15 min 41 sec) 
Heartbeat CPU 0 instructions: 310000000 cycles: 920419925 heartbeat IPC: 0.246539 cumulative IPC: 0.247792 (Simulation time: 0 hr 16 min 18 sec) 
Heartbeat CPU 0 instructions: 320000000 cycles: 960677992 heartbeat IPC: 0.248397 cumulative IPC: 0.247819 (Simulation time: 0 hr 16 min 56 sec) 
Heartbeat CPU 0 instructions: 330000000 cycles: 1000951052 heartbeat IPC: 0.248305 cumulative IPC: 0.24784 (Simulation time: 0 hr 17 min 33 sec) 
Heartbeat CPU 0 instructions: 340000000 cycles: 1041812922 heartbeat IPC: 0.244727 cumulative IPC: 0.247709 (Simulation time: 0 hr 18 min 11 sec) 
Heartbeat CPU 0 instructions: 350000001 cycles: 1082185901 heartbeat IPC: 0.24769 cumulative IPC: 0.247708 (Simulation time: 0 hr 18 min 48 sec) 
Heartbeat CPU 0 instructions: 360000000 cycles: 1122827126 heartbeat IPC: 0.246056 cumulative IPC: 0.247644 (Simulation time: 0 hr 19 min 25 sec) 
Heartbeat CPU 0 instructions: 370000000 cycles: 1162538538 heartbeat IPC: 0.251817 cumulative IPC: 0.247796 (Simulation time: 0 hr 20 min 2 sec) 
Heartbeat CPU 0 instructions: 380000000 cycles: 1203139453 heartbeat IPC: 0.2463 cumulative IPC: 0.247742 (Simulation time: 0 hr 20 min 39 sec) 
Heartbeat CPU 0 instructions: 390000001 cycles: 1243293923 heartbeat IPC: 0.249038 cumulative IPC: 0.247787 (Simulation time: 0 hr 21 min 16 sec) 
Heartbeat CPU 0 instructions: 400000000 cycles: 1283555960 heartbeat IPC: 0.248373 cumulative IPC: 0.247806 (Simulation time: 0 hr 21 min 54 sec) 
Heartbeat CPU 0 instructions: 410000000 cycles: 1323667497 heartbeat IPC: 0.249305 cumulative IPC: 0.247854 (Simulation time: 0 hr 22 min 31 sec) 
Heartbeat CPU 0 instructions: 420000000 cycles: 1363816679 heartbeat IPC: 0.249071 cumulative IPC: 0.247892 (Simulation time: 0 hr 23 min 7 sec) 
Heartbeat CPU 0 instructions: 430000000 cycles: 1404011520 heartbeat IPC: 0.248788 cumulative IPC: 0.247919 (Simulation time: 0 hr 23 min 45 sec) 
Heartbeat CPU 0 instructions: 440000000 cycles: 1444255214 heartbeat IPC: 0.248486 cumulative IPC: 0.247936 (Simulation time: 0 hr 24 min 21 sec) 
Heartbeat CPU 0 instructions: 450000002 cycles: 1484341815 heartbeat IPC: 0.24946 cumulative IPC: 0.247979 (Simulation time: 0 hr 24 min 58 sec) 
Heartbeat CPU 0 instructions: 460000000 cycles: 1523869398 heartbeat IPC: 0.252988 cumulative IPC: 0.248116 (Simulation time: 0 hr 25 min 35 sec) 
Heartbeat CPU 0 instructions: 470000000 cycles: 1564250641 heartbeat IPC: 0.24764 cumulative IPC: 0.248103 (Simulation time: 0 hr 26 min 12 sec) 
Heartbeat CPU 0 instructions: 480000000 cycles: 1604271725 heartbeat IPC: 0.249868 cumulative IPC: 0.248149 (Simulation time: 0 hr 26 min 50 sec) 
Heartbeat CPU 0 instructions: 490000001 cycles: 1644437570 heartbeat IPC: 0.248968 cumulative IPC: 0.24817 (Simulation time: 0 hr 27 min 27 sec) 
Heartbeat CPU 0 instructions: 500000000 cycles: 1684815274 heartbeat IPC: 0.247661 cumulative IPC: 0.248157 (Simulation time: 0 hr 28 min 4 sec) 
Heartbeat CPU 0 instructions: 510000000 cycles: 1724666018 heartbeat IPC: 0.250936 cumulative IPC: 0.248224 (Simulation time: 0 hr 28 min 40 sec) 
Heartbeat CPU 0 instructions: 520000000 cycles: 1765280718 heartbeat IPC: 0.246216 cumulative IPC: 0.248176 (Simulation time: 0 hr 29 min 15 sec) 
Heartbeat CPU 0 instructions: 530000000 cycles: 1805347811 heartbeat IPC: 0.249581 cumulative IPC: 0.248209 (Simulation time: 0 hr 29 min 50 sec) 
Heartbeat CPU 0 instructions: 540000000 cycles: 1845173243 heartbeat IPC: 0.251096 cumulative IPC: 0.248273 (Simulation time: 0 hr 30 min 25 sec) 
Heartbeat CPU 0 instructions: 550000001 cycles: 1885685599 heartbeat IPC: 0.246838 cumulative IPC: 0.248241 (Simulation time: 0 hr 31 min 0 sec) 
Heartbeat CPU 0 instructions: 560000000 cycles: 1926299529 heartbeat IPC: 0.246221 cumulative IPC: 0.248197 (Simulation time: 0 hr 31 min 34 sec) 
Heartbeat CPU 0 instructions: 570000003 cycles: 1966879896 heartbeat IPC: 0.246425 cumulative IPC: 0.248159 (Simulation time: 0 hr 32 min 9 sec) 
Heartbeat CPU 0 instructions: 580000000 cycles: 2007307950 heartbeat IPC: 0.247353 cumulative IPC: 0.248142 (Simulation time: 0 hr 32 min 44 sec) 
Heartbeat CPU 0 instructions: 590000001 cycles: 2048136453 heartbeat IPC: 0.244927 cumulative IPC: 0.248076 (Simulation time: 0 hr 33 min 20 sec) 
Heartbeat CPU 0 instructions: 600000000 cycles: 2088715092 heartbeat IPC: 0.246435 cumulative IPC: 0.248043 (Simulation time: 0 hr 33 min 54 sec) 
Finished CPU 0 instructions: 500000000 cycles: 2015781613 cumulative IPC: 0.248043 (Simulation time: 0 hr 33 min 54 sec) 

CPU 0 Branch Prediction Accuracy: 96.2429% MPKI: 5.85335
Number of Branches: 77897976 Number of Mispredictions: 2926674
Number of LOAD Instructions: 193081861
Number of LOAD Instructions (ROI): 193081861
Number of STORE Instructions: 97310749
Number of STORE Instructions (ROI): 97310749
Total Destination Memory Operands: 106368027
Total Destination Memory Operands (ROI): 106368027
Total Source Memory Operands: 193081861
Total Source Memory Operands (ROI): 193081861
Number of DEPENDED LOADS: 6450849
Number of DEPENDED LOADS (ROI): 6450849
Number of SQ_ADDED: 106367982
Number of SQ_ADDED (ROI): 106367982
Number of LQ_ADDED: 427231697
Number of LQ_ADDED (ROI): 427231697
Number of Instructions read from trace: 600000256

ChampSim completed all CPUs

Region of Interest Statistics

CPU 0 cumulative IPC: 0.248043 instructions: 500000000 cycles: 2015781613
ITLB TOTAL     ACCESS:  151237070  HIT:  151221239  MISS:      15831
ITLB LOAD      ACCESS:  151237070  HIT:  151221239  MISS:      15831
ITLB RFO       ACCESS:          0  HIT:          0  MISS:          0
ITLB PREFETCH  ACCESS:          0  HIT:          0  MISS:          0
ITLB WRITEBACK ACCESS:          0  HIT:          0  MISS:          0
ITLB PREFETCH  REQUESTED:          0  ISSUED:          0  USEFUL:          0  USELESS:          0
ITLB TOTAL MSHR MERGED:      17772
ITLB LOAD MSHR MERGED:      17772
ITLB RFO MSHR MERGED:          0
ITLB PREFETCH MSHR MERGED:          0
ITLB WRITEBACK MSHR MERGED:          0
ITLB TOTAL ACCESSES:  151254842 HITS:  151221239 MISSES:      33603
ITLB LOAD ACCESSES:  151254842 HITS:  151221239 MISSES:      33603
ITLB RFO ACCESSES:          0 HITS:          0 MISSES:          0
ITLB PREFETCH ACCESSES:          0 HITS:          0 MISSES:          0
ITLB WRITEBACK ACCESSES:          0 HITS:          0 MISSES:          0
ITLB RQ ACCESS:  500000242
ITLB RQ TO_CACHE:  151254842
ITLB RQ MERGED:  348745400
ITLB RQ FORWARD:          0
ITLB WQ ACCESS:          0
ITLB WQ TO_CACHE:          0
ITLB WQ MERGED:          0
ITLB WQ FORWARD:          0
DTLB TOTAL     ACCESS:  199554538  HIT:  194175501  MISS:    5379037
DTLB LOAD      ACCESS:  123125759  HIT:  118107209  MISS:    5018550
DTLB RFO       ACCESS:   76428779  HIT:   76068292  MISS:     360487
DTLB PREFETCH  ACCESS:          0  HIT:          0  MISS:          0
DTLB WRITEBACK ACCESS:          0  HIT:          0  MISS:          0
DTLB PREFETCH  REQUESTED:          0  ISSUED:          0  USEFUL:          0  USELESS:          0
DTLB TOTAL MSHR MERGED:     916407
DTLB LOAD MSHR MERGED:     807081
DTLB RFO MSHR MERGED:     109326
DTLB PREFETCH MSHR MERGED:          0
DTLB WRITEBACK MSHR MERGED:          0
DTLB TOTAL ACCESSES:  200470945 HITS:  194175501 MISSES:    6295444
DTLB LOAD ACCESSES:  123932840 HITS:  118107209 MISSES:    5825631
DTLB RFO ACCESSES:   76538105 HITS:   76068292 MISSES:     469813
DTLB PREFETCH ACCESSES:          0 HITS:          0 MISSES:          0
DTLB WRITEBACK ACCESSES:          0 HITS:          0 MISSES:          0
DTLB RQ ACCESS:  243874764
DTLB RQ TO_CACHE:  200470945
DTLB RQ MERGED:   43403819
DTLB RQ FORWARD:          0
DTLB WQ ACCESS:          0
DTLB WQ TO_CACHE:          0
DTLB WQ MERGED:          0
DTLB WQ FORWARD:          0
L1D TOTAL     ACCESS:  335573928  HIT:  317477945  MISS:   18095983
L1D LOAD      ACCESS:  127682227  HIT:  118739384  MISS:    8942843
L1D RFO       ACCESS:   87074386  HIT:   86287392  MISS:     786994
L1D PREFETCH  ACCESS:  120817315  HIT:  112451169  MISS:    8366146
L1D WRITEBACK ACCESS:          0  HIT:          0  MISS:          0
L1D PREFETCH  REQUESTED:  128468129  ISSUED:  126870144  USEFUL:    1741845  USELESS:    6624313
L1D TOTAL MSHR MERGED:    3864409
L1D LOAD MSHR MERGED:     949618
L1D RFO MSHR MERGED:    1074335
L1D PREFETCH MSHR MERGED:    1840456
L1D WRITEBACK MSHR MERGED:          0
L1D TOTAL ACCESSES:  339524051 HITS:  317563659 MISSES:   21960392
L1D LOAD ACCESSES:  128468554 HITS:  118739809 MISSES:    9728745
L1D RFO ACCESSES:   88082251 HITS:   86287392 MISSES:    1794859
L1D PREFETCH ACCESSES:  122973246 HITS:  112536458 MISSES:   10436788
L1D WRITEBACK ACCESSES:          0 HITS:          0 MISSES:          0
L1D RQ ACCESS:  155243379
L1D RQ TO_CACHE:  128468129
L1D RQ MERGED:   26774825
L1D RQ FORWARD:          0
L1D WQ ACCESS:   88631385
L1D WQ TO_CACHE:   88082250
L1D WQ MERGED:     549135
L1D WQ FORWARD:      85714
L1I TOTAL     ACCESS:  175542122  HIT:  175275660  MISS:     266462
L1I LOAD      ACCESS:  175542122  HIT:  175275660  MISS:     266462
L1I RFO       ACCESS:          0  HIT:          0  MISS:          0
L1I PREFETCH  ACCESS:          0  HIT:          0  MISS:          0
L1I WRITEBACK ACCESS:          0  HIT:          0  MISS:          0
L1I PREFETCH  REQUESTED:          0  ISSUED:          0  USEFUL:          0  USELESS:          0
L1I TOTAL MSHR MERGED:     213299
L1I LOAD MSHR MERGED:     213299
L1I RFO MSHR MERGED:          0
L1I PREFETCH MSHR MERGED:          0
L1I WRITEBACK MSHR MERGED:          0
L1I TOTAL ACCESSES:  175755421 HITS:  175275660 MISSES:     479761
L1I LOAD ACCESSES:  175755421 HITS:  175275660 MISSES:     479761
L1I RFO ACCESSES:          0 HITS:          0 MISSES:          0
L1I PREFETCH ACCESSES:          0 HITS:          0 MISSES:          0
L1I WRITEBACK ACCESSES:          0 HITS:          0 MISSES:          0
L1I RQ ACCESS:  500000242
L1I RQ TO_CACHE:  175755421
L1I RQ MERGED:  324244821
L1I RQ FORWARD:          0
L1I WQ ACCESS:          0
L1I WQ TO_CACHE:          0
L1I WQ MERGED:          0
L1I WQ FORWARD:          0
L2C TOTAL     ACCESS:   23738519  HIT:   12112893  MISS:   11625626
L2C LOAD      ACCESS:    9044416  HIT:    3564900  MISS:    5479516
L2C RFO       ACCESS:     720467  HIT:     130286  MISS:     590181
L2C PREFETCH  ACCESS:    8613328  HIT:    3086083  MISS:    5527245
L2C WRITEBACK ACCESS:    5360308  HIT:    5331624  MISS:      28684
L2C PREFETCH  REQUESTED:      18039  ISSUED:      18039  USEFUL:     323029  USELESS:    5204391
L2C TOTAL MSHR MERGED:         24
L2C LOAD MSHR MERGED:          2
L2C RFO MSHR MERGED:          0
L2C PREFETCH MSHR MERGED:         22
L2C WRITEBACK MSHR MERGED:          0
L2C TOTAL ACCESSES:   23740332 HITS:   12114676 MISSES:   11625656
L2C LOAD ACCESSES:    9045589 HITS:    3566073 MISSES:    5479516
L2C RFO ACCESSES:     720524 HITS:     130343 MISSES:     590181
L2C PREFETCH ACCESSES:    8613911 HITS:    3086636 MISSES:    5527275
L2C WRITEBACK ACCESSES:    5360308 HITS:    5331624 MISSES:      28684
L2C RQ ACCESS:    9766113
L2C RQ TO_CACHE:    9764883
L2C RQ MERGED:          0
L2C RQ FORWARD:          0
L2C WQ ACCESS:    5360308
L2C WQ TO_CACHE:    5360308
L2C WQ MERGED:          0
L2C WQ FORWARD:       1783
LLC TOTAL     ACCESS:   15448577  HIT:    6378270  MISS:    9070307
LLC LOAD      ACCESS:    5479485  HIT:    2007637  MISS:    3471848
LLC RFO       ACCESS:     590179  HIT:     290123  MISS:     300056
LLC PREFETCH  ACCESS:    5527238  HIT:    1008119  MISS:    4519119
LLC WRITEBACK ACCESS:    3851675  HIT:    3072391  MISS:     779284
LLC PREFETCH  REQUESTED:          0  ISSUED:          0  USEFUL:      22980  USELESS:    4496538
LLC TOTAL MSHR MERGED:          0
LLC LOAD MSHR MERGED:          0
LLC RFO MSHR MERGED:          0
LLC PREFETCH MSHR MERGED:          0
LLC WRITEBACK MSHR MERGED:          0
LLC TOTAL ACCESSES:   15448623 HITS:    6378316 MISSES:    9070307
LLC LOAD ACCESSES:    5479514 HITS:    2007666 MISSES:    3471848
LLC RFO ACCESSES:     590181 HITS:     290125 MISSES:     300056
LLC PREFETCH ACCESSES:    5527253 HITS:    1008134 MISSES:    4519119
LLC WRITEBACK ACCESSES:    3851675 HITS:    3072391 MISSES:     779284
LLC 0 RQ ACCESS:    6069695
LLC 0 RQ TO_CACHE:    6069664
LLC 0 RQ MERGED:          0
LLC 0 RQ FORWARD:          0
LLC WQ ACCESS:    3851675
LLC WQ TO_CACHE:    3851675
LLC WQ MERGED:          0
LLC WQ FORWARD:         46
Major fault: 0 Minor fault: 44814
CPU 0 L1D next line prefetcher final stats
CPU 0 L2C PC-based stride prefetcher final stats
All Misses: 10976581
All Hits: 7644452
SD Algo Stats - Switches: 0 SRR-Repls: 3963564 BRR-Repls: 0

DRAM Statistics
 CHANNEL 0
 RQ ROW_BUFFER_HIT:    1437300  ROW_BUFFER_MISS:    6852081
 DBUS_CONGESTED:    5596976
 WQ ROW_BUFFER_HIT:     182704  ROW_BUFFER_MISS:    2142499  FULL:          0

 AVG_CONGESTED_CYCLE: 13
LOADS RETIRED: 160808997
INSTR RETIRED: 500000000
