
*** ChampSim Multicore Out-of-Order Simulator ***

Warmup Instructions: 100000000
Simulation Instructions: 500000000
Number of CPUs: 1
LLC sets: 2048
LLC ways: 16
Clean RRIP Policies: 1311032313110323 Dirty RRIP Policies: 301032303010323 PSEL Width: 10 Track Set: 4294967295 PSEL Mask: 1 Demote Mask: 4222121342221213DS Algo: 0Window size: 0
Off-chip DRAM Size: 4096 MB Channels: 1 Width: 64-bit Data Rate: 1600 MT/s

CPU 0 runs /mnt/beegfs/iconst01/spec2017/Fotonik3d.trace.gz
NOT SORTED
TRACE STRING: /mnt/beegfs/iconst01/spec2017/Fotonik3d.trace.gz
SORTED
TRACE STRING: /mnt/beegfs/iconst01/spec2017/Fotonik3d.trace.gz
INITIAL
TRACE STRING: /mnt/beegfs/iconst01/spec2017/Fotonik3d.trace.gz

champsim_seed used: 881

CPU 0 L1D next line prefetcher
CPU 0 L2C IP-based stride prefetcher
Initialize DRRIP state
Assign rand_sets[0]: 454  LLC: 2048
rand_sets[0]: 454
Assign rand_sets[1]: 1662  LLC: 2048
rand_sets[1]: 1662
Assign rand_sets[2]: 1921  LLC: 2048
rand_sets[2]: 1921
Assign rand_sets[3]: 1131  LLC: 2048
rand_sets[3]: 1131
Assign rand_sets[4]: 331  LLC: 2048
rand_sets[4]: 331
Assign rand_sets[5]: 1531  LLC: 2048
rand_sets[5]: 1531
Assign rand_sets[6]: 482  LLC: 2048
rand_sets[6]: 482
Assign rand_sets[7]: 1275  LLC: 2048
rand_sets[7]: 1275
Assign rand_sets[8]: 1876  LLC: 2048
rand_sets[8]: 1876
Assign rand_sets[9]: 2038  LLC: 2048
rand_sets[9]: 2038
Assign rand_sets[10]: 701  LLC: 2048
rand_sets[10]: 701
Assign rand_sets[11]: 479  LLC: 2048
rand_sets[11]: 479
Assign rand_sets[12]: 892  LLC: 2048
rand_sets[12]: 892
Assign rand_sets[13]: 1820  LLC: 2048
rand_sets[13]: 1820
Assign rand_sets[14]: 1505  LLC: 2048
rand_sets[14]: 1505
Assign rand_sets[15]: 1159  LLC: 2048
rand_sets[15]: 1159
Assign rand_sets[16]: 513  LLC: 2048
rand_sets[16]: 513
Assign rand_sets[17]: 703  LLC: 2048
rand_sets[17]: 703
Assign rand_sets[18]: 561  LLC: 2048
rand_sets[18]: 561
Assign rand_sets[19]: 990  LLC: 2048
rand_sets[19]: 990
Assign rand_sets[20]: 342  LLC: 2048
rand_sets[20]: 342
Assign rand_sets[21]: 882  LLC: 2048
rand_sets[21]: 882
Assign rand_sets[22]: 15  LLC: 2048
rand_sets[22]: 15
Assign rand_sets[23]: 71  LLC: 2048
rand_sets[23]: 71
Assign rand_sets[24]: 1127  LLC: 2048
rand_sets[24]: 1127
Assign rand_sets[25]: 1382  LLC: 2048
rand_sets[25]: 1382
Assign rand_sets[26]: 647  LLC: 2048
rand_sets[26]: 647
Assign rand_sets[27]: 857  LLC: 2048
rand_sets[27]: 857
Assign rand_sets[28]: 1450  LLC: 2048
rand_sets[28]: 1450
Assign rand_sets[29]: 1160  LLC: 2048
rand_sets[29]: 1160
Assign rand_sets[30]: 1852  LLC: 2048
rand_sets[30]: 1852
Assign rand_sets[31]: 1881  LLC: 2048
rand_sets[31]: 1881
Assign rand_sets[32]: 1770  LLC: 2048
rand_sets[32]: 1770
Assign rand_sets[33]: 1622  LLC: 2048
rand_sets[33]: 1622
Assign rand_sets[34]: 275  LLC: 2048
rand_sets[34]: 275
Assign rand_sets[35]: 635  LLC: 2048
rand_sets[35]: 635
Assign rand_sets[36]: 466  LLC: 2048
rand_sets[36]: 466
Assign rand_sets[37]: 1413  LLC: 2048
rand_sets[37]: 1413
Assign rand_sets[38]: 417  LLC: 2048
rand_sets[38]: 417
Assign rand_sets[39]: 472  LLC: 2048
rand_sets[39]: 472
Assign rand_sets[40]: 1340  LLC: 2048
rand_sets[40]: 1340
Assign rand_sets[41]: 852  LLC: 2048
rand_sets[41]: 852
Assign rand_sets[42]: 1365  LLC: 2048
rand_sets[42]: 1365
Assign rand_sets[43]: 47  LLC: 2048
rand_sets[43]: 47
Assign rand_sets[44]: 823  LLC: 2048
rand_sets[44]: 823
Assign rand_sets[45]: 686  LLC: 2048
rand_sets[45]: 686
Assign rand_sets[46]: 1637  LLC: 2048
rand_sets[46]: 1637
Assign rand_sets[47]: 1115  LLC: 2048
rand_sets[47]: 1115
Assign rand_sets[48]: 986  LLC: 2048
rand_sets[48]: 986
Assign rand_sets[49]: 258  LLC: 2048
rand_sets[49]: 258
Assign rand_sets[50]: 633  LLC: 2048
rand_sets[50]: 633
Assign rand_sets[51]: 920  LLC: 2048
rand_sets[51]: 920
Assign rand_sets[52]: 204  LLC: 2048
rand_sets[52]: 204
Assign rand_sets[53]: 227  LLC: 2048
rand_sets[53]: 227
Assign rand_sets[54]: 1818  LLC: 2048
rand_sets[54]: 1818
Assign rand_sets[55]: 886  LLC: 2048
rand_sets[55]: 886
Assign rand_sets[56]: 1422  LLC: 2048
rand_sets[56]: 1422
Assign rand_sets[57]: 607  LLC: 2048
rand_sets[57]: 607
Assign rand_sets[58]: 217  LLC: 2048
rand_sets[58]: 217
Assign rand_sets[59]: 1945  LLC: 2048
rand_sets[59]: 1945
Assign rand_sets[60]: 143  LLC: 2048
rand_sets[60]: 143
Assign rand_sets[61]: 1311  LLC: 2048
rand_sets[61]: 1311
Assign rand_sets[62]: 319  LLC: 2048
rand_sets[62]: 319
Assign rand_sets[63]: 1846  LLC: 2048
rand_sets[63]: 1846
 CLEAN-RRIP-POLICY-1: 1-3-1-1-0-3-2-3- CLEAN-RRIP-POLICY-2: 1-3-1-1-0-3-2-3-
 DIRTY-RRIP-POLICY-1: 0-3-0-1-0-3-2-3- DIRTY-RRIP-POLICY-2: 0-3-0-1-0-3-2-3-
 PSEL width: 10
Heartbeat CPU 0 instructions: 10000002 cycles: 7306878 heartbeat IPC: 1.36857 cumulative IPC: 1.36857 (Simulation time: 0 hr 0 min 25 sec) 
Heartbeat CPU 0 instructions: 20000000 cycles: 14613984 heartbeat IPC: 1.36853 cumulative IPC: 1.36855 (Simulation time: 0 hr 0 min 49 sec) 
Heartbeat CPU 0 instructions: 30000001 cycles: 21920959 heartbeat IPC: 1.36856 cumulative IPC: 1.36855 (Simulation time: 0 hr 1 min 13 sec) 
Heartbeat CPU 0 instructions: 40000000 cycles: 29227804 heartbeat IPC: 1.36858 cumulative IPC: 1.36856 (Simulation time: 0 hr 1 min 38 sec) 
Heartbeat CPU 0 instructions: 50000001 cycles: 36534594 heartbeat IPC: 1.36859 cumulative IPC: 1.36857 (Simulation time: 0 hr 2 min 2 sec) 
Heartbeat CPU 0 instructions: 60000000 cycles: 43841676 heartbeat IPC: 1.36854 cumulative IPC: 1.36856 (Simulation time: 0 hr 2 min 26 sec) 
Heartbeat CPU 0 instructions: 70000002 cycles: 51148520 heartbeat IPC: 1.36858 cumulative IPC: 1.36856 (Simulation time: 0 hr 2 min 51 sec) 
Heartbeat CPU 0 instructions: 80000000 cycles: 58455324 heartbeat IPC: 1.36859 cumulative IPC: 1.36857 (Simulation time: 0 hr 3 min 15 sec) 
Heartbeat CPU 0 instructions: 90000003 cycles: 65765984 heartbeat IPC: 1.36787 cumulative IPC: 1.36849 (Simulation time: 0 hr 3 min 39 sec) 
Heartbeat CPU 0 instructions: 100000000 cycles: 73076678 heartbeat IPC: 1.36786 cumulative IPC: 1.36843 (Simulation time: 0 hr 4 min 4 sec) 

Warmup complete CPU 0 instructions: 100000002 cycles: 73076690 (Simulation time: 0 hr 4 min 4 sec) 

Heartbeat CPU 0 instructions: 110000001 cycles: 85606779 heartbeat IPC: 0.798078 cumulative IPC: 0.798079 (Simulation time: 0 hr 4 min 33 sec) 
Heartbeat CPU 0 instructions: 120000000 cycles: 98080592 heartbeat IPC: 0.801679 cumulative IPC: 0.799875 (Simulation time: 0 hr 5 min 2 sec) 
Heartbeat CPU 0 instructions: 130000000 cycles: 110610885 heartbeat IPC: 0.798066 cumulative IPC: 0.799271 (Simulation time: 0 hr 5 min 31 sec) 
Heartbeat CPU 0 instructions: 140000000 cycles: 123136343 heartbeat IPC: 0.798374 cumulative IPC: 0.799047 (Simulation time: 0 hr 6 min 0 sec) 
Heartbeat CPU 0 instructions: 150000000 cycles: 135595342 heartbeat IPC: 0.802633 cumulative IPC: 0.799761 (Simulation time: 0 hr 6 min 29 sec) 
Heartbeat CPU 0 instructions: 160000000 cycles: 148087226 heartbeat IPC: 0.80052 cumulative IPC: 0.799888 (Simulation time: 0 hr 6 min 58 sec) 
Heartbeat CPU 0 instructions: 170000001 cycles: 160579016 heartbeat IPC: 0.800526 cumulative IPC: 0.799979 (Simulation time: 0 hr 7 min 27 sec) 
Heartbeat CPU 0 instructions: 180000000 cycles: 173092704 heartbeat IPC: 0.799125 cumulative IPC: 0.799872 (Simulation time: 0 hr 7 min 56 sec) 
Heartbeat CPU 0 instructions: 190000000 cycles: 185633754 heartbeat IPC: 0.797381 cumulative IPC: 0.799594 (Simulation time: 0 hr 8 min 26 sec) 
Heartbeat CPU 0 instructions: 200000000 cycles: 198122094 heartbeat IPC: 0.800747 cumulative IPC: 0.799709 (Simulation time: 0 hr 8 min 55 sec) 
Heartbeat CPU 0 instructions: 210000002 cycles: 210668493 heartbeat IPC: 0.797042 cumulative IPC: 0.799466 (Simulation time: 0 hr 9 min 24 sec) 
Heartbeat CPU 0 instructions: 220000000 cycles: 223217581 heartbeat IPC: 0.79687 cumulative IPC: 0.799249 (Simulation time: 0 hr 9 min 53 sec) 
Heartbeat CPU 0 instructions: 230000002 cycles: 235718132 heartbeat IPC: 0.799965 cumulative IPC: 0.799304 (Simulation time: 0 hr 10 min 22 sec) 
Heartbeat CPU 0 instructions: 240000000 cycles: 248883514 heartbeat IPC: 0.759568 cumulative IPC: 0.796329 (Simulation time: 0 hr 10 min 51 sec) 
Heartbeat CPU 0 instructions: 250000002 cycles: 267172238 heartbeat IPC: 0.546785 cumulative IPC: 0.772815 (Simulation time: 0 hr 11 min 24 sec) 
Heartbeat CPU 0 instructions: 260000000 cycles: 285365771 heartbeat IPC: 0.549646 cumulative IPC: 0.753689 (Simulation time: 0 hr 11 min 56 sec) 
Heartbeat CPU 0 instructions: 270000000 cycles: 303652240 heartbeat IPC: 0.546852 cumulative IPC: 0.737285 (Simulation time: 0 hr 12 min 29 sec) 
Heartbeat CPU 0 instructions: 280000000 cycles: 321899803 heartbeat IPC: 0.548018 cumulative IPC: 0.723405 (Simulation time: 0 hr 13 min 1 sec) 
Heartbeat CPU 0 instructions: 290000001 cycles: 352217438 heartbeat IPC: 0.329841 cumulative IPC: 0.68066 (Simulation time: 0 hr 13 min 42 sec) 
Heartbeat CPU 0 instructions: 300000000 cycles: 392272424 heartbeat IPC: 0.249657 cumulative IPC: 0.626575 (Simulation time: 0 hr 14 min 29 sec) 
Heartbeat CPU 0 instructions: 310000000 cycles: 409947185 heartbeat IPC: 0.565778 cumulative IPC: 0.623385 (Simulation time: 0 hr 15 min 1 sec) 
Heartbeat CPU 0 instructions: 320000000 cycles: 427468195 heartbeat IPC: 0.570743 cumulative IPC: 0.620782 (Simulation time: 0 hr 15 min 33 sec) 
Heartbeat CPU 0 instructions: 330000003 cycles: 445160438 heartbeat IPC: 0.56522 cumulative IPC: 0.61814 (Simulation time: 0 hr 16 min 5 sec) 
Heartbeat CPU 0 instructions: 340000000 cycles: 462789268 heartbeat IPC: 0.567252 cumulative IPC: 0.615838 (Simulation time: 0 hr 16 min 36 sec) 
Heartbeat CPU 0 instructions: 350000001 cycles: 478468194 heartbeat IPC: 0.637799 cumulative IPC: 0.616688 (Simulation time: 0 hr 17 min 6 sec) 
Heartbeat CPU 0 instructions: 360000000 cycles: 490447451 heartbeat IPC: 0.834776 cumulative IPC: 0.622947 (Simulation time: 0 hr 17 min 33 sec) 
Heartbeat CPU 0 instructions: 370000002 cycles: 502198790 heartbeat IPC: 0.850967 cumulative IPC: 0.629192 (Simulation time: 0 hr 18 min 1 sec) 
Heartbeat CPU 0 instructions: 380000000 cycles: 514134485 heartbeat IPC: 0.837823 cumulative IPC: 0.634837 (Simulation time: 0 hr 18 min 28 sec) 
Heartbeat CPU 0 instructions: 390000003 cycles: 527507558 heartbeat IPC: 0.747772 cumulative IPC: 0.638161 (Simulation time: 0 hr 18 min 56 sec) 
Heartbeat CPU 0 instructions: 400000000 cycles: 539856149 heartbeat IPC: 0.809809 cumulative IPC: 0.642702 (Simulation time: 0 hr 19 min 24 sec) 
Heartbeat CPU 0 instructions: 410000001 cycles: 551887244 heartbeat IPC: 0.83118 cumulative IPC: 0.647438 (Simulation time: 0 hr 19 min 52 sec) 
Heartbeat CPU 0 instructions: 420000000 cycles: 564713091 heartbeat IPC: 0.779676 cumulative IPC: 0.650888 (Simulation time: 0 hr 20 min 20 sec) 
Heartbeat CPU 0 instructions: 430000003 cycles: 583197065 heartbeat IPC: 0.541009 cumulative IPC: 0.646906 (Simulation time: 0 hr 20 min 45 sec) 
Heartbeat CPU 0 instructions: 440000000 cycles: 601708804 heartbeat IPC: 0.540198 cumulative IPC: 0.643169 (Simulation time: 0 hr 21 min 10 sec) 
Heartbeat CPU 0 instructions: 450000003 cycles: 620234780 heartbeat IPC: 0.539783 cumulative IPC: 0.639669 (Simulation time: 0 hr 21 min 35 sec) 
Heartbeat CPU 0 instructions: 460000000 cycles: 638751094 heartbeat IPC: 0.540064 cumulative IPC: 0.636409 (Simulation time: 0 hr 22 min 0 sec) 
Heartbeat CPU 0 instructions: 470000003 cycles: 657284739 heartbeat IPC: 0.539559 cumulative IPC: 0.633336 (Simulation time: 0 hr 22 min 25 sec) 
Heartbeat CPU 0 instructions: 480000000 cycles: 675821591 heartbeat IPC: 0.539466 cumulative IPC: 0.630449 (Simulation time: 0 hr 22 min 51 sec) 
Heartbeat CPU 0 instructions: 490000003 cycles: 694366967 heartbeat IPC: 0.539218 cumulative IPC: 0.627726 (Simulation time: 0 hr 23 min 16 sec) 
Heartbeat CPU 0 instructions: 500000000 cycles: 712879779 heartbeat IPC: 0.540166 cumulative IPC: 0.625192 (Simulation time: 0 hr 23 min 41 sec) 
Heartbeat CPU 0 instructions: 510000003 cycles: 731395172 heartbeat IPC: 0.540091 cumulative IPC: 0.622799 (Simulation time: 0 hr 24 min 6 sec) 
Heartbeat CPU 0 instructions: 520000000 cycles: 749911967 heartbeat IPC: 0.54005 cumulative IPC: 0.620535 (Simulation time: 0 hr 24 min 31 sec) 
Heartbeat CPU 0 instructions: 530000001 cycles: 768452214 heartbeat IPC: 0.539367 cumulative IPC: 0.618371 (Simulation time: 0 hr 24 min 57 sec) 
Heartbeat CPU 0 instructions: 540000000 cycles: 786907328 heartbeat IPC: 0.541855 cumulative IPC: 0.616393 (Simulation time: 0 hr 25 min 22 sec) 
Heartbeat CPU 0 instructions: 550000001 cycles: 805382549 heartbeat IPC: 0.541266 cumulative IPC: 0.614497 (Simulation time: 0 hr 25 min 47 sec) 
Heartbeat CPU 0 instructions: 560000000 cycles: 823842686 heartbeat IPC: 0.541708 cumulative IPC: 0.612708 (Simulation time: 0 hr 26 min 12 sec) 
Heartbeat CPU 0 instructions: 570000001 cycles: 842308689 heartbeat IPC: 0.541536 cumulative IPC: 0.610999 (Simulation time: 0 hr 26 min 38 sec) 
Heartbeat CPU 0 instructions: 580000000 cycles: 860734352 heartbeat IPC: 0.542721 cumulative IPC: 0.609402 (Simulation time: 0 hr 27 min 3 sec) 
Heartbeat CPU 0 instructions: 590000001 cycles: 879199257 heartbeat IPC: 0.541568 cumulative IPC: 0.607848 (Simulation time: 0 hr 27 min 28 sec) 
Heartbeat CPU 0 instructions: 600000000 cycles: 897652513 heartbeat IPC: 0.54191 cumulative IPC: 0.606372 (Simulation time: 0 hr 27 min 53 sec) 
Finished CPU 0 instructions: 500000002 cycles: 824575837 cumulative IPC: 0.606372 (Simulation time: 0 hr 27 min 53 sec) 

CPU 0 Branch Prediction Accuracy: 99.5931% MPKI: 0.08288
Number of Branches: 10184133 Number of Mispredictions: 41440
Number of LOAD Instructions: 261155957
Number of LOAD Instructions (ROI): 261155957
Number of STORE Instructions: 57884062
Number of STORE Instructions (ROI): 57884062
Total Destination Memory Operands: 83293336
Total Destination Memory Operands (ROI): 83293336
Total Source Memory Operands: 261155957
Total Source Memory Operands (ROI): 261155957
Number of DEPENDED LOADS: 22256295
Number of DEPENDED LOADS (ROI): 22256295
Number of SQ_ADDED: 83293300
Number of SQ_ADDED (ROI): 83293300
Number of LQ_ADDED: 1781096394
Number of LQ_ADDED (ROI): 1781096394
Number of Instructions read from trace: 600000257

ChampSim completed all CPUs

Region of Interest Statistics

CPU 0 cumulative IPC: 0.606372 instructions: 500000002 cycles: 824575837
ITLB TOTAL     ACCESS:   95007791  HIT:   95007753  MISS:         38
ITLB LOAD      ACCESS:   95007791  HIT:   95007753  MISS:         38
ITLB RFO       ACCESS:          0  HIT:          0  MISS:          0
ITLB PREFETCH  ACCESS:          0  HIT:          0  MISS:          0
ITLB WRITEBACK ACCESS:          0  HIT:          0  MISS:          0
ITLB PREFETCH  REQUESTED:          0  ISSUED:          0  USEFUL:          0  USELESS:          0
ITLB TOTAL MSHR MERGED:         93
ITLB LOAD MSHR MERGED:         93
ITLB RFO MSHR MERGED:          0
ITLB PREFETCH MSHR MERGED:          0
ITLB WRITEBACK MSHR MERGED:          0
ITLB TOTAL ACCESSES:   95007884 HITS:   95007753 MISSES:        131
ITLB LOAD ACCESSES:   95007884 HITS:   95007753 MISSES:        131
ITLB RFO ACCESSES:          0 HITS:          0 MISSES:          0
ITLB PREFETCH ACCESSES:          0 HITS:          0 MISSES:          0
ITLB WRITEBACK ACCESSES:          0 HITS:          0 MISSES:          0
ITLB RQ ACCESS:  500000001
ITLB RQ TO_CACHE:   95007885
ITLB RQ MERGED:  404992116
ITLB RQ FORWARD:          0
ITLB WQ ACCESS:          0
ITLB WQ TO_CACHE:          0
ITLB WQ MERGED:          0
ITLB WQ FORWARD:          0
DTLB TOTAL     ACCESS:  149267852  HIT:  148670892  MISS:     596960
DTLB LOAD      ACCESS:  107392916  HIT:  106795967  MISS:     596949
DTLB RFO       ACCESS:   41874936  HIT:   41874925  MISS:         11
DTLB PREFETCH  ACCESS:          0  HIT:          0  MISS:          0
DTLB WRITEBACK ACCESS:          0  HIT:          0  MISS:          0
DTLB PREFETCH  REQUESTED:          0  ISSUED:          0  USEFUL:          0  USELESS:          0
DTLB TOTAL MSHR MERGED:     133724
DTLB LOAD MSHR MERGED:     133724
DTLB RFO MSHR MERGED:          0
DTLB PREFETCH MSHR MERGED:          0
DTLB WRITEBACK MSHR MERGED:          0
DTLB TOTAL ACCESSES:  149401576 HITS:  148670892 MISSES:     730684
DTLB LOAD ACCESSES:  107526640 HITS:  106795967 MISSES:     730673
DTLB RFO ACCESSES:   41874936 HITS:   41874925 MISSES:         11
DTLB PREFETCH ACCESSES:          0 HITS:          0 MISSES:          0
DTLB WRITEBACK ACCESSES:          0 HITS:          0 MISSES:          0
DTLB RQ ACCESS:  259759602
DTLB RQ TO_CACHE:  149401576
DTLB RQ MERGED:  110358026
DTLB RQ FORWARD:          0
DTLB WQ ACCESS:          0
DTLB WQ TO_CACHE:          0
DTLB WQ MERGED:          0
DTLB WQ FORWARD:          0
L1D TOTAL     ACCESS:  261696816  HIT:  246190863  MISS:   15505953
L1D LOAD      ACCESS:  118110664  HIT:  112666323  MISS:    5444341
L1D RFO       ACCESS:   68946685  HIT:   68932277  MISS:      14408
L1D PREFETCH  ACCESS:   74639467  HIT:   64592263  MISS:   10047204
L1D WRITEBACK ACCESS:          0  HIT:          0  MISS:          0
L1D PREFETCH  REQUESTED:  120682767  ISSUED:  119482561  USEFUL:    8068242  USELESS:    1978984
L1D TOTAL MSHR MERGED:   16408985
L1D LOAD MSHR MERGED:    4973673
L1D RFO MSHR MERGED:      21886
L1D PREFETCH MSHR MERGED:   11413426
L1D WRITEBACK MSHR MERGED:          0
L1D TOTAL ACCESSES:  278215894 HITS:  246300956 MISSES:   31914938
L1D LOAD ACCESSES:  120690293 HITS:  112673849 MISSES:    8016444
L1D RFO ACCESSES:   68968570 HITS:   68932277 MISSES:      36293
L1D PREFETCH ACCESSES:   88557031 HITS:   64694830 MISSES:   23862201
L1D WRITEBACK ACCESSES:          0 HITS:          0 MISSES:          0
L1D RQ ACCESS:  190685286
L1D RQ TO_CACHE:  120682767
L1D RQ MERGED:   69994993
L1D RQ FORWARD:          0
L1D WQ ACCESS:   69074336
L1D WQ TO_CACHE:   68968572
L1D WQ MERGED:     105764
L1D WQ FORWARD:     110093
L1I TOTAL     ACCESS:  121871075  HIT:  121870002  MISS:       1073
L1I LOAD      ACCESS:  121871075  HIT:  121870002  MISS:       1073
L1I RFO       ACCESS:          0  HIT:          0  MISS:          0
L1I PREFETCH  ACCESS:          0  HIT:          0  MISS:          0
L1I WRITEBACK ACCESS:          0  HIT:          0  MISS:          0
L1I PREFETCH  REQUESTED:          0  ISSUED:          0  USEFUL:          0  USELESS:          0
L1I TOTAL MSHR MERGED:       1094
L1I LOAD MSHR MERGED:       1094
L1I RFO MSHR MERGED:          0
L1I PREFETCH MSHR MERGED:          0
L1I WRITEBACK MSHR MERGED:          0
L1I TOTAL ACCESSES:  121872169 HITS:  121870002 MISSES:       2167
L1I LOAD ACCESSES:  121872169 HITS:  121870002 MISSES:       2167
L1I RFO ACCESSES:          0 HITS:          0 MISSES:          0
L1I PREFETCH ACCESSES:          0 HITS:          0 MISSES:          0
L1I WRITEBACK ACCESSES:          0 HITS:          0 MISSES:          0
L1I RQ ACCESS:  500000000
L1I RQ TO_CACHE:  121872169
L1I RQ MERGED:  378127831
L1I RQ FORWARD:          0
L1I WQ ACCESS:          0
L1I WQ TO_CACHE:          0
L1I WQ MERGED:          0
L1I WQ FORWARD:          0
L2C TOTAL     ACCESS:   22477678  HIT:    9051058  MISS:   13426620
L2C LOAD      ACCESS:    3043811  HIT:     358096  MISS:    2685715
L2C RFO       ACCESS:      14407  HIT:      13990  MISS:        417
L2C PREFETCH  ACCESS:   12789512  HIT:    2050815  MISS:   10738697
L2C WRITEBACK ACCESS:    6629948  HIT:    6628157  MISS:       1791
L2C PREFETCH  REQUESTED:     532490  ISSUED:     532490  USEFUL:     141769  USELESS:   10597722
L2C TOTAL MSHR MERGED:      47767
L2C LOAD MSHR MERGED:      17461
L2C RFO MSHR MERGED:          0
L2C PREFETCH MSHR MERGED:      30306
L2C WRITEBACK MSHR MERGED:          0
L2C TOTAL ACCESSES:   22639532 HITS:    9051098 MISSES:   13588434
L2C LOAD ACCESSES:    3043844 HITS:     358129 MISSES:    2685715
L2C RFO ACCESSES:      14407 HITS:      13990 MISSES:        417
L2C PREFETCH ACCESSES:   12951333 HITS:    2050822 MISSES:   10900511
L2C WRITEBACK ACCESSES:    6629948 HITS:    6628157 MISSES:       1791
L2C RQ ACCESS:    3058251
L2C RQ TO_CACHE:    3058218
L2C RQ MERGED:          0
L2C RQ FORWARD:          0
L2C WQ ACCESS:    6629948
L2C WQ TO_CACHE:    6629948
L2C WQ MERGED:          0
L2C WQ FORWARD:         40
LLC TOTAL     ACCESS:   20113876  HIT:    4393631  MISS:   15720245
LLC LOAD      ACCESS:    2668254  HIT:      61025  MISS:    2607229
LLC RFO       ACCESS:        417  HIT:          7  MISS:        410
LLC PREFETCH  ACCESS:   10853932  HIT:     266798  MISS:   10587134
LLC WRITEBACK ACCESS:    6591273  HIT:    4065801  MISS:    2525472
LLC PREFETCH  REQUESTED:          0  ISSUED:          0  USEFUL:      53580  USELESS:   10535936
LLC TOTAL MSHR MERGED:      15175
LLC LOAD MSHR MERGED:       8188
LLC RFO MSHR MERGED:          0
LLC PREFETCH MSHR MERGED:       6987
LLC WRITEBACK MSHR MERGED:          0
LLC TOTAL ACCESSES:   20129052 HITS:    4393631 MISSES:   15735421
LLC LOAD ACCESSES:    2668254 HITS:      61025 MISSES:    2607229
LLC RFO ACCESSES:        417 HITS:          7 MISSES:        410
LLC PREFETCH ACCESSES:   10869108 HITS:     266798 MISSES:   10602310
LLC WRITEBACK ACCESSES:    6591273 HITS:    4065801 MISSES:    2525472
LLC 0 RQ ACCESS:    2668671
LLC 0 RQ TO_CACHE:    2668671
LLC 0 RQ MERGED:          0
LLC 0 RQ FORWARD:          0
LLC WQ ACCESS:    6591274
LLC WQ TO_CACHE:    6591274
LLC WQ MERGED:          0
LLC WQ FORWARD:          0
Major fault: 0 Minor fault: 183991
CPU 0 L1D next line prefetcher final stats
CPU 0 L2C PC-based stride prefetcher final stats
All Misses: 18221430
All Hits: 4823489
SD Algo Stats - Switches: 328 SRR-Repls: 1606421 BRR-Repls: 1058258

DRAM Statistics
 CHANNEL 0
 RQ ROW_BUFFER_HIT:    7359237  ROW_BUFFER_MISS:    5835532
 DBUS_CONGESTED:   11635907
 WQ ROW_BUFFER_HIT:    1551233  ROW_BUFFER_MISS:    5031906  FULL:          0

 AVG_CONGESTED_CYCLE: 13
LOADS RETIRED: 204440772
INSTR RETIRED: 500000000
