
*** ChampSim Multicore Out-of-Order Simulator ***

Warmup Instructions: 100000000
Simulation Instructions: 500000000
Number of CPUs: 1
LLC sets: 2048
LLC ways: 16
Clean RRIP Policies: 1213220112132201 Dirty RRIP Policies: 2213021122130211 PSEL Width: 10 Track Set: 4294967295 PSEL Mask: 1 Demote Mask: 3340011033400110DS Algo: 0Window size: 0
Off-chip DRAM Size: 4096 MB Channels: 1 Width: 64-bit Data Rate: 1600 MT/s

CPU 0 runs /mnt/beegfs/iconst01/spec2017/Mcf.trace.gz
NOT SORTED
TRACE STRING: /mnt/beegfs/iconst01/spec2017/Mcf.trace.gz
SORTED
TRACE STRING: /mnt/beegfs/iconst01/spec2017/Mcf.trace.gz
INITIAL
TRACE STRING: /mnt/beegfs/iconst01/spec2017/Mcf.trace.gz

champsim_seed used: 278

CPU 0 L1D next line prefetcher
CPU 0 L2C IP-based stride prefetcher
Initialize DRRIP state
Assign rand_sets[0]: 454  LLC: 2048
rand_sets[0]: 454
Assign rand_sets[1]: 1662  LLC: 2048
rand_sets[1]: 1662
Assign rand_sets[2]: 1921  LLC: 2048
rand_sets[2]: 1921
Assign rand_sets[3]: 1131  LLC: 2048
rand_sets[3]: 1131
Assign rand_sets[4]: 331  LLC: 2048
rand_sets[4]: 331
Assign rand_sets[5]: 1531  LLC: 2048
rand_sets[5]: 1531
Assign rand_sets[6]: 482  LLC: 2048
rand_sets[6]: 482
Assign rand_sets[7]: 1275  LLC: 2048
rand_sets[7]: 1275
Assign rand_sets[8]: 1876  LLC: 2048
rand_sets[8]: 1876
Assign rand_sets[9]: 2038  LLC: 2048
rand_sets[9]: 2038
Assign rand_sets[10]: 701  LLC: 2048
rand_sets[10]: 701
Assign rand_sets[11]: 479  LLC: 2048
rand_sets[11]: 479
Assign rand_sets[12]: 892  LLC: 2048
rand_sets[12]: 892
Assign rand_sets[13]: 1820  LLC: 2048
rand_sets[13]: 1820
Assign rand_sets[14]: 1505  LLC: 2048
rand_sets[14]: 1505
Assign rand_sets[15]: 1159  LLC: 2048
rand_sets[15]: 1159
Assign rand_sets[16]: 513  LLC: 2048
rand_sets[16]: 513
Assign rand_sets[17]: 703  LLC: 2048
rand_sets[17]: 703
Assign rand_sets[18]: 561  LLC: 2048
rand_sets[18]: 561
Assign rand_sets[19]: 990  LLC: 2048
rand_sets[19]: 990
Assign rand_sets[20]: 342  LLC: 2048
rand_sets[20]: 342
Assign rand_sets[21]: 882  LLC: 2048
rand_sets[21]: 882
Assign rand_sets[22]: 15  LLC: 2048
rand_sets[22]: 15
Assign rand_sets[23]: 71  LLC: 2048
rand_sets[23]: 71
Assign rand_sets[24]: 1127  LLC: 2048
rand_sets[24]: 1127
Assign rand_sets[25]: 1382  LLC: 2048
rand_sets[25]: 1382
Assign rand_sets[26]: 647  LLC: 2048
rand_sets[26]: 647
Assign rand_sets[27]: 857  LLC: 2048
rand_sets[27]: 857
Assign rand_sets[28]: 1450  LLC: 2048
rand_sets[28]: 1450
Assign rand_sets[29]: 1160  LLC: 2048
rand_sets[29]: 1160
Assign rand_sets[30]: 1852  LLC: 2048
rand_sets[30]: 1852
Assign rand_sets[31]: 1881  LLC: 2048
rand_sets[31]: 1881
Assign rand_sets[32]: 1770  LLC: 2048
rand_sets[32]: 1770
Assign rand_sets[33]: 1622  LLC: 2048
rand_sets[33]: 1622
Assign rand_sets[34]: 275  LLC: 2048
rand_sets[34]: 275
Assign rand_sets[35]: 635  LLC: 2048
rand_sets[35]: 635
Assign rand_sets[36]: 466  LLC: 2048
rand_sets[36]: 466
Assign rand_sets[37]: 1413  LLC: 2048
rand_sets[37]: 1413
Assign rand_sets[38]: 417  LLC: 2048
rand_sets[38]: 417
Assign rand_sets[39]: 472  LLC: 2048
rand_sets[39]: 472
Assign rand_sets[40]: 1340  LLC: 2048
rand_sets[40]: 1340
Assign rand_sets[41]: 852  LLC: 2048
rand_sets[41]: 852
Assign rand_sets[42]: 1365  LLC: 2048
rand_sets[42]: 1365
Assign rand_sets[43]: 47  LLC: 2048
rand_sets[43]: 47
Assign rand_sets[44]: 823  LLC: 2048
rand_sets[44]: 823
Assign rand_sets[45]: 686  LLC: 2048
rand_sets[45]: 686
Assign rand_sets[46]: 1637  LLC: 2048
rand_sets[46]: 1637
Assign rand_sets[47]: 1115  LLC: 2048
rand_sets[47]: 1115
Assign rand_sets[48]: 986  LLC: 2048
rand_sets[48]: 986
Assign rand_sets[49]: 258  LLC: 2048
rand_sets[49]: 258
Assign rand_sets[50]: 633  LLC: 2048
rand_sets[50]: 633
Assign rand_sets[51]: 920  LLC: 2048
rand_sets[51]: 920
Assign rand_sets[52]: 204  LLC: 2048
rand_sets[52]: 204
Assign rand_sets[53]: 227  LLC: 2048
rand_sets[53]: 227
Assign rand_sets[54]: 1818  LLC: 2048
rand_sets[54]: 1818
Assign rand_sets[55]: 886  LLC: 2048
rand_sets[55]: 886
Assign rand_sets[56]: 1422  LLC: 2048
rand_sets[56]: 1422
Assign rand_sets[57]: 607  LLC: 2048
rand_sets[57]: 607
Assign rand_sets[58]: 217  LLC: 2048
rand_sets[58]: 217
Assign rand_sets[59]: 1945  LLC: 2048
rand_sets[59]: 1945
Assign rand_sets[60]: 143  LLC: 2048
rand_sets[60]: 143
Assign rand_sets[61]: 1311  LLC: 2048
rand_sets[61]: 1311
Assign rand_sets[62]: 319  LLC: 2048
rand_sets[62]: 319
Assign rand_sets[63]: 1846  LLC: 2048
rand_sets[63]: 1846
 CLEAN-RRIP-POLICY-1: 1-2-1-3-2-2-0-1- CLEAN-RRIP-POLICY-2: 1-2-1-3-2-2-0-1-
 DIRTY-RRIP-POLICY-1: 2-2-1-3-0-2-1-1- DIRTY-RRIP-POLICY-2: 2-2-1-3-0-2-1-1-
 PSEL width: 10
Heartbeat CPU 0 instructions: 10000002 cycles: 6248502 heartbeat IPC: 1.60038 cumulative IPC: 1.60038 (Simulation time: 0 hr 0 min 13 sec) 
Heartbeat CPU 0 instructions: 20000000 cycles: 12469253 heartbeat IPC: 1.60752 cumulative IPC: 1.60395 (Simulation time: 0 hr 0 min 26 sec) 
Heartbeat CPU 0 instructions: 30000000 cycles: 18679523 heartbeat IPC: 1.61024 cumulative IPC: 1.60604 (Simulation time: 0 hr 0 min 39 sec) 
Heartbeat CPU 0 instructions: 40000000 cycles: 24890091 heartbeat IPC: 1.61016 cumulative IPC: 1.60707 (Simulation time: 0 hr 0 min 52 sec) 
Heartbeat CPU 0 instructions: 50000003 cycles: 31102492 heartbeat IPC: 1.60968 cumulative IPC: 1.60759 (Simulation time: 0 hr 1 min 4 sec) 
Heartbeat CPU 0 instructions: 60000000 cycles: 37298559 heartbeat IPC: 1.61393 cumulative IPC: 1.60864 (Simulation time: 0 hr 1 min 17 sec) 
Heartbeat CPU 0 instructions: 70000003 cycles: 43516902 heartbeat IPC: 1.60815 cumulative IPC: 1.60857 (Simulation time: 0 hr 1 min 30 sec) 
Heartbeat CPU 0 instructions: 80000000 cycles: 49747316 heartbeat IPC: 1.60503 cumulative IPC: 1.60813 (Simulation time: 0 hr 1 min 43 sec) 
Heartbeat CPU 0 instructions: 90000000 cycles: 55976216 heartbeat IPC: 1.60542 cumulative IPC: 1.60783 (Simulation time: 0 hr 1 min 56 sec) 
Heartbeat CPU 0 instructions: 100000000 cycles: 62195208 heartbeat IPC: 1.60798 cumulative IPC: 1.60784 (Simulation time: 0 hr 2 min 9 sec) 

Warmup complete CPU 0 instructions: 100000001 cycles: 62195209 (Simulation time: 0 hr 2 min 9 sec) 

Heartbeat CPU 0 instructions: 110000000 cycles: 86877978 heartbeat IPC: 0.405141 cumulative IPC: 0.405141 (Simulation time: 0 hr 2 min 34 sec) 
Heartbeat CPU 0 instructions: 120000000 cycles: 111646930 heartbeat IPC: 0.403731 cumulative IPC: 0.404435 (Simulation time: 0 hr 2 min 58 sec) 
Heartbeat CPU 0 instructions: 130000000 cycles: 136497556 heartbeat IPC: 0.402404 cumulative IPC: 0.403756 (Simulation time: 0 hr 3 min 23 sec) 
Heartbeat CPU 0 instructions: 140000000 cycles: 161296517 heartbeat IPC: 0.403243 cumulative IPC: 0.403627 (Simulation time: 0 hr 3 min 48 sec) 
Heartbeat CPU 0 instructions: 150000003 cycles: 185992216 heartbeat IPC: 0.404929 cumulative IPC: 0.403887 (Simulation time: 0 hr 4 min 13 sec) 
Heartbeat CPU 0 instructions: 160000000 cycles: 210968411 heartbeat IPC: 0.400381 cumulative IPC: 0.403298 (Simulation time: 0 hr 4 min 38 sec) 
Heartbeat CPU 0 instructions: 170000001 cycles: 235813049 heartbeat IPC: 0.402501 cumulative IPC: 0.403184 (Simulation time: 0 hr 5 min 2 sec) 
Heartbeat CPU 0 instructions: 180000000 cycles: 260640290 heartbeat IPC: 0.402783 cumulative IPC: 0.403134 (Simulation time: 0 hr 5 min 27 sec) 
Heartbeat CPU 0 instructions: 190000003 cycles: 285429846 heartbeat IPC: 0.403396 cumulative IPC: 0.403163 (Simulation time: 0 hr 5 min 52 sec) 
Heartbeat CPU 0 instructions: 200000000 cycles: 310264701 heartbeat IPC: 0.40266 cumulative IPC: 0.403113 (Simulation time: 0 hr 6 min 17 sec) 
Heartbeat CPU 0 instructions: 210000003 cycles: 335157162 heartbeat IPC: 0.401728 cumulative IPC: 0.402987 (Simulation time: 0 hr 6 min 42 sec) 
Heartbeat CPU 0 instructions: 220000000 cycles: 360257042 heartbeat IPC: 0.398408 cumulative IPC: 0.402601 (Simulation time: 0 hr 7 min 7 sec) 
Heartbeat CPU 0 instructions: 230000002 cycles: 385004940 heartbeat IPC: 0.404075 cumulative IPC: 0.402714 (Simulation time: 0 hr 7 min 32 sec) 
Heartbeat CPU 0 instructions: 240000000 cycles: 410052700 heartbeat IPC: 0.399237 cumulative IPC: 0.402464 (Simulation time: 0 hr 7 min 57 sec) 
Heartbeat CPU 0 instructions: 250000000 cycles: 434926404 heartbeat IPC: 0.402031 cumulative IPC: 0.402435 (Simulation time: 0 hr 8 min 22 sec) 
Heartbeat CPU 0 instructions: 260000000 cycles: 459771681 heartbeat IPC: 0.402491 cumulative IPC: 0.402438 (Simulation time: 0 hr 8 min 47 sec) 
Heartbeat CPU 0 instructions: 270000001 cycles: 484702478 heartbeat IPC: 0.40111 cumulative IPC: 0.40236 (Simulation time: 0 hr 9 min 12 sec) 
Heartbeat CPU 0 instructions: 280000000 cycles: 509563947 heartbeat IPC: 0.402229 cumulative IPC: 0.402353 (Simulation time: 0 hr 9 min 37 sec) 
Heartbeat CPU 0 instructions: 290000001 cycles: 534496872 heartbeat IPC: 0.401076 cumulative IPC: 0.402285 (Simulation time: 0 hr 10 min 2 sec) 
Heartbeat CPU 0 instructions: 300000000 cycles: 559606057 heartbeat IPC: 0.398261 cumulative IPC: 0.402082 (Simulation time: 0 hr 10 min 27 sec) 
Heartbeat CPU 0 instructions: 310000003 cycles: 584354671 heartbeat IPC: 0.404063 cumulative IPC: 0.402176 (Simulation time: 0 hr 10 min 52 sec) 
Heartbeat CPU 0 instructions: 320000000 cycles: 609479028 heartbeat IPC: 0.39802 cumulative IPC: 0.401985 (Simulation time: 0 hr 11 min 17 sec) 
Heartbeat CPU 0 instructions: 330000003 cycles: 634330830 heartbeat IPC: 0.402385 cumulative IPC: 0.402003 (Simulation time: 0 hr 11 min 42 sec) 
Heartbeat CPU 0 instructions: 340000000 cycles: 659482406 heartbeat IPC: 0.397589 cumulative IPC: 0.401817 (Simulation time: 0 hr 12 min 7 sec) 
Heartbeat CPU 0 instructions: 350000002 cycles: 684615646 heartbeat IPC: 0.39788 cumulative IPC: 0.401658 (Simulation time: 0 hr 12 min 32 sec) 
Heartbeat CPU 0 instructions: 360000000 cycles: 709920506 heartbeat IPC: 0.395181 cumulative IPC: 0.401405 (Simulation time: 0 hr 12 min 57 sec) 
Heartbeat CPU 0 instructions: 370000000 cycles: 734972626 heartbeat IPC: 0.399168 cumulative IPC: 0.401321 (Simulation time: 0 hr 13 min 21 sec) 
Heartbeat CPU 0 instructions: 380000000 cycles: 759822886 heartbeat IPC: 0.40241 cumulative IPC: 0.40136 (Simulation time: 0 hr 13 min 46 sec) 
Heartbeat CPU 0 instructions: 390000002 cycles: 784705193 heartbeat IPC: 0.401892 cumulative IPC: 0.401379 (Simulation time: 0 hr 14 min 11 sec) 
Heartbeat CPU 0 instructions: 400000000 cycles: 809754118 heartbeat IPC: 0.399219 cumulative IPC: 0.401306 (Simulation time: 0 hr 14 min 35 sec) 
Heartbeat CPU 0 instructions: 410000002 cycles: 834710115 heartbeat IPC: 0.400705 cumulative IPC: 0.401287 (Simulation time: 0 hr 15 min 0 sec) 
Heartbeat CPU 0 instructions: 420000000 cycles: 859475662 heartbeat IPC: 0.403787 cumulative IPC: 0.401364 (Simulation time: 0 hr 15 min 25 sec) 
Heartbeat CPU 0 instructions: 430000000 cycles: 884467797 heartbeat IPC: 0.400126 cumulative IPC: 0.401327 (Simulation time: 0 hr 15 min 50 sec) 
Heartbeat CPU 0 instructions: 440000000 cycles: 909155793 heartbeat IPC: 0.405055 cumulative IPC: 0.401435 (Simulation time: 0 hr 16 min 14 sec) 
Heartbeat CPU 0 instructions: 450000000 cycles: 934376361 heartbeat IPC: 0.396502 cumulative IPC: 0.401293 (Simulation time: 0 hr 16 min 40 sec) 
Heartbeat CPU 0 instructions: 460000000 cycles: 959461044 heartbeat IPC: 0.39865 cumulative IPC: 0.401219 (Simulation time: 0 hr 17 min 6 sec) 
Heartbeat CPU 0 instructions: 470000001 cycles: 984332434 heartbeat IPC: 0.402068 cumulative IPC: 0.401242 (Simulation time: 0 hr 17 min 31 sec) 
Heartbeat CPU 0 instructions: 480000000 cycles: 1009373735 heartbeat IPC: 0.39934 cumulative IPC: 0.401192 (Simulation time: 0 hr 17 min 57 sec) 
Heartbeat CPU 0 instructions: 490000000 cycles: 1034532199 heartbeat IPC: 0.397481 cumulative IPC: 0.401096 (Simulation time: 0 hr 18 min 23 sec) 
Heartbeat CPU 0 instructions: 500000000 cycles: 1059995281 heartbeat IPC: 0.392725 cumulative IPC: 0.400882 (Simulation time: 0 hr 18 min 49 sec) 
Heartbeat CPU 0 instructions: 510000003 cycles: 1085326125 heartbeat IPC: 0.394776 cumulative IPC: 0.400731 (Simulation time: 0 hr 19 min 14 sec) 
Heartbeat CPU 0 instructions: 520000000 cycles: 1110824396 heartbeat IPC: 0.392183 cumulative IPC: 0.400523 (Simulation time: 0 hr 19 min 40 sec) 
Heartbeat CPU 0 instructions: 530000003 cycles: 1136354714 heartbeat IPC: 0.391691 cumulative IPC: 0.400313 (Simulation time: 0 hr 20 min 6 sec) 
Heartbeat CPU 0 instructions: 540000000 cycles: 1161794801 heartbeat IPC: 0.39308 cumulative IPC: 0.400146 (Simulation time: 0 hr 20 min 31 sec) 
Heartbeat CPU 0 instructions: 550000000 cycles: 1187236303 heartbeat IPC: 0.393059 cumulative IPC: 0.399985 (Simulation time: 0 hr 20 min 57 sec) 
Heartbeat CPU 0 instructions: 560000000 cycles: 1212993061 heartbeat IPC: 0.388248 cumulative IPC: 0.399723 (Simulation time: 0 hr 21 min 23 sec) 
Heartbeat CPU 0 instructions: 570000001 cycles: 1238680769 heartbeat IPC: 0.389291 cumulative IPC: 0.399495 (Simulation time: 0 hr 21 min 49 sec) 
Heartbeat CPU 0 instructions: 580000000 cycles: 1264371775 heartbeat IPC: 0.389241 cumulative IPC: 0.399276 (Simulation time: 0 hr 22 min 14 sec) 
Heartbeat CPU 0 instructions: 590000000 cycles: 1290210941 heartbeat IPC: 0.387009 cumulative IPC: 0.399018 (Simulation time: 0 hr 22 min 40 sec) 
Heartbeat CPU 0 instructions: 600000000 cycles: 1316132663 heartbeat IPC: 0.385777 cumulative IPC: 0.398744 (Simulation time: 0 hr 23 min 6 sec) 
Finished CPU 0 instructions: 500000003 cycles: 1253937467 cumulative IPC: 0.398744 (Simulation time: 0 hr 23 min 6 sec) 

CPU 0 Branch Prediction Accuracy: 91.1342% MPKI: 18.7968
Number of Branches: 106006945 Number of Mispredictions: 9398408
Number of LOAD Instructions: 207894007
Number of LOAD Instructions (ROI): 207894007
Number of STORE Instructions: 54285997
Number of STORE Instructions (ROI): 54285997
Total Destination Memory Operands: 57463404
Total Destination Memory Operands (ROI): 57463404
Total Source Memory Operands: 207894007
Total Source Memory Operands (ROI): 207894007
Number of DEPENDED LOADS: 18114885
Number of DEPENDED LOADS (ROI): 18114885
Number of SQ_ADDED: 57463404
Number of SQ_ADDED (ROI): 57463404
Number of LQ_ADDED: 209256489
Number of LQ_ADDED (ROI): 209256489
Number of Instructions read from trace: 600000039

ChampSim completed all CPUs

Region of Interest Statistics

CPU 0 cumulative IPC: 0.398744 instructions: 500000003 cycles: 1253937467
ITLB TOTAL     ACCESS:   96399198  HIT:   96399198  MISS:          0
ITLB LOAD      ACCESS:   96399198  HIT:   96399198  MISS:          0
ITLB RFO       ACCESS:          0  HIT:          0  MISS:          0
ITLB PREFETCH  ACCESS:          0  HIT:          0  MISS:          0
ITLB WRITEBACK ACCESS:          0  HIT:          0  MISS:          0
ITLB PREFETCH  REQUESTED:          0  ISSUED:          0  USEFUL:          0  USELESS:          0
ITLB TOTAL MSHR MERGED:          0
ITLB LOAD MSHR MERGED:          0
ITLB RFO MSHR MERGED:          0
ITLB PREFETCH MSHR MERGED:          0
ITLB WRITEBACK MSHR MERGED:          0
ITLB TOTAL ACCESSES:   96399198 HITS:   96399198 MISSES:          0
ITLB LOAD ACCESSES:   96399198 HITS:   96399198 MISSES:          0
ITLB RFO ACCESSES:          0 HITS:          0 MISSES:          0
ITLB PREFETCH ACCESSES:          0 HITS:          0 MISSES:          0
ITLB WRITEBACK ACCESSES:          0 HITS:          0 MISSES:          0
ITLB RQ ACCESS:  499999980
ITLB RQ TO_CACHE:   96399198
ITLB RQ MERGED:  403600782
ITLB RQ FORWARD:          0
ITLB WQ ACCESS:          0
ITLB WQ TO_CACHE:          0
ITLB WQ MERGED:          0
ITLB WQ FORWARD:          0
DTLB TOTAL     ACCESS:  155163292  HIT:  150251115  MISS:    4912177
DTLB LOAD      ACCESS:  117712036  HIT:  113321531  MISS:    4390505
DTLB RFO       ACCESS:   37451256  HIT:   36929584  MISS:     521672
DTLB PREFETCH  ACCESS:          0  HIT:          0  MISS:          0
DTLB WRITEBACK ACCESS:          0  HIT:          0  MISS:          0
DTLB PREFETCH  REQUESTED:          0  ISSUED:          0  USEFUL:          0  USELESS:          0
DTLB TOTAL MSHR MERGED:     452456
DTLB LOAD MSHR MERGED:     161068
DTLB RFO MSHR MERGED:     291388
DTLB PREFETCH MSHR MERGED:          0
DTLB WRITEBACK MSHR MERGED:          0
DTLB TOTAL ACCESSES:  155615748 HITS:  150251115 MISSES:    5364633
DTLB LOAD ACCESSES:  117873104 HITS:  113321531 MISSES:    4551573
DTLB RFO ACCESSES:   37742644 HITS:   36929584 MISSES:     813060
DTLB PREFETCH ACCESSES:          0 HITS:          0 MISSES:          0
DTLB WRITEBACK ACCESSES:          0 HITS:          0 MISSES:          0
DTLB RQ ACCESS:  205968386
DTLB RQ TO_CACHE:  155615748
DTLB RQ MERGED:   50352638
DTLB RQ FORWARD:          0
DTLB WQ ACCESS:          0
DTLB WQ TO_CACHE:          0
DTLB WQ MERGED:          0
DTLB WQ FORWARD:          0
L1D TOTAL     ACCESS:  277116436  HIT:  242294458  MISS:   34821978
L1D LOAD      ACCESS:  125402585  HIT:  107758509  MISS:   17644076
L1D RFO       ACCESS:   41129502  HIT:   38817690  MISS:    2311812
L1D PREFETCH  ACCESS:  110584349  HIT:   95718259  MISS:   14866090
L1D WRITEBACK ACCESS:          0  HIT:          0  MISS:          0
L1D PREFETCH  REQUESTED:  126257791  ISSUED:  124738668  USEFUL:    2700399  USELESS:   12165716
L1D TOTAL MSHR MERGED:    8515996
L1D LOAD MSHR MERGED:    1547274
L1D RFO MSHR MERGED:    3773699
L1D PREFETCH MSHR MERGED:    3195023
L1D WRITEBACK MSHR MERGED:          0
L1D TOTAL ACCESSES:  285719727 HITS:  242381751 MISSES:   43337976
L1D LOAD ACCESSES:  126257824 HITS:  107758542 MISSES:   18499282
L1D RFO ACCESSES:   44902707 HITS:   38817690 MISSES:    6085017
L1D PREFETCH ACCESSES:  114559196 HITS:   95805519 MISSES:   18753677
L1D WRITEBACK ACCESSES:          0 HITS:          0 MISSES:          0
L1D RQ ACCESS:  158421505
L1D RQ TO_CACHE:  126257791
L1D RQ MERGED:   32163681
L1D RQ FORWARD:          0
L1D WQ ACCESS:   47546882
L1D WQ TO_CACHE:   44902707
L1D WQ MERGED:    2644175
L1D WQ FORWARD:      87293
L1I TOTAL     ACCESS:  132804531  HIT:  132804531  MISS:          0
L1I LOAD      ACCESS:  132804531  HIT:  132804531  MISS:          0
L1I RFO       ACCESS:          0  HIT:          0  MISS:          0
L1I PREFETCH  ACCESS:          0  HIT:          0  MISS:          0
L1I WRITEBACK ACCESS:          0  HIT:          0  MISS:          0
L1I PREFETCH  REQUESTED:          0  ISSUED:          0  USEFUL:          0  USELESS:          0
L1I TOTAL MSHR MERGED:          0
L1I LOAD MSHR MERGED:          0
L1I RFO MSHR MERGED:          0
L1I PREFETCH MSHR MERGED:          0
L1I WRITEBACK MSHR MERGED:          0
L1I TOTAL ACCESSES:  132804531 HITS:  132804531 MISSES:          0
L1I LOAD ACCESSES:  132804531 HITS:  132804531 MISSES:          0
L1I RFO ACCESSES:          0 HITS:          0 MISSES:          0
L1I PREFETCH ACCESSES:          0 HITS:          0 MISSES:          0
L1I WRITEBACK ACCESSES:          0 HITS:          0 MISSES:          0
L1I RQ ACCESS:  499999980
L1I RQ TO_CACHE:  132804531
L1I RQ MERGED:  367195449
L1I RQ FORWARD:          0
L1I WQ ACCESS:          0
L1I WQ TO_CACHE:          0
L1I WQ MERGED:          0
L1I WQ FORWARD:          0
L2C TOTAL     ACCESS:   39597504  HIT:   20628400  MISS:   18969104
L2C LOAD      ACCESS:   16951946  HIT:    8567612  MISS:    8384334
L2C RFO       ACCESS:    2311267  HIT:     630843  MISS:    1680424
L2C PREFETCH  ACCESS:   17111876  HIT:    8211282  MISS:    8900594
L2C WRITEBACK ACCESS:    3222415  HIT:    3218663  MISS:       3752
L2C PREFETCH  REQUESTED:    2894216  ISSUED:    2894216  USEFUL:    1306945  USELESS:    7593399
L2C TOTAL MSHR MERGED:     538672
L2C LOAD MSHR MERGED:      92740
L2C RFO MSHR MERGED:          0
L2C PREFETCH MSHR MERGED:     445932
L2C WRITEBACK MSHR MERGED:          0
L2C TOTAL ACCESSES:   40263507 HITS:   20628565 MISSES:   19634942
L2C LOAD ACCESSES:   16952008 HITS:    8567674 MISSES:    8384334
L2C RFO ACCESSES:    2311318 HITS:     630894 MISSES:    1680424
L2C PREFETCH ACCESSES:   17777766 HITS:    8211334 MISSES:    9566432
L2C WRITEBACK ACCESSES:    3222415 HITS:    3218663 MISSES:       3752
L2C RQ ACCESS:   19263326
L2C RQ TO_CACHE:   19263213
L2C RQ MERGED:          0
L2C RQ FORWARD:          0
L2C WQ ACCESS:    3222415
L2C WQ TO_CACHE:    3222415
L2C WQ MERGED:          0
L2C WQ FORWARD:        165
LLC TOTAL     ACCESS:   21203525  HIT:   13664933  MISS:    7538592
LLC LOAD      ACCESS:    8291567  HIT:    5741591  MISS:    2549976
LLC RFO       ACCESS:    1680344  HIT:    1615216  MISS:      65128
LLC PREFETCH  ACCESS:    9055985  HIT:    4177255  MISS:    4878730
LLC WRITEBACK ACCESS:    2175629  HIT:    2130871  MISS:      44758
LLC PREFETCH  REQUESTED:          0  ISSUED:          0  USEFUL:     193650  USELESS:    4687098
LLC TOTAL MSHR MERGED:      54443
LLC LOAD MSHR MERGED:      17389
LLC RFO MSHR MERGED:          0
LLC PREFETCH MSHR MERGED:      37054
LLC WRITEBACK MSHR MERGED:          0
LLC TOTAL ACCESSES:   21258107 HITS:   13665070 MISSES:    7593037
LLC LOAD ACCESSES:    8291594 HITS:    5741618 MISSES:    2549976
LLC RFO ACCESSES:    1680424 HITS:    1615296 MISSES:      65128
LLC PREFETCH ACCESSES:    9110460 HITS:    4177285 MISSES:    4933175
LLC WRITEBACK ACCESSES:    2175629 HITS:    2130871 MISSES:      44758
LLC 0 RQ ACCESS:    9972018
LLC 0 RQ TO_CACHE:    9971911
LLC 0 RQ MERGED:          0
LLC 0 RQ FORWARD:          0
LLC WQ ACCESS:    2175629
LLC WQ TO_CACHE:    2175629
LLC WQ MERGED:          0
LLC WQ FORWARD:        137
Major fault: 0 Minor fault: 56391
CPU 0 L1D next line prefetcher final stats
CPU 0 L2C PC-based stride prefetcher final stats
All Misses: 8836283
All Hits: 15744087
SD Algo Stats - Switches: 0 SRR-Repls: 2676675 BRR-Repls: 0

DRAM Statistics
 CHANNEL 0
 RQ ROW_BUFFER_HIT:    4606293  ROW_BUFFER_MISS:    2845667
 DBUS_CONGESTED:    3510307
 WQ ROW_BUFFER_HIT:       8010  ROW_BUFFER_MISS:     117284  FULL:          0

 AVG_CONGESTED_CYCLE: 12
LOADS RETIRED: 173631671
INSTR RETIRED: 500000000
