
*** ChampSim Multicore Out-of-Order Simulator ***

Warmup Instructions: 100000000
Simulation Instructions: 500000000
Number of CPUs: 1
LLC sets: 2048
LLC ways: 16
Clean RRIP Policies: 1213220112132201 Dirty RRIP Policies: 2213021122130211 PSEL Width: 10 Track Set: 4294967295 PSEL Mask: 1 Demote Mask: 3340011033400110DS Algo: 0Window size: 0
Off-chip DRAM Size: 4096 MB Channels: 1 Width: 64-bit Data Rate: 1600 MT/s

CPU 0 runs /mnt/beegfs/iconst01/spec2017/x264.trace.gz
NOT SORTED
TRACE STRING: /mnt/beegfs/iconst01/spec2017/x264.trace.gz
SORTED
TRACE STRING: /mnt/beegfs/iconst01/spec2017/x264.trace.gz
INITIAL
TRACE STRING: /mnt/beegfs/iconst01/spec2017/x264.trace.gz

champsim_seed used: 276

CPU 0 L1D next line prefetcher
CPU 0 L2C IP-based stride prefetcher
Initialize DRRIP state
Assign rand_sets[0]: 454  LLC: 2048
rand_sets[0]: 454
Assign rand_sets[1]: 1662  LLC: 2048
rand_sets[1]: 1662
Assign rand_sets[2]: 1921  LLC: 2048
rand_sets[2]: 1921
Assign rand_sets[3]: 1131  LLC: 2048
rand_sets[3]: 1131
Assign rand_sets[4]: 331  LLC: 2048
rand_sets[4]: 331
Assign rand_sets[5]: 1531  LLC: 2048
rand_sets[5]: 1531
Assign rand_sets[6]: 482  LLC: 2048
rand_sets[6]: 482
Assign rand_sets[7]: 1275  LLC: 2048
rand_sets[7]: 1275
Assign rand_sets[8]: 1876  LLC: 2048
rand_sets[8]: 1876
Assign rand_sets[9]: 2038  LLC: 2048
rand_sets[9]: 2038
Assign rand_sets[10]: 701  LLC: 2048
rand_sets[10]: 701
Assign rand_sets[11]: 479  LLC: 2048
rand_sets[11]: 479
Assign rand_sets[12]: 892  LLC: 2048
rand_sets[12]: 892
Assign rand_sets[13]: 1820  LLC: 2048
rand_sets[13]: 1820
Assign rand_sets[14]: 1505  LLC: 2048
rand_sets[14]: 1505
Assign rand_sets[15]: 1159  LLC: 2048
rand_sets[15]: 1159
Assign rand_sets[16]: 513  LLC: 2048
rand_sets[16]: 513
Assign rand_sets[17]: 703  LLC: 2048
rand_sets[17]: 703
Assign rand_sets[18]: 561  LLC: 2048
rand_sets[18]: 561
Assign rand_sets[19]: 990  LLC: 2048
rand_sets[19]: 990
Assign rand_sets[20]: 342  LLC: 2048
rand_sets[20]: 342
Assign rand_sets[21]: 882  LLC: 2048
rand_sets[21]: 882
Assign rand_sets[22]: 15  LLC: 2048
rand_sets[22]: 15
Assign rand_sets[23]: 71  LLC: 2048
rand_sets[23]: 71
Assign rand_sets[24]: 1127  LLC: 2048
rand_sets[24]: 1127
Assign rand_sets[25]: 1382  LLC: 2048
rand_sets[25]: 1382
Assign rand_sets[26]: 647  LLC: 2048
rand_sets[26]: 647
Assign rand_sets[27]: 857  LLC: 2048
rand_sets[27]: 857
Assign rand_sets[28]: 1450  LLC: 2048
rand_sets[28]: 1450
Assign rand_sets[29]: 1160  LLC: 2048
rand_sets[29]: 1160
Assign rand_sets[30]: 1852  LLC: 2048
rand_sets[30]: 1852
Assign rand_sets[31]: 1881  LLC: 2048
rand_sets[31]: 1881
Assign rand_sets[32]: 1770  LLC: 2048
rand_sets[32]: 1770
Assign rand_sets[33]: 1622  LLC: 2048
rand_sets[33]: 1622
Assign rand_sets[34]: 275  LLC: 2048
rand_sets[34]: 275
Assign rand_sets[35]: 635  LLC: 2048
rand_sets[35]: 635
Assign rand_sets[36]: 466  LLC: 2048
rand_sets[36]: 466
Assign rand_sets[37]: 1413  LLC: 2048
rand_sets[37]: 1413
Assign rand_sets[38]: 417  LLC: 2048
rand_sets[38]: 417
Assign rand_sets[39]: 472  LLC: 2048
rand_sets[39]: 472
Assign rand_sets[40]: 1340  LLC: 2048
rand_sets[40]: 1340
Assign rand_sets[41]: 852  LLC: 2048
rand_sets[41]: 852
Assign rand_sets[42]: 1365  LLC: 2048
rand_sets[42]: 1365
Assign rand_sets[43]: 47  LLC: 2048
rand_sets[43]: 47
Assign rand_sets[44]: 823  LLC: 2048
rand_sets[44]: 823
Assign rand_sets[45]: 686  LLC: 2048
rand_sets[45]: 686
Assign rand_sets[46]: 1637  LLC: 2048
rand_sets[46]: 1637
Assign rand_sets[47]: 1115  LLC: 2048
rand_sets[47]: 1115
Assign rand_sets[48]: 986  LLC: 2048
rand_sets[48]: 986
Assign rand_sets[49]: 258  LLC: 2048
rand_sets[49]: 258
Assign rand_sets[50]: 633  LLC: 2048
rand_sets[50]: 633
Assign rand_sets[51]: 920  LLC: 2048
rand_sets[51]: 920
Assign rand_sets[52]: 204  LLC: 2048
rand_sets[52]: 204
Assign rand_sets[53]: 227  LLC: 2048
rand_sets[53]: 227
Assign rand_sets[54]: 1818  LLC: 2048
rand_sets[54]: 1818
Assign rand_sets[55]: 886  LLC: 2048
rand_sets[55]: 886
Assign rand_sets[56]: 1422  LLC: 2048
rand_sets[56]: 1422
Assign rand_sets[57]: 607  LLC: 2048
rand_sets[57]: 607
Assign rand_sets[58]: 217  LLC: 2048
rand_sets[58]: 217
Assign rand_sets[59]: 1945  LLC: 2048
rand_sets[59]: 1945
Assign rand_sets[60]: 143  LLC: 2048
rand_sets[60]: 143
Assign rand_sets[61]: 1311  LLC: 2048
rand_sets[61]: 1311
Assign rand_sets[62]: 319  LLC: 2048
rand_sets[62]: 319
Assign rand_sets[63]: 1846  LLC: 2048
rand_sets[63]: 1846
 CLEAN-RRIP-POLICY-1: 1-2-1-3-2-2-0-1- CLEAN-RRIP-POLICY-2: 1-2-1-3-2-2-0-1-
 DIRTY-RRIP-POLICY-1: 2-2-1-3-0-2-1-1- DIRTY-RRIP-POLICY-2: 2-2-1-3-0-2-1-1-
 PSEL width: 10
Heartbeat CPU 0 instructions: 10000000 cycles: 4124759 heartbeat IPC: 2.42438 cumulative IPC: 2.42438 (Simulation time: 0 hr 0 min 13 sec) 
Heartbeat CPU 0 instructions: 20000000 cycles: 8233861 heartbeat IPC: 2.43362 cumulative IPC: 2.42899 (Simulation time: 0 hr 0 min 27 sec) 
Heartbeat CPU 0 instructions: 30000003 cycles: 12464693 heartbeat IPC: 2.3636 cumulative IPC: 2.4068 (Simulation time: 0 hr 0 min 40 sec) 
Heartbeat CPU 0 instructions: 40000000 cycles: 16636677 heartbeat IPC: 2.39694 cumulative IPC: 2.40433 (Simulation time: 0 hr 0 min 53 sec) 
Heartbeat CPU 0 instructions: 50000000 cycles: 20699158 heartbeat IPC: 2.46155 cumulative IPC: 2.41556 (Simulation time: 0 hr 1 min 7 sec) 
Heartbeat CPU 0 instructions: 60000000 cycles: 25022651 heartbeat IPC: 2.31294 cumulative IPC: 2.39783 (Simulation time: 0 hr 1 min 20 sec) 
Heartbeat CPU 0 instructions: 70000000 cycles: 29370954 heartbeat IPC: 2.29975 cumulative IPC: 2.38331 (Simulation time: 0 hr 1 min 33 sec) 
Heartbeat CPU 0 instructions: 80000000 cycles: 33721109 heartbeat IPC: 2.29877 cumulative IPC: 2.3724 (Simulation time: 0 hr 1 min 46 sec) 
Heartbeat CPU 0 instructions: 90000002 cycles: 38032104 heartbeat IPC: 2.31965 cumulative IPC: 2.36642 (Simulation time: 0 hr 2 min 0 sec) 
Heartbeat CPU 0 instructions: 100000000 cycles: 42329060 heartbeat IPC: 2.32723 cumulative IPC: 2.36244 (Simulation time: 0 hr 2 min 13 sec) 

Warmup complete CPU 0 instructions: 100000001 cycles: 42329061 (Simulation time: 0 hr 2 min 13 sec) 

Heartbeat CPU 0 instructions: 110000001 cycles: 49390735 heartbeat IPC: 1.41609 cumulative IPC: 1.41609 (Simulation time: 0 hr 2 min 30 sec) 
Heartbeat CPU 0 instructions: 120000000 cycles: 58903341 heartbeat IPC: 1.05124 cumulative IPC: 1.20669 (Simulation time: 0 hr 2 min 49 sec) 
Heartbeat CPU 0 instructions: 130000000 cycles: 63730415 heartbeat IPC: 2.07165 cumulative IPC: 1.40178 (Simulation time: 0 hr 3 min 6 sec) 
Heartbeat CPU 0 instructions: 140000000 cycles: 68655609 heartbeat IPC: 2.03038 cumulative IPC: 1.51938 (Simulation time: 0 hr 3 min 23 sec) 
Heartbeat CPU 0 instructions: 150000002 cycles: 75486516 heartbeat IPC: 1.46393 cumulative IPC: 1.50796 (Simulation time: 0 hr 3 min 40 sec) 
Heartbeat CPU 0 instructions: 160000000 cycles: 83318643 heartbeat IPC: 1.27679 cumulative IPC: 1.46379 (Simulation time: 0 hr 3 min 58 sec) 
Heartbeat CPU 0 instructions: 170000000 cycles: 90726983 heartbeat IPC: 1.34983 cumulative IPC: 1.44634 (Simulation time: 0 hr 4 min 15 sec) 
Heartbeat CPU 0 instructions: 180000000 cycles: 98030750 heartbeat IPC: 1.36916 cumulative IPC: 1.43622 (Simulation time: 0 hr 4 min 33 sec) 
Heartbeat CPU 0 instructions: 190000002 cycles: 105202841 heartbeat IPC: 1.39429 cumulative IPC: 1.43144 (Simulation time: 0 hr 4 min 50 sec) 
Heartbeat CPU 0 instructions: 200000000 cycles: 112433166 heartbeat IPC: 1.38306 cumulative IPC: 1.42645 (Simulation time: 0 hr 5 min 7 sec) 
Heartbeat CPU 0 instructions: 210000000 cycles: 119304507 heartbeat IPC: 1.45532 cumulative IPC: 1.42903 (Simulation time: 0 hr 5 min 23 sec) 
Heartbeat CPU 0 instructions: 220000000 cycles: 126077076 heartbeat IPC: 1.47654 cumulative IPC: 1.43287 (Simulation time: 0 hr 5 min 40 sec) 
Heartbeat CPU 0 instructions: 230000003 cycles: 132806776 heartbeat IPC: 1.48595 cumulative IPC: 1.43682 (Simulation time: 0 hr 5 min 56 sec) 
Heartbeat CPU 0 instructions: 240000000 cycles: 139552379 heartbeat IPC: 1.48245 cumulative IPC: 1.43998 (Simulation time: 0 hr 6 min 13 sec) 
Heartbeat CPU 0 instructions: 250000001 cycles: 146276989 heartbeat IPC: 1.48708 cumulative IPC: 1.44303 (Simulation time: 0 hr 6 min 29 sec) 
Heartbeat CPU 0 instructions: 260000000 cycles: 152979108 heartbeat IPC: 1.49207 cumulative IPC: 1.446 (Simulation time: 0 hr 6 min 46 sec) 
Heartbeat CPU 0 instructions: 270000001 cycles: 159956151 heartbeat IPC: 1.43327 cumulative IPC: 1.44525 (Simulation time: 0 hr 7 min 3 sec) 
Heartbeat CPU 0 instructions: 280000000 cycles: 167488415 heartbeat IPC: 1.32762 cumulative IPC: 1.43817 (Simulation time: 0 hr 7 min 20 sec) 
Heartbeat CPU 0 instructions: 290000000 cycles: 175408618 heartbeat IPC: 1.26259 cumulative IPC: 1.42772 (Simulation time: 0 hr 7 min 38 sec) 
Heartbeat CPU 0 instructions: 300000000 cycles: 183578099 heartbeat IPC: 1.22407 cumulative IPC: 1.41594 (Simulation time: 0 hr 7 min 56 sec) 
Heartbeat CPU 0 instructions: 310000002 cycles: 191888323 heartbeat IPC: 1.20334 cumulative IPC: 1.40413 (Simulation time: 0 hr 8 min 14 sec) 
Heartbeat CPU 0 instructions: 320000000 cycles: 201786713 heartbeat IPC: 1.01027 cumulative IPC: 1.37968 (Simulation time: 0 hr 8 min 34 sec) 
Heartbeat CPU 0 instructions: 330000002 cycles: 206429112 heartbeat IPC: 2.15406 cumulative IPC: 1.40158 (Simulation time: 0 hr 8 min 50 sec) 
Heartbeat CPU 0 instructions: 340000000 cycles: 211671804 heartbeat IPC: 1.90742 cumulative IPC: 1.41724 (Simulation time: 0 hr 9 min 7 sec) 
Heartbeat CPU 0 instructions: 350000000 cycles: 218889411 heartbeat IPC: 1.3855 cumulative IPC: 1.41595 (Simulation time: 0 hr 9 min 25 sec) 
Heartbeat CPU 0 instructions: 360000000 cycles: 226550004 heartbeat IPC: 1.30538 cumulative IPC: 1.41135 (Simulation time: 0 hr 9 min 43 sec) 
Heartbeat CPU 0 instructions: 370000000 cycles: 233956663 heartbeat IPC: 1.35014 cumulative IPC: 1.40898 (Simulation time: 0 hr 10 min 0 sec) 
Heartbeat CPU 0 instructions: 380000000 cycles: 241227664 heartbeat IPC: 1.37533 cumulative IPC: 1.40775 (Simulation time: 0 hr 10 min 17 sec) 
Heartbeat CPU 0 instructions: 390000000 cycles: 249347102 heartbeat IPC: 1.23161 cumulative IPC: 1.40084 (Simulation time: 0 hr 10 min 35 sec) 
Heartbeat CPU 0 instructions: 400000000 cycles: 257551181 heartbeat IPC: 1.21891 cumulative IPC: 1.39391 (Simulation time: 0 hr 10 min 53 sec) 
Heartbeat CPU 0 instructions: 410000001 cycles: 265368613 heartbeat IPC: 1.27919 cumulative IPC: 1.38989 (Simulation time: 0 hr 11 min 11 sec) 
Heartbeat CPU 0 instructions: 420000000 cycles: 273417988 heartbeat IPC: 1.24233 cumulative IPC: 1.38475 (Simulation time: 0 hr 11 min 29 sec) 
Heartbeat CPU 0 instructions: 430000001 cycles: 281673094 heartbeat IPC: 1.21137 cumulative IPC: 1.37877 (Simulation time: 0 hr 11 min 47 sec) 
Heartbeat CPU 0 instructions: 440000000 cycles: 289715301 heartbeat IPC: 1.24344 cumulative IPC: 1.37437 (Simulation time: 0 hr 12 min 5 sec) 
Heartbeat CPU 0 instructions: 450000001 cycles: 297588304 heartbeat IPC: 1.27016 cumulative IPC: 1.37116 (Simulation time: 0 hr 12 min 22 sec) 
Heartbeat CPU 0 instructions: 460000000 cycles: 307462016 heartbeat IPC: 1.01279 cumulative IPC: 1.35781 (Simulation time: 0 hr 12 min 42 sec) 
Heartbeat CPU 0 instructions: 470000002 cycles: 312100483 heartbeat IPC: 2.15589 cumulative IPC: 1.37153 (Simulation time: 0 hr 12 min 58 sec) 
Heartbeat CPU 0 instructions: 480000000 cycles: 317357191 heartbeat IPC: 1.90233 cumulative IPC: 1.38168 (Simulation time: 0 hr 13 min 15 sec) 
Heartbeat CPU 0 instructions: 490000001 cycles: 324672351 heartbeat IPC: 1.36702 cumulative IPC: 1.3813 (Simulation time: 0 hr 13 min 33 sec) 
Heartbeat CPU 0 instructions: 500000000 cycles: 333401698 heartbeat IPC: 1.14556 cumulative IPC: 1.37423 (Simulation time: 0 hr 13 min 53 sec) 
Heartbeat CPU 0 instructions: 510000002 cycles: 342132622 heartbeat IPC: 1.14535 cumulative IPC: 1.36756 (Simulation time: 0 hr 14 min 13 sec) 
Heartbeat CPU 0 instructions: 520000000 cycles: 350861001 heartbeat IPC: 1.14569 cumulative IPC: 1.36129 (Simulation time: 0 hr 14 min 33 sec) 
Heartbeat CPU 0 instructions: 530000000 cycles: 359567738 heartbeat IPC: 1.14854 cumulative IPC: 1.35545 (Simulation time: 0 hr 14 min 53 sec) 
Heartbeat CPU 0 instructions: 540000000 cycles: 367823886 heartbeat IPC: 1.21122 cumulative IPC: 1.35179 (Simulation time: 0 hr 15 min 12 sec) 
Heartbeat CPU 0 instructions: 550000000 cycles: 374862985 heartbeat IPC: 1.42064 cumulative IPC: 1.35325 (Simulation time: 0 hr 15 min 29 sec) 
Heartbeat CPU 0 instructions: 560000000 cycles: 381477472 heartbeat IPC: 1.51183 cumulative IPC: 1.35634 (Simulation time: 0 hr 15 min 46 sec) 
Heartbeat CPU 0 instructions: 570000002 cycles: 388072692 heartbeat IPC: 1.51625 cumulative IPC: 1.35939 (Simulation time: 0 hr 16 min 3 sec) 
Heartbeat CPU 0 instructions: 580000000 cycles: 394723795 heartbeat IPC: 1.50351 cumulative IPC: 1.36211 (Simulation time: 0 hr 16 min 20 sec) 
Heartbeat CPU 0 instructions: 590000002 cycles: 401418226 heartbeat IPC: 1.49378 cumulative IPC: 1.36456 (Simulation time: 0 hr 16 min 37 sec) 
Heartbeat CPU 0 instructions: 600000000 cycles: 408236134 heartbeat IPC: 1.46673 cumulative IPC: 1.36647 (Simulation time: 0 hr 16 min 54 sec) 
Finished CPU 0 instructions: 500000000 cycles: 365907081 cumulative IPC: 1.36647 (Simulation time: 0 hr 16 min 54 sec) 

CPU 0 Branch Prediction Accuracy: 93.4682% MPKI: 2.44079
Number of Branches: 18683822 Number of Mispredictions: 1220394
Number of LOAD Instructions: 142551610
Number of LOAD Instructions (ROI): 142551610
Number of STORE Instructions: 44807454
Number of STORE Instructions (ROI): 44807454
Total Destination Memory Operands: 48357071
Total Destination Memory Operands (ROI): 48357071
Total Source Memory Operands: 142551610
Total Source Memory Operands (ROI): 142551610
Number of DEPENDED LOADS: 7395114
Number of DEPENDED LOADS (ROI): 7395114
Number of SQ_ADDED: 48357051
Number of SQ_ADDED (ROI): 48357051
Number of LQ_ADDED: 157229651
Number of LQ_ADDED (ROI): 157229651
Number of Instructions read from trace: 600000256

ChampSim completed all CPUs

Region of Interest Statistics

CPU 0 cumulative IPC: 1.36647 instructions: 500000000 cycles: 365907081
ITLB TOTAL     ACCESS:   88176873  HIT:   88176804  MISS:         69
ITLB LOAD      ACCESS:   88176873  HIT:   88176804  MISS:         69
ITLB RFO       ACCESS:          0  HIT:          0  MISS:          0
ITLB PREFETCH  ACCESS:          0  HIT:          0  MISS:          0
ITLB WRITEBACK ACCESS:          0  HIT:          0  MISS:          0
ITLB PREFETCH  REQUESTED:          0  ISSUED:          0  USEFUL:          0  USELESS:          0
ITLB TOTAL MSHR MERGED:         85
ITLB LOAD MSHR MERGED:         85
ITLB RFO MSHR MERGED:          0
ITLB PREFETCH MSHR MERGED:          0
ITLB WRITEBACK MSHR MERGED:          0
ITLB TOTAL ACCESSES:   88176958 HITS:   88176804 MISSES:        154
ITLB LOAD ACCESSES:   88176958 HITS:   88176804 MISSES:        154
ITLB RFO ACCESSES:          0 HITS:          0 MISSES:          0
ITLB PREFETCH ACCESSES:          0 HITS:          0 MISSES:          0
ITLB WRITEBACK ACCESSES:          0 HITS:          0 MISSES:          0
ITLB RQ ACCESS:  500000000
ITLB RQ TO_CACHE:   88176958
ITLB RQ MERGED:  411823042
ITLB RQ FORWARD:          0
ITLB WQ ACCESS:          0
ITLB WQ TO_CACHE:          0
ITLB WQ MERGED:          0
ITLB WQ FORWARD:          0
DTLB TOTAL     ACCESS:   88203518  HIT:   88076102  MISS:     127416
DTLB LOAD      ACCESS:   59485647  HIT:   59393186  MISS:      92461
DTLB RFO       ACCESS:   28717871  HIT:   28682916  MISS:      34955
DTLB PREFETCH  ACCESS:          0  HIT:          0  MISS:          0
DTLB WRITEBACK ACCESS:          0  HIT:          0  MISS:          0
DTLB PREFETCH  REQUESTED:          0  ISSUED:          0  USEFUL:          0  USELESS:          0
DTLB TOTAL MSHR MERGED:     141047
DTLB LOAD MSHR MERGED:     107691
DTLB RFO MSHR MERGED:      33356
DTLB PREFETCH MSHR MERGED:          0
DTLB WRITEBACK MSHR MERGED:          0
DTLB TOTAL ACCESSES:   88344565 HITS:   88076102 MISSES:     268463
DTLB LOAD ACCESSES:   59593338 HITS:   59393186 MISSES:     200152
DTLB RFO ACCESSES:   28751227 HITS:   28682916 MISSES:      68311
DTLB PREFETCH ACCESSES:          0 HITS:          0 MISSES:          0
DTLB WRITEBACK ACCESSES:          0 HITS:          0 MISSES:          0
DTLB RQ ACCESS:  154558786
DTLB RQ TO_CACHE:   88344565
DTLB RQ MERGED:   66214221
DTLB RQ FORWARD:          0
DTLB WQ ACCESS:          0
DTLB WQ TO_CACHE:          0
DTLB WQ MERGED:          0
DTLB WQ FORWARD:          0
L1D TOTAL     ACCESS:  127945827  HIT:  124720174  MISS:    3225653
L1D LOAD      ACCESS:   53171958  HIT:   51976512  MISS:    1195446
L1D RFO       ACCESS:   37347628  HIT:   36733412  MISS:     614216
L1D PREFETCH  ACCESS:   37426241  HIT:   36010250  MISS:    1415991
L1D WRITEBACK ACCESS:          0  HIT:          0  MISS:          0
L1D PREFETCH  REQUESTED:   53657447  ISSUED:   52457428  USEFUL:     352005  USELESS:    1063951
L1D TOTAL MSHR MERGED:    2927779
L1D LOAD MSHR MERGED:     524389
L1D RFO MSHR MERGED:    1606892
L1D PREFETCH MSHR MERGED:     796498
L1D WRITEBACK MSHR MERGED:          0
L1D TOTAL ACCESSES:  130908439 HITS:  124755007 MISSES:    6153432
L1D LOAD ACCESSES:   53660285 HITS:   51979350 MISSES:    1680935
L1D RFO ACCESSES:   38952860 HITS:   36733412 MISSES:    2219448
L1D PREFETCH ACCESSES:   38295294 HITS:   36042245 MISSES:    2253049
L1D WRITEBACK ACCESSES:          0 HITS:          0 MISSES:          0
L1D RQ ACCESS:  113713894
L1D RQ TO_CACHE:   53657447
L1D RQ MERGED:   60053609
L1D RQ FORWARD:          0
L1D WQ ACCESS:   40844891
L1D WQ TO_CACHE:   38952860
L1D WQ MERGED:    1892031
L1D WQ FORWARD:      34833
L1I TOTAL     ACCESS:  108368762  HIT:  107809626  MISS:     559136
L1I LOAD      ACCESS:  108368762  HIT:  107809626  MISS:     559136
L1I RFO       ACCESS:          0  HIT:          0  MISS:          0
L1I PREFETCH  ACCESS:          0  HIT:          0  MISS:          0
L1I WRITEBACK ACCESS:          0  HIT:          0  MISS:          0
L1I PREFETCH  REQUESTED:          0  ISSUED:          0  USEFUL:          0  USELESS:          0
L1I TOTAL MSHR MERGED:     525683
L1I LOAD MSHR MERGED:     525683
L1I RFO MSHR MERGED:          0
L1I PREFETCH MSHR MERGED:          0
L1I WRITEBACK MSHR MERGED:          0
L1I TOTAL ACCESSES:  108894445 HITS:  107809626 MISSES:    1084819
L1I LOAD ACCESSES:  108894445 HITS:  107809626 MISSES:    1084819
L1I RFO ACCESSES:          0 HITS:          0 MISSES:          0
L1I PREFETCH ACCESSES:          0 HITS:          0 MISSES:          0
L1I WRITEBACK ACCESSES:          0 HITS:          0 MISSES:          0
L1I RQ ACCESS:  500000002
L1I RQ TO_CACHE:  108894445
L1I RQ MERGED:  391105557
L1I RQ FORWARD:          0
L1I WQ ACCESS:          0
L1I WQ TO_CACHE:          0
L1I WQ MERGED:          0
L1I WQ FORWARD:          0
L2C TOTAL     ACCESS:    4691945  HIT:    3865862  MISS:     826083
L2C LOAD      ACCESS:    1715569  HIT:    1562625  MISS:     152944
L2C RFO       ACCESS:     611138  HIT:     421116  MISS:     190022
L2C PREFETCH  ACCESS:    1662326  HIT:    1181389  MISS:     480937
L2C WRITEBACK ACCESS:     702912  HIT:     700732  MISS:       2180
L2C PREFETCH  REQUESTED:     256184  ISSUED:     256184  USEFUL:     172958  USELESS:     308645
L2C TOTAL MSHR MERGED:      13337
L2C LOAD MSHR MERGED:       4147
L2C RFO MSHR MERGED:          0
L2C PREFETCH MSHR MERGED:       9190
L2C WRITEBACK MSHR MERGED:          0
L2C TOTAL ACCESSES:    4712146 HITS:    3867462 MISSES:     844684
L2C LOAD ACCESSES:    1715682 HITS:    1562738 MISSES:     152944
L2C RFO ACCESSES:     612556 HITS:     422534 MISSES:     190022
L2C PREFETCH ACCESSES:    1680996 HITS:    1181458 MISSES:     499538
L2C WRITEBACK ACCESSES:     702912 HITS:     700732 MISSES:       2180
L2C RQ ACCESS:    2328238
L2C RQ TO_CACHE:    2326707
L2C RQ MERGED:          0
L2C RQ FORWARD:          0
L2C WQ ACCESS:     702912
L2C WQ TO_CACHE:     702912
L2C WQ MERGED:          0
L2C WQ FORWARD:       1600
LLC TOTAL     ACCESS:    1047586  HIT:     340858  MISS:     706728
LLC LOAD      ACCESS:     148793  HIT:      88605  MISS:      60188
LLC RFO       ACCESS:     190014  HIT:       6782  MISS:     183232
LLC PREFETCH  ACCESS:     487911  HIT:     121864  MISS:     366047
LLC WRITEBACK ACCESS:     220868  HIT:     123607  MISS:      97261
LLC PREFETCH  REQUESTED:          0  ISSUED:          0  USEFUL:       2106  USELESS:     365027
LLC TOTAL MSHR MERGED:       1712
LLC LOAD MSHR MERGED:        618
LLC RFO MSHR MERGED:          0
LLC PREFETCH MSHR MERGED:       1094
LLC WRITEBACK MSHR MERGED:          0
LLC TOTAL ACCESSES:    1049310 HITS:     340870 MISSES:     708440
LLC LOAD ACCESSES:     148797 HITS:      88609 MISSES:      60188
LLC RFO ACCESSES:     190022 HITS:       6790 MISSES:     183232
LLC PREFETCH ACCESSES:     489623 HITS:     121864 MISSES:     367759
LLC WRITEBACK ACCESSES:     220868 HITS:     123607 MISSES:      97261
LLC 0 RQ ACCESS:     338819
LLC 0 RQ TO_CACHE:     338807
LLC 0 RQ MERGED:          0
LLC 0 RQ FORWARD:          0
LLC WQ ACCESS:     220868
LLC WQ TO_CACHE:     220868
LLC WQ MERGED:          0
LLC WQ FORWARD:         12
Major fault: 0 Minor fault: 6811
CPU 0 L1D next line prefetcher final stats
CPU 0 L2C PC-based stride prefetcher final stats
All Misses: 825029
All Hits: 429540
SD Algo Stats - Switches: 0 SRR-Repls: 67644 BRR-Repls: 0

DRAM Statistics
 CHANNEL 0
 RQ ROW_BUFFER_HIT:     311623  ROW_BUFFER_MISS:     297766
 DBUS_CONGESTED:     424724
 WQ ROW_BUFFER_HIT:      24959  ROW_BUFFER_MISS:     192114  FULL:          0

 AVG_CONGESTED_CYCLE: 13
LOADS RETIRED: 119922929
INSTR RETIRED: 500000000
