
*** ChampSim Multicore Out-of-Order Simulator ***

Warmup Instructions: 100000000
Simulation Instructions: 500000000
Number of CPUs: 1
LLC sets: 2048
LLC ways: 16
Clean RRIP Policies: 2201102322011023 Dirty RRIP Policies: 221001302210013 PSEL Width: 10 Track Set: 4294967295 PSEL Mask: 1 Demote Mask: 2002324220023242DS Algo: 0Window size: 0
Off-chip DRAM Size: 4096 MB Channels: 1 Width: 64-bit Data Rate: 1600 MT/s

CPU 0 runs /mnt/beegfs/iconst01/spec2017/x264.trace.gz
NOT SORTED
TRACE STRING: /mnt/beegfs/iconst01/spec2017/x264.trace.gz
SORTED
TRACE STRING: /mnt/beegfs/iconst01/spec2017/x264.trace.gz
INITIAL
TRACE STRING: /mnt/beegfs/iconst01/spec2017/x264.trace.gz

champsim_seed used: 276

CPU 0 L1D next line prefetcher
CPU 0 L2C IP-based stride prefetcher
Initialize DRRIP state
Assign rand_sets[0]: 454  LLC: 2048
rand_sets[0]: 454
Assign rand_sets[1]: 1662  LLC: 2048
rand_sets[1]: 1662
Assign rand_sets[2]: 1921  LLC: 2048
rand_sets[2]: 1921
Assign rand_sets[3]: 1131  LLC: 2048
rand_sets[3]: 1131
Assign rand_sets[4]: 331  LLC: 2048
rand_sets[4]: 331
Assign rand_sets[5]: 1531  LLC: 2048
rand_sets[5]: 1531
Assign rand_sets[6]: 482  LLC: 2048
rand_sets[6]: 482
Assign rand_sets[7]: 1275  LLC: 2048
rand_sets[7]: 1275
Assign rand_sets[8]: 1876  LLC: 2048
rand_sets[8]: 1876
Assign rand_sets[9]: 2038  LLC: 2048
rand_sets[9]: 2038
Assign rand_sets[10]: 701  LLC: 2048
rand_sets[10]: 701
Assign rand_sets[11]: 479  LLC: 2048
rand_sets[11]: 479
Assign rand_sets[12]: 892  LLC: 2048
rand_sets[12]: 892
Assign rand_sets[13]: 1820  LLC: 2048
rand_sets[13]: 1820
Assign rand_sets[14]: 1505  LLC: 2048
rand_sets[14]: 1505
Assign rand_sets[15]: 1159  LLC: 2048
rand_sets[15]: 1159
Assign rand_sets[16]: 513  LLC: 2048
rand_sets[16]: 513
Assign rand_sets[17]: 703  LLC: 2048
rand_sets[17]: 703
Assign rand_sets[18]: 561  LLC: 2048
rand_sets[18]: 561
Assign rand_sets[19]: 990  LLC: 2048
rand_sets[19]: 990
Assign rand_sets[20]: 342  LLC: 2048
rand_sets[20]: 342
Assign rand_sets[21]: 882  LLC: 2048
rand_sets[21]: 882
Assign rand_sets[22]: 15  LLC: 2048
rand_sets[22]: 15
Assign rand_sets[23]: 71  LLC: 2048
rand_sets[23]: 71
Assign rand_sets[24]: 1127  LLC: 2048
rand_sets[24]: 1127
Assign rand_sets[25]: 1382  LLC: 2048
rand_sets[25]: 1382
Assign rand_sets[26]: 647  LLC: 2048
rand_sets[26]: 647
Assign rand_sets[27]: 857  LLC: 2048
rand_sets[27]: 857
Assign rand_sets[28]: 1450  LLC: 2048
rand_sets[28]: 1450
Assign rand_sets[29]: 1160  LLC: 2048
rand_sets[29]: 1160
Assign rand_sets[30]: 1852  LLC: 2048
rand_sets[30]: 1852
Assign rand_sets[31]: 1881  LLC: 2048
rand_sets[31]: 1881
Assign rand_sets[32]: 1770  LLC: 2048
rand_sets[32]: 1770
Assign rand_sets[33]: 1622  LLC: 2048
rand_sets[33]: 1622
Assign rand_sets[34]: 275  LLC: 2048
rand_sets[34]: 275
Assign rand_sets[35]: 635  LLC: 2048
rand_sets[35]: 635
Assign rand_sets[36]: 466  LLC: 2048
rand_sets[36]: 466
Assign rand_sets[37]: 1413  LLC: 2048
rand_sets[37]: 1413
Assign rand_sets[38]: 417  LLC: 2048
rand_sets[38]: 417
Assign rand_sets[39]: 472  LLC: 2048
rand_sets[39]: 472
Assign rand_sets[40]: 1340  LLC: 2048
rand_sets[40]: 1340
Assign rand_sets[41]: 852  LLC: 2048
rand_sets[41]: 852
Assign rand_sets[42]: 1365  LLC: 2048
rand_sets[42]: 1365
Assign rand_sets[43]: 47  LLC: 2048
rand_sets[43]: 47
Assign rand_sets[44]: 823  LLC: 2048
rand_sets[44]: 823
Assign rand_sets[45]: 686  LLC: 2048
rand_sets[45]: 686
Assign rand_sets[46]: 1637  LLC: 2048
rand_sets[46]: 1637
Assign rand_sets[47]: 1115  LLC: 2048
rand_sets[47]: 1115
Assign rand_sets[48]: 986  LLC: 2048
rand_sets[48]: 986
Assign rand_sets[49]: 258  LLC: 2048
rand_sets[49]: 258
Assign rand_sets[50]: 633  LLC: 2048
rand_sets[50]: 633
Assign rand_sets[51]: 920  LLC: 2048
rand_sets[51]: 920
Assign rand_sets[52]: 204  LLC: 2048
rand_sets[52]: 204
Assign rand_sets[53]: 227  LLC: 2048
rand_sets[53]: 227
Assign rand_sets[54]: 1818  LLC: 2048
rand_sets[54]: 1818
Assign rand_sets[55]: 886  LLC: 2048
rand_sets[55]: 886
Assign rand_sets[56]: 1422  LLC: 2048
rand_sets[56]: 1422
Assign rand_sets[57]: 607  LLC: 2048
rand_sets[57]: 607
Assign rand_sets[58]: 217  LLC: 2048
rand_sets[58]: 217
Assign rand_sets[59]: 1945  LLC: 2048
rand_sets[59]: 1945
Assign rand_sets[60]: 143  LLC: 2048
rand_sets[60]: 143
Assign rand_sets[61]: 1311  LLC: 2048
rand_sets[61]: 1311
Assign rand_sets[62]: 319  LLC: 2048
rand_sets[62]: 319
Assign rand_sets[63]: 1846  LLC: 2048
rand_sets[63]: 1846
 CLEAN-RRIP-POLICY-1: 2-2-0-1-1-0-2-3- CLEAN-RRIP-POLICY-2: 2-2-0-1-1-0-2-3-
 DIRTY-RRIP-POLICY-1: 0-2-2-1-0-0-1-3- DIRTY-RRIP-POLICY-2: 0-2-2-1-0-0-1-3-
 PSEL width: 10
Heartbeat CPU 0 instructions: 10000000 cycles: 4124960 heartbeat IPC: 2.42427 cumulative IPC: 2.42427 (Simulation time: 0 hr 0 min 13 sec) 
Heartbeat CPU 0 instructions: 20000000 cycles: 8234469 heartbeat IPC: 2.43338 cumulative IPC: 2.42881 (Simulation time: 0 hr 0 min 26 sec) 
Heartbeat CPU 0 instructions: 30000003 cycles: 12465707 heartbeat IPC: 2.36338 cumulative IPC: 2.4066 (Simulation time: 0 hr 0 min 39 sec) 
Heartbeat CPU 0 instructions: 40000000 cycles: 16637829 heartbeat IPC: 2.39686 cumulative IPC: 2.40416 (Simulation time: 0 hr 0 min 52 sec) 
Heartbeat CPU 0 instructions: 50000000 cycles: 20700460 heartbeat IPC: 2.46146 cumulative IPC: 2.41541 (Simulation time: 0 hr 1 min 5 sec) 
Heartbeat CPU 0 instructions: 60000000 cycles: 25024191 heartbeat IPC: 2.31282 cumulative IPC: 2.39768 (Simulation time: 0 hr 1 min 18 sec) 
Heartbeat CPU 0 instructions: 70000000 cycles: 29372695 heartbeat IPC: 2.29964 cumulative IPC: 2.38317 (Simulation time: 0 hr 1 min 31 sec) 
Heartbeat CPU 0 instructions: 80000000 cycles: 33722990 heartbeat IPC: 2.29869 cumulative IPC: 2.37227 (Simulation time: 0 hr 1 min 44 sec) 
Heartbeat CPU 0 instructions: 90000002 cycles: 38034212 heartbeat IPC: 2.31953 cumulative IPC: 2.36629 (Simulation time: 0 hr 1 min 57 sec) 
Heartbeat CPU 0 instructions: 100000000 cycles: 42331321 heartbeat IPC: 2.32715 cumulative IPC: 2.36232 (Simulation time: 0 hr 2 min 10 sec) 

Warmup complete CPU 0 instructions: 100000001 cycles: 42331322 (Simulation time: 0 hr 2 min 10 sec) 

Heartbeat CPU 0 instructions: 110000001 cycles: 49469235 heartbeat IPC: 1.40097 cumulative IPC: 1.40097 (Simulation time: 0 hr 2 min 27 sec) 
Heartbeat CPU 0 instructions: 120000000 cycles: 58990066 heartbeat IPC: 1.05033 cumulative IPC: 1.20057 (Simulation time: 0 hr 2 min 45 sec) 
Heartbeat CPU 0 instructions: 130000000 cycles: 63827158 heartbeat IPC: 2.06736 cumulative IPC: 1.39562 (Simulation time: 0 hr 3 min 2 sec) 
Heartbeat CPU 0 instructions: 140000000 cycles: 68794067 heartbeat IPC: 2.01332 cumulative IPC: 1.51156 (Simulation time: 0 hr 3 min 18 sec) 
Heartbeat CPU 0 instructions: 150000002 cycles: 75622486 heartbeat IPC: 1.46447 cumulative IPC: 1.5019 (Simulation time: 0 hr 3 min 36 sec) 
Heartbeat CPU 0 instructions: 160000000 cycles: 83489401 heartbeat IPC: 1.27115 cumulative IPC: 1.45779 (Simulation time: 0 hr 3 min 53 sec) 
Heartbeat CPU 0 instructions: 170000000 cycles: 90945515 heartbeat IPC: 1.34118 cumulative IPC: 1.43991 (Simulation time: 0 hr 4 min 10 sec) 
Heartbeat CPU 0 instructions: 180000000 cycles: 98304020 heartbeat IPC: 1.35897 cumulative IPC: 1.42927 (Simulation time: 0 hr 4 min 27 sec) 
Heartbeat CPU 0 instructions: 190000002 cycles: 105549146 heartbeat IPC: 1.38024 cumulative IPC: 1.42365 (Simulation time: 0 hr 4 min 43 sec) 
Heartbeat CPU 0 instructions: 200000000 cycles: 112856693 heartbeat IPC: 1.36845 cumulative IPC: 1.41793 (Simulation time: 0 hr 5 min 0 sec) 
Heartbeat CPU 0 instructions: 210000000 cycles: 119772529 heartbeat IPC: 1.44596 cumulative IPC: 1.42043 (Simulation time: 0 hr 5 min 16 sec) 
Heartbeat CPU 0 instructions: 220000000 cycles: 126599160 heartbeat IPC: 1.46485 cumulative IPC: 1.42403 (Simulation time: 0 hr 5 min 32 sec) 
Heartbeat CPU 0 instructions: 230000003 cycles: 133344979 heartbeat IPC: 1.4824 cumulative IPC: 1.42836 (Simulation time: 0 hr 5 min 49 sec) 
Heartbeat CPU 0 instructions: 240000000 cycles: 140147570 heartbeat IPC: 1.47003 cumulative IPC: 1.43126 (Simulation time: 0 hr 6 min 5 sec) 
Heartbeat CPU 0 instructions: 250000001 cycles: 146906580 heartbeat IPC: 1.47951 cumulative IPC: 1.43437 (Simulation time: 0 hr 6 min 21 sec) 
Heartbeat CPU 0 instructions: 260000000 cycles: 153646910 heartbeat IPC: 1.48361 cumulative IPC: 1.43735 (Simulation time: 0 hr 6 min 37 sec) 
Heartbeat CPU 0 instructions: 270000001 cycles: 160660337 heartbeat IPC: 1.42584 cumulative IPC: 1.43667 (Simulation time: 0 hr 6 min 54 sec) 
Heartbeat CPU 0 instructions: 280000000 cycles: 168254803 heartbeat IPC: 1.31675 cumulative IPC: 1.42944 (Simulation time: 0 hr 7 min 10 sec) 
Heartbeat CPU 0 instructions: 290000000 cycles: 176271397 heartbeat IPC: 1.24741 cumulative IPC: 1.41854 (Simulation time: 0 hr 7 min 28 sec) 
Heartbeat CPU 0 instructions: 300000000 cycles: 184511329 heartbeat IPC: 1.2136 cumulative IPC: 1.40667 (Simulation time: 0 hr 7 min 45 sec) 
Heartbeat CPU 0 instructions: 310000002 cycles: 192893228 heartbeat IPC: 1.19305 cumulative IPC: 1.39478 (Simulation time: 0 hr 8 min 3 sec) 
Heartbeat CPU 0 instructions: 320000000 cycles: 203103325 heartbeat IPC: 0.979422 cumulative IPC: 1.3684 (Simulation time: 0 hr 8 min 23 sec) 
Heartbeat CPU 0 instructions: 330000002 cycles: 207778381 heartbeat IPC: 2.13901 cumulative IPC: 1.39017 (Simulation time: 0 hr 8 min 39 sec) 
Heartbeat CPU 0 instructions: 340000000 cycles: 213066898 heartbeat IPC: 1.89089 cumulative IPC: 1.40568 (Simulation time: 0 hr 8 min 56 sec) 
Heartbeat CPU 0 instructions: 350000000 cycles: 220281519 heartbeat IPC: 1.38607 cumulative IPC: 1.40489 (Simulation time: 0 hr 9 min 13 sec) 
Heartbeat CPU 0 instructions: 360000000 cycles: 228004267 heartbeat IPC: 1.29488 cumulative IPC: 1.40031 (Simulation time: 0 hr 9 min 30 sec) 
Heartbeat CPU 0 instructions: 370000000 cycles: 235475240 heartbeat IPC: 1.33851 cumulative IPC: 1.39792 (Simulation time: 0 hr 9 min 47 sec) 
Heartbeat CPU 0 instructions: 380000000 cycles: 242801658 heartbeat IPC: 1.36492 cumulative IPC: 1.39672 (Simulation time: 0 hr 10 min 4 sec) 
Heartbeat CPU 0 instructions: 390000000 cycles: 250972537 heartbeat IPC: 1.22386 cumulative IPC: 1.38995 (Simulation time: 0 hr 10 min 22 sec) 
Heartbeat CPU 0 instructions: 400000000 cycles: 259189548 heartbeat IPC: 1.21699 cumulative IPC: 1.38339 (Simulation time: 0 hr 10 min 39 sec) 
Heartbeat CPU 0 instructions: 410000001 cycles: 267060137 heartbeat IPC: 1.27055 cumulative IPC: 1.37944 (Simulation time: 0 hr 10 min 56 sec) 
Heartbeat CPU 0 instructions: 420000000 cycles: 275173053 heartbeat IPC: 1.2326 cumulative IPC: 1.37432 (Simulation time: 0 hr 11 min 14 sec) 
Heartbeat CPU 0 instructions: 430000001 cycles: 283492847 heartbeat IPC: 1.20195 cumulative IPC: 1.36838 (Simulation time: 0 hr 11 min 32 sec) 
Heartbeat CPU 0 instructions: 440000000 cycles: 291610100 heartbeat IPC: 1.23194 cumulative IPC: 1.36393 (Simulation time: 0 hr 11 min 49 sec) 
Heartbeat CPU 0 instructions: 450000001 cycles: 299554428 heartbeat IPC: 1.25876 cumulative IPC: 1.36069 (Simulation time: 0 hr 12 min 7 sec) 
Heartbeat CPU 0 instructions: 460000000 cycles: 309603872 heartbeat IPC: 0.99508 cumulative IPC: 1.34694 (Simulation time: 0 hr 12 min 26 sec) 
Heartbeat CPU 0 instructions: 470000002 cycles: 314272539 heartbeat IPC: 2.14194 cumulative IPC: 1.36059 (Simulation time: 0 hr 12 min 42 sec) 
Heartbeat CPU 0 instructions: 480000000 cycles: 319579943 heartbeat IPC: 1.88416 cumulative IPC: 1.37061 (Simulation time: 0 hr 12 min 58 sec) 
Heartbeat CPU 0 instructions: 490000001 cycles: 326903888 heartbeat IPC: 1.36538 cumulative IPC: 1.37048 (Simulation time: 0 hr 13 min 16 sec) 
Heartbeat CPU 0 instructions: 500000000 cycles: 335632468 heartbeat IPC: 1.14566 cumulative IPC: 1.36379 (Simulation time: 0 hr 13 min 36 sec) 
Heartbeat CPU 0 instructions: 510000002 cycles: 344361182 heartbeat IPC: 1.14564 cumulative IPC: 1.35748 (Simulation time: 0 hr 13 min 55 sec) 
Heartbeat CPU 0 instructions: 520000000 cycles: 353088523 heartbeat IPC: 1.14582 cumulative IPC: 1.35154 (Simulation time: 0 hr 14 min 15 sec) 
Heartbeat CPU 0 instructions: 530000000 cycles: 361793930 heartbeat IPC: 1.14871 cumulative IPC: 1.34601 (Simulation time: 0 hr 14 min 34 sec) 
Heartbeat CPU 0 instructions: 540000000 cycles: 370054965 heartbeat IPC: 1.2105 cumulative IPC: 1.34259 (Simulation time: 0 hr 14 min 53 sec) 
Heartbeat CPU 0 instructions: 550000000 cycles: 377099167 heartbeat IPC: 1.41961 cumulative IPC: 1.34422 (Simulation time: 0 hr 15 min 10 sec) 
Heartbeat CPU 0 instructions: 560000000 cycles: 383688646 heartbeat IPC: 1.51757 cumulative IPC: 1.34756 (Simulation time: 0 hr 15 min 26 sec) 
Heartbeat CPU 0 instructions: 570000002 cycles: 390246963 heartbeat IPC: 1.52478 cumulative IPC: 1.3509 (Simulation time: 0 hr 15 min 43 sec) 
Heartbeat CPU 0 instructions: 580000000 cycles: 396865274 heartbeat IPC: 1.51096 cumulative IPC: 1.35389 (Simulation time: 0 hr 15 min 59 sec) 
Heartbeat CPU 0 instructions: 590000002 cycles: 403525870 heartbeat IPC: 1.50137 cumulative IPC: 1.35661 (Simulation time: 0 hr 16 min 16 sec) 
Heartbeat CPU 0 instructions: 600000000 cycles: 410305004 heartbeat IPC: 1.47511 cumulative IPC: 1.35879 (Simulation time: 0 hr 16 min 32 sec) 
Finished CPU 0 instructions: 500000000 cycles: 367973690 cumulative IPC: 1.35879 (Simulation time: 0 hr 16 min 32 sec) 

CPU 0 Branch Prediction Accuracy: 93.4682% MPKI: 2.44079
Number of Branches: 18683822 Number of Mispredictions: 1220394
Number of LOAD Instructions: 142551610
Number of LOAD Instructions (ROI): 142551610
Number of STORE Instructions: 44807454
Number of STORE Instructions (ROI): 44807454
Total Destination Memory Operands: 48357071
Total Destination Memory Operands (ROI): 48357071
Total Source Memory Operands: 142551610
Total Source Memory Operands (ROI): 142551610
Number of DEPENDED LOADS: 7392222
Number of DEPENDED LOADS (ROI): 7392222
Number of SQ_ADDED: 48357051
Number of SQ_ADDED (ROI): 48357051
Number of LQ_ADDED: 157243922
Number of LQ_ADDED (ROI): 157243922
Number of Instructions read from trace: 600000256

ChampSim completed all CPUs

Region of Interest Statistics

CPU 0 cumulative IPC: 1.35879 instructions: 500000000 cycles: 367973690
ITLB TOTAL     ACCESS:   88194461  HIT:   88194392  MISS:         69
ITLB LOAD      ACCESS:   88194461  HIT:   88194392  MISS:         69
ITLB RFO       ACCESS:          0  HIT:          0  MISS:          0
ITLB PREFETCH  ACCESS:          0  HIT:          0  MISS:          0
ITLB WRITEBACK ACCESS:          0  HIT:          0  MISS:          0
ITLB PREFETCH  REQUESTED:          0  ISSUED:          0  USEFUL:          0  USELESS:          0
ITLB TOTAL MSHR MERGED:         86
ITLB LOAD MSHR MERGED:         86
ITLB RFO MSHR MERGED:          0
ITLB PREFETCH MSHR MERGED:          0
ITLB WRITEBACK MSHR MERGED:          0
ITLB TOTAL ACCESSES:   88194547 HITS:   88194392 MISSES:        155
ITLB LOAD ACCESSES:   88194547 HITS:   88194392 MISSES:        155
ITLB RFO ACCESSES:          0 HITS:          0 MISSES:          0
ITLB PREFETCH ACCESSES:          0 HITS:          0 MISSES:          0
ITLB WRITEBACK ACCESSES:          0 HITS:          0 MISSES:          0
ITLB RQ ACCESS:  500000000
ITLB RQ TO_CACHE:   88194547
ITLB RQ MERGED:  411805453
ITLB RQ FORWARD:          0
ITLB WQ ACCESS:          0
ITLB WQ TO_CACHE:          0
ITLB WQ MERGED:          0
ITLB WQ FORWARD:          0
DTLB TOTAL     ACCESS:   88206747  HIT:   88079326  MISS:     127421
DTLB LOAD      ACCESS:   59487117  HIT:   59394653  MISS:      92464
DTLB RFO       ACCESS:   28719630  HIT:   28684673  MISS:      34957
DTLB PREFETCH  ACCESS:          0  HIT:          0  MISS:          0
DTLB WRITEBACK ACCESS:          0  HIT:          0  MISS:          0
DTLB PREFETCH  REQUESTED:          0  ISSUED:          0  USEFUL:          0  USELESS:          0
DTLB TOTAL MSHR MERGED:     140939
DTLB LOAD MSHR MERGED:     107574
DTLB RFO MSHR MERGED:      33365
DTLB PREFETCH MSHR MERGED:          0
DTLB WRITEBACK MSHR MERGED:          0
DTLB TOTAL ACCESSES:   88347686 HITS:   88079326 MISSES:     268360
DTLB LOAD ACCESSES:   59594691 HITS:   59394653 MISSES:     200038
DTLB RFO ACCESSES:   28752995 HITS:   28684673 MISSES:      68322
DTLB PREFETCH ACCESSES:          0 HITS:          0 MISSES:          0
DTLB WRITEBACK ACCESSES:          0 HITS:          0 MISSES:          0
DTLB RQ ACCESS:  154561725
DTLB RQ TO_CACHE:   88347686
DTLB RQ MERGED:   66214039
DTLB RQ FORWARD:          0
DTLB WQ ACCESS:          0
DTLB WQ TO_CACHE:          0
DTLB WQ MERGED:          0
DTLB WQ FORWARD:          0
L1D TOTAL     ACCESS:  127793219  HIT:  124569530  MISS:    3223689
L1D LOAD      ACCESS:   53177075  HIT:   51983324  MISS:    1193751
L1D RFO       ACCESS:   37362160  HIT:   36747954  MISS:     614206
L1D PREFETCH  ACCESS:   37253984  HIT:   35838252  MISS:    1415732
L1D WRITEBACK ACCESS:          0  HIT:          0  MISS:          0
L1D PREFETCH  REQUESTED:   53663629  ISSUED:   52459742  USEFUL:     353654  USELESS:    1062043
L1D TOTAL MSHR MERGED:    2964536
L1D LOAD MSHR MERGED:     523629
L1D RFO MSHR MERGED:    1592018
L1D PREFETCH MSHR MERGED:     848889
L1D WRITEBACK MSHR MERGED:          0
L1D TOTAL ACCESSES:  130792447 HITS:  124604222 MISSES:    6188225
L1D LOAD ACCESSES:   53666381 HITS:   51986076 MISSES:    1680305
L1D RFO ACCESSES:   38953063 HITS:   36747954 MISSES:    2205109
L1D PREFETCH ACCESSES:   38173003 HITS:   35870192 MISSES:    2302811
L1D WRITEBACK ACCESSES:          0 HITS:          0 MISSES:          0
L1D RQ ACCESS:  113716833
L1D RQ TO_CACHE:   53663629
L1D RQ MERGED:   60050452
L1D RQ FORWARD:          0
L1D WQ ACCESS:   40844891
L1D WQ TO_CACHE:   38953063
L1D WQ MERGED:    1891828
L1D WQ FORWARD:      34692
L1I TOTAL     ACCESS:  108367620  HIT:  107808550  MISS:     559070
L1I LOAD      ACCESS:  108367620  HIT:  107808550  MISS:     559070
L1I RFO       ACCESS:          0  HIT:          0  MISS:          0
L1I PREFETCH  ACCESS:          0  HIT:          0  MISS:          0
L1I WRITEBACK ACCESS:          0  HIT:          0  MISS:          0
L1I PREFETCH  REQUESTED:          0  ISSUED:          0  USEFUL:          0  USELESS:          0
L1I TOTAL MSHR MERGED:     534066
L1I LOAD MSHR MERGED:     534066
L1I RFO MSHR MERGED:          0
L1I PREFETCH MSHR MERGED:          0
L1I WRITEBACK MSHR MERGED:          0
L1I TOTAL ACCESSES:  108901686 HITS:  107808550 MISSES:    1093136
L1I LOAD ACCESSES:  108901686 HITS:  107808550 MISSES:    1093136
L1I RFO ACCESSES:          0 HITS:          0 MISSES:          0
L1I PREFETCH ACCESSES:          0 HITS:          0 MISSES:          0
L1I WRITEBACK ACCESSES:          0 HITS:          0 MISSES:          0
L1I RQ ACCESS:  500000002
L1I RQ TO_CACHE:  108901686
L1I RQ MERGED:  391098316
L1I RQ FORWARD:          0
L1I WQ ACCESS:          0
L1I WQ TO_CACHE:          0
L1I WQ MERGED:          0
L1I WQ FORWARD:          0
L2C TOTAL     ACCESS:    4691184  HIT:    3867066  MISS:     824118
L2C LOAD      ACCESS:    1715629  HIT:    1562950  MISS:     152679
L2C RFO       ACCESS:     611671  HIT:     421185  MISS:     190486
L2C PREFETCH  ACCESS:    1660934  HIT:    1182172  MISS:     478762
L2C WRITEBACK ACCESS:     702950  HIT:     700759  MISS:       2191
L2C PREFETCH  REQUESTED:     256461  ISSUED:     256461  USEFUL:     173362  USELESS:     306066
L2C TOTAL MSHR MERGED:       9451
L2C LOAD MSHR MERGED:       2261
L2C RFO MSHR MERGED:          0
L2C PREFETCH MSHR MERGED:       7190
L2C WRITEBACK MSHR MERGED:          0
L2C TOTAL ACCESSES:    4711001 HITS:    3868673 MISSES:     842328
L2C LOAD ACCESSES:    1715746 HITS:    1563067 MISSES:     152679
L2C RFO ACCESSES:     613091 HITS:     422605 MISSES:     190486
L2C PREFETCH ACCESSES:    1679214 HITS:    1182242 MISSES:     496972
L2C WRITEBACK ACCESSES:     702950 HITS:     700759 MISSES:       2191
L2C RQ ACCESS:    2328837
L2C RQ TO_CACHE:    2327300
L2C RQ MERGED:          0
L2C RQ FORWARD:          0
L2C WQ ACCESS:     702950
L2C WQ TO_CACHE:     702950
L2C WQ MERGED:          0
L2C WQ FORWARD:       1607
LLC TOTAL     ACCESS:    1045204  HIT:     351843  MISS:     693361
LLC LOAD      ACCESS:     150414  HIT:      48165  MISS:     102249
LLC RFO       ACCESS:     190480  HIT:      11886  MISS:     178594
LLC PREFETCH  ACCESS:     483431  HIT:      86680  MISS:     396751
LLC WRITEBACK ACCESS:     220879  HIT:     205112  MISS:      15767
LLC PREFETCH  REQUESTED:          0  ISSUED:          0  USEFUL:      17133  USELESS:     380381
LLC TOTAL MSHR MERGED:       5018
LLC LOAD MSHR MERGED:       2524
LLC RFO MSHR MERGED:          0
LLC PREFETCH MSHR MERGED:       2494
LLC WRITEBACK MSHR MERGED:          0
LLC TOTAL ACCESSES:    1050232 HITS:     351853 MISSES:     698379
LLC LOAD ACCESSES:     150418 HITS:      48169 MISSES:     102249
LLC RFO ACCESSES:     190486 HITS:      11892 MISSES:     178594
LLC PREFETCH ACCESSES:     488449 HITS:      86680 MISSES:     401769
LLC WRITEBACK ACCESSES:     220879 HITS:     205112 MISSES:      15767
LLC 0 RQ ACCESS:     340904
LLC 0 RQ TO_CACHE:     340894
LLC 0 RQ MERGED:          0
LLC 0 RQ FORWARD:          0
LLC WQ ACCESS:     220879
LLC WQ TO_CACHE:     220879
LLC WQ MERGED:          0
LLC WQ FORWARD:         10
Major fault: 0 Minor fault: 6811
CPU 0 L1D next line prefetcher final stats
CPU 0 L2C PC-based stride prefetcher final stats
All Misses: 810270
All Hits: 441917
SD Algo Stats - Switches: 0 SRR-Repls: 127269 BRR-Repls: 0

DRAM Statistics
 CHANNEL 0
 RQ ROW_BUFFER_HIT:     359551  ROW_BUFFER_MISS:     317772
 DBUS_CONGESTED:     481830
 WQ ROW_BUFFER_HIT:      51837  ROW_BUFFER_MISS:     166074  FULL:          0

 AVG_CONGESTED_CYCLE: 13
LOADS RETIRED: 119922929
INSTR RETIRED: 500000000
