
*** ChampSim Multicore Out-of-Order Simulator ***

Warmup Instructions: 100000000
Simulation Instructions: 500000000
Number of CPUs: 1
LLC sets: 2048
LLC ways: 16
Clean RRIP Policies: 2213230222132302 Dirty RRIP Policies: 1203130212031302 PSEL Width: 10 Track Set: 4294967295 PSEL Mask: 1 Demote Mask: 1040100010401000DS Algo: 0Window size: 0
Off-chip DRAM Size: 4096 MB Channels: 1 Width: 64-bit Data Rate: 1600 MT/s

CPU 0 runs /mnt/beegfs/iconst01/spec2017/x264.trace.gz
NOT SORTED
TRACE STRING: /mnt/beegfs/iconst01/spec2017/x264.trace.gz
SORTED
TRACE STRING: /mnt/beegfs/iconst01/spec2017/x264.trace.gz
INITIAL
TRACE STRING: /mnt/beegfs/iconst01/spec2017/x264.trace.gz

champsim_seed used: 276

CPU 0 L1D next line prefetcher
CPU 0 L2C IP-based stride prefetcher
Initialize DRRIP state
Assign rand_sets[0]: 454  LLC: 2048
rand_sets[0]: 454
Assign rand_sets[1]: 1662  LLC: 2048
rand_sets[1]: 1662
Assign rand_sets[2]: 1921  LLC: 2048
rand_sets[2]: 1921
Assign rand_sets[3]: 1131  LLC: 2048
rand_sets[3]: 1131
Assign rand_sets[4]: 331  LLC: 2048
rand_sets[4]: 331
Assign rand_sets[5]: 1531  LLC: 2048
rand_sets[5]: 1531
Assign rand_sets[6]: 482  LLC: 2048
rand_sets[6]: 482
Assign rand_sets[7]: 1275  LLC: 2048
rand_sets[7]: 1275
Assign rand_sets[8]: 1876  LLC: 2048
rand_sets[8]: 1876
Assign rand_sets[9]: 2038  LLC: 2048
rand_sets[9]: 2038
Assign rand_sets[10]: 701  LLC: 2048
rand_sets[10]: 701
Assign rand_sets[11]: 479  LLC: 2048
rand_sets[11]: 479
Assign rand_sets[12]: 892  LLC: 2048
rand_sets[12]: 892
Assign rand_sets[13]: 1820  LLC: 2048
rand_sets[13]: 1820
Assign rand_sets[14]: 1505  LLC: 2048
rand_sets[14]: 1505
Assign rand_sets[15]: 1159  LLC: 2048
rand_sets[15]: 1159
Assign rand_sets[16]: 513  LLC: 2048
rand_sets[16]: 513
Assign rand_sets[17]: 703  LLC: 2048
rand_sets[17]: 703
Assign rand_sets[18]: 561  LLC: 2048
rand_sets[18]: 561
Assign rand_sets[19]: 990  LLC: 2048
rand_sets[19]: 990
Assign rand_sets[20]: 342  LLC: 2048
rand_sets[20]: 342
Assign rand_sets[21]: 882  LLC: 2048
rand_sets[21]: 882
Assign rand_sets[22]: 15  LLC: 2048
rand_sets[22]: 15
Assign rand_sets[23]: 71  LLC: 2048
rand_sets[23]: 71
Assign rand_sets[24]: 1127  LLC: 2048
rand_sets[24]: 1127
Assign rand_sets[25]: 1382  LLC: 2048
rand_sets[25]: 1382
Assign rand_sets[26]: 647  LLC: 2048
rand_sets[26]: 647
Assign rand_sets[27]: 857  LLC: 2048
rand_sets[27]: 857
Assign rand_sets[28]: 1450  LLC: 2048
rand_sets[28]: 1450
Assign rand_sets[29]: 1160  LLC: 2048
rand_sets[29]: 1160
Assign rand_sets[30]: 1852  LLC: 2048
rand_sets[30]: 1852
Assign rand_sets[31]: 1881  LLC: 2048
rand_sets[31]: 1881
Assign rand_sets[32]: 1770  LLC: 2048
rand_sets[32]: 1770
Assign rand_sets[33]: 1622  LLC: 2048
rand_sets[33]: 1622
Assign rand_sets[34]: 275  LLC: 2048
rand_sets[34]: 275
Assign rand_sets[35]: 635  LLC: 2048
rand_sets[35]: 635
Assign rand_sets[36]: 466  LLC: 2048
rand_sets[36]: 466
Assign rand_sets[37]: 1413  LLC: 2048
rand_sets[37]: 1413
Assign rand_sets[38]: 417  LLC: 2048
rand_sets[38]: 417
Assign rand_sets[39]: 472  LLC: 2048
rand_sets[39]: 472
Assign rand_sets[40]: 1340  LLC: 2048
rand_sets[40]: 1340
Assign rand_sets[41]: 852  LLC: 2048
rand_sets[41]: 852
Assign rand_sets[42]: 1365  LLC: 2048
rand_sets[42]: 1365
Assign rand_sets[43]: 47  LLC: 2048
rand_sets[43]: 47
Assign rand_sets[44]: 823  LLC: 2048
rand_sets[44]: 823
Assign rand_sets[45]: 686  LLC: 2048
rand_sets[45]: 686
Assign rand_sets[46]: 1637  LLC: 2048
rand_sets[46]: 1637
Assign rand_sets[47]: 1115  LLC: 2048
rand_sets[47]: 1115
Assign rand_sets[48]: 986  LLC: 2048
rand_sets[48]: 986
Assign rand_sets[49]: 258  LLC: 2048
rand_sets[49]: 258
Assign rand_sets[50]: 633  LLC: 2048
rand_sets[50]: 633
Assign rand_sets[51]: 920  LLC: 2048
rand_sets[51]: 920
Assign rand_sets[52]: 204  LLC: 2048
rand_sets[52]: 204
Assign rand_sets[53]: 227  LLC: 2048
rand_sets[53]: 227
Assign rand_sets[54]: 1818  LLC: 2048
rand_sets[54]: 1818
Assign rand_sets[55]: 886  LLC: 2048
rand_sets[55]: 886
Assign rand_sets[56]: 1422  LLC: 2048
rand_sets[56]: 1422
Assign rand_sets[57]: 607  LLC: 2048
rand_sets[57]: 607
Assign rand_sets[58]: 217  LLC: 2048
rand_sets[58]: 217
Assign rand_sets[59]: 1945  LLC: 2048
rand_sets[59]: 1945
Assign rand_sets[60]: 143  LLC: 2048
rand_sets[60]: 143
Assign rand_sets[61]: 1311  LLC: 2048
rand_sets[61]: 1311
Assign rand_sets[62]: 319  LLC: 2048
rand_sets[62]: 319
Assign rand_sets[63]: 1846  LLC: 2048
rand_sets[63]: 1846
 CLEAN-RRIP-POLICY-1: 2-2-1-3-2-3-0-2- CLEAN-RRIP-POLICY-2: 2-2-1-3-2-3-0-2-
 DIRTY-RRIP-POLICY-1: 1-2-0-3-1-3-0-2- DIRTY-RRIP-POLICY-2: 1-2-0-3-1-3-0-2-
 PSEL width: 10
Heartbeat CPU 0 instructions: 10000000 cycles: 4124759 heartbeat IPC: 2.42438 cumulative IPC: 2.42438 (Simulation time: 0 hr 0 min 14 sec) 
Heartbeat CPU 0 instructions: 20000000 cycles: 8233863 heartbeat IPC: 2.43362 cumulative IPC: 2.42899 (Simulation time: 0 hr 0 min 27 sec) 
Heartbeat CPU 0 instructions: 30000003 cycles: 12464696 heartbeat IPC: 2.3636 cumulative IPC: 2.4068 (Simulation time: 0 hr 0 min 41 sec) 
Heartbeat CPU 0 instructions: 40000000 cycles: 16636669 heartbeat IPC: 2.39695 cumulative IPC: 2.40433 (Simulation time: 0 hr 0 min 54 sec) 
Heartbeat CPU 0 instructions: 50000000 cycles: 20699150 heartbeat IPC: 2.46155 cumulative IPC: 2.41556 (Simulation time: 0 hr 1 min 8 sec) 
Heartbeat CPU 0 instructions: 60000000 cycles: 25022635 heartbeat IPC: 2.31295 cumulative IPC: 2.39783 (Simulation time: 0 hr 1 min 21 sec) 
Heartbeat CPU 0 instructions: 70000000 cycles: 29370910 heartbeat IPC: 2.29976 cumulative IPC: 2.38331 (Simulation time: 0 hr 1 min 35 sec) 
Heartbeat CPU 0 instructions: 80000000 cycles: 33721041 heartbeat IPC: 2.29878 cumulative IPC: 2.37241 (Simulation time: 0 hr 1 min 48 sec) 
Heartbeat CPU 0 instructions: 90000002 cycles: 38032023 heartbeat IPC: 2.31966 cumulative IPC: 2.36643 (Simulation time: 0 hr 2 min 1 sec) 
Heartbeat CPU 0 instructions: 100000000 cycles: 42328936 heartbeat IPC: 2.32725 cumulative IPC: 2.36245 (Simulation time: 0 hr 2 min 14 sec) 

Warmup complete CPU 0 instructions: 100000001 cycles: 42328937 (Simulation time: 0 hr 2 min 14 sec) 

Heartbeat CPU 0 instructions: 110000001 cycles: 49381826 heartbeat IPC: 1.41786 cumulative IPC: 1.41786 (Simulation time: 0 hr 2 min 32 sec) 
Heartbeat CPU 0 instructions: 120000000 cycles: 58880693 heartbeat IPC: 1.05276 cumulative IPC: 1.20833 (Simulation time: 0 hr 2 min 51 sec) 
Heartbeat CPU 0 instructions: 130000000 cycles: 63689447 heartbeat IPC: 2.07954 cumulative IPC: 1.40446 (Simulation time: 0 hr 3 min 8 sec) 
Heartbeat CPU 0 instructions: 140000000 cycles: 68607880 heartbeat IPC: 2.03317 cumulative IPC: 1.52213 (Simulation time: 0 hr 3 min 24 sec) 
Heartbeat CPU 0 instructions: 150000002 cycles: 75438512 heartbeat IPC: 1.46399 cumulative IPC: 1.51014 (Simulation time: 0 hr 3 min 42 sec) 
Heartbeat CPU 0 instructions: 160000000 cycles: 83277956 heartbeat IPC: 1.2756 cumulative IPC: 1.46524 (Simulation time: 0 hr 4 min 0 sec) 
Heartbeat CPU 0 instructions: 170000000 cycles: 90679868 heartbeat IPC: 1.351 cumulative IPC: 1.44775 (Simulation time: 0 hr 4 min 18 sec) 
Heartbeat CPU 0 instructions: 180000000 cycles: 97977718 heartbeat IPC: 1.37027 cumulative IPC: 1.43759 (Simulation time: 0 hr 4 min 35 sec) 
Heartbeat CPU 0 instructions: 190000002 cycles: 105146646 heartbeat IPC: 1.39491 cumulative IPC: 1.43272 (Simulation time: 0 hr 4 min 52 sec) 
Heartbeat CPU 0 instructions: 200000000 cycles: 112379719 heartbeat IPC: 1.38254 cumulative IPC: 1.42754 (Simulation time: 0 hr 5 min 9 sec) 
Heartbeat CPU 0 instructions: 210000000 cycles: 119251865 heartbeat IPC: 1.45515 cumulative IPC: 1.43 (Simulation time: 0 hr 5 min 26 sec) 
Heartbeat CPU 0 instructions: 220000000 cycles: 126026638 heartbeat IPC: 1.47606 cumulative IPC: 1.43373 (Simulation time: 0 hr 5 min 43 sec) 
Heartbeat CPU 0 instructions: 230000003 cycles: 132753855 heartbeat IPC: 1.4865 cumulative IPC: 1.43766 (Simulation time: 0 hr 5 min 59 sec) 
Heartbeat CPU 0 instructions: 240000000 cycles: 139500463 heartbeat IPC: 1.48223 cumulative IPC: 1.44075 (Simulation time: 0 hr 6 min 16 sec) 
Heartbeat CPU 0 instructions: 250000001 cycles: 146227017 heartbeat IPC: 1.48665 cumulative IPC: 1.44372 (Simulation time: 0 hr 6 min 33 sec) 
Heartbeat CPU 0 instructions: 260000000 cycles: 152934157 heartbeat IPC: 1.49095 cumulative IPC: 1.44659 (Simulation time: 0 hr 6 min 49 sec) 
Heartbeat CPU 0 instructions: 270000001 cycles: 159909240 heartbeat IPC: 1.43367 cumulative IPC: 1.44582 (Simulation time: 0 hr 7 min 6 sec) 
Heartbeat CPU 0 instructions: 280000000 cycles: 167441952 heartbeat IPC: 1.32754 cumulative IPC: 1.4387 (Simulation time: 0 hr 7 min 24 sec) 
Heartbeat CPU 0 instructions: 290000000 cycles: 175367426 heartbeat IPC: 1.26175 cumulative IPC: 1.42816 (Simulation time: 0 hr 7 min 41 sec) 
Heartbeat CPU 0 instructions: 300000000 cycles: 183541655 heartbeat IPC: 1.22336 cumulative IPC: 1.4163 (Simulation time: 0 hr 7 min 59 sec) 
Heartbeat CPU 0 instructions: 310000002 cycles: 191853013 heartbeat IPC: 1.20317 cumulative IPC: 1.40446 (Simulation time: 0 hr 8 min 18 sec) 
Heartbeat CPU 0 instructions: 320000000 cycles: 201840128 heartbeat IPC: 1.00129 cumulative IPC: 1.37921 (Simulation time: 0 hr 8 min 38 sec) 
Heartbeat CPU 0 instructions: 330000002 cycles: 206476175 heartbeat IPC: 2.15701 cumulative IPC: 1.40118 (Simulation time: 0 hr 8 min 54 sec) 
Heartbeat CPU 0 instructions: 340000000 cycles: 211704600 heartbeat IPC: 1.91262 cumulative IPC: 1.41697 (Simulation time: 0 hr 9 min 11 sec) 
Heartbeat CPU 0 instructions: 350000000 cycles: 218922992 heartbeat IPC: 1.38535 cumulative IPC: 1.41568 (Simulation time: 0 hr 9 min 29 sec) 
Heartbeat CPU 0 instructions: 360000000 cycles: 226583569 heartbeat IPC: 1.30538 cumulative IPC: 1.41109 (Simulation time: 0 hr 9 min 47 sec) 
Heartbeat CPU 0 instructions: 370000000 cycles: 233991462 heartbeat IPC: 1.34991 cumulative IPC: 1.40873 (Simulation time: 0 hr 10 min 4 sec) 
Heartbeat CPU 0 instructions: 380000000 cycles: 241264258 heartbeat IPC: 1.37499 cumulative IPC: 1.40749 (Simulation time: 0 hr 10 min 22 sec) 
Heartbeat CPU 0 instructions: 390000000 cycles: 249378731 heartbeat IPC: 1.23237 cumulative IPC: 1.40063 (Simulation time: 0 hr 10 min 39 sec) 
Heartbeat CPU 0 instructions: 400000000 cycles: 257586528 heartbeat IPC: 1.21835 cumulative IPC: 1.39368 (Simulation time: 0 hr 10 min 57 sec) 
Heartbeat CPU 0 instructions: 410000001 cycles: 265411731 heartbeat IPC: 1.27792 cumulative IPC: 1.38962 (Simulation time: 0 hr 11 min 15 sec) 
Heartbeat CPU 0 instructions: 420000000 cycles: 273458772 heartbeat IPC: 1.24269 cumulative IPC: 1.3845 (Simulation time: 0 hr 11 min 32 sec) 
Heartbeat CPU 0 instructions: 430000001 cycles: 281717085 heartbeat IPC: 1.2109 cumulative IPC: 1.37851 (Simulation time: 0 hr 11 min 50 sec) 
Heartbeat CPU 0 instructions: 440000000 cycles: 289759038 heartbeat IPC: 1.24348 cumulative IPC: 1.37413 (Simulation time: 0 hr 12 min 8 sec) 
Heartbeat CPU 0 instructions: 450000001 cycles: 297625047 heartbeat IPC: 1.27129 cumulative IPC: 1.37096 (Simulation time: 0 hr 12 min 26 sec) 
Heartbeat CPU 0 instructions: 460000000 cycles: 307569670 heartbeat IPC: 1.00557 cumulative IPC: 1.35726 (Simulation time: 0 hr 12 min 46 sec) 
Heartbeat CPU 0 instructions: 470000002 cycles: 312196925 heartbeat IPC: 2.16111 cumulative IPC: 1.37104 (Simulation time: 0 hr 13 min 2 sec) 
Heartbeat CPU 0 instructions: 480000000 cycles: 317444892 heartbeat IPC: 1.9055 cumulative IPC: 1.38124 (Simulation time: 0 hr 13 min 19 sec) 
Heartbeat CPU 0 instructions: 490000001 cycles: 324762686 heartbeat IPC: 1.36653 cumulative IPC: 1.38085 (Simulation time: 0 hr 13 min 37 sec) 
Heartbeat CPU 0 instructions: 500000000 cycles: 333493723 heartbeat IPC: 1.14534 cumulative IPC: 1.37379 (Simulation time: 0 hr 13 min 57 sec) 
Heartbeat CPU 0 instructions: 510000002 cycles: 342227161 heartbeat IPC: 1.14502 cumulative IPC: 1.36713 (Simulation time: 0 hr 14 min 17 sec) 
Heartbeat CPU 0 instructions: 520000000 cycles: 350955447 heartbeat IPC: 1.1457 cumulative IPC: 1.36087 (Simulation time: 0 hr 14 min 37 sec) 
Heartbeat CPU 0 instructions: 530000000 cycles: 359661958 heartbeat IPC: 1.14857 cumulative IPC: 1.35504 (Simulation time: 0 hr 14 min 56 sec) 
Heartbeat CPU 0 instructions: 540000000 cycles: 367917536 heartbeat IPC: 1.2113 cumulative IPC: 1.3514 (Simulation time: 0 hr 15 min 15 sec) 
Heartbeat CPU 0 instructions: 550000000 cycles: 374955855 heartbeat IPC: 1.42079 cumulative IPC: 1.35287 (Simulation time: 0 hr 15 min 33 sec) 
Heartbeat CPU 0 instructions: 560000000 cycles: 381569733 heartbeat IPC: 1.51197 cumulative IPC: 1.35597 (Simulation time: 0 hr 15 min 49 sec) 
Heartbeat CPU 0 instructions: 570000002 cycles: 388166236 heartbeat IPC: 1.51596 cumulative IPC: 1.35902 (Simulation time: 0 hr 16 min 6 sec) 
Heartbeat CPU 0 instructions: 580000000 cycles: 394814595 heartbeat IPC: 1.50413 cumulative IPC: 1.36176 (Simulation time: 0 hr 16 min 23 sec) 
Heartbeat CPU 0 instructions: 590000002 cycles: 401501705 heartbeat IPC: 1.49541 cumulative IPC: 1.36425 (Simulation time: 0 hr 16 min 40 sec) 
Heartbeat CPU 0 instructions: 600000000 cycles: 408310192 heartbeat IPC: 1.46875 cumulative IPC: 1.36619 (Simulation time: 0 hr 16 min 58 sec) 
Finished CPU 0 instructions: 500000000 cycles: 365981263 cumulative IPC: 1.36619 (Simulation time: 0 hr 16 min 58 sec) 

CPU 0 Branch Prediction Accuracy: 93.4682% MPKI: 2.44079
Number of Branches: 18683822 Number of Mispredictions: 1220394
Number of LOAD Instructions: 142551610
Number of LOAD Instructions (ROI): 142551610
Number of STORE Instructions: 44807454
Number of STORE Instructions (ROI): 44807454
Total Destination Memory Operands: 48357071
Total Destination Memory Operands (ROI): 48357071
Total Source Memory Operands: 142551610
Total Source Memory Operands (ROI): 142551610
Number of DEPENDED LOADS: 7395100
Number of DEPENDED LOADS (ROI): 7395100
Number of SQ_ADDED: 48357051
Number of SQ_ADDED (ROI): 48357051
Number of LQ_ADDED: 157228529
Number of LQ_ADDED (ROI): 157228529
Number of Instructions read from trace: 600000256

ChampSim completed all CPUs

Region of Interest Statistics

CPU 0 cumulative IPC: 1.36619 instructions: 500000000 cycles: 365981263
ITLB TOTAL     ACCESS:   88177194  HIT:   88177125  MISS:         69
ITLB LOAD      ACCESS:   88177194  HIT:   88177125  MISS:         69
ITLB RFO       ACCESS:          0  HIT:          0  MISS:          0
ITLB PREFETCH  ACCESS:          0  HIT:          0  MISS:          0
ITLB WRITEBACK ACCESS:          0  HIT:          0  MISS:          0
ITLB PREFETCH  REQUESTED:          0  ISSUED:          0  USEFUL:          0  USELESS:          0
ITLB TOTAL MSHR MERGED:         85
ITLB LOAD MSHR MERGED:         85
ITLB RFO MSHR MERGED:          0
ITLB PREFETCH MSHR MERGED:          0
ITLB WRITEBACK MSHR MERGED:          0
ITLB TOTAL ACCESSES:   88177279 HITS:   88177125 MISSES:        154
ITLB LOAD ACCESSES:   88177279 HITS:   88177125 MISSES:        154
ITLB RFO ACCESSES:          0 HITS:          0 MISSES:          0
ITLB PREFETCH ACCESSES:          0 HITS:          0 MISSES:          0
ITLB WRITEBACK ACCESSES:          0 HITS:          0 MISSES:          0
ITLB RQ ACCESS:  500000000
ITLB RQ TO_CACHE:   88177279
ITLB RQ MERGED:  411822721
ITLB RQ FORWARD:          0
ITLB WQ ACCESS:          0
ITLB WQ TO_CACHE:          0
ITLB WQ MERGED:          0
ITLB WQ FORWARD:          0
DTLB TOTAL     ACCESS:   88203231  HIT:   88075816  MISS:     127415
DTLB LOAD      ACCESS:   59485482  HIT:   59393012  MISS:      92470
DTLB RFO       ACCESS:   28717749  HIT:   28682804  MISS:      34945
DTLB PREFETCH  ACCESS:          0  HIT:          0  MISS:          0
DTLB WRITEBACK ACCESS:          0  HIT:          0  MISS:          0
DTLB PREFETCH  REQUESTED:          0  ISSUED:          0  USEFUL:          0  USELESS:          0
DTLB TOTAL MSHR MERGED:     141139
DTLB LOAD MSHR MERGED:     107662
DTLB RFO MSHR MERGED:      33477
DTLB PREFETCH MSHR MERGED:          0
DTLB WRITEBACK MSHR MERGED:          0
DTLB TOTAL ACCESSES:   88344370 HITS:   88075816 MISSES:     268554
DTLB LOAD ACCESSES:   59593144 HITS:   59393012 MISSES:     200132
DTLB RFO ACCESSES:   28751226 HITS:   28682804 MISSES:      68422
DTLB PREFETCH ACCESSES:          0 HITS:          0 MISSES:          0
DTLB WRITEBACK ACCESSES:          0 HITS:          0 MISSES:          0
DTLB RQ ACCESS:  154558791
DTLB RQ TO_CACHE:   88344370
DTLB RQ MERGED:   66214421
DTLB RQ FORWARD:          0
DTLB WQ ACCESS:          0
DTLB WQ TO_CACHE:          0
DTLB WQ MERGED:          0
DTLB WQ FORWARD:          0
L1D TOTAL     ACCESS:  128097625  HIT:  124872017  MISS:    3225608
L1D LOAD      ACCESS:   53172351  HIT:   51976988  MISS:    1195363
L1D RFO       ACCESS:   37385066  HIT:   36770906  MISS:     614160
L1D PREFETCH  ACCESS:   37540208  HIT:   36124123  MISS:    1416085
L1D WRITEBACK ACCESS:          0  HIT:          0  MISS:          0
L1D PREFETCH  REQUESTED:   53657322  ISSUED:   52457318  USEFUL:     352056  USELESS:    1063994
L1D TOTAL MSHR MERGED:    2805997
L1D LOAD MSHR MERGED:     523712
L1D RFO MSHR MERGED:    1569487
L1D PREFETCH MSHR MERGED:     712798
L1D WRITEBACK MSHR MERGED:          0
L1D TOTAL ACCESSES:  130938445 HITS:  124906840 MISSES:    6031605
L1D LOAD ACCESSES:   53660149 HITS:   51979815 MISSES:    1680334
L1D RFO ACCESSES:   38952867 HITS:   36770906 MISSES:    2181961
L1D PREFETCH ACCESSES:   38325429 HITS:   36156119 MISSES:    2169310
L1D WRITEBACK ACCESSES:          0 HITS:          0 MISSES:          0
L1D RQ ACCESS:  113713899
L1D RQ TO_CACHE:   53657322
L1D RQ MERGED:   60053750
L1D RQ FORWARD:          0
L1D WQ ACCESS:   40844891
L1D WQ TO_CACHE:   38952867
L1D WQ MERGED:    1892024
L1D WQ FORWARD:      34823
L1I TOTAL     ACCESS:  108368815  HIT:  107809681  MISS:     559134
L1I LOAD      ACCESS:  108368815  HIT:  107809681  MISS:     559134
L1I RFO       ACCESS:          0  HIT:          0  MISS:          0
L1I PREFETCH  ACCESS:          0  HIT:          0  MISS:          0
L1I WRITEBACK ACCESS:          0  HIT:          0  MISS:          0
L1I PREFETCH  REQUESTED:          0  ISSUED:          0  USEFUL:          0  USELESS:          0
L1I TOTAL MSHR MERGED:     525687
L1I LOAD MSHR MERGED:     525687
L1I RFO MSHR MERGED:          0
L1I PREFETCH MSHR MERGED:          0
L1I WRITEBACK MSHR MERGED:          0
L1I TOTAL ACCESSES:  108894502 HITS:  107809681 MISSES:    1084821
L1I LOAD ACCESSES:  108894502 HITS:  107809681 MISSES:    1084821
L1I RFO ACCESSES:          0 HITS:          0 MISSES:          0
L1I PREFETCH ACCESSES:          0 HITS:          0 MISSES:          0
L1I WRITEBACK ACCESSES:          0 HITS:          0 MISSES:          0
L1I RQ ACCESS:  500000002
L1I RQ TO_CACHE:  108894502
L1I RQ MERGED:  391105500
L1I RQ FORWARD:          0
L1I WQ ACCESS:          0
L1I WQ TO_CACHE:          0
L1I WQ MERGED:          0
L1I WQ FORWARD:          0
L2C TOTAL     ACCESS:    4692047  HIT:    3865988  MISS:     826059
L2C LOAD      ACCESS:    1715647  HIT:    1562761  MISS:     152886
L2C RFO       ACCESS:     611057  HIT:     421171  MISS:     189886
L2C PREFETCH  ACCESS:    1662438  HIT:    1181331  MISS:     481107
L2C WRITEBACK ACCESS:     702905  HIT:     700725  MISS:       2180
L2C PREFETCH  REQUESTED:     256419  ISSUED:     256419  USEFUL:     173147  USELESS:     308626
L2C TOTAL MSHR MERGED:      13349
L2C LOAD MSHR MERGED:       4069
L2C RFO MSHR MERGED:          0
L2C PREFETCH MSHR MERGED:       9280
L2C WRITEBACK MSHR MERGED:          0
L2C TOTAL ACCESSES:    4712194 HITS:    3867581 MISSES:     844613
L2C LOAD ACCESSES:    1715756 HITS:    1562870 MISSES:     152886
L2C RFO ACCESSES:     612474 HITS:     422588 MISSES:     189886
L2C PREFETCH ACCESSES:    1681059 HITS:    1181398 MISSES:     499661
L2C WRITEBACK ACCESSES:     702905 HITS:     700725 MISSES:       2180
L2C RQ ACCESS:    2328230
L2C RQ TO_CACHE:    2326704
L2C RQ MERGED:          0
L2C RQ FORWARD:          0
L2C WQ ACCESS:     702905
L2C WQ TO_CACHE:     702905
L2C WQ MERGED:          0
L2C WQ FORWARD:       1593
LLC TOTAL     ACCESS:    1047631  HIT:     287823  MISS:     759808
LLC LOAD      ACCESS:     148813  HIT:      89630  MISS:      59183
LLC RFO       ACCESS:     189878  HIT:       6219  MISS:     183659
LLC PREFETCH  ACCESS:     488069  HIT:     153252  MISS:     334817
LLC WRITEBACK ACCESS:     220871  HIT:      38722  MISS:     182149
LLC PREFETCH  REQUESTED:          0  ISSUED:          0  USEFUL:       2223  USELESS:     333085
LLC TOTAL MSHR MERGED:       1618
LLC LOAD MSHR MERGED:        571
LLC RFO MSHR MERGED:          0
LLC PREFETCH MSHR MERGED:       1047
LLC WRITEBACK MSHR MERGED:          0
LLC TOTAL ACCESSES:    1049261 HITS:     287835 MISSES:     761426
LLC LOAD ACCESSES:     148817 HITS:      89634 MISSES:      59183
LLC RFO ACCESSES:     189886 HITS:       6227 MISSES:     183659
LLC PREFETCH ACCESSES:     489687 HITS:     153252 MISSES:     336435
LLC WRITEBACK ACCESSES:     220871 HITS:      38722 MISSES:     182149
LLC 0 RQ ACCESS:     338703
LLC 0 RQ TO_CACHE:     338691
LLC 0 RQ MERGED:          0
LLC 0 RQ FORWARD:          0
LLC WQ ACCESS:     220871
LLC WQ TO_CACHE:     220871
LLC WQ MERGED:          0
LLC WQ FORWARD:         12
Major fault: 0 Minor fault: 6811
CPU 0 L1D next line prefetcher final stats
CPU 0 L2C PC-based stride prefetcher final stats
All Misses: 898838
All Hits: 355776
SD Algo Stats - Switches: 0 SRR-Repls: 66566 BRR-Repls: 0

DRAM Statistics
 CHANNEL 0
 RQ ROW_BUFFER_HIT:     289798  ROW_BUFFER_MISS:     287795
 DBUS_CONGESTED:     399887
 WQ ROW_BUFFER_HIT:      24071  ROW_BUFFER_MISS:     191424  FULL:          0

 AVG_CONGESTED_CYCLE: 13
LOADS RETIRED: 119922929
INSTR RETIRED: 500000000
