
*** ChampSim Multicore Out-of-Order Simulator ***

Warmup Instructions: 100000000
Simulation Instructions: 500000000
Number of CPUs: 1
LLC sets: 2048
LLC ways: 16
Clean RRIP Policies: 1211130112111301 Dirty RRIP Policies: 1201130112011301 PSEL Width: 10 Track Set: 4294967295 PSEL Mask: 1 Demote Mask: 4001114440011144DS Algo: 0Window size: 0
Off-chip DRAM Size: 4096 MB Channels: 1 Width: 64-bit Data Rate: 1600 MT/s

CPU 0 runs /mnt/beegfs/iconst01/spec2017/Gcc.trace.gz
NOT SORTED
TRACE STRING: /mnt/beegfs/iconst01/spec2017/Gcc.trace.gz
SORTED
TRACE STRING: /mnt/beegfs/iconst01/spec2017/Gcc.trace.gz
INITIAL
TRACE STRING: /mnt/beegfs/iconst01/spec2017/Gcc.trace.gz

champsim_seed used: 269

CPU 0 L1D next line prefetcher
CPU 0 L2C IP-based stride prefetcher
Initialize DRRIP state
Assign rand_sets[0]: 454  LLC: 2048
rand_sets[0]: 454
Assign rand_sets[1]: 1662  LLC: 2048
rand_sets[1]: 1662
Assign rand_sets[2]: 1921  LLC: 2048
rand_sets[2]: 1921
Assign rand_sets[3]: 1131  LLC: 2048
rand_sets[3]: 1131
Assign rand_sets[4]: 331  LLC: 2048
rand_sets[4]: 331
Assign rand_sets[5]: 1531  LLC: 2048
rand_sets[5]: 1531
Assign rand_sets[6]: 482  LLC: 2048
rand_sets[6]: 482
Assign rand_sets[7]: 1275  LLC: 2048
rand_sets[7]: 1275
Assign rand_sets[8]: 1876  LLC: 2048
rand_sets[8]: 1876
Assign rand_sets[9]: 2038  LLC: 2048
rand_sets[9]: 2038
Assign rand_sets[10]: 701  LLC: 2048
rand_sets[10]: 701
Assign rand_sets[11]: 479  LLC: 2048
rand_sets[11]: 479
Assign rand_sets[12]: 892  LLC: 2048
rand_sets[12]: 892
Assign rand_sets[13]: 1820  LLC: 2048
rand_sets[13]: 1820
Assign rand_sets[14]: 1505  LLC: 2048
rand_sets[14]: 1505
Assign rand_sets[15]: 1159  LLC: 2048
rand_sets[15]: 1159
Assign rand_sets[16]: 513  LLC: 2048
rand_sets[16]: 513
Assign rand_sets[17]: 703  LLC: 2048
rand_sets[17]: 703
Assign rand_sets[18]: 561  LLC: 2048
rand_sets[18]: 561
Assign rand_sets[19]: 990  LLC: 2048
rand_sets[19]: 990
Assign rand_sets[20]: 342  LLC: 2048
rand_sets[20]: 342
Assign rand_sets[21]: 882  LLC: 2048
rand_sets[21]: 882
Assign rand_sets[22]: 15  LLC: 2048
rand_sets[22]: 15
Assign rand_sets[23]: 71  LLC: 2048
rand_sets[23]: 71
Assign rand_sets[24]: 1127  LLC: 2048
rand_sets[24]: 1127
Assign rand_sets[25]: 1382  LLC: 2048
rand_sets[25]: 1382
Assign rand_sets[26]: 647  LLC: 2048
rand_sets[26]: 647
Assign rand_sets[27]: 857  LLC: 2048
rand_sets[27]: 857
Assign rand_sets[28]: 1450  LLC: 2048
rand_sets[28]: 1450
Assign rand_sets[29]: 1160  LLC: 2048
rand_sets[29]: 1160
Assign rand_sets[30]: 1852  LLC: 2048
rand_sets[30]: 1852
Assign rand_sets[31]: 1881  LLC: 2048
rand_sets[31]: 1881
Assign rand_sets[32]: 1770  LLC: 2048
rand_sets[32]: 1770
Assign rand_sets[33]: 1622  LLC: 2048
rand_sets[33]: 1622
Assign rand_sets[34]: 275  LLC: 2048
rand_sets[34]: 275
Assign rand_sets[35]: 635  LLC: 2048
rand_sets[35]: 635
Assign rand_sets[36]: 466  LLC: 2048
rand_sets[36]: 466
Assign rand_sets[37]: 1413  LLC: 2048
rand_sets[37]: 1413
Assign rand_sets[38]: 417  LLC: 2048
rand_sets[38]: 417
Assign rand_sets[39]: 472  LLC: 2048
rand_sets[39]: 472
Assign rand_sets[40]: 1340  LLC: 2048
rand_sets[40]: 1340
Assign rand_sets[41]: 852  LLC: 2048
rand_sets[41]: 852
Assign rand_sets[42]: 1365  LLC: 2048
rand_sets[42]: 1365
Assign rand_sets[43]: 47  LLC: 2048
rand_sets[43]: 47
Assign rand_sets[44]: 823  LLC: 2048
rand_sets[44]: 823
Assign rand_sets[45]: 686  LLC: 2048
rand_sets[45]: 686
Assign rand_sets[46]: 1637  LLC: 2048
rand_sets[46]: 1637
Assign rand_sets[47]: 1115  LLC: 2048
rand_sets[47]: 1115
Assign rand_sets[48]: 986  LLC: 2048
rand_sets[48]: 986
Assign rand_sets[49]: 258  LLC: 2048
rand_sets[49]: 258
Assign rand_sets[50]: 633  LLC: 2048
rand_sets[50]: 633
Assign rand_sets[51]: 920  LLC: 2048
rand_sets[51]: 920
Assign rand_sets[52]: 204  LLC: 2048
rand_sets[52]: 204
Assign rand_sets[53]: 227  LLC: 2048
rand_sets[53]: 227
Assign rand_sets[54]: 1818  LLC: 2048
rand_sets[54]: 1818
Assign rand_sets[55]: 886  LLC: 2048
rand_sets[55]: 886
Assign rand_sets[56]: 1422  LLC: 2048
rand_sets[56]: 1422
Assign rand_sets[57]: 607  LLC: 2048
rand_sets[57]: 607
Assign rand_sets[58]: 217  LLC: 2048
rand_sets[58]: 217
Assign rand_sets[59]: 1945  LLC: 2048
rand_sets[59]: 1945
Assign rand_sets[60]: 143  LLC: 2048
rand_sets[60]: 143
Assign rand_sets[61]: 1311  LLC: 2048
rand_sets[61]: 1311
Assign rand_sets[62]: 319  LLC: 2048
rand_sets[62]: 319
Assign rand_sets[63]: 1846  LLC: 2048
rand_sets[63]: 1846
 CLEAN-RRIP-POLICY-1: 1-2-1-1-1-3-0-1- CLEAN-RRIP-POLICY-2: 1-2-1-1-1-3-0-1-
 DIRTY-RRIP-POLICY-1: 1-2-0-1-1-3-0-1- DIRTY-RRIP-POLICY-2: 1-2-0-1-1-3-0-1-
 PSEL width: 10
Heartbeat CPU 0 instructions: 10000001 cycles: 7315906 heartbeat IPC: 1.36688 cumulative IPC: 1.36688 (Simulation time: 0 hr 0 min 15 sec) 
Heartbeat CPU 0 instructions: 20000000 cycles: 14307539 heartbeat IPC: 1.43028 cumulative IPC: 1.39786 (Simulation time: 0 hr 0 min 30 sec) 
Heartbeat CPU 0 instructions: 30000001 cycles: 21020561 heartbeat IPC: 1.48964 cumulative IPC: 1.42717 (Simulation time: 0 hr 0 min 46 sec) 
Heartbeat CPU 0 instructions: 40000000 cycles: 27481376 heartbeat IPC: 1.54779 cumulative IPC: 1.45553 (Simulation time: 0 hr 1 min 2 sec) 
Heartbeat CPU 0 instructions: 50000001 cycles: 33583110 heartbeat IPC: 1.63888 cumulative IPC: 1.48884 (Simulation time: 0 hr 1 min 17 sec) 
Heartbeat CPU 0 instructions: 60000000 cycles: 40064274 heartbeat IPC: 1.54293 cumulative IPC: 1.49759 (Simulation time: 0 hr 1 min 33 sec) 
Heartbeat CPU 0 instructions: 70000000 cycles: 47102242 heartbeat IPC: 1.42086 cumulative IPC: 1.48613 (Simulation time: 0 hr 1 min 48 sec) 
Heartbeat CPU 0 instructions: 80000000 cycles: 54191887 heartbeat IPC: 1.41051 cumulative IPC: 1.47624 (Simulation time: 0 hr 2 min 3 sec) 
Heartbeat CPU 0 instructions: 90000003 cycles: 61196300 heartbeat IPC: 1.42767 cumulative IPC: 1.47068 (Simulation time: 0 hr 2 min 17 sec) 
Heartbeat CPU 0 instructions: 100000000 cycles: 68363601 heartbeat IPC: 1.39522 cumulative IPC: 1.46277 (Simulation time: 0 hr 2 min 32 sec) 

Warmup complete CPU 0 instructions: 100000004 cycles: 68363602 (Simulation time: 0 hr 2 min 32 sec) 

Heartbeat CPU 0 instructions: 110000003 cycles: 96010203 heartbeat IPC: 0.361708 cumulative IPC: 0.361708 (Simulation time: 0 hr 3 min 0 sec) 
Heartbeat CPU 0 instructions: 120000000 cycles: 123470070 heartbeat IPC: 0.364168 cumulative IPC: 0.362934 (Simulation time: 0 hr 3 min 29 sec) 
Heartbeat CPU 0 instructions: 130000000 cycles: 148452345 heartbeat IPC: 0.400284 cumulative IPC: 0.374584 (Simulation time: 0 hr 3 min 57 sec) 
Heartbeat CPU 0 instructions: 140000000 cycles: 177887838 heartbeat IPC: 0.339726 cumulative IPC: 0.365216 (Simulation time: 0 hr 4 min 25 sec) 
Heartbeat CPU 0 instructions: 150000000 cycles: 207722541 heartbeat IPC: 0.33518 cumulative IPC: 0.358786 (Simulation time: 0 hr 4 min 53 sec) 
Heartbeat CPU 0 instructions: 160000000 cycles: 235125202 heartbeat IPC: 0.364928 cumulative IPC: 0.359795 (Simulation time: 0 hr 5 min 21 sec) 
Heartbeat CPU 0 instructions: 170000001 cycles: 263140076 heartbeat IPC: 0.356953 cumulative IPC: 0.359386 (Simulation time: 0 hr 5 min 50 sec) 
Heartbeat CPU 0 instructions: 180000000 cycles: 291559331 heartbeat IPC: 0.351874 cumulative IPC: 0.35843 (Simulation time: 0 hr 6 min 19 sec) 
Heartbeat CPU 0 instructions: 190000002 cycles: 319538923 heartbeat IPC: 0.357403 cumulative IPC: 0.358315 (Simulation time: 0 hr 6 min 48 sec) 
Heartbeat CPU 0 instructions: 200000000 cycles: 347864634 heartbeat IPC: 0.353036 cumulative IPC: 0.35778 (Simulation time: 0 hr 7 min 17 sec) 
Heartbeat CPU 0 instructions: 210000002 cycles: 375684542 heartbeat IPC: 0.359455 cumulative IPC: 0.357932 (Simulation time: 0 hr 7 min 45 sec) 
Heartbeat CPU 0 instructions: 220000000 cycles: 404793608 heartbeat IPC: 0.343536 cumulative IPC: 0.356686 (Simulation time: 0 hr 8 min 13 sec) 
Heartbeat CPU 0 instructions: 230000000 cycles: 432328893 heartbeat IPC: 0.36317 cumulative IPC: 0.357177 (Simulation time: 0 hr 8 min 40 sec) 
Heartbeat CPU 0 instructions: 240000000 cycles: 458273959 heartbeat IPC: 0.38543 cumulative IPC: 0.359057 (Simulation time: 0 hr 9 min 7 sec) 
Heartbeat CPU 0 instructions: 250000000 cycles: 488394759 heartbeat IPC: 0.331997 cumulative IPC: 0.357116 (Simulation time: 0 hr 9 min 37 sec) 
Heartbeat CPU 0 instructions: 260000000 cycles: 515485253 heartbeat IPC: 0.369133 cumulative IPC: 0.357844 (Simulation time: 0 hr 10 min 5 sec) 
Heartbeat CPU 0 instructions: 270000003 cycles: 543898322 heartbeat IPC: 0.351951 cumulative IPC: 0.357492 (Simulation time: 0 hr 10 min 34 sec) 
Heartbeat CPU 0 instructions: 280000000 cycles: 572021911 heartbeat IPC: 0.355573 cumulative IPC: 0.357385 (Simulation time: 0 hr 11 min 4 sec) 
Heartbeat CPU 0 instructions: 290000000 cycles: 600880707 heartbeat IPC: 0.346515 cumulative IPC: 0.356796 (Simulation time: 0 hr 11 min 33 sec) 
Heartbeat CPU 0 instructions: 300000000 cycles: 630756848 heartbeat IPC: 0.334715 cumulative IPC: 0.355623 (Simulation time: 0 hr 12 min 1 sec) 
Heartbeat CPU 0 instructions: 310000001 cycles: 660121297 heartbeat IPC: 0.340548 cumulative IPC: 0.354875 (Simulation time: 0 hr 12 min 29 sec) 
Heartbeat CPU 0 instructions: 320000000 cycles: 688315557 heartbeat IPC: 0.354682 cumulative IPC: 0.354866 (Simulation time: 0 hr 12 min 57 sec) 
Heartbeat CPU 0 instructions: 330000000 cycles: 716940090 heartbeat IPC: 0.349351 cumulative IPC: 0.354623 (Simulation time: 0 hr 13 min 25 sec) 
Heartbeat CPU 0 instructions: 340000000 cycles: 746200348 heartbeat IPC: 0.34176 cumulative IPC: 0.354068 (Simulation time: 0 hr 13 min 54 sec) 
Heartbeat CPU 0 instructions: 350000003 cycles: 773218524 heartbeat IPC: 0.370121 cumulative IPC: 0.354683 (Simulation time: 0 hr 14 min 21 sec) 
Heartbeat CPU 0 instructions: 360000000 cycles: 801284485 heartbeat IPC: 0.356303 cumulative IPC: 0.354745 (Simulation time: 0 hr 14 min 48 sec) 
Heartbeat CPU 0 instructions: 370000000 cycles: 829427110 heartbeat IPC: 0.355333 cumulative IPC: 0.354767 (Simulation time: 0 hr 15 min 15 sec) 
Heartbeat CPU 0 instructions: 380000000 cycles: 857909296 heartbeat IPC: 0.351097 cumulative IPC: 0.354634 (Simulation time: 0 hr 15 min 42 sec) 
Heartbeat CPU 0 instructions: 390000001 cycles: 885490523 heartbeat IPC: 0.362565 cumulative IPC: 0.354902 (Simulation time: 0 hr 16 min 9 sec) 
Heartbeat CPU 0 instructions: 400000000 cycles: 914113251 heartbeat IPC: 0.349373 cumulative IPC: 0.354715 (Simulation time: 0 hr 16 min 36 sec) 
Heartbeat CPU 0 instructions: 410000001 cycles: 941381065 heartbeat IPC: 0.366733 cumulative IPC: 0.35509 (Simulation time: 0 hr 17 min 3 sec) 
Heartbeat CPU 0 instructions: 420000000 cycles: 968661741 heartbeat IPC: 0.36656 cumulative IPC: 0.355438 (Simulation time: 0 hr 17 min 30 sec) 
Heartbeat CPU 0 instructions: 430000002 cycles: 996337468 heartbeat IPC: 0.361328 cumulative IPC: 0.355613 (Simulation time: 0 hr 17 min 57 sec) 
Heartbeat CPU 0 instructions: 440000000 cycles: 1025887345 heartbeat IPC: 0.338411 cumulative IPC: 0.355083 (Simulation time: 0 hr 18 min 24 sec) 
Heartbeat CPU 0 instructions: 450000002 cycles: 1055126297 heartbeat IPC: 0.34201 cumulative IPC: 0.354695 (Simulation time: 0 hr 18 min 52 sec) 
Heartbeat CPU 0 instructions: 460000000 cycles: 1082792507 heartbeat IPC: 0.361452 cumulative IPC: 0.354879 (Simulation time: 0 hr 19 min 19 sec) 
Heartbeat CPU 0 instructions: 470000000 cycles: 1110402936 heartbeat IPC: 0.362182 cumulative IPC: 0.355073 (Simulation time: 0 hr 19 min 46 sec) 
Heartbeat CPU 0 instructions: 480000000 cycles: 1138259535 heartbeat IPC: 0.358981 cumulative IPC: 0.355175 (Simulation time: 0 hr 20 min 12 sec) 
Heartbeat CPU 0 instructions: 490000000 cycles: 1165824888 heartbeat IPC: 0.362774 cumulative IPC: 0.355366 (Simulation time: 0 hr 20 min 39 sec) 
Heartbeat CPU 0 instructions: 500000000 cycles: 1194133243 heartbeat IPC: 0.353253 cumulative IPC: 0.355312 (Simulation time: 0 hr 21 min 7 sec) 
Heartbeat CPU 0 instructions: 510000000 cycles: 1229273327 heartbeat IPC: 0.284575 cumulative IPC: 0.353171 (Simulation time: 0 hr 21 min 37 sec) 
Heartbeat CPU 0 instructions: 520000000 cycles: 1257266282 heartbeat IPC: 0.357233 cumulative IPC: 0.353267 (Simulation time: 0 hr 22 min 5 sec) 
Heartbeat CPU 0 instructions: 530000001 cycles: 1286559700 heartbeat IPC: 0.341374 cumulative IPC: 0.352981 (Simulation time: 0 hr 22 min 33 sec) 
Heartbeat CPU 0 instructions: 540000000 cycles: 1314588197 heartbeat IPC: 0.35678 cumulative IPC: 0.353066 (Simulation time: 0 hr 23 min 1 sec) 
Heartbeat CPU 0 instructions: 550000001 cycles: 1343774161 heartbeat IPC: 0.34263 cumulative IPC: 0.352828 (Simulation time: 0 hr 23 min 31 sec) 
Heartbeat CPU 0 instructions: 560000000 cycles: 1369141408 heartbeat IPC: 0.394209 cumulative IPC: 0.353635 (Simulation time: 0 hr 23 min 59 sec) 
Heartbeat CPU 0 instructions: 570000000 cycles: 1398597770 heartbeat IPC: 0.339485 cumulative IPC: 0.353321 (Simulation time: 0 hr 24 min 27 sec) 
Heartbeat CPU 0 instructions: 580000000 cycles: 1426502554 heartbeat IPC: 0.358361 cumulative IPC: 0.353425 (Simulation time: 0 hr 24 min 56 sec) 
Heartbeat CPU 0 instructions: 590000001 cycles: 1451276787 heartbeat IPC: 0.403645 cumulative IPC: 0.354324 (Simulation time: 0 hr 25 min 22 sec) 
Heartbeat CPU 0 instructions: 600000000 cycles: 1477390347 heartbeat IPC: 0.382943 cumulative IPC: 0.354855 (Simulation time: 0 hr 25 min 50 sec) 
Finished CPU 0 instructions: 500000000 cycles: 1409026767 cumulative IPC: 0.354855 (Simulation time: 0 hr 25 min 50 sec) 

CPU 0 Branch Prediction Accuracy: 86.4311% MPKI: 26.2662
Number of Branches: 96788573 Number of Mispredictions: 13133102
Number of LOAD Instructions: 164682285
Number of LOAD Instructions (ROI): 164682285
Number of STORE Instructions: 78194750
Number of STORE Instructions (ROI): 78194750
Total Destination Memory Operands: 83268534
Total Destination Memory Operands (ROI): 83268534
Total Source Memory Operands: 164712438
Total Source Memory Operands (ROI): 164712438
Number of DEPENDED LOADS: 7060593
Number of DEPENDED LOADS (ROI): 7060593
Number of SQ_ADDED: 83268522
Number of SQ_ADDED (ROI): 83268522
Number of LQ_ADDED: 236548305
Number of LQ_ADDED (ROI): 236548305
Number of Instructions read from trace: 600000066

ChampSim completed all CPUs

Region of Interest Statistics

CPU 0 cumulative IPC: 0.354855 instructions: 500000000 cycles: 1409026767
ITLB TOTAL     ACCESS:  100512186  HIT:  100307740  MISS:     204446
ITLB LOAD      ACCESS:  100512186  HIT:  100307740  MISS:     204446
ITLB RFO       ACCESS:          0  HIT:          0  MISS:          0
ITLB PREFETCH  ACCESS:          0  HIT:          0  MISS:          0
ITLB WRITEBACK ACCESS:          0  HIT:          0  MISS:          0
ITLB PREFETCH  REQUESTED:          0  ISSUED:          0  USEFUL:          0  USELESS:          0
ITLB TOTAL MSHR MERGED:     172424
ITLB LOAD MSHR MERGED:     172424
ITLB RFO MSHR MERGED:          0
ITLB PREFETCH MSHR MERGED:          0
ITLB WRITEBACK MSHR MERGED:          0
ITLB TOTAL ACCESSES:  100684610 HITS:  100307740 MISSES:     376870
ITLB LOAD ACCESSES:  100684610 HITS:  100307740 MISSES:     376870
ITLB RFO ACCESSES:          0 HITS:          0 MISSES:          0
ITLB PREFETCH ACCESSES:          0 HITS:          0 MISSES:          0
ITLB WRITEBACK ACCESSES:          0 HITS:          0 MISSES:          0
ITLB RQ ACCESS:  500000057
ITLB RQ TO_CACHE:  100684610
ITLB RQ MERGED:  399315447
ITLB RQ FORWARD:          0
ITLB WQ ACCESS:          0
ITLB WQ TO_CACHE:          0
ITLB WQ MERGED:          0
ITLB WQ FORWARD:          0
DTLB TOTAL     ACCESS:  165335357  HIT:  164701010  MISS:     634347
DTLB LOAD      ACCESS:  106291810  HIT:  105721821  MISS:     569989
DTLB RFO       ACCESS:   59043547  HIT:   58979189  MISS:      64358
DTLB PREFETCH  ACCESS:          0  HIT:          0  MISS:          0
DTLB WRITEBACK ACCESS:          0  HIT:          0  MISS:          0
DTLB PREFETCH  REQUESTED:          0  ISSUED:          0  USEFUL:          0  USELESS:          0
DTLB TOTAL MSHR MERGED:      99924
DTLB LOAD MSHR MERGED:      59472
DTLB RFO MSHR MERGED:      40452
DTLB PREFETCH MSHR MERGED:          0
DTLB WRITEBACK MSHR MERGED:          0
DTLB TOTAL ACCESSES:  165435281 HITS:  164701010 MISSES:     734271
DTLB LOAD ACCESSES:  106351282 HITS:  105721821 MISSES:     629461
DTLB RFO ACCESSES:   59083999 HITS:   58979189 MISSES:     104810
DTLB PREFETCH ACCESSES:          0 HITS:          0 MISSES:          0
DTLB WRITEBACK ACCESSES:          0 HITS:          0 MISSES:          0
DTLB RQ ACCESS:  200310306
DTLB RQ TO_CACHE:  165435281
DTLB RQ MERGED:   34875025
DTLB RQ FORWARD:          0
DTLB WQ ACCESS:          0
DTLB WQ TO_CACHE:          0
DTLB WQ MERGED:          0
DTLB WQ FORWARD:          0
L1D TOTAL     ACCESS:  281842270  HIT:  273932891  MISS:    7909379
L1D LOAD      ACCESS:  110426142  HIT:  107151740  MISS:    3274402
L1D RFO       ACCESS:   67101572  HIT:   66210319  MISS:     891253
L1D PREFETCH  ACCESS:  104314556  HIT:  100570832  MISS:    3743724
L1D WRITEBACK ACCESS:          0  HIT:          0  MISS:          0
L1D PREFETCH  REQUESTED:  110815240  ISSUED:  109115910  USEFUL:    1664490  USELESS:    2079198
L1D TOTAL MSHR MERGED:    2858028
L1D LOAD MSHR MERGED:     482936
L1D RFO MSHR MERGED:    1884994
L1D PREFETCH MSHR MERGED:     490098
L1D WRITEBACK MSHR MERGED:          0
L1D TOTAL ACCESSES:  284727860 HITS:  273960453 MISSES:   10767407
L1D LOAD ACCESSES:  110816786 HITS:  107153286 MISSES:    3663500
L1D RFO ACCESSES:   68974125 HITS:   66210319 MISSES:    2763806
L1D PREFETCH ACCESSES:  104936949 HITS:  100596848 MISSES:    4340101
L1D WRITEBACK ACCESSES:          0 HITS:          0 MISSES:          0
L1D RQ ACCESS:  130757703
L1D RQ TO_CACHE:  110815243
L1D RQ MERGED:   19940914
L1D RQ FORWARD:          0
L1D WQ ACCESS:   69552603
L1D WQ TO_CACHE:   68974126
L1D WQ MERGED:     578477
L1D WQ FORWARD:      27562
L1I TOTAL     ACCESS:  126560009  HIT:  122321456  MISS:    4238553
L1I LOAD      ACCESS:  126560009  HIT:  122321456  MISS:    4238553
L1I RFO       ACCESS:          0  HIT:          0  MISS:          0
L1I PREFETCH  ACCESS:          0  HIT:          0  MISS:          0
L1I WRITEBACK ACCESS:          0  HIT:          0  MISS:          0
L1I PREFETCH  REQUESTED:          0  ISSUED:          0  USEFUL:          0  USELESS:          0
L1I TOTAL MSHR MERGED:    1834506
L1I LOAD MSHR MERGED:    1834506
L1I RFO MSHR MERGED:          0
L1I PREFETCH MSHR MERGED:          0
L1I WRITEBACK MSHR MERGED:          0
L1I TOTAL ACCESSES:  128394518 HITS:  122321456 MISSES:    6073062
L1I LOAD ACCESSES:  128394518 HITS:  122321456 MISSES:    6073062
L1I RFO ACCESSES:          0 HITS:          0 MISSES:          0
L1I PREFETCH ACCESSES:          0 HITS:          0 MISSES:          0
L1I WRITEBACK ACCESSES:          0 HITS:          0 MISSES:          0
L1I RQ ACCESS:  500000057
L1I RQ TO_CACHE:  128394518
L1I RQ MERGED:  371605539
L1I RQ FORWARD:          0
L1I WQ ACCESS:          0
L1I WQ TO_CACHE:          0
L1I WQ MERGED:          0
L1I WQ FORWARD:          0
L2C TOTAL     ACCESS:   14904797  HIT:   11158255  MISS:    3746542
L2C LOAD      ACCESS:    7418910  HIT:    5098719  MISS:    2320191
L2C RFO       ACCESS:     878711  HIT:     409909  MISS:     468802
L2C PREFETCH  ACCESS:    4567927  HIT:    3627637  MISS:     940290
L2C WRITEBACK ACCESS:    2039249  HIT:    2021990  MISS:      17259
L2C PREFETCH  REQUESTED:     842740  ISSUED:     842740  USEFUL:     203232  USELESS:     736764
L2C TOTAL MSHR MERGED:       7470
L2C LOAD MSHR MERGED:        923
L2C RFO MSHR MERGED:          0
L2C PREFETCH MSHR MERGED:       6547
L2C WRITEBACK MSHR MERGED:          0
L2C TOTAL ACCESSES:   14913189 HITS:   11158706 MISSES:    3754483
L2C LOAD ACCESSES:    7419117 HITS:    5098926 MISSES:    2320191
L2C RFO ACCESSES:     878812 HITS:     410010 MISSES:     468802
L2C PREFETCH ACCESSES:    4576011 HITS:    3627780 MISSES:     948231
L2C WRITEBACK ACCESSES:    2039249 HITS:    2021990 MISSES:      17259
L2C RQ ACCESS:    8297932
L2C RQ TO_CACHE:    8297624
L2C RQ MERGED:          0
L2C RQ FORWARD:          0
L2C WQ ACCESS:    2039249
L2C WQ TO_CACHE:    2039249
L2C WQ MERGED:          0
L2C WQ FORWARD:        451
LLC TOTAL     ACCESS:    4609911  HIT:    3999659  MISS:     610252
LLC LOAD      ACCESS:    2319256  HIT:    2081053  MISS:     238203
LLC RFO       ACCESS:     468791  HIT:     374243  MISS:      94548
LLC PREFETCH  ACCESS:     941557  HIT:     708524  MISS:     233033
LLC WRITEBACK ACCESS:     880307  HIT:     835839  MISS:      44468
LLC PREFETCH  REQUESTED:          0  ISSUED:          0  USEFUL:      40301  USELESS:     193928
LLC TOTAL MSHR MERGED:        109
LLC LOAD MSHR MERGED:         30
LLC RFO MSHR MERGED:          0
LLC PREFETCH MSHR MERGED:         79
LLC WRITEBACK MSHR MERGED:          0
LLC TOTAL ACCESSES:    4610053 HITS:    3999692 MISSES:     610361
LLC LOAD ACCESSES:    2319268 HITS:    2081065 MISSES:     238203
LLC RFO ACCESSES:     468802 HITS:     374254 MISSES:      94548
LLC PREFETCH ACCESSES:     941676 HITS:     708534 MISSES:     233142
LLC WRITEBACK ACCESSES:     880307 HITS:     835839 MISSES:      44468
LLC 0 RQ ACCESS:    2788070
LLC 0 RQ TO_CACHE:    2788047
LLC 0 RQ MERGED:          0
LLC 0 RQ FORWARD:          0
LLC WQ ACCESS:     880307
LLC WQ TO_CACHE:     880307
LLC WQ MERGED:          0
LLC WQ FORWARD:         33
Major fault: 0 Minor fault: 12862
CPU 0 L1D next line prefetcher final stats
CPU 0 L2C PC-based stride prefetcher final stats
All Misses: 722535
All Hits: 4704382
SD Algo Stats - Switches: 0 SRR-Repls: 279496 BRR-Repls: 0

DRAM Statistics
 CHANNEL 0
 RQ ROW_BUFFER_HIT:     122599  ROW_BUFFER_MISS:     441402
 DBUS_CONGESTED:     407611
 WQ ROW_BUFFER_HIT:      24416  ROW_BUFFER_MISS:     218938  FULL:          0

 AVG_CONGESTED_CYCLE: 13
LOADS RETIRED: 136549171
INSTR RETIRED: 500000000
