
*** ChampSim Multicore Out-of-Order Simulator ***

Warmup Instructions: 100000000
Simulation Instructions: 500000000
Number of CPUs: 1
LLC sets: 2048
LLC ways: 16
Clean RRIP Policies: 2223230222232302 Dirty RRIP Policies: 1203130212031302 PSEL Width: 10 Track Set: 4294967295 PSEL Mask: 1 Demote Mask: 1040100310401003DS Algo: 0Window size: 0
Off-chip DRAM Size: 4096 MB Channels: 1 Width: 64-bit Data Rate: 1600 MT/s

CPU 0 runs /mnt/beegfs/iconst01/spec2017/Fotonik3d.trace.gz
NOT SORTED
TRACE STRING: /mnt/beegfs/iconst01/spec2017/Fotonik3d.trace.gz
SORTED
TRACE STRING: /mnt/beegfs/iconst01/spec2017/Fotonik3d.trace.gz
INITIAL
TRACE STRING: /mnt/beegfs/iconst01/spec2017/Fotonik3d.trace.gz

champsim_seed used: 881

CPU 0 L1D next line prefetcher
CPU 0 L2C IP-based stride prefetcher
Initialize DRRIP state
Assign rand_sets[0]: 454  LLC: 2048
rand_sets[0]: 454
Assign rand_sets[1]: 1662  LLC: 2048
rand_sets[1]: 1662
Assign rand_sets[2]: 1921  LLC: 2048
rand_sets[2]: 1921
Assign rand_sets[3]: 1131  LLC: 2048
rand_sets[3]: 1131
Assign rand_sets[4]: 331  LLC: 2048
rand_sets[4]: 331
Assign rand_sets[5]: 1531  LLC: 2048
rand_sets[5]: 1531
Assign rand_sets[6]: 482  LLC: 2048
rand_sets[6]: 482
Assign rand_sets[7]: 1275  LLC: 2048
rand_sets[7]: 1275
Assign rand_sets[8]: 1876  LLC: 2048
rand_sets[8]: 1876
Assign rand_sets[9]: 2038  LLC: 2048
rand_sets[9]: 2038
Assign rand_sets[10]: 701  LLC: 2048
rand_sets[10]: 701
Assign rand_sets[11]: 479  LLC: 2048
rand_sets[11]: 479
Assign rand_sets[12]: 892  LLC: 2048
rand_sets[12]: 892
Assign rand_sets[13]: 1820  LLC: 2048
rand_sets[13]: 1820
Assign rand_sets[14]: 1505  LLC: 2048
rand_sets[14]: 1505
Assign rand_sets[15]: 1159  LLC: 2048
rand_sets[15]: 1159
Assign rand_sets[16]: 513  LLC: 2048
rand_sets[16]: 513
Assign rand_sets[17]: 703  LLC: 2048
rand_sets[17]: 703
Assign rand_sets[18]: 561  LLC: 2048
rand_sets[18]: 561
Assign rand_sets[19]: 990  LLC: 2048
rand_sets[19]: 990
Assign rand_sets[20]: 342  LLC: 2048
rand_sets[20]: 342
Assign rand_sets[21]: 882  LLC: 2048
rand_sets[21]: 882
Assign rand_sets[22]: 15  LLC: 2048
rand_sets[22]: 15
Assign rand_sets[23]: 71  LLC: 2048
rand_sets[23]: 71
Assign rand_sets[24]: 1127  LLC: 2048
rand_sets[24]: 1127
Assign rand_sets[25]: 1382  LLC: 2048
rand_sets[25]: 1382
Assign rand_sets[26]: 647  LLC: 2048
rand_sets[26]: 647
Assign rand_sets[27]: 857  LLC: 2048
rand_sets[27]: 857
Assign rand_sets[28]: 1450  LLC: 2048
rand_sets[28]: 1450
Assign rand_sets[29]: 1160  LLC: 2048
rand_sets[29]: 1160
Assign rand_sets[30]: 1852  LLC: 2048
rand_sets[30]: 1852
Assign rand_sets[31]: 1881  LLC: 2048
rand_sets[31]: 1881
Assign rand_sets[32]: 1770  LLC: 2048
rand_sets[32]: 1770
Assign rand_sets[33]: 1622  LLC: 2048
rand_sets[33]: 1622
Assign rand_sets[34]: 275  LLC: 2048
rand_sets[34]: 275
Assign rand_sets[35]: 635  LLC: 2048
rand_sets[35]: 635
Assign rand_sets[36]: 466  LLC: 2048
rand_sets[36]: 466
Assign rand_sets[37]: 1413  LLC: 2048
rand_sets[37]: 1413
Assign rand_sets[38]: 417  LLC: 2048
rand_sets[38]: 417
Assign rand_sets[39]: 472  LLC: 2048
rand_sets[39]: 472
Assign rand_sets[40]: 1340  LLC: 2048
rand_sets[40]: 1340
Assign rand_sets[41]: 852  LLC: 2048
rand_sets[41]: 852
Assign rand_sets[42]: 1365  LLC: 2048
rand_sets[42]: 1365
Assign rand_sets[43]: 47  LLC: 2048
rand_sets[43]: 47
Assign rand_sets[44]: 823  LLC: 2048
rand_sets[44]: 823
Assign rand_sets[45]: 686  LLC: 2048
rand_sets[45]: 686
Assign rand_sets[46]: 1637  LLC: 2048
rand_sets[46]: 1637
Assign rand_sets[47]: 1115  LLC: 2048
rand_sets[47]: 1115
Assign rand_sets[48]: 986  LLC: 2048
rand_sets[48]: 986
Assign rand_sets[49]: 258  LLC: 2048
rand_sets[49]: 258
Assign rand_sets[50]: 633  LLC: 2048
rand_sets[50]: 633
Assign rand_sets[51]: 920  LLC: 2048
rand_sets[51]: 920
Assign rand_sets[52]: 204  LLC: 2048
rand_sets[52]: 204
Assign rand_sets[53]: 227  LLC: 2048
rand_sets[53]: 227
Assign rand_sets[54]: 1818  LLC: 2048
rand_sets[54]: 1818
Assign rand_sets[55]: 886  LLC: 2048
rand_sets[55]: 886
Assign rand_sets[56]: 1422  LLC: 2048
rand_sets[56]: 1422
Assign rand_sets[57]: 607  LLC: 2048
rand_sets[57]: 607
Assign rand_sets[58]: 217  LLC: 2048
rand_sets[58]: 217
Assign rand_sets[59]: 1945  LLC: 2048
rand_sets[59]: 1945
Assign rand_sets[60]: 143  LLC: 2048
rand_sets[60]: 143
Assign rand_sets[61]: 1311  LLC: 2048
rand_sets[61]: 1311
Assign rand_sets[62]: 319  LLC: 2048
rand_sets[62]: 319
Assign rand_sets[63]: 1846  LLC: 2048
rand_sets[63]: 1846
 CLEAN-RRIP-POLICY-1: 2-2-2-3-2-3-0-2- CLEAN-RRIP-POLICY-2: 2-2-2-3-2-3-0-2-
 DIRTY-RRIP-POLICY-1: 1-2-0-3-1-3-0-2- DIRTY-RRIP-POLICY-2: 1-2-0-3-1-3-0-2-
 PSEL width: 10
Heartbeat CPU 0 instructions: 10000002 cycles: 7306708 heartbeat IPC: 1.36861 cumulative IPC: 1.36861 (Simulation time: 0 hr 0 min 25 sec) 
Heartbeat CPU 0 instructions: 20000000 cycles: 14613560 heartbeat IPC: 1.36858 cumulative IPC: 1.36859 (Simulation time: 0 hr 0 min 50 sec) 
Heartbeat CPU 0 instructions: 30000001 cycles: 21920271 heartbeat IPC: 1.36861 cumulative IPC: 1.3686 (Simulation time: 0 hr 1 min 15 sec) 
Heartbeat CPU 0 instructions: 40000000 cycles: 29226861 heartbeat IPC: 1.36863 cumulative IPC: 1.3686 (Simulation time: 0 hr 1 min 40 sec) 
Heartbeat CPU 0 instructions: 50000001 cycles: 36533444 heartbeat IPC: 1.36863 cumulative IPC: 1.36861 (Simulation time: 0 hr 2 min 5 sec) 
Heartbeat CPU 0 instructions: 60000000 cycles: 43840269 heartbeat IPC: 1.36858 cumulative IPC: 1.3686 (Simulation time: 0 hr 2 min 30 sec) 
Heartbeat CPU 0 instructions: 70000002 cycles: 51146889 heartbeat IPC: 1.36862 cumulative IPC: 1.36861 (Simulation time: 0 hr 2 min 55 sec) 
Heartbeat CPU 0 instructions: 80000000 cycles: 58453501 heartbeat IPC: 1.36862 cumulative IPC: 1.36861 (Simulation time: 0 hr 3 min 20 sec) 
Heartbeat CPU 0 instructions: 90000003 cycles: 65763906 heartbeat IPC: 1.36791 cumulative IPC: 1.36853 (Simulation time: 0 hr 3 min 45 sec) 
Heartbeat CPU 0 instructions: 100000000 cycles: 73074369 heartbeat IPC: 1.3679 cumulative IPC: 1.36847 (Simulation time: 0 hr 4 min 11 sec) 

Warmup complete CPU 0 instructions: 100000002 cycles: 73074381 (Simulation time: 0 hr 4 min 11 sec) 

Heartbeat CPU 0 instructions: 110000001 cycles: 85509903 heartbeat IPC: 0.804147 cumulative IPC: 0.804148 (Simulation time: 0 hr 4 min 41 sec) 
Heartbeat CPU 0 instructions: 120000000 cycles: 97870349 heartbeat IPC: 0.809032 cumulative IPC: 0.806583 (Simulation time: 0 hr 5 min 11 sec) 
Heartbeat CPU 0 instructions: 130000000 cycles: 110293707 heartbeat IPC: 0.804935 cumulative IPC: 0.806033 (Simulation time: 0 hr 5 min 41 sec) 
Heartbeat CPU 0 instructions: 140000000 cycles: 122706044 heartbeat IPC: 0.80565 cumulative IPC: 0.805937 (Simulation time: 0 hr 6 min 11 sec) 
Heartbeat CPU 0 instructions: 150000000 cycles: 135056285 heartbeat IPC: 0.809701 cumulative IPC: 0.806687 (Simulation time: 0 hr 6 min 41 sec) 
Heartbeat CPU 0 instructions: 160000000 cycles: 147443299 heartbeat IPC: 0.807297 cumulative IPC: 0.806789 (Simulation time: 0 hr 7 min 11 sec) 
Heartbeat CPU 0 instructions: 170000001 cycles: 159846289 heartbeat IPC: 0.806257 cumulative IPC: 0.806713 (Simulation time: 0 hr 7 min 41 sec) 
Heartbeat CPU 0 instructions: 180000000 cycles: 172234334 heartbeat IPC: 0.80723 cumulative IPC: 0.806777 (Simulation time: 0 hr 8 min 12 sec) 
Heartbeat CPU 0 instructions: 190000000 cycles: 184651381 heartbeat IPC: 0.805344 cumulative IPC: 0.806618 (Simulation time: 0 hr 8 min 42 sec) 
Heartbeat CPU 0 instructions: 200000000 cycles: 197032395 heartbeat IPC: 0.807688 cumulative IPC: 0.806725 (Simulation time: 0 hr 9 min 12 sec) 
Heartbeat CPU 0 instructions: 210000002 cycles: 209463568 heartbeat IPC: 0.804429 cumulative IPC: 0.806516 (Simulation time: 0 hr 9 min 42 sec) 
Heartbeat CPU 0 instructions: 220000000 cycles: 221888869 heartbeat IPC: 0.804809 cumulative IPC: 0.806373 (Simulation time: 0 hr 10 min 12 sec) 
Heartbeat CPU 0 instructions: 230000002 cycles: 234267340 heartbeat IPC: 0.807854 cumulative IPC: 0.806487 (Simulation time: 0 hr 10 min 42 sec) 
Heartbeat CPU 0 instructions: 240000000 cycles: 247400276 heartbeat IPC: 0.761444 cumulative IPC: 0.803094 (Simulation time: 0 hr 11 min 13 sec) 
Heartbeat CPU 0 instructions: 250000001 cycles: 264760338 heartbeat IPC: 0.576035 cumulative IPC: 0.78253 (Simulation time: 0 hr 11 min 46 sec) 
Heartbeat CPU 0 instructions: 260000000 cycles: 281984383 heartbeat IPC: 0.580584 cumulative IPC: 0.76588 (Simulation time: 0 hr 12 min 19 sec) 
Heartbeat CPU 0 instructions: 270000000 cycles: 299265153 heartbeat IPC: 0.578678 cumulative IPC: 0.751578 (Simulation time: 0 hr 12 min 51 sec) 
Heartbeat CPU 0 instructions: 280000000 cycles: 316512043 heartbeat IPC: 0.579815 cumulative IPC: 0.739409 (Simulation time: 0 hr 13 min 24 sec) 
Heartbeat CPU 0 instructions: 290000001 cycles: 345049127 heartbeat IPC: 0.350421 cumulative IPC: 0.698594 (Simulation time: 0 hr 14 min 4 sec) 
Heartbeat CPU 0 instructions: 300000000 cycles: 382087333 heartbeat IPC: 0.269991 cumulative IPC: 0.647222 (Simulation time: 0 hr 14 min 50 sec) 
Heartbeat CPU 0 instructions: 310000000 cycles: 398722404 heartbeat IPC: 0.60114 cumulative IPC: 0.644868 (Simulation time: 0 hr 15 min 22 sec) 
Heartbeat CPU 0 instructions: 320000000 cycles: 415313734 heartbeat IPC: 0.602724 cumulative IPC: 0.642825 (Simulation time: 0 hr 15 min 54 sec) 
Heartbeat CPU 0 instructions: 330000003 cycles: 431959681 heartbeat IPC: 0.600747 cumulative IPC: 0.640873 (Simulation time: 0 hr 16 min 25 sec) 
Heartbeat CPU 0 instructions: 340000000 cycles: 448572258 heartbeat IPC: 0.601953 cumulative IPC: 0.639151 (Simulation time: 0 hr 16 min 56 sec) 
Heartbeat CPU 0 instructions: 350000001 cycles: 463387130 heartbeat IPC: 0.674997 cumulative IPC: 0.640512 (Simulation time: 0 hr 17 min 26 sec) 
Heartbeat CPU 0 instructions: 360000000 cycles: 475245981 heartbeat IPC: 0.843252 cumulative IPC: 0.64649 (Simulation time: 0 hr 17 min 53 sec) 
Heartbeat CPU 0 instructions: 370000002 cycles: 486945373 heartbeat IPC: 0.854745 cumulative IPC: 0.652377 (Simulation time: 0 hr 18 min 20 sec) 
Heartbeat CPU 0 instructions: 380000000 cycles: 498842992 heartbeat IPC: 0.840504 cumulative IPC: 0.657634 (Simulation time: 0 hr 18 min 48 sec) 
Heartbeat CPU 0 instructions: 390000003 cycles: 512198528 heartbeat IPC: 0.748753 cumulative IPC: 0.660406 (Simulation time: 0 hr 19 min 16 sec) 
Heartbeat CPU 0 instructions: 400000000 cycles: 524489118 heartbeat IPC: 0.81363 cumulative IPC: 0.664577 (Simulation time: 0 hr 19 min 43 sec) 
Heartbeat CPU 0 instructions: 410000003 cycles: 536495111 heartbeat IPC: 0.832918 cumulative IPC: 0.668939 (Simulation time: 0 hr 20 min 11 sec) 
Heartbeat CPU 0 instructions: 420000000 cycles: 549351674 heartbeat IPC: 0.777813 cumulative IPC: 0.671878 (Simulation time: 0 hr 20 min 39 sec) 
Heartbeat CPU 0 instructions: 430000003 cycles: 567776574 heartbeat IPC: 0.542744 cumulative IPC: 0.667068 (Simulation time: 0 hr 21 min 4 sec) 
Heartbeat CPU 0 instructions: 440000000 cycles: 586236819 heartbeat IPC: 0.541704 cumulative IPC: 0.662558 (Simulation time: 0 hr 21 min 30 sec) 
Heartbeat CPU 0 instructions: 450000003 cycles: 604707247 heartbeat IPC: 0.541406 cumulative IPC: 0.658349 (Simulation time: 0 hr 21 min 55 sec) 
Heartbeat CPU 0 instructions: 460000000 cycles: 623160236 heartbeat IPC: 0.541917 cumulative IPC: 0.654443 (Simulation time: 0 hr 22 min 20 sec) 
Heartbeat CPU 0 instructions: 470000003 cycles: 641617700 heartbeat IPC: 0.541786 cumulative IPC: 0.650786 (Simulation time: 0 hr 22 min 45 sec) 
Heartbeat CPU 0 instructions: 480000000 cycles: 660068490 heartbeat IPC: 0.541982 cumulative IPC: 0.647366 (Simulation time: 0 hr 23 min 11 sec) 
Heartbeat CPU 0 instructions: 490000003 cycles: 678558577 heartbeat IPC: 0.54083 cumulative IPC: 0.644113 (Simulation time: 0 hr 23 min 36 sec) 
Heartbeat CPU 0 instructions: 500000000 cycles: 696987452 heartbeat IPC: 0.542627 cumulative IPC: 0.641115 (Simulation time: 0 hr 24 min 1 sec) 
Heartbeat CPU 0 instructions: 510000003 cycles: 715449772 heartbeat IPC: 0.541644 cumulative IPC: 0.638256 (Simulation time: 0 hr 24 min 26 sec) 
Heartbeat CPU 0 instructions: 520000000 cycles: 733885776 heartbeat IPC: 0.542417 cumulative IPC: 0.635582 (Simulation time: 0 hr 24 min 52 sec) 
Heartbeat CPU 0 instructions: 530000001 cycles: 752369767 heartbeat IPC: 0.541009 cumulative IPC: 0.633009 (Simulation time: 0 hr 25 min 17 sec) 
Heartbeat CPU 0 instructions: 540000000 cycles: 770765588 heartbeat IPC: 0.543602 cumulative IPC: 0.630651 (Simulation time: 0 hr 25 min 42 sec) 
Heartbeat CPU 0 instructions: 550000001 cycles: 789165205 heartbeat IPC: 0.54349 cumulative IPC: 0.628412 (Simulation time: 0 hr 26 min 7 sec) 
Heartbeat CPU 0 instructions: 560000000 cycles: 807577259 heartbeat IPC: 0.543122 cumulative IPC: 0.626274 (Simulation time: 0 hr 26 min 33 sec) 
Heartbeat CPU 0 instructions: 570000001 cycles: 825971096 heartbeat IPC: 0.54366 cumulative IPC: 0.624256 (Simulation time: 0 hr 26 min 58 sec) 
Heartbeat CPU 0 instructions: 580000000 cycles: 844318881 heartbeat IPC: 0.545025 cumulative IPC: 0.622371 (Simulation time: 0 hr 27 min 23 sec) 
Heartbeat CPU 0 instructions: 590000001 cycles: 862718773 heartbeat IPC: 0.543482 cumulative IPC: 0.620533 (Simulation time: 0 hr 27 min 48 sec) 
Heartbeat CPU 0 instructions: 600000000 cycles: 881110596 heartbeat IPC: 0.54372 cumulative IPC: 0.618784 (Simulation time: 0 hr 28 min 14 sec) 
Finished CPU 0 instructions: 500000002 cycles: 808036229 cumulative IPC: 0.618784 (Simulation time: 0 hr 28 min 14 sec) 

CPU 0 Branch Prediction Accuracy: 99.5931% MPKI: 0.08288
Number of Branches: 10184133 Number of Mispredictions: 41440
Number of LOAD Instructions: 261155957
Number of LOAD Instructions (ROI): 261155957
Number of STORE Instructions: 57884062
Number of STORE Instructions (ROI): 57884062
Total Destination Memory Operands: 83293336
Total Destination Memory Operands (ROI): 83293336
Total Source Memory Operands: 261155957
Total Source Memory Operands (ROI): 261155957
Number of DEPENDED LOADS: 22255323
Number of DEPENDED LOADS (ROI): 22255323
Number of SQ_ADDED: 83293300
Number of SQ_ADDED (ROI): 83293300
Number of LQ_ADDED: 1766913872
Number of LQ_ADDED (ROI): 1766913872
Number of Instructions read from trace: 600000257

ChampSim completed all CPUs

Region of Interest Statistics

CPU 0 cumulative IPC: 0.618784 instructions: 500000002 cycles: 808036229
ITLB TOTAL     ACCESS:   94649296  HIT:   94649258  MISS:         38
ITLB LOAD      ACCESS:   94649296  HIT:   94649258  MISS:         38
ITLB RFO       ACCESS:          0  HIT:          0  MISS:          0
ITLB PREFETCH  ACCESS:          0  HIT:          0  MISS:          0
ITLB WRITEBACK ACCESS:          0  HIT:          0  MISS:          0
ITLB PREFETCH  REQUESTED:          0  ISSUED:          0  USEFUL:          0  USELESS:          0
ITLB TOTAL MSHR MERGED:         93
ITLB LOAD MSHR MERGED:         93
ITLB RFO MSHR MERGED:          0
ITLB PREFETCH MSHR MERGED:          0
ITLB WRITEBACK MSHR MERGED:          0
ITLB TOTAL ACCESSES:   94649389 HITS:   94649258 MISSES:        131
ITLB LOAD ACCESSES:   94649389 HITS:   94649258 MISSES:        131
ITLB RFO ACCESSES:          0 HITS:          0 MISSES:          0
ITLB PREFETCH ACCESSES:          0 HITS:          0 MISSES:          0
ITLB WRITEBACK ACCESSES:          0 HITS:          0 MISSES:          0
ITLB RQ ACCESS:  500000001
ITLB RQ TO_CACHE:   94649390
ITLB RQ MERGED:  405350611
ITLB RQ FORWARD:          0
ITLB WQ ACCESS:          0
ITLB WQ TO_CACHE:          0
ITLB WQ MERGED:          0
ITLB WQ FORWARD:          0
DTLB TOTAL     ACCESS:  149174081  HIT:  148577121  MISS:     596960
DTLB LOAD      ACCESS:  107300863  HIT:  106703914  MISS:     596949
DTLB RFO       ACCESS:   41873218  HIT:   41873207  MISS:         11
DTLB PREFETCH  ACCESS:          0  HIT:          0  MISS:          0
DTLB WRITEBACK ACCESS:          0  HIT:          0  MISS:          0
DTLB PREFETCH  REQUESTED:          0  ISSUED:          0  USEFUL:          0  USELESS:          0
DTLB TOTAL MSHR MERGED:     134321
DTLB LOAD MSHR MERGED:     134321
DTLB RFO MSHR MERGED:          0
DTLB PREFETCH MSHR MERGED:          0
DTLB WRITEBACK MSHR MERGED:          0
DTLB TOTAL ACCESSES:  149308402 HITS:  148577121 MISSES:     731281
DTLB LOAD ACCESSES:  107435184 HITS:  106703914 MISSES:     731270
DTLB RFO ACCESSES:   41873218 HITS:   41873207 MISSES:         11
DTLB PREFETCH ACCESSES:          0 HITS:          0 MISSES:          0
DTLB WRITEBACK ACCESSES:          0 HITS:          0 MISSES:          0
DTLB RQ ACCESS:  259760571
DTLB RQ TO_CACHE:  149308402
DTLB RQ MERGED:  110452169
DTLB RQ FORWARD:          0
DTLB WQ ACCESS:          0
DTLB WQ TO_CACHE:          0
DTLB WQ MERGED:          0
DTLB WQ FORWARD:          0
L1D TOTAL     ACCESS:  261059666  HIT:  245659178  MISS:   15400488
L1D LOAD      ACCESS:  118067949  HIT:  112565728  MISS:    5502221
L1D RFO       ACCESS:   68946619  HIT:   68932213  MISS:      14406
L1D PREFETCH  ACCESS:   74045098  HIT:   64161237  MISS:    9883861
L1D WRITEBACK ACCESS:          0  HIT:          0  MISS:          0
L1D PREFETCH  REQUESTED:  120657056  ISSUED:  119094214  USEFUL:    8010351  USELESS:    1873532
L1D TOTAL MSHR MERGED:   16517747
L1D LOAD MSHR MERGED:    5002071
L1D RFO MSHR MERGED:      21951
L1D PREFETCH MSHR MERGED:   11493725
L1D WRITEBACK MSHR MERGED:          0
L1D TOTAL ACCESSES:  277687652 HITS:  245769417 MISSES:   31918235
L1D LOAD ACCESSES:  120664577 HITS:  112573249 MISSES:    8091328
L1D RFO ACCESSES:   68968570 HITS:   68932213 MISSES:      36357
L1D PREFETCH ACCESSES:   88054505 HITS:   64263955 MISSES:   23790550
L1D WRITEBACK ACCESSES:          0 HITS:          0 MISSES:          0
L1D RQ ACCESS:  190686255
L1D RQ TO_CACHE:  120657056
L1D RQ MERGED:   70021678
L1D RQ FORWARD:          0
L1D WQ ACCESS:   69074336
L1D WQ TO_CACHE:   68968572
L1D WQ MERGED:     105764
L1D WQ FORWARD:     110239
L1I TOTAL     ACCESS:  121564918  HIT:  121563845  MISS:       1073
L1I LOAD      ACCESS:  121564918  HIT:  121563845  MISS:       1073
L1I RFO       ACCESS:          0  HIT:          0  MISS:          0
L1I PREFETCH  ACCESS:          0  HIT:          0  MISS:          0
L1I WRITEBACK ACCESS:          0  HIT:          0  MISS:          0
L1I PREFETCH  REQUESTED:          0  ISSUED:          0  USEFUL:          0  USELESS:          0
L1I TOTAL MSHR MERGED:       1072
L1I LOAD MSHR MERGED:       1072
L1I RFO MSHR MERGED:          0
L1I PREFETCH MSHR MERGED:          0
L1I WRITEBACK MSHR MERGED:          0
L1I TOTAL ACCESSES:  121565990 HITS:  121563845 MISSES:       2145
L1I LOAD ACCESSES:  121565990 HITS:  121563845 MISSES:       2145
L1I RFO ACCESSES:          0 HITS:          0 MISSES:          0
L1I PREFETCH ACCESSES:          0 HITS:          0 MISSES:          0
L1I WRITEBACK ACCESSES:          0 HITS:          0 MISSES:          0
L1I RQ ACCESS:  500000000
L1I RQ TO_CACHE:  121565990
L1I RQ MERGED:  378434010
L1I RQ FORWARD:          0
L1I WQ ACCESS:          0
L1I WQ TO_CACHE:          0
L1I WQ MERGED:          0
L1I WQ FORWARD:          0
L2C TOTAL     ACCESS:   22472480  HIT:    9151098  MISS:   13321382
L2C LOAD      ACCESS:    3090292  HIT:     416666  MISS:    2673626
L2C RFO       ACCESS:      14406  HIT:      13993  MISS:        413
L2C PREFETCH  ACCESS:   12737854  HIT:    2092307  MISS:   10645547
L2C WRITEBACK ACCESS:    6629928  HIT:    6628132  MISS:       1796
L2C PREFETCH  REQUESTED:     693145  ISSUED:     693145  USEFUL:     186409  USELESS:   10459936
L2C TOTAL MSHR MERGED:      71204
L2C LOAD MSHR MERGED:      22324
L2C RFO MSHR MERGED:          0
L2C PREFETCH MSHR MERGED:      48880
L2C WRITEBACK MSHR MERGED:          0
L2C TOTAL ACCESSES:   22684572 HITS:    9151151 MISSES:   13533421
L2C LOAD ACCESSES:    3090330 HITS:     416704 MISSES:    2673626
L2C RFO ACCESSES:      14406 HITS:      13993 MISSES:        413
L2C PREFETCH ACCESSES:   12949908 HITS:    2092322 MISSES:   10857586
L2C WRITEBACK ACCESSES:    6629928 HITS:    6628132 MISSES:       1796
L2C RQ ACCESS:    3104736
L2C RQ TO_CACHE:    3104698
L2C RQ MERGED:          0
L2C RQ FORWARD:          0
L2C WQ ACCESS:    6629928
L2C WQ TO_CACHE:    6629928
L2C WQ MERGED:          0
L2C WQ FORWARD:         53
LLC TOTAL     ACCESS:   20028880  HIT:    1878640  MISS:   18150240
LLC LOAD      ACCESS:    2651302  HIT:     422205  MISS:    2229097
LLC RFO       ACCESS:        413  HIT:         19  MISS:        394
LLC PREFETCH  ACCESS:   10785929  HIT:     114407  MISS:   10671522
LLC WRITEBACK ACCESS:    6591236  HIT:    1342009  MISS:    5249227
LLC PREFETCH  REQUESTED:          0  ISSUED:          0  USEFUL:      45911  USELESS:   10626758
LLC TOTAL MSHR MERGED:      21358
LLC LOAD MSHR MERGED:       9858
LLC RFO MSHR MERGED:          0
LLC PREFETCH MSHR MERGED:      11500
LLC WRITEBACK MSHR MERGED:          0
LLC TOTAL ACCESSES:   20050241 HITS:    1878642 MISSES:   18171599
LLC LOAD ACCESSES:    2651302 HITS:     422205 MISSES:    2229097
LLC RFO ACCESSES:        413 HITS:         19 MISSES:        394
LLC PREFETCH ACCESSES:   10807290 HITS:     114409 MISSES:   10692881
LLC WRITEBACK ACCESSES:    6591236 HITS:    1342009 MISSES:    5249227
LLC 0 RQ ACCESS:    2651715
LLC 0 RQ TO_CACHE:    2651715
LLC 0 RQ MERGED:          0
LLC 0 RQ FORWARD:          0
LLC WQ ACCESS:    6591237
LLC WQ TO_CACHE:    6591237
LLC WQ MERGED:          0
LLC WQ FORWARD:          2
Major fault: 0 Minor fault: 183991
CPU 0 L1D next line prefetcher final stats
CPU 0 L2C PC-based stride prefetcher final stats
All Misses: 21017020
All Hits: 1942906
SD Algo Stats - Switches: 0 SRR-Repls: 2280016 BRR-Repls: 0

DRAM Statistics
 CHANNEL 0
 RQ ROW_BUFFER_HIT:    7167799  ROW_BUFFER_MISS:    5733215
 DBUS_CONGESTED:   11515448
 WQ ROW_BUFFER_HIT:    1416645  ROW_BUFFER_MISS:    5168199  FULL:          0

 AVG_CONGESTED_CYCLE: 13
LOADS RETIRED: 204440772
INSTR RETIRED: 500000000
