
*** ChampSim Multicore Out-of-Order Simulator ***

Warmup Instructions: 100000000
Simulation Instructions: 500000000
Number of CPUs: 1
LLC sets: 2048
LLC ways: 16
Clean RRIP Policies: 2223230222232302 Dirty RRIP Policies: 1203130212031302 PSEL Width: 10 Track Set: 4294967295 PSEL Mask: 1 Demote Mask: 1040100310401003DS Algo: 0Window size: 0
Off-chip DRAM Size: 4096 MB Channels: 1 Width: 64-bit Data Rate: 1600 MT/s

CPU 0 runs /mnt/beegfs/iconst01/spec2017/Gcc.trace.gz
NOT SORTED
TRACE STRING: /mnt/beegfs/iconst01/spec2017/Gcc.trace.gz
SORTED
TRACE STRING: /mnt/beegfs/iconst01/spec2017/Gcc.trace.gz
INITIAL
TRACE STRING: /mnt/beegfs/iconst01/spec2017/Gcc.trace.gz

champsim_seed used: 269

CPU 0 L1D next line prefetcher
CPU 0 L2C IP-based stride prefetcher
Initialize DRRIP state
Assign rand_sets[0]: 454  LLC: 2048
rand_sets[0]: 454
Assign rand_sets[1]: 1662  LLC: 2048
rand_sets[1]: 1662
Assign rand_sets[2]: 1921  LLC: 2048
rand_sets[2]: 1921
Assign rand_sets[3]: 1131  LLC: 2048
rand_sets[3]: 1131
Assign rand_sets[4]: 331  LLC: 2048
rand_sets[4]: 331
Assign rand_sets[5]: 1531  LLC: 2048
rand_sets[5]: 1531
Assign rand_sets[6]: 482  LLC: 2048
rand_sets[6]: 482
Assign rand_sets[7]: 1275  LLC: 2048
rand_sets[7]: 1275
Assign rand_sets[8]: 1876  LLC: 2048
rand_sets[8]: 1876
Assign rand_sets[9]: 2038  LLC: 2048
rand_sets[9]: 2038
Assign rand_sets[10]: 701  LLC: 2048
rand_sets[10]: 701
Assign rand_sets[11]: 479  LLC: 2048
rand_sets[11]: 479
Assign rand_sets[12]: 892  LLC: 2048
rand_sets[12]: 892
Assign rand_sets[13]: 1820  LLC: 2048
rand_sets[13]: 1820
Assign rand_sets[14]: 1505  LLC: 2048
rand_sets[14]: 1505
Assign rand_sets[15]: 1159  LLC: 2048
rand_sets[15]: 1159
Assign rand_sets[16]: 513  LLC: 2048
rand_sets[16]: 513
Assign rand_sets[17]: 703  LLC: 2048
rand_sets[17]: 703
Assign rand_sets[18]: 561  LLC: 2048
rand_sets[18]: 561
Assign rand_sets[19]: 990  LLC: 2048
rand_sets[19]: 990
Assign rand_sets[20]: 342  LLC: 2048
rand_sets[20]: 342
Assign rand_sets[21]: 882  LLC: 2048
rand_sets[21]: 882
Assign rand_sets[22]: 15  LLC: 2048
rand_sets[22]: 15
Assign rand_sets[23]: 71  LLC: 2048
rand_sets[23]: 71
Assign rand_sets[24]: 1127  LLC: 2048
rand_sets[24]: 1127
Assign rand_sets[25]: 1382  LLC: 2048
rand_sets[25]: 1382
Assign rand_sets[26]: 647  LLC: 2048
rand_sets[26]: 647
Assign rand_sets[27]: 857  LLC: 2048
rand_sets[27]: 857
Assign rand_sets[28]: 1450  LLC: 2048
rand_sets[28]: 1450
Assign rand_sets[29]: 1160  LLC: 2048
rand_sets[29]: 1160
Assign rand_sets[30]: 1852  LLC: 2048
rand_sets[30]: 1852
Assign rand_sets[31]: 1881  LLC: 2048
rand_sets[31]: 1881
Assign rand_sets[32]: 1770  LLC: 2048
rand_sets[32]: 1770
Assign rand_sets[33]: 1622  LLC: 2048
rand_sets[33]: 1622
Assign rand_sets[34]: 275  LLC: 2048
rand_sets[34]: 275
Assign rand_sets[35]: 635  LLC: 2048
rand_sets[35]: 635
Assign rand_sets[36]: 466  LLC: 2048
rand_sets[36]: 466
Assign rand_sets[37]: 1413  LLC: 2048
rand_sets[37]: 1413
Assign rand_sets[38]: 417  LLC: 2048
rand_sets[38]: 417
Assign rand_sets[39]: 472  LLC: 2048
rand_sets[39]: 472
Assign rand_sets[40]: 1340  LLC: 2048
rand_sets[40]: 1340
Assign rand_sets[41]: 852  LLC: 2048
rand_sets[41]: 852
Assign rand_sets[42]: 1365  LLC: 2048
rand_sets[42]: 1365
Assign rand_sets[43]: 47  LLC: 2048
rand_sets[43]: 47
Assign rand_sets[44]: 823  LLC: 2048
rand_sets[44]: 823
Assign rand_sets[45]: 686  LLC: 2048
rand_sets[45]: 686
Assign rand_sets[46]: 1637  LLC: 2048
rand_sets[46]: 1637
Assign rand_sets[47]: 1115  LLC: 2048
rand_sets[47]: 1115
Assign rand_sets[48]: 986  LLC: 2048
rand_sets[48]: 986
Assign rand_sets[49]: 258  LLC: 2048
rand_sets[49]: 258
Assign rand_sets[50]: 633  LLC: 2048
rand_sets[50]: 633
Assign rand_sets[51]: 920  LLC: 2048
rand_sets[51]: 920
Assign rand_sets[52]: 204  LLC: 2048
rand_sets[52]: 204
Assign rand_sets[53]: 227  LLC: 2048
rand_sets[53]: 227
Assign rand_sets[54]: 1818  LLC: 2048
rand_sets[54]: 1818
Assign rand_sets[55]: 886  LLC: 2048
rand_sets[55]: 886
Assign rand_sets[56]: 1422  LLC: 2048
rand_sets[56]: 1422
Assign rand_sets[57]: 607  LLC: 2048
rand_sets[57]: 607
Assign rand_sets[58]: 217  LLC: 2048
rand_sets[58]: 217
Assign rand_sets[59]: 1945  LLC: 2048
rand_sets[59]: 1945
Assign rand_sets[60]: 143  LLC: 2048
rand_sets[60]: 143
Assign rand_sets[61]: 1311  LLC: 2048
rand_sets[61]: 1311
Assign rand_sets[62]: 319  LLC: 2048
rand_sets[62]: 319
Assign rand_sets[63]: 1846  LLC: 2048
rand_sets[63]: 1846
 CLEAN-RRIP-POLICY-1: 2-2-2-3-2-3-0-2- CLEAN-RRIP-POLICY-2: 2-2-2-3-2-3-0-2-
 DIRTY-RRIP-POLICY-1: 1-2-0-3-1-3-0-2- DIRTY-RRIP-POLICY-2: 1-2-0-3-1-3-0-2-
 PSEL width: 10
Heartbeat CPU 0 instructions: 10000001 cycles: 7315981 heartbeat IPC: 1.36687 cumulative IPC: 1.36687 (Simulation time: 0 hr 0 min 14 sec) 
Heartbeat CPU 0 instructions: 20000000 cycles: 14307599 heartbeat IPC: 1.43028 cumulative IPC: 1.39786 (Simulation time: 0 hr 0 min 28 sec) 
Heartbeat CPU 0 instructions: 30000001 cycles: 21020457 heartbeat IPC: 1.48968 cumulative IPC: 1.42718 (Simulation time: 0 hr 0 min 44 sec) 
Heartbeat CPU 0 instructions: 40000000 cycles: 27481225 heartbeat IPC: 1.5478 cumulative IPC: 1.45554 (Simulation time: 0 hr 0 min 59 sec) 
Heartbeat CPU 0 instructions: 50000001 cycles: 33582964 heartbeat IPC: 1.63888 cumulative IPC: 1.48885 (Simulation time: 0 hr 1 min 14 sec) 
Heartbeat CPU 0 instructions: 60000000 cycles: 40064169 heartbeat IPC: 1.54292 cumulative IPC: 1.4976 (Simulation time: 0 hr 1 min 30 sec) 
Heartbeat CPU 0 instructions: 70000000 cycles: 47102805 heartbeat IPC: 1.42073 cumulative IPC: 1.48611 (Simulation time: 0 hr 1 min 44 sec) 
Heartbeat CPU 0 instructions: 80000000 cycles: 54192718 heartbeat IPC: 1.41045 cumulative IPC: 1.47621 (Simulation time: 0 hr 1 min 58 sec) 
Heartbeat CPU 0 instructions: 90000003 cycles: 61197189 heartbeat IPC: 1.42766 cumulative IPC: 1.47066 (Simulation time: 0 hr 2 min 12 sec) 
Heartbeat CPU 0 instructions: 100000000 cycles: 68364545 heartbeat IPC: 1.39521 cumulative IPC: 1.46275 (Simulation time: 0 hr 2 min 27 sec) 

Warmup complete CPU 0 instructions: 100000004 cycles: 68364546 (Simulation time: 0 hr 2 min 27 sec) 

Heartbeat CPU 0 instructions: 110000003 cycles: 95973701 heartbeat IPC: 0.362199 cumulative IPC: 0.362199 (Simulation time: 0 hr 2 min 54 sec) 
Heartbeat CPU 0 instructions: 120000000 cycles: 123420546 heartbeat IPC: 0.36434 cumulative IPC: 0.363266 (Simulation time: 0 hr 3 min 21 sec) 
Heartbeat CPU 0 instructions: 130000000 cycles: 148387765 heartbeat IPC: 0.400525 cumulative IPC: 0.374891 (Simulation time: 0 hr 3 min 49 sec) 
Heartbeat CPU 0 instructions: 140000000 cycles: 177875304 heartbeat IPC: 0.339126 cumulative IPC: 0.365261 (Simulation time: 0 hr 4 min 16 sec) 
Heartbeat CPU 0 instructions: 150000000 cycles: 207725966 heartbeat IPC: 0.335001 cumulative IPC: 0.358779 (Simulation time: 0 hr 4 min 43 sec) 
Heartbeat CPU 0 instructions: 160000000 cycles: 235136167 heartbeat IPC: 0.364828 cumulative IPC: 0.359773 (Simulation time: 0 hr 5 min 10 sec) 
Heartbeat CPU 0 instructions: 170000001 cycles: 263108435 heartbeat IPC: 0.357497 cumulative IPC: 0.359446 (Simulation time: 0 hr 5 min 38 sec) 
Heartbeat CPU 0 instructions: 180000000 cycles: 291538379 heartbeat IPC: 0.351742 cumulative IPC: 0.358465 (Simulation time: 0 hr 6 min 6 sec) 
Heartbeat CPU 0 instructions: 190000002 cycles: 319525675 heartbeat IPC: 0.357305 cumulative IPC: 0.358336 (Simulation time: 0 hr 6 min 34 sec) 
Heartbeat CPU 0 instructions: 200000000 cycles: 347861934 heartbeat IPC: 0.352905 cumulative IPC: 0.357785 (Simulation time: 0 hr 7 min 2 sec) 
Heartbeat CPU 0 instructions: 210000002 cycles: 375684044 heartbeat IPC: 0.359426 cumulative IPC: 0.357934 (Simulation time: 0 hr 7 min 29 sec) 
Heartbeat CPU 0 instructions: 220000000 cycles: 404815636 heartbeat IPC: 0.34327 cumulative IPC: 0.356664 (Simulation time: 0 hr 7 min 56 sec) 
Heartbeat CPU 0 instructions: 230000000 cycles: 432330653 heartbeat IPC: 0.363438 cumulative IPC: 0.357176 (Simulation time: 0 hr 8 min 22 sec) 
Heartbeat CPU 0 instructions: 240000000 cycles: 458246246 heartbeat IPC: 0.385868 cumulative IPC: 0.359083 (Simulation time: 0 hr 8 min 48 sec) 
Heartbeat CPU 0 instructions: 250000000 cycles: 488351255 heartbeat IPC: 0.332171 cumulative IPC: 0.357154 (Simulation time: 0 hr 9 min 17 sec) 
Heartbeat CPU 0 instructions: 260000000 cycles: 515418693 heartbeat IPC: 0.369448 cumulative IPC: 0.357898 (Simulation time: 0 hr 9 min 44 sec) 
Heartbeat CPU 0 instructions: 270000003 cycles: 543813417 heartbeat IPC: 0.352178 cumulative IPC: 0.357557 (Simulation time: 0 hr 10 min 13 sec) 
Heartbeat CPU 0 instructions: 280000000 cycles: 571989813 heartbeat IPC: 0.354907 cumulative IPC: 0.357409 (Simulation time: 0 hr 10 min 41 sec) 
Heartbeat CPU 0 instructions: 290000000 cycles: 600883812 heartbeat IPC: 0.346093 cumulative IPC: 0.356795 (Simulation time: 0 hr 11 min 10 sec) 
Heartbeat CPU 0 instructions: 300000000 cycles: 630828569 heartbeat IPC: 0.333948 cumulative IPC: 0.355578 (Simulation time: 0 hr 11 min 37 sec) 
Heartbeat CPU 0 instructions: 310000001 cycles: 660219505 heartbeat IPC: 0.340241 cumulative IPC: 0.354817 (Simulation time: 0 hr 12 min 4 sec) 
Heartbeat CPU 0 instructions: 320000000 cycles: 688397923 heartbeat IPC: 0.354881 cumulative IPC: 0.35482 (Simulation time: 0 hr 12 min 31 sec) 
Heartbeat CPU 0 instructions: 330000000 cycles: 717005615 heartbeat IPC: 0.349556 cumulative IPC: 0.354587 (Simulation time: 0 hr 12 min 57 sec) 
Heartbeat CPU 0 instructions: 340000000 cycles: 746251648 heartbeat IPC: 0.341927 cumulative IPC: 0.354041 (Simulation time: 0 hr 13 min 24 sec) 
Heartbeat CPU 0 instructions: 350000003 cycles: 773269403 heartbeat IPC: 0.370127 cumulative IPC: 0.354658 (Simulation time: 0 hr 13 min 50 sec) 
Heartbeat CPU 0 instructions: 360000000 cycles: 801371740 heartbeat IPC: 0.355842 cumulative IPC: 0.354703 (Simulation time: 0 hr 14 min 16 sec) 
Heartbeat CPU 0 instructions: 370000000 cycles: 829554715 heartbeat IPC: 0.354824 cumulative IPC: 0.354708 (Simulation time: 0 hr 14 min 41 sec) 
Heartbeat CPU 0 instructions: 380000000 cycles: 858046408 heartbeat IPC: 0.35098 cumulative IPC: 0.354573 (Simulation time: 0 hr 15 min 7 sec) 
Heartbeat CPU 0 instructions: 390000001 cycles: 885646835 heartbeat IPC: 0.362313 cumulative IPC: 0.354835 (Simulation time: 0 hr 15 min 32 sec) 
Heartbeat CPU 0 instructions: 400000000 cycles: 914275637 heartbeat IPC: 0.349299 cumulative IPC: 0.354647 (Simulation time: 0 hr 15 min 58 sec) 
Heartbeat CPU 0 instructions: 410000001 cycles: 941573791 heartbeat IPC: 0.366325 cumulative IPC: 0.355012 (Simulation time: 0 hr 16 min 23 sec) 
Heartbeat CPU 0 instructions: 420000000 cycles: 968894027 heartbeat IPC: 0.366029 cumulative IPC: 0.355347 (Simulation time: 0 hr 16 min 48 sec) 
Heartbeat CPU 0 instructions: 430000002 cycles: 996593577 heartbeat IPC: 0.361017 cumulative IPC: 0.355516 (Simulation time: 0 hr 17 min 13 sec) 
Heartbeat CPU 0 instructions: 440000000 cycles: 1026115875 heartbeat IPC: 0.338727 cumulative IPC: 0.354998 (Simulation time: 0 hr 17 min 38 sec) 
Heartbeat CPU 0 instructions: 450000002 cycles: 1055333468 heartbeat IPC: 0.34226 cumulative IPC: 0.354621 (Simulation time: 0 hr 18 min 4 sec) 
Heartbeat CPU 0 instructions: 460000000 cycles: 1083022912 heartbeat IPC: 0.361148 cumulative IPC: 0.354799 (Simulation time: 0 hr 18 min 29 sec) 
Heartbeat CPU 0 instructions: 470000000 cycles: 1110651528 heartbeat IPC: 0.361944 cumulative IPC: 0.354989 (Simulation time: 0 hr 18 min 54 sec) 
Heartbeat CPU 0 instructions: 480000000 cycles: 1138525788 heartbeat IPC: 0.358754 cumulative IPC: 0.355087 (Simulation time: 0 hr 19 min 19 sec) 
Heartbeat CPU 0 instructions: 490000000 cycles: 1166110066 heartbeat IPC: 0.362525 cumulative IPC: 0.355274 (Simulation time: 0 hr 19 min 44 sec) 
Heartbeat CPU 0 instructions: 500000000 cycles: 1194420562 heartbeat IPC: 0.353226 cumulative IPC: 0.355222 (Simulation time: 0 hr 20 min 9 sec) 
Heartbeat CPU 0 instructions: 510000000 cycles: 1228839395 heartbeat IPC: 0.290539 cumulative IPC: 0.353304 (Simulation time: 0 hr 20 min 38 sec) 
Heartbeat CPU 0 instructions: 520000000 cycles: 1256862792 heartbeat IPC: 0.356845 cumulative IPC: 0.353387 (Simulation time: 0 hr 21 min 4 sec) 
Heartbeat CPU 0 instructions: 530000001 cycles: 1286310060 heartbeat IPC: 0.33959 cumulative IPC: 0.353054 (Simulation time: 0 hr 21 min 30 sec) 
Heartbeat CPU 0 instructions: 540000000 cycles: 1314359750 heartbeat IPC: 0.35651 cumulative IPC: 0.353131 (Simulation time: 0 hr 21 min 56 sec) 
Heartbeat CPU 0 instructions: 550000001 cycles: 1343536919 heartbeat IPC: 0.342734 cumulative IPC: 0.352893 (Simulation time: 0 hr 22 min 24 sec) 
Heartbeat CPU 0 instructions: 560000000 cycles: 1368910038 heartbeat IPC: 0.394118 cumulative IPC: 0.353698 (Simulation time: 0 hr 22 min 49 sec) 
Heartbeat CPU 0 instructions: 570000000 cycles: 1398364746 heartbeat IPC: 0.339504 cumulative IPC: 0.353383 (Simulation time: 0 hr 23 min 16 sec) 
Heartbeat CPU 0 instructions: 580000000 cycles: 1426300444 heartbeat IPC: 0.357965 cumulative IPC: 0.353478 (Simulation time: 0 hr 23 min 42 sec) 
Heartbeat CPU 0 instructions: 590000001 cycles: 1451032660 heartbeat IPC: 0.404331 cumulative IPC: 0.354387 (Simulation time: 0 hr 24 min 6 sec) 
Heartbeat CPU 0 instructions: 600000000 cycles: 1477091340 heartbeat IPC: 0.383749 cumulative IPC: 0.35493 (Simulation time: 0 hr 24 min 32 sec) 
Finished CPU 0 instructions: 500000000 cycles: 1408726816 cumulative IPC: 0.35493 (Simulation time: 0 hr 24 min 32 sec) 

CPU 0 Branch Prediction Accuracy: 86.4311% MPKI: 26.2662
Number of Branches: 96788573 Number of Mispredictions: 13133102
Number of LOAD Instructions: 164682285
Number of LOAD Instructions (ROI): 164682285
Number of STORE Instructions: 78194750
Number of STORE Instructions (ROI): 78194750
Total Destination Memory Operands: 83268534
Total Destination Memory Operands (ROI): 83268534
Total Source Memory Operands: 164712438
Total Source Memory Operands (ROI): 164712438
Number of DEPENDED LOADS: 7057714
Number of DEPENDED LOADS (ROI): 7057714
Number of SQ_ADDED: 83268522
Number of SQ_ADDED (ROI): 83268522
Number of LQ_ADDED: 236747529
Number of LQ_ADDED (ROI): 236747529
Number of Instructions read from trace: 600000066

ChampSim completed all CPUs

Region of Interest Statistics

CPU 0 cumulative IPC: 0.35493 instructions: 500000000 cycles: 1408726816
ITLB TOTAL     ACCESS:  100518710  HIT:  100314264  MISS:     204446
ITLB LOAD      ACCESS:  100518710  HIT:  100314264  MISS:     204446
ITLB RFO       ACCESS:          0  HIT:          0  MISS:          0
ITLB PREFETCH  ACCESS:          0  HIT:          0  MISS:          0
ITLB WRITEBACK ACCESS:          0  HIT:          0  MISS:          0
ITLB PREFETCH  REQUESTED:          0  ISSUED:          0  USEFUL:          0  USELESS:          0
ITLB TOTAL MSHR MERGED:     172423
ITLB LOAD MSHR MERGED:     172423
ITLB RFO MSHR MERGED:          0
ITLB PREFETCH MSHR MERGED:          0
ITLB WRITEBACK MSHR MERGED:          0
ITLB TOTAL ACCESSES:  100691133 HITS:  100314264 MISSES:     376869
ITLB LOAD ACCESSES:  100691133 HITS:  100314264 MISSES:     376869
ITLB RFO ACCESSES:          0 HITS:          0 MISSES:          0
ITLB PREFETCH ACCESSES:          0 HITS:          0 MISSES:          0
ITLB WRITEBACK ACCESSES:          0 HITS:          0 MISSES:          0
ITLB RQ ACCESS:  500000057
ITLB RQ TO_CACHE:  100691133
ITLB RQ MERGED:  399308924
ITLB RQ FORWARD:          0
ITLB WQ ACCESS:          0
ITLB WQ TO_CACHE:          0
ITLB WQ MERGED:          0
ITLB WQ FORWARD:          0
DTLB TOTAL     ACCESS:  165338569  HIT:  164704220  MISS:     634349
DTLB LOAD      ACCESS:  106293570  HIT:  105723646  MISS:     569924
DTLB RFO       ACCESS:   59044999  HIT:   58980574  MISS:      64425
DTLB PREFETCH  ACCESS:          0  HIT:          0  MISS:          0
DTLB WRITEBACK ACCESS:          0  HIT:          0  MISS:          0
DTLB PREFETCH  REQUESTED:          0  ISSUED:          0  USEFUL:          0  USELESS:          0
DTLB TOTAL MSHR MERGED:      99987
DTLB LOAD MSHR MERGED:      59436
DTLB RFO MSHR MERGED:      40551
DTLB PREFETCH MSHR MERGED:          0
DTLB WRITEBACK MSHR MERGED:          0
DTLB TOTAL ACCESSES:  165438556 HITS:  164704220 MISSES:     734336
DTLB LOAD ACCESSES:  106353006 HITS:  105723646 MISSES:     629360
DTLB RFO ACCESSES:   59085550 HITS:   58980574 MISSES:     104976
DTLB PREFETCH ACCESSES:          0 HITS:          0 MISSES:          0
DTLB WRITEBACK ACCESSES:          0 HITS:          0 MISSES:          0
DTLB RQ ACCESS:  200313162
DTLB RQ TO_CACHE:  165438556
DTLB RQ MERGED:   34874606
DTLB RQ FORWARD:          0
DTLB WQ ACCESS:          0
DTLB WQ TO_CACHE:          0
DTLB WQ MERGED:          0
DTLB WQ FORWARD:          0
L1D TOTAL     ACCESS:  281843661  HIT:  273934306  MISS:    7909355
L1D LOAD      ACCESS:  110418050  HIT:  107139372  MISS:    3278678
L1D RFO       ACCESS:   67127612  HIT:   66237432  MISS:     890180
L1D PREFETCH  ACCESS:  104297999  HIT:  100557502  MISS:    3740497
L1D WRITEBACK ACCESS:          0  HIT:          0  MISS:          0
L1D PREFETCH  REQUESTED:  110819048  ISSUED:  109119760  USEFUL:    1661129  USELESS:    2079332
L1D TOTAL MSHR MERGED:    2864295
L1D LOAD MSHR MERGED:     499140
L1D RFO MSHR MERGED:    1857892
L1D PREFETCH MSHR MERGED:     507263
L1D WRITEBACK MSHR MERGED:          0
L1D TOTAL ACCESSES:  284735356 HITS:  273961706 MISSES:   10773650
L1D LOAD ACCESSES:  110820462 HITS:  107140786 MISSES:    3679676
L1D RFO ACCESSES:   68974124 HITS:   66237432 MISSES:    2736692
L1D PREFETCH ACCESSES:  104940770 HITS:  100583488 MISSES:    4357282
L1D WRITEBACK ACCESSES:          0 HITS:          0 MISSES:          0
L1D RQ ACCESS:  130760559
L1D RQ TO_CACHE:  110819051
L1D RQ MERGED:   19940094
L1D RQ FORWARD:          0
L1D WQ ACCESS:   69552603
L1D WQ TO_CACHE:   68974125
L1D WQ MERGED:     578478
L1D WQ FORWARD:      27400
L1I TOTAL     ACCESS:  126565955  HIT:  122327401  MISS:    4238554
L1I LOAD      ACCESS:  126565955  HIT:  122327401  MISS:    4238554
L1I RFO       ACCESS:          0  HIT:          0  MISS:          0
L1I PREFETCH  ACCESS:          0  HIT:          0  MISS:          0
L1I WRITEBACK ACCESS:          0  HIT:          0  MISS:          0
L1I PREFETCH  REQUESTED:          0  ISSUED:          0  USEFUL:          0  USELESS:          0
L1I TOTAL MSHR MERGED:    1834643
L1I LOAD MSHR MERGED:    1834643
L1I RFO MSHR MERGED:          0
L1I PREFETCH MSHR MERGED:          0
L1I WRITEBACK MSHR MERGED:          0
L1I TOTAL ACCESSES:  128400601 HITS:  122327401 MISSES:    6073200
L1I LOAD ACCESSES:  128400601 HITS:  122327401 MISSES:    6073200
L1I RFO ACCESSES:          0 HITS:          0 MISSES:          0
L1I PREFETCH ACCESSES:          0 HITS:          0 MISSES:          0
L1I WRITEBACK ACCESSES:          0 HITS:          0 MISSES:          0
L1I RQ ACCESS:  500000057
L1I RQ TO_CACHE:  128400601
L1I RQ MERGED:  371599456
L1I RQ FORWARD:          0
L1I WQ ACCESS:          0
L1I WQ TO_CACHE:          0
L1I WQ MERGED:          0
L1I WQ FORWARD:          0
L2C TOTAL     ACCESS:   14905394  HIT:   11158919  MISS:    3746475
L2C LOAD      ACCESS:    7418883  HIT:    5098931  MISS:    2319952
L2C RFO       ACCESS:     878703  HIT:     409902  MISS:     468801
L2C PREFETCH  ACCESS:    4568568  HIT:    3628100  MISS:     940468
L2C WRITEBACK ACCESS:    2039240  HIT:    2021986  MISS:      17254
L2C PREFETCH  REQUESTED:     842752  ISSUED:     842752  USEFUL:     203422  USELESS:     736752
L2C TOTAL MSHR MERGED:       6909
L2C LOAD MSHR MERGED:        735
L2C RFO MSHR MERGED:          0
L2C PREFETCH MSHR MERGED:       6174
L2C WRITEBACK MSHR MERGED:          0
L2C TOTAL ACCESSES:   14913183 HITS:   11159367 MISSES:    3753816
L2C LOAD ACCESSES:    7419090 HITS:    5099138 MISSES:    2319952
L2C RFO ACCESSES:     878800 HITS:     409999 MISSES:     468801
L2C PREFETCH ACCESSES:    4576053 HITS:    3628244 MISSES:     947809
L2C WRITEBACK ACCESSES:    2039240 HITS:    2021986 MISSES:      17254
L2C RQ ACCESS:    8297893
L2C RQ TO_CACHE:    8297589
L2C RQ MERGED:          0
L2C RQ FORWARD:          0
L2C WQ ACCESS:    2039240
L2C WQ TO_CACHE:    2039240
L2C WQ MERGED:          0
L2C WQ FORWARD:        448
LLC TOTAL     ACCESS:    4609798  HIT:    3988336  MISS:     621462
LLC LOAD      ACCESS:    2319202  HIT:    2079974  MISS:     239228
LLC RFO       ACCESS:     468790  HIT:     419449  MISS:      49341
LLC PREFETCH  ACCESS:     941509  HIT:     654472  MISS:     287037
LLC WRITEBACK ACCESS:     880297  HIT:     834441  MISS:      45856
LLC PREFETCH  REQUESTED:          0  ISSUED:          0  USEFUL:      13864  USELESS:     273475
LLC TOTAL MSHR MERGED:        106
LLC LOAD MSHR MERGED:         32
LLC RFO MSHR MERGED:          0
LLC PREFETCH MSHR MERGED:         74
LLC WRITEBACK MSHR MERGED:          0
LLC TOTAL ACCESSES:    4609940 HITS:    3988372 MISSES:     621568
LLC LOAD ACCESSES:    2319217 HITS:    2079989 MISSES:     239228
LLC RFO ACCESSES:     468801 HITS:     419460 MISSES:      49341
LLC PREFETCH ACCESSES:     941625 HITS:     654482 MISSES:     287143
LLC WRITEBACK ACCESSES:     880297 HITS:     834441 MISSES:      45856
LLC 0 RQ ACCESS:    2788018
LLC 0 RQ TO_CACHE:    2787992
LLC 0 RQ MERGED:          0
LLC 0 RQ FORWARD:          0
LLC WQ ACCESS:     880297
LLC WQ TO_CACHE:     880297
LLC WQ MERGED:          0
LLC WQ FORWARD:         36
Major fault: 0 Minor fault: 12862
CPU 0 L1D next line prefetcher final stats
CPU 0 L2C PC-based stride prefetcher final stats
All Misses: 741058
All Hits: 4685746
SD Algo Stats - Switches: 0 SRR-Repls: 282470 BRR-Repls: 0

DRAM Statistics
 CHANNEL 0
 RQ ROW_BUFFER_HIT:     113539  ROW_BUFFER_MISS:     461538
 DBUS_CONGESTED:     311127
 WQ ROW_BUFFER_HIT:       9462  ROW_BUFFER_MISS:     145768  FULL:          0

 AVG_CONGESTED_CYCLE: 13
LOADS RETIRED: 136549171
INSTR RETIRED: 500000000
