
*** ChampSim Multicore Out-of-Order Simulator ***

Warmup Instructions: 100000000
Simulation Instructions: 500000000
Number of CPUs: 1
LLC sets: 2048
LLC ways: 16
Clean RRIP Policies: 2223230222232302 Dirty RRIP Policies: 1203130212031302 PSEL Width: 10 Track Set: 4294967295 PSEL Mask: 1 Demote Mask: 1040100310401003DS Algo: 0Window size: 0
Off-chip DRAM Size: 4096 MB Channels: 1 Width: 64-bit Data Rate: 1600 MT/s

CPU 0 runs /mnt/beegfs/iconst01/spec2017/x264.trace.gz
NOT SORTED
TRACE STRING: /mnt/beegfs/iconst01/spec2017/x264.trace.gz
SORTED
TRACE STRING: /mnt/beegfs/iconst01/spec2017/x264.trace.gz
INITIAL
TRACE STRING: /mnt/beegfs/iconst01/spec2017/x264.trace.gz

champsim_seed used: 276

CPU 0 L1D next line prefetcher
CPU 0 L2C IP-based stride prefetcher
Initialize DRRIP state
Assign rand_sets[0]: 454  LLC: 2048
rand_sets[0]: 454
Assign rand_sets[1]: 1662  LLC: 2048
rand_sets[1]: 1662
Assign rand_sets[2]: 1921  LLC: 2048
rand_sets[2]: 1921
Assign rand_sets[3]: 1131  LLC: 2048
rand_sets[3]: 1131
Assign rand_sets[4]: 331  LLC: 2048
rand_sets[4]: 331
Assign rand_sets[5]: 1531  LLC: 2048
rand_sets[5]: 1531
Assign rand_sets[6]: 482  LLC: 2048
rand_sets[6]: 482
Assign rand_sets[7]: 1275  LLC: 2048
rand_sets[7]: 1275
Assign rand_sets[8]: 1876  LLC: 2048
rand_sets[8]: 1876
Assign rand_sets[9]: 2038  LLC: 2048
rand_sets[9]: 2038
Assign rand_sets[10]: 701  LLC: 2048
rand_sets[10]: 701
Assign rand_sets[11]: 479  LLC: 2048
rand_sets[11]: 479
Assign rand_sets[12]: 892  LLC: 2048
rand_sets[12]: 892
Assign rand_sets[13]: 1820  LLC: 2048
rand_sets[13]: 1820
Assign rand_sets[14]: 1505  LLC: 2048
rand_sets[14]: 1505
Assign rand_sets[15]: 1159  LLC: 2048
rand_sets[15]: 1159
Assign rand_sets[16]: 513  LLC: 2048
rand_sets[16]: 513
Assign rand_sets[17]: 703  LLC: 2048
rand_sets[17]: 703
Assign rand_sets[18]: 561  LLC: 2048
rand_sets[18]: 561
Assign rand_sets[19]: 990  LLC: 2048
rand_sets[19]: 990
Assign rand_sets[20]: 342  LLC: 2048
rand_sets[20]: 342
Assign rand_sets[21]: 882  LLC: 2048
rand_sets[21]: 882
Assign rand_sets[22]: 15  LLC: 2048
rand_sets[22]: 15
Assign rand_sets[23]: 71  LLC: 2048
rand_sets[23]: 71
Assign rand_sets[24]: 1127  LLC: 2048
rand_sets[24]: 1127
Assign rand_sets[25]: 1382  LLC: 2048
rand_sets[25]: 1382
Assign rand_sets[26]: 647  LLC: 2048
rand_sets[26]: 647
Assign rand_sets[27]: 857  LLC: 2048
rand_sets[27]: 857
Assign rand_sets[28]: 1450  LLC: 2048
rand_sets[28]: 1450
Assign rand_sets[29]: 1160  LLC: 2048
rand_sets[29]: 1160
Assign rand_sets[30]: 1852  LLC: 2048
rand_sets[30]: 1852
Assign rand_sets[31]: 1881  LLC: 2048
rand_sets[31]: 1881
Assign rand_sets[32]: 1770  LLC: 2048
rand_sets[32]: 1770
Assign rand_sets[33]: 1622  LLC: 2048
rand_sets[33]: 1622
Assign rand_sets[34]: 275  LLC: 2048
rand_sets[34]: 275
Assign rand_sets[35]: 635  LLC: 2048
rand_sets[35]: 635
Assign rand_sets[36]: 466  LLC: 2048
rand_sets[36]: 466
Assign rand_sets[37]: 1413  LLC: 2048
rand_sets[37]: 1413
Assign rand_sets[38]: 417  LLC: 2048
rand_sets[38]: 417
Assign rand_sets[39]: 472  LLC: 2048
rand_sets[39]: 472
Assign rand_sets[40]: 1340  LLC: 2048
rand_sets[40]: 1340
Assign rand_sets[41]: 852  LLC: 2048
rand_sets[41]: 852
Assign rand_sets[42]: 1365  LLC: 2048
rand_sets[42]: 1365
Assign rand_sets[43]: 47  LLC: 2048
rand_sets[43]: 47
Assign rand_sets[44]: 823  LLC: 2048
rand_sets[44]: 823
Assign rand_sets[45]: 686  LLC: 2048
rand_sets[45]: 686
Assign rand_sets[46]: 1637  LLC: 2048
rand_sets[46]: 1637
Assign rand_sets[47]: 1115  LLC: 2048
rand_sets[47]: 1115
Assign rand_sets[48]: 986  LLC: 2048
rand_sets[48]: 986
Assign rand_sets[49]: 258  LLC: 2048
rand_sets[49]: 258
Assign rand_sets[50]: 633  LLC: 2048
rand_sets[50]: 633
Assign rand_sets[51]: 920  LLC: 2048
rand_sets[51]: 920
Assign rand_sets[52]: 204  LLC: 2048
rand_sets[52]: 204
Assign rand_sets[53]: 227  LLC: 2048
rand_sets[53]: 227
Assign rand_sets[54]: 1818  LLC: 2048
rand_sets[54]: 1818
Assign rand_sets[55]: 886  LLC: 2048
rand_sets[55]: 886
Assign rand_sets[56]: 1422  LLC: 2048
rand_sets[56]: 1422
Assign rand_sets[57]: 607  LLC: 2048
rand_sets[57]: 607
Assign rand_sets[58]: 217  LLC: 2048
rand_sets[58]: 217
Assign rand_sets[59]: 1945  LLC: 2048
rand_sets[59]: 1945
Assign rand_sets[60]: 143  LLC: 2048
rand_sets[60]: 143
Assign rand_sets[61]: 1311  LLC: 2048
rand_sets[61]: 1311
Assign rand_sets[62]: 319  LLC: 2048
rand_sets[62]: 319
Assign rand_sets[63]: 1846  LLC: 2048
rand_sets[63]: 1846
 CLEAN-RRIP-POLICY-1: 2-2-2-3-2-3-0-2- CLEAN-RRIP-POLICY-2: 2-2-2-3-2-3-0-2-
 DIRTY-RRIP-POLICY-1: 1-2-0-3-1-3-0-2- DIRTY-RRIP-POLICY-2: 1-2-0-3-1-3-0-2-
 PSEL width: 10
Heartbeat CPU 0 instructions: 10000000 cycles: 4124759 heartbeat IPC: 2.42438 cumulative IPC: 2.42438 (Simulation time: 0 hr 0 min 13 sec) 
Heartbeat CPU 0 instructions: 20000000 cycles: 8233863 heartbeat IPC: 2.43362 cumulative IPC: 2.42899 (Simulation time: 0 hr 0 min 26 sec) 
Heartbeat CPU 0 instructions: 30000003 cycles: 12464696 heartbeat IPC: 2.3636 cumulative IPC: 2.4068 (Simulation time: 0 hr 0 min 39 sec) 
Heartbeat CPU 0 instructions: 40000000 cycles: 16636669 heartbeat IPC: 2.39695 cumulative IPC: 2.40433 (Simulation time: 0 hr 0 min 53 sec) 
Heartbeat CPU 0 instructions: 50000000 cycles: 20699150 heartbeat IPC: 2.46155 cumulative IPC: 2.41556 (Simulation time: 0 hr 1 min 6 sec) 
Heartbeat CPU 0 instructions: 60000000 cycles: 25022635 heartbeat IPC: 2.31295 cumulative IPC: 2.39783 (Simulation time: 0 hr 1 min 19 sec) 
Heartbeat CPU 0 instructions: 70000000 cycles: 29370910 heartbeat IPC: 2.29976 cumulative IPC: 2.38331 (Simulation time: 0 hr 1 min 32 sec) 
Heartbeat CPU 0 instructions: 80000000 cycles: 33721040 heartbeat IPC: 2.29878 cumulative IPC: 2.37241 (Simulation time: 0 hr 1 min 45 sec) 
Heartbeat CPU 0 instructions: 90000002 cycles: 38032031 heartbeat IPC: 2.31965 cumulative IPC: 2.36643 (Simulation time: 0 hr 1 min 57 sec) 
Heartbeat CPU 0 instructions: 100000000 cycles: 42328945 heartbeat IPC: 2.32725 cumulative IPC: 2.36245 (Simulation time: 0 hr 2 min 11 sec) 

Warmup complete CPU 0 instructions: 100000001 cycles: 42328946 (Simulation time: 0 hr 2 min 11 sec) 

Heartbeat CPU 0 instructions: 110000001 cycles: 49384007 heartbeat IPC: 1.41742 cumulative IPC: 1.41742 (Simulation time: 0 hr 2 min 27 sec) 
Heartbeat CPU 0 instructions: 120000000 cycles: 58883396 heartbeat IPC: 1.0527 cumulative IPC: 1.20813 (Simulation time: 0 hr 2 min 46 sec) 
Heartbeat CPU 0 instructions: 130000000 cycles: 63699673 heartbeat IPC: 2.07629 cumulative IPC: 1.40379 (Simulation time: 0 hr 3 min 2 sec) 
Heartbeat CPU 0 instructions: 140000000 cycles: 68615480 heartbeat IPC: 2.03425 cumulative IPC: 1.52169 (Simulation time: 0 hr 3 min 18 sec) 
Heartbeat CPU 0 instructions: 150000002 cycles: 75446752 heartbeat IPC: 1.46386 cumulative IPC: 1.50976 (Simulation time: 0 hr 3 min 36 sec) 
Heartbeat CPU 0 instructions: 160000000 cycles: 83286482 heartbeat IPC: 1.27555 cumulative IPC: 1.46493 (Simulation time: 0 hr 3 min 53 sec) 
Heartbeat CPU 0 instructions: 170000000 cycles: 90687124 heartbeat IPC: 1.35123 cumulative IPC: 1.44753 (Simulation time: 0 hr 4 min 10 sec) 
Heartbeat CPU 0 instructions: 180000000 cycles: 97987542 heartbeat IPC: 1.36978 cumulative IPC: 1.43733 (Simulation time: 0 hr 4 min 27 sec) 
Heartbeat CPU 0 instructions: 190000002 cycles: 105160855 heartbeat IPC: 1.39406 cumulative IPC: 1.43239 (Simulation time: 0 hr 4 min 43 sec) 
Heartbeat CPU 0 instructions: 200000000 cycles: 112394378 heartbeat IPC: 1.38245 cumulative IPC: 1.42724 (Simulation time: 0 hr 5 min 0 sec) 
Heartbeat CPU 0 instructions: 210000000 cycles: 119265482 heartbeat IPC: 1.45537 cumulative IPC: 1.42975 (Simulation time: 0 hr 5 min 16 sec) 
Heartbeat CPU 0 instructions: 220000000 cycles: 126039735 heartbeat IPC: 1.47618 cumulative IPC: 1.43351 (Simulation time: 0 hr 5 min 32 sec) 
Heartbeat CPU 0 instructions: 230000003 cycles: 132766485 heartbeat IPC: 1.4866 cumulative IPC: 1.43746 (Simulation time: 0 hr 5 min 48 sec) 
Heartbeat CPU 0 instructions: 240000000 cycles: 139514590 heartbeat IPC: 1.4819 cumulative IPC: 1.44054 (Simulation time: 0 hr 6 min 4 sec) 
Heartbeat CPU 0 instructions: 250000001 cycles: 146238153 heartbeat IPC: 1.48731 cumulative IPC: 1.44357 (Simulation time: 0 hr 6 min 20 sec) 
Heartbeat CPU 0 instructions: 260000000 cycles: 152941828 heartbeat IPC: 1.49172 cumulative IPC: 1.44649 (Simulation time: 0 hr 6 min 37 sec) 
Heartbeat CPU 0 instructions: 270000001 cycles: 159916178 heartbeat IPC: 1.43383 cumulative IPC: 1.44574 (Simulation time: 0 hr 6 min 53 sec) 
Heartbeat CPU 0 instructions: 280000000 cycles: 167447882 heartbeat IPC: 1.32772 cumulative IPC: 1.43863 (Simulation time: 0 hr 7 min 10 sec) 
Heartbeat CPU 0 instructions: 290000000 cycles: 175362879 heartbeat IPC: 1.26342 cumulative IPC: 1.42821 (Simulation time: 0 hr 7 min 27 sec) 
Heartbeat CPU 0 instructions: 300000000 cycles: 183531904 heartbeat IPC: 1.22414 cumulative IPC: 1.4164 (Simulation time: 0 hr 7 min 44 sec) 
Heartbeat CPU 0 instructions: 310000002 cycles: 191840637 heartbeat IPC: 1.20355 cumulative IPC: 1.40457 (Simulation time: 0 hr 8 min 2 sec) 
Heartbeat CPU 0 instructions: 320000000 cycles: 201855597 heartbeat IPC: 0.998506 cumulative IPC: 1.37908 (Simulation time: 0 hr 8 min 21 sec) 
Heartbeat CPU 0 instructions: 330000002 cycles: 206492523 heartbeat IPC: 2.1566 cumulative IPC: 1.40104 (Simulation time: 0 hr 8 min 38 sec) 
Heartbeat CPU 0 instructions: 340000000 cycles: 211724313 heartbeat IPC: 1.91139 cumulative IPC: 1.4168 (Simulation time: 0 hr 8 min 54 sec) 
Heartbeat CPU 0 instructions: 350000000 cycles: 218942271 heartbeat IPC: 1.38543 cumulative IPC: 1.41552 (Simulation time: 0 hr 9 min 11 sec) 
Heartbeat CPU 0 instructions: 360000000 cycles: 226602547 heartbeat IPC: 1.30544 cumulative IPC: 1.41095 (Simulation time: 0 hr 9 min 28 sec) 
Heartbeat CPU 0 instructions: 370000000 cycles: 234010752 heartbeat IPC: 1.34985 cumulative IPC: 1.40858 (Simulation time: 0 hr 9 min 45 sec) 
Heartbeat CPU 0 instructions: 380000000 cycles: 241279565 heartbeat IPC: 1.37574 cumulative IPC: 1.40738 (Simulation time: 0 hr 10 min 2 sec) 
Heartbeat CPU 0 instructions: 390000000 cycles: 249394188 heartbeat IPC: 1.23234 cumulative IPC: 1.40052 (Simulation time: 0 hr 10 min 19 sec) 
Heartbeat CPU 0 instructions: 400000000 cycles: 257591734 heartbeat IPC: 1.21988 cumulative IPC: 1.39365 (Simulation time: 0 hr 10 min 37 sec) 
Heartbeat CPU 0 instructions: 410000001 cycles: 265414894 heartbeat IPC: 1.27826 cumulative IPC: 1.3896 (Simulation time: 0 hr 10 min 54 sec) 
Heartbeat CPU 0 instructions: 420000000 cycles: 273469107 heartbeat IPC: 1.24159 cumulative IPC: 1.38444 (Simulation time: 0 hr 11 min 12 sec) 
Heartbeat CPU 0 instructions: 430000001 cycles: 281724693 heartbeat IPC: 1.2113 cumulative IPC: 1.37847 (Simulation time: 0 hr 11 min 29 sec) 
Heartbeat CPU 0 instructions: 440000000 cycles: 289763509 heartbeat IPC: 1.24396 cumulative IPC: 1.3741 (Simulation time: 0 hr 11 min 47 sec) 
Heartbeat CPU 0 instructions: 450000001 cycles: 297633053 heartbeat IPC: 1.27072 cumulative IPC: 1.37091 (Simulation time: 0 hr 12 min 4 sec) 
Heartbeat CPU 0 instructions: 460000000 cycles: 307583212 heartbeat IPC: 1.00501 cumulative IPC: 1.35719 (Simulation time: 0 hr 12 min 23 sec) 
Heartbeat CPU 0 instructions: 470000002 cycles: 312214810 heartbeat IPC: 2.15908 cumulative IPC: 1.37095 (Simulation time: 0 hr 12 min 40 sec) 
Heartbeat CPU 0 instructions: 480000000 cycles: 317472909 heartbeat IPC: 1.90183 cumulative IPC: 1.3811 (Simulation time: 0 hr 12 min 56 sec) 
Heartbeat CPU 0 instructions: 490000001 cycles: 324791282 heartbeat IPC: 1.36642 cumulative IPC: 1.38072 (Simulation time: 0 hr 13 min 14 sec) 
Heartbeat CPU 0 instructions: 500000000 cycles: 333522867 heartbeat IPC: 1.14527 cumulative IPC: 1.37366 (Simulation time: 0 hr 13 min 34 sec) 
Heartbeat CPU 0 instructions: 510000002 cycles: 342255478 heartbeat IPC: 1.14513 cumulative IPC: 1.367 (Simulation time: 0 hr 13 min 54 sec) 
Heartbeat CPU 0 instructions: 520000000 cycles: 350985461 heartbeat IPC: 1.14548 cumulative IPC: 1.36074 (Simulation time: 0 hr 14 min 13 sec) 
Heartbeat CPU 0 instructions: 530000000 cycles: 359692173 heartbeat IPC: 1.14854 cumulative IPC: 1.35491 (Simulation time: 0 hr 14 min 33 sec) 
Heartbeat CPU 0 instructions: 540000000 cycles: 367946972 heartbeat IPC: 1.21142 cumulative IPC: 1.35128 (Simulation time: 0 hr 14 min 52 sec) 
Heartbeat CPU 0 instructions: 550000000 cycles: 374987638 heartbeat IPC: 1.42032 cumulative IPC: 1.35274 (Simulation time: 0 hr 15 min 9 sec) 
Heartbeat CPU 0 instructions: 560000000 cycles: 381600305 heartbeat IPC: 1.51225 cumulative IPC: 1.35585 (Simulation time: 0 hr 15 min 26 sec) 
Heartbeat CPU 0 instructions: 570000002 cycles: 388193369 heartbeat IPC: 1.51675 cumulative IPC: 1.35891 (Simulation time: 0 hr 15 min 43 sec) 
Heartbeat CPU 0 instructions: 580000000 cycles: 394844078 heartbeat IPC: 1.5036 cumulative IPC: 1.36164 (Simulation time: 0 hr 16 min 0 sec) 
Heartbeat CPU 0 instructions: 590000002 cycles: 401536288 heartbeat IPC: 1.49427 cumulative IPC: 1.36411 (Simulation time: 0 hr 16 min 16 sec) 
Heartbeat CPU 0 instructions: 600000000 cycles: 408351139 heartbeat IPC: 1.46738 cumulative IPC: 1.36604 (Simulation time: 0 hr 16 min 33 sec) 
Finished CPU 0 instructions: 500000000 cycles: 366022201 cumulative IPC: 1.36604 (Simulation time: 0 hr 16 min 33 sec) 

CPU 0 Branch Prediction Accuracy: 93.4682% MPKI: 2.44079
Number of Branches: 18683822 Number of Mispredictions: 1220394
Number of LOAD Instructions: 142551610
Number of LOAD Instructions (ROI): 142551610
Number of STORE Instructions: 44807454
Number of STORE Instructions (ROI): 44807454
Total Destination Memory Operands: 48357071
Total Destination Memory Operands (ROI): 48357071
Total Source Memory Operands: 142551610
Total Source Memory Operands (ROI): 142551610
Number of DEPENDED LOADS: 7395129
Number of DEPENDED LOADS (ROI): 7395129
Number of SQ_ADDED: 48357051
Number of SQ_ADDED (ROI): 48357051
Number of LQ_ADDED: 157233073
Number of LQ_ADDED (ROI): 157233073
Number of Instructions read from trace: 600000256

ChampSim completed all CPUs

Region of Interest Statistics

CPU 0 cumulative IPC: 1.36604 instructions: 500000000 cycles: 366022201
ITLB TOTAL     ACCESS:   88176989  HIT:   88176920  MISS:         69
ITLB LOAD      ACCESS:   88176989  HIT:   88176920  MISS:         69
ITLB RFO       ACCESS:          0  HIT:          0  MISS:          0
ITLB PREFETCH  ACCESS:          0  HIT:          0  MISS:          0
ITLB WRITEBACK ACCESS:          0  HIT:          0  MISS:          0
ITLB PREFETCH  REQUESTED:          0  ISSUED:          0  USEFUL:          0  USELESS:          0
ITLB TOTAL MSHR MERGED:         84
ITLB LOAD MSHR MERGED:         84
ITLB RFO MSHR MERGED:          0
ITLB PREFETCH MSHR MERGED:          0
ITLB WRITEBACK MSHR MERGED:          0
ITLB TOTAL ACCESSES:   88177073 HITS:   88176920 MISSES:        153
ITLB LOAD ACCESSES:   88177073 HITS:   88176920 MISSES:        153
ITLB RFO ACCESSES:          0 HITS:          0 MISSES:          0
ITLB PREFETCH ACCESSES:          0 HITS:          0 MISSES:          0
ITLB WRITEBACK ACCESSES:          0 HITS:          0 MISSES:          0
ITLB RQ ACCESS:  500000000
ITLB RQ TO_CACHE:   88177073
ITLB RQ MERGED:  411822927
ITLB RQ FORWARD:          0
ITLB WQ ACCESS:          0
ITLB WQ TO_CACHE:          0
ITLB WQ MERGED:          0
ITLB WQ FORWARD:          0
DTLB TOTAL     ACCESS:   88203147  HIT:   88075732  MISS:     127415
DTLB LOAD      ACCESS:   59485329  HIT:   59392865  MISS:      92464
DTLB RFO       ACCESS:   28717818  HIT:   28682867  MISS:      34951
DTLB PREFETCH  ACCESS:          0  HIT:          0  MISS:          0
DTLB WRITEBACK ACCESS:          0  HIT:          0  MISS:          0
DTLB PREFETCH  REQUESTED:          0  ISSUED:          0  USEFUL:          0  USELESS:          0
DTLB TOTAL MSHR MERGED:     141115
DTLB LOAD MSHR MERGED:     107654
DTLB RFO MSHR MERGED:      33461
DTLB PREFETCH MSHR MERGED:          0
DTLB WRITEBACK MSHR MERGED:          0
DTLB TOTAL ACCESSES:   88344262 HITS:   88075732 MISSES:     268530
DTLB LOAD ACCESSES:   59592983 HITS:   59392865 MISSES:     200118
DTLB RFO ACCESSES:   28751279 HITS:   28682867 MISSES:      68412
DTLB PREFETCH ACCESSES:          0 HITS:          0 MISSES:          0
DTLB WRITEBACK ACCESSES:          0 HITS:          0 MISSES:          0
DTLB RQ ACCESS:  154558762
DTLB RQ TO_CACHE:   88344262
DTLB RQ MERGED:   66214500
DTLB RQ FORWARD:          0
DTLB WQ ACCESS:          0
DTLB WQ TO_CACHE:          0
DTLB WQ MERGED:          0
DTLB WQ FORWARD:          0
L1D TOTAL     ACCESS:  128093319  HIT:  124867790  MISS:    3225529
L1D LOAD      ACCESS:   53172197  HIT:   51976788  MISS:    1195409
L1D RFO       ACCESS:   37380953  HIT:   36766768  MISS:     614185
L1D PREFETCH  ACCESS:   37540169  HIT:   36124234  MISS:    1415935
L1D WRITEBACK ACCESS:          0  HIT:          0  MISS:          0
L1D PREFETCH  REQUESTED:   53657196  ISSUED:   52457061  USEFUL:     352051  USELESS:    1063849
L1D TOTAL MSHR MERGED:    2811067
L1D LOAD MSHR MERGED:     523766
L1D RFO MSHR MERGED:    1573522
L1D PREFETCH MSHR MERGED:     713779
L1D WRITEBACK MSHR MERGED:          0
L1D TOTAL ACCESSES:  130939282 HITS:  124902686 MISSES:    6036596
L1D LOAD ACCESSES:   53660081 HITS:   51979673 MISSES:    1680408
L1D RFO ACCESSES:   38952798 HITS:   36766768 MISSES:    2186030
L1D PREFETCH ACCESSES:   38326403 HITS:   36156245 MISSES:    2170158
L1D WRITEBACK ACCESSES:          0 HITS:          0 MISSES:          0
L1D RQ ACCESS:  113713870
L1D RQ TO_CACHE:   53657196
L1D RQ MERGED:   60053789
L1D RQ FORWARD:          0
L1D WQ ACCESS:   40844891
L1D WQ TO_CACHE:   38952798
L1D WQ MERGED:    1892093
L1D WQ FORWARD:      34896
L1I TOTAL     ACCESS:  108368526  HIT:  107809392  MISS:     559134
L1I LOAD      ACCESS:  108368526  HIT:  107809392  MISS:     559134
L1I RFO       ACCESS:          0  HIT:          0  MISS:          0
L1I PREFETCH  ACCESS:          0  HIT:          0  MISS:          0
L1I WRITEBACK ACCESS:          0  HIT:          0  MISS:          0
L1I PREFETCH  REQUESTED:          0  ISSUED:          0  USEFUL:          0  USELESS:          0
L1I TOTAL MSHR MERGED:     525661
L1I LOAD MSHR MERGED:     525661
L1I RFO MSHR MERGED:          0
L1I PREFETCH MSHR MERGED:          0
L1I WRITEBACK MSHR MERGED:          0
L1I TOTAL ACCESSES:  108894187 HITS:  107809392 MISSES:    1084795
L1I LOAD ACCESSES:  108894187 HITS:  107809392 MISSES:    1084795
L1I RFO ACCESSES:          0 HITS:          0 MISSES:          0
L1I PREFETCH ACCESSES:          0 HITS:          0 MISSES:          0
L1I WRITEBACK ACCESSES:          0 HITS:          0 MISSES:          0
L1I RQ ACCESS:  500000002
L1I RQ TO_CACHE:  108894187
L1I RQ MERGED:  391105815
L1I RQ FORWARD:          0
L1I WQ ACCESS:          0
L1I WQ TO_CACHE:          0
L1I WQ MERGED:          0
L1I WQ FORWARD:          0
L2C TOTAL     ACCESS:    4691867  HIT:    3865837  MISS:     826030
L2C LOAD      ACCESS:    1715661  HIT:    1562678  MISS:     152983
L2C RFO       ACCESS:     611094  HIT:     421177  MISS:     189917
L2C PREFETCH  ACCESS:    1662210  HIT:    1181263  MISS:     480947
L2C WRITEBACK ACCESS:     702902  HIT:     700719  MISS:       2183
L2C PREFETCH  REQUESTED:     256434  ISSUED:     256434  USEFUL:     173066  USELESS:     308547
L2C TOTAL MSHR MERGED:      13324
L2C LOAD MSHR MERGED:       4064
L2C RFO MSHR MERGED:          0
L2C PREFETCH MSHR MERGED:       9260
L2C WRITEBACK MSHR MERGED:          0
L2C TOTAL ACCESSES:    4712140 HITS:    3867431 MISSES:     844709
L2C LOAD ACCESSES:    1715776 HITS:    1562793 MISSES:     152983
L2C RFO ACCESSES:     612508 HITS:     422591 MISSES:     189917
L2C PREFETCH ACCESSES:    1680954 HITS:    1181328 MISSES:     499626
L2C WRITEBACK ACCESSES:     702902 HITS:     700719 MISSES:       2183
L2C RQ ACCESS:    2328284
L2C RQ TO_CACHE:    2326755
L2C RQ MERGED:          0
L2C RQ FORWARD:          0
L2C WQ ACCESS:     702902
L2C WQ TO_CACHE:     702902
L2C WQ MERGED:          0
L2C WQ FORWARD:       1594
LLC TOTAL     ACCESS:    1047611  HIT:     286832  MISS:     760779
LLC LOAD      ACCESS:     148915  HIT:      89200  MISS:      59715
LLC RFO       ACCESS:     189910  HIT:       6163  MISS:     183747
LLC PREFETCH  ACCESS:     487914  HIT:     152880  MISS:     335034
LLC WRITEBACK ACCESS:     220872  HIT:      38589  MISS:     182283
LLC PREFETCH  REQUESTED:          0  ISSUED:          0  USEFUL:       2152  USELESS:     333255
LLC TOTAL MSHR MERGED:       1702
LLC LOAD MSHR MERGED:        583
LLC RFO MSHR MERGED:          0
LLC PREFETCH MSHR MERGED:       1119
LLC WRITEBACK MSHR MERGED:          0
LLC TOTAL ACCESSES:    1049324 HITS:     286843 MISSES:     762481
LLC LOAD ACCESSES:     148919 HITS:      89204 MISSES:      59715
LLC RFO ACCESSES:     189917 HITS:       6170 MISSES:     183747
LLC PREFETCH ACCESSES:     489616 HITS:     152880 MISSES:     336736
LLC WRITEBACK ACCESSES:     220872 HITS:      38589 MISSES:     182283
LLC 0 RQ ACCESS:     338836
LLC 0 RQ TO_CACHE:     338825
LLC 0 RQ MERGED:          0
LLC 0 RQ FORWARD:          0
LLC WQ ACCESS:     220872
LLC WQ TO_CACHE:     220872
LLC WQ MERGED:          0
LLC WQ FORWARD:         11
Major fault: 0 Minor fault: 6811
CPU 0 L1D next line prefetcher final stats
CPU 0 L2C PC-based stride prefetcher final stats
All Misses: 899979
All Hits: 354615
SD Algo Stats - Switches: 0 SRR-Repls: 67121 BRR-Repls: 0

DRAM Statistics
 CHANNEL 0
 RQ ROW_BUFFER_HIT:     289008  ROW_BUFFER_MISS:     289412
 DBUS_CONGESTED:     400994
 WQ ROW_BUFFER_HIT:      24311  ROW_BUFFER_MISS:     191928  FULL:          0

 AVG_CONGESTED_CYCLE: 13
LOADS RETIRED: 119922929
INSTR RETIRED: 500000000
