
*** ChampSim Multicore Out-of-Order Simulator ***

Warmup Instructions: 100000000
Simulation Instructions: 500000000
Number of CPUs: 1
LLC sets: 2048
LLC ways: 16
Clean RRIP Policies: 2223230222232302 Dirty RRIP Policies: 1203130212031302 PSEL Width: 10 Track Set: 4294967295 PSEL Mask: 1 Demote Mask: 1040100310401003DS Algo: 0Window size: 0
Off-chip DRAM Size: 4096 MB Channels: 1 Width: 64-bit Data Rate: 1600 MT/s

CPU 0 runs /mnt/beegfs/iconst01/spec2017/Xalancbmk.trace.gz
NOT SORTED
TRACE STRING: /mnt/beegfs/iconst01/spec2017/Xalancbmk.trace.gz
SORTED
TRACE STRING: /mnt/beegfs/iconst01/spec2017/Xalancbmk.trace.gz
INITIAL
TRACE STRING: /mnt/beegfs/iconst01/spec2017/Xalancbmk.trace.gz

champsim_seed used: 913

CPU 0 L1D next line prefetcher
CPU 0 L2C IP-based stride prefetcher
Initialize DRRIP state
Assign rand_sets[0]: 454  LLC: 2048
rand_sets[0]: 454
Assign rand_sets[1]: 1662  LLC: 2048
rand_sets[1]: 1662
Assign rand_sets[2]: 1921  LLC: 2048
rand_sets[2]: 1921
Assign rand_sets[3]: 1131  LLC: 2048
rand_sets[3]: 1131
Assign rand_sets[4]: 331  LLC: 2048
rand_sets[4]: 331
Assign rand_sets[5]: 1531  LLC: 2048
rand_sets[5]: 1531
Assign rand_sets[6]: 482  LLC: 2048
rand_sets[6]: 482
Assign rand_sets[7]: 1275  LLC: 2048
rand_sets[7]: 1275
Assign rand_sets[8]: 1876  LLC: 2048
rand_sets[8]: 1876
Assign rand_sets[9]: 2038  LLC: 2048
rand_sets[9]: 2038
Assign rand_sets[10]: 701  LLC: 2048
rand_sets[10]: 701
Assign rand_sets[11]: 479  LLC: 2048
rand_sets[11]: 479
Assign rand_sets[12]: 892  LLC: 2048
rand_sets[12]: 892
Assign rand_sets[13]: 1820  LLC: 2048
rand_sets[13]: 1820
Assign rand_sets[14]: 1505  LLC: 2048
rand_sets[14]: 1505
Assign rand_sets[15]: 1159  LLC: 2048
rand_sets[15]: 1159
Assign rand_sets[16]: 513  LLC: 2048
rand_sets[16]: 513
Assign rand_sets[17]: 703  LLC: 2048
rand_sets[17]: 703
Assign rand_sets[18]: 561  LLC: 2048
rand_sets[18]: 561
Assign rand_sets[19]: 990  LLC: 2048
rand_sets[19]: 990
Assign rand_sets[20]: 342  LLC: 2048
rand_sets[20]: 342
Assign rand_sets[21]: 882  LLC: 2048
rand_sets[21]: 882
Assign rand_sets[22]: 15  LLC: 2048
rand_sets[22]: 15
Assign rand_sets[23]: 71  LLC: 2048
rand_sets[23]: 71
Assign rand_sets[24]: 1127  LLC: 2048
rand_sets[24]: 1127
Assign rand_sets[25]: 1382  LLC: 2048
rand_sets[25]: 1382
Assign rand_sets[26]: 647  LLC: 2048
rand_sets[26]: 647
Assign rand_sets[27]: 857  LLC: 2048
rand_sets[27]: 857
Assign rand_sets[28]: 1450  LLC: 2048
rand_sets[28]: 1450
Assign rand_sets[29]: 1160  LLC: 2048
rand_sets[29]: 1160
Assign rand_sets[30]: 1852  LLC: 2048
rand_sets[30]: 1852
Assign rand_sets[31]: 1881  LLC: 2048
rand_sets[31]: 1881
Assign rand_sets[32]: 1770  LLC: 2048
rand_sets[32]: 1770
Assign rand_sets[33]: 1622  LLC: 2048
rand_sets[33]: 1622
Assign rand_sets[34]: 275  LLC: 2048
rand_sets[34]: 275
Assign rand_sets[35]: 635  LLC: 2048
rand_sets[35]: 635
Assign rand_sets[36]: 466  LLC: 2048
rand_sets[36]: 466
Assign rand_sets[37]: 1413  LLC: 2048
rand_sets[37]: 1413
Assign rand_sets[38]: 417  LLC: 2048
rand_sets[38]: 417
Assign rand_sets[39]: 472  LLC: 2048
rand_sets[39]: 472
Assign rand_sets[40]: 1340  LLC: 2048
rand_sets[40]: 1340
Assign rand_sets[41]: 852  LLC: 2048
rand_sets[41]: 852
Assign rand_sets[42]: 1365  LLC: 2048
rand_sets[42]: 1365
Assign rand_sets[43]: 47  LLC: 2048
rand_sets[43]: 47
Assign rand_sets[44]: 823  LLC: 2048
rand_sets[44]: 823
Assign rand_sets[45]: 686  LLC: 2048
rand_sets[45]: 686
Assign rand_sets[46]: 1637  LLC: 2048
rand_sets[46]: 1637
Assign rand_sets[47]: 1115  LLC: 2048
rand_sets[47]: 1115
Assign rand_sets[48]: 986  LLC: 2048
rand_sets[48]: 986
Assign rand_sets[49]: 258  LLC: 2048
rand_sets[49]: 258
Assign rand_sets[50]: 633  LLC: 2048
rand_sets[50]: 633
Assign rand_sets[51]: 920  LLC: 2048
rand_sets[51]: 920
Assign rand_sets[52]: 204  LLC: 2048
rand_sets[52]: 204
Assign rand_sets[53]: 227  LLC: 2048
rand_sets[53]: 227
Assign rand_sets[54]: 1818  LLC: 2048
rand_sets[54]: 1818
Assign rand_sets[55]: 886  LLC: 2048
rand_sets[55]: 886
Assign rand_sets[56]: 1422  LLC: 2048
rand_sets[56]: 1422
Assign rand_sets[57]: 607  LLC: 2048
rand_sets[57]: 607
Assign rand_sets[58]: 217  LLC: 2048
rand_sets[58]: 217
Assign rand_sets[59]: 1945  LLC: 2048
rand_sets[59]: 1945
Assign rand_sets[60]: 143  LLC: 2048
rand_sets[60]: 143
Assign rand_sets[61]: 1311  LLC: 2048
rand_sets[61]: 1311
Assign rand_sets[62]: 319  LLC: 2048
rand_sets[62]: 319
Assign rand_sets[63]: 1846  LLC: 2048
rand_sets[63]: 1846
 CLEAN-RRIP-POLICY-1: 2-2-2-3-2-3-0-2- CLEAN-RRIP-POLICY-2: 2-2-2-3-2-3-0-2-
 DIRTY-RRIP-POLICY-1: 1-2-0-3-1-3-0-2- DIRTY-RRIP-POLICY-2: 1-2-0-3-1-3-0-2-
 PSEL width: 10
Heartbeat CPU 0 instructions: 10000003 cycles: 4588495 heartbeat IPC: 2.17936 cumulative IPC: 2.17936 (Simulation time: 0 hr 0 min 15 sec) 
Heartbeat CPU 0 instructions: 20000000 cycles: 8979688 heartbeat IPC: 2.27728 cumulative IPC: 2.22725 (Simulation time: 0 hr 0 min 28 sec) 
Heartbeat CPU 0 instructions: 30000000 cycles: 13387554 heartbeat IPC: 2.26867 cumulative IPC: 2.24089 (Simulation time: 0 hr 0 min 42 sec) 
Heartbeat CPU 0 instructions: 40000000 cycles: 18012878 heartbeat IPC: 2.16201 cumulative IPC: 2.22063 (Simulation time: 0 hr 0 min 58 sec) 
Heartbeat CPU 0 instructions: 50000002 cycles: 22428798 heartbeat IPC: 2.26453 cumulative IPC: 2.22928 (Simulation time: 0 hr 1 min 12 sec) 
Heartbeat CPU 0 instructions: 60000000 cycles: 27081900 heartbeat IPC: 2.1491 cumulative IPC: 2.2155 (Simulation time: 0 hr 1 min 27 sec) 
Heartbeat CPU 0 instructions: 70000003 cycles: 31486684 heartbeat IPC: 2.27026 cumulative IPC: 2.22316 (Simulation time: 0 hr 1 min 41 sec) 
Heartbeat CPU 0 instructions: 80000000 cycles: 35907710 heartbeat IPC: 2.26192 cumulative IPC: 2.22793 (Simulation time: 0 hr 1 min 55 sec) 
Heartbeat CPU 0 instructions: 90000002 cycles: 40361467 heartbeat IPC: 2.2453 cumulative IPC: 2.22985 (Simulation time: 0 hr 2 min 9 sec) 
Heartbeat CPU 0 instructions: 100000000 cycles: 44832692 heartbeat IPC: 2.23652 cumulative IPC: 2.23052 (Simulation time: 0 hr 2 min 23 sec) 

Warmup complete CPU 0 instructions: 100000003 cycles: 44832693 (Simulation time: 0 hr 2 min 23 sec) 

Heartbeat CPU 0 instructions: 110000000 cycles: 71502758 heartbeat IPC: 0.374952 cumulative IPC: 0.374952 (Simulation time: 0 hr 2 min 54 sec) 
Heartbeat CPU 0 instructions: 120000000 cycles: 99025072 heartbeat IPC: 0.363342 cumulative IPC: 0.369056 (Simulation time: 0 hr 3 min 25 sec) 
Heartbeat CPU 0 instructions: 130000000 cycles: 122242655 heartbeat IPC: 0.430708 cumulative IPC: 0.387547 (Simulation time: 0 hr 3 min 53 sec) 
Heartbeat CPU 0 instructions: 140000000 cycles: 144858727 heartbeat IPC: 0.442163 cumulative IPC: 0.399896 (Simulation time: 0 hr 4 min 20 sec) 
Heartbeat CPU 0 instructions: 150000000 cycles: 169184673 heartbeat IPC: 0.411084 cumulative IPC: 0.402084 (Simulation time: 0 hr 4 min 49 sec) 
Heartbeat CPU 0 instructions: 160000000 cycles: 193862730 heartbeat IPC: 0.405218 cumulative IPC: 0.402603 (Simulation time: 0 hr 5 min 18 sec) 
Heartbeat CPU 0 instructions: 170000002 cycles: 215075468 heartbeat IPC: 0.471415 cumulative IPC: 0.411178 (Simulation time: 0 hr 5 min 45 sec) 
Heartbeat CPU 0 instructions: 180000000 cycles: 237705246 heartbeat IPC: 0.441896 cumulative IPC: 0.414782 (Simulation time: 0 hr 6 min 12 sec) 
Heartbeat CPU 0 instructions: 190000000 cycles: 256601845 heartbeat IPC: 0.529196 cumulative IPC: 0.424991 (Simulation time: 0 hr 6 min 37 sec) 
Heartbeat CPU 0 instructions: 200000000 cycles: 277643934 heartbeat IPC: 0.475238 cumulative IPC: 0.429532 (Simulation time: 0 hr 7 min 4 sec) 
Heartbeat CPU 0 instructions: 210000001 cycles: 303794310 heartbeat IPC: 0.382404 cumulative IPC: 0.424773 (Simulation time: 0 hr 7 min 34 sec) 
Heartbeat CPU 0 instructions: 220000000 cycles: 329391903 heartbeat IPC: 0.390662 cumulative IPC: 0.421705 (Simulation time: 0 hr 8 min 3 sec) 
Heartbeat CPU 0 instructions: 230000000 cycles: 351461205 heartbeat IPC: 0.453118 cumulative IPC: 0.423966 (Simulation time: 0 hr 8 min 31 sec) 
Heartbeat CPU 0 instructions: 240000000 cycles: 376963531 heartbeat IPC: 0.392121 cumulative IPC: 0.421521 (Simulation time: 0 hr 9 min 0 sec) 
Heartbeat CPU 0 instructions: 250000001 cycles: 401457023 heartbeat IPC: 0.408272 cumulative IPC: 0.420611 (Simulation time: 0 hr 9 min 29 sec) 
Heartbeat CPU 0 instructions: 260000000 cycles: 422450301 heartbeat IPC: 0.476343 cumulative IPC: 0.423709 (Simulation time: 0 hr 9 min 56 sec) 
Heartbeat CPU 0 instructions: 270000000 cycles: 444094376 heartbeat IPC: 0.46202 cumulative IPC: 0.425786 (Simulation time: 0 hr 10 min 22 sec) 
Heartbeat CPU 0 instructions: 280000000 cycles: 471366463 heartbeat IPC: 0.366675 cumulative IPC: 0.422006 (Simulation time: 0 hr 10 min 53 sec) 
Heartbeat CPU 0 instructions: 290000000 cycles: 492521976 heartbeat IPC: 0.47269 cumulative IPC: 0.424401 (Simulation time: 0 hr 11 min 20 sec) 
Heartbeat CPU 0 instructions: 300000000 cycles: 512998933 heartbeat IPC: 0.488354 cumulative IPC: 0.427199 (Simulation time: 0 hr 11 min 46 sec) 
Heartbeat CPU 0 instructions: 310000000 cycles: 532117046 heartbeat IPC: 0.523064 cumulative IPC: 0.43096 (Simulation time: 0 hr 12 min 11 sec) 
Heartbeat CPU 0 instructions: 320000000 cycles: 561008450 heartbeat IPC: 0.346124 cumulative IPC: 0.426211 (Simulation time: 0 hr 12 min 43 sec) 
Heartbeat CPU 0 instructions: 330000001 cycles: 580447412 heartbeat IPC: 0.514431 cumulative IPC: 0.429413 (Simulation time: 0 hr 13 min 8 sec) 
Heartbeat CPU 0 instructions: 340000000 cycles: 599713436 heartbeat IPC: 0.519048 cumulative IPC: 0.432525 (Simulation time: 0 hr 13 min 33 sec) 
Heartbeat CPU 0 instructions: 350000002 cycles: 624534251 heartbeat IPC: 0.402888 cumulative IPC: 0.431256 (Simulation time: 0 hr 14 min 2 sec) 
Heartbeat CPU 0 instructions: 360000000 cycles: 646819519 heartbeat IPC: 0.448727 cumulative IPC: 0.431903 (Simulation time: 0 hr 14 min 30 sec) 
Heartbeat CPU 0 instructions: 370000001 cycles: 671742184 heartbeat IPC: 0.401241 cumulative IPC: 0.430684 (Simulation time: 0 hr 14 min 59 sec) 
Heartbeat CPU 0 instructions: 380000000 cycles: 694744379 heartbeat IPC: 0.434741 cumulative IPC: 0.430828 (Simulation time: 0 hr 15 min 27 sec) 
Heartbeat CPU 0 instructions: 390000000 cycles: 713556058 heartbeat IPC: 0.531585 cumulative IPC: 0.433662 (Simulation time: 0 hr 15 min 52 sec) 
Heartbeat CPU 0 instructions: 400000000 cycles: 733300735 heartbeat IPC: 0.506466 cumulative IPC: 0.43575 (Simulation time: 0 hr 16 min 17 sec) 
Heartbeat CPU 0 instructions: 410000001 cycles: 759169847 heartbeat IPC: 0.386561 cumulative IPC: 0.433969 (Simulation time: 0 hr 16 min 47 sec) 
Heartbeat CPU 0 instructions: 420000000 cycles: 783632811 heartbeat IPC: 0.408781 cumulative IPC: 0.433135 (Simulation time: 0 hr 17 min 15 sec) 
Heartbeat CPU 0 instructions: 430000002 cycles: 804889443 heartbeat IPC: 0.470442 cumulative IPC: 0.434178 (Simulation time: 0 hr 17 min 41 sec) 
Heartbeat CPU 0 instructions: 440000000 cycles: 825157422 heartbeat IPC: 0.493389 cumulative IPC: 0.435716 (Simulation time: 0 hr 18 min 7 sec) 
Heartbeat CPU 0 instructions: 450000002 cycles: 851559313 heartbeat IPC: 0.378761 cumulative IPC: 0.433852 (Simulation time: 0 hr 18 min 36 sec) 
Heartbeat CPU 0 instructions: 460000000 cycles: 876985461 heartbeat IPC: 0.393296 cumulative IPC: 0.432613 (Simulation time: 0 hr 19 min 5 sec) 
Heartbeat CPU 0 instructions: 470000002 cycles: 902611399 heartbeat IPC: 0.39023 cumulative IPC: 0.431347 (Simulation time: 0 hr 19 min 34 sec) 
Heartbeat CPU 0 instructions: 480000000 cycles: 926919028 heartbeat IPC: 0.411393 cumulative IPC: 0.430797 (Simulation time: 0 hr 20 min 2 sec) 
Heartbeat CPU 0 instructions: 490000000 cycles: 947784897 heartbeat IPC: 0.479252 cumulative IPC: 0.431917 (Simulation time: 0 hr 20 min 28 sec) 
Heartbeat CPU 0 instructions: 500000000 cycles: 972439872 heartbeat IPC: 0.405598 cumulative IPC: 0.431217 (Simulation time: 0 hr 20 min 56 sec) 
Heartbeat CPU 0 instructions: 510000000 cycles: 997297288 heartbeat IPC: 0.402294 cumulative IPC: 0.430462 (Simulation time: 0 hr 21 min 24 sec) 
Heartbeat CPU 0 instructions: 520000000 cycles: 1018313331 heartbeat IPC: 0.475827 cumulative IPC: 0.431442 (Simulation time: 0 hr 21 min 50 sec) 
Heartbeat CPU 0 instructions: 530000003 cycles: 1043683233 heartbeat IPC: 0.394168 cumulative IPC: 0.430495 (Simulation time: 0 hr 22 min 19 sec) 
Heartbeat CPU 0 instructions: 540000000 cycles: 1066508025 heartbeat IPC: 0.43812 cumulative IPC: 0.430665 (Simulation time: 0 hr 22 min 46 sec) 
Heartbeat CPU 0 instructions: 550000000 cycles: 1091706095 heartbeat IPC: 0.396856 cumulative IPC: 0.429851 (Simulation time: 0 hr 23 min 15 sec) 
Heartbeat CPU 0 instructions: 560000000 cycles: 1114960800 heartbeat IPC: 0.430021 cumulative IPC: 0.429855 (Simulation time: 0 hr 23 min 42 sec) 
Heartbeat CPU 0 instructions: 570000002 cycles: 1138306022 heartbeat IPC: 0.428353 cumulative IPC: 0.429823 (Simulation time: 0 hr 24 min 10 sec) 
Heartbeat CPU 0 instructions: 580000000 cycles: 1159273433 heartbeat IPC: 0.47693 cumulative IPC: 0.430709 (Simulation time: 0 hr 24 min 35 sec) 
Heartbeat CPU 0 instructions: 590000001 cycles: 1183118076 heartbeat IPC: 0.419381 cumulative IPC: 0.430472 (Simulation time: 0 hr 25 min 2 sec) 
Heartbeat CPU 0 instructions: 600000000 cycles: 1202326752 heartbeat IPC: 0.520598 cumulative IPC: 0.431968 (Simulation time: 0 hr 25 min 27 sec) 
Finished CPU 0 instructions: 500000000 cycles: 1157494080 cumulative IPC: 0.431968 (Simulation time: 0 hr 25 min 27 sec) 

CPU 0 Branch Prediction Accuracy: 99.5434% MPKI: 1.33026
Number of Branches: 145676990 Number of Mispredictions: 665128
Number of LOAD Instructions: 188863207
Number of LOAD Instructions (ROI): 188863207
Number of STORE Instructions: 7332002
Number of STORE Instructions (ROI): 7332002
Total Destination Memory Operands: 10029285
Total Destination Memory Operands (ROI): 10029285
Total Source Memory Operands: 188863207
Total Source Memory Operands (ROI): 188863207
Number of DEPENDED LOADS: 291516
Number of DEPENDED LOADS (ROI): 291516
Number of SQ_ADDED: 10029285
Number of SQ_ADDED (ROI): 10029285
Number of LQ_ADDED: 200642360
Number of LQ_ADDED (ROI): 200642360
Number of Instructions read from trace: 600000010

ChampSim completed all CPUs

Region of Interest Statistics

CPU 0 cumulative IPC: 0.431968 instructions: 500000000 cycles: 1157494080
ITLB TOTAL     ACCESS:  145806226  HIT:  145766699  MISS:      39527
ITLB LOAD      ACCESS:  145806226  HIT:  145766699  MISS:      39527
ITLB RFO       ACCESS:          0  HIT:          0  MISS:          0
ITLB PREFETCH  ACCESS:          0  HIT:          0  MISS:          0
ITLB WRITEBACK ACCESS:          0  HIT:          0  MISS:          0
ITLB PREFETCH  REQUESTED:          0  ISSUED:          0  USEFUL:          0  USELESS:          0
ITLB TOTAL MSHR MERGED:      57350
ITLB LOAD MSHR MERGED:      57350
ITLB RFO MSHR MERGED:          0
ITLB PREFETCH MSHR MERGED:          0
ITLB WRITEBACK MSHR MERGED:          0
ITLB TOTAL ACCESSES:  145863576 HITS:  145766699 MISSES:      96877
ITLB LOAD ACCESSES:  145863576 HITS:  145766699 MISSES:      96877
ITLB RFO ACCESSES:          0 HITS:          0 MISSES:          0
ITLB PREFETCH ACCESSES:          0 HITS:          0 MISSES:          0
ITLB WRITEBACK ACCESSES:          0 HITS:          0 MISSES:          0
ITLB RQ ACCESS:  499999754
ITLB RQ TO_CACHE:  145863576
ITLB RQ MERGED:  354136178
ITLB RQ FORWARD:          0
ITLB WQ ACCESS:          0
ITLB WQ TO_CACHE:          0
ITLB WQ MERGED:          0
ITLB WQ FORWARD:          0
DTLB TOTAL     ACCESS:  135184899  HIT:  134016541  MISS:    1168358
DTLB LOAD      ACCESS:  127143880  HIT:  125984626  MISS:    1159254
DTLB RFO       ACCESS:    8041019  HIT:    8031915  MISS:       9104
DTLB PREFETCH  ACCESS:          0  HIT:          0  MISS:          0
DTLB WRITEBACK ACCESS:          0  HIT:          0  MISS:          0
DTLB PREFETCH  REQUESTED:          0  ISSUED:          0  USEFUL:          0  USELESS:          0
DTLB TOTAL MSHR MERGED:     582328
DTLB LOAD MSHR MERGED:     577944
DTLB RFO MSHR MERGED:       4384
DTLB PREFETCH MSHR MERGED:          0
DTLB WRITEBACK MSHR MERGED:          0
DTLB TOTAL ACCESSES:  135767227 HITS:  134016541 MISSES:    1750686
DTLB LOAD ACCESSES:  127721824 HITS:  125984626 MISSES:    1737198
DTLB RFO ACCESSES:    8045403 HITS:    8031915 MISSES:      13488
DTLB PREFETCH ACCESSES:          0 HITS:          0 MISSES:          0
DTLB WRITEBACK ACCESSES:          0 HITS:          0 MISSES:          0
DTLB RQ ACCESS:  165762815
DTLB RQ TO_CACHE:  135767227
DTLB RQ MERGED:   29995588
DTLB RQ FORWARD:          0
DTLB WQ ACCESS:          0
DTLB WQ TO_CACHE:          0
DTLB WQ MERGED:          0
DTLB WQ FORWARD:          0
L1D TOTAL     ACCESS:  156909508  HIT:  139593834  MISS:   17315674
L1D LOAD      ACCESS:   89981480  HIT:   78829824  MISS:   11151656
L1D RFO       ACCESS:    8499816  HIT:    8412680  MISS:      87136
L1D PREFETCH  ACCESS:   58428212  HIT:   52351330  MISS:    6076882
L1D WRITEBACK ACCESS:          0  HIT:          0  MISS:          0
L1D PREFETCH  REQUESTED:   93715135  ISSUED:   92847415  USEFUL:    1995467  USELESS:    4081488
L1D TOTAL MSHR MERGED:   15149551
L1D LOAD MSHR MERGED:    7139337
L1D RFO MSHR MERGED:     124615
L1D PREFETCH MSHR MERGED:    7885599
L1D WRITEBACK MSHR MERGED:          0
L1D TOTAL ACCESSES:  172059212 HITS:  139593987 MISSES:   32465225
L1D LOAD ACCESSES:   93715137 HITS:   78829826 MISSES:   14885311
L1D RFO ACCESSES:    8622617 HITS:    8412680 MISSES:     209937
L1D PREFETCH ACCESSES:   69721458 HITS:   52351481 MISSES:   17369977
L1D WRITEBACK ACCESSES:          0 HITS:          0 MISSES:          0
L1D RQ ACCESS:  157123609
L1D RQ TO_CACHE:   93715135
L1D RQ MERGED:   63408472
L1D RQ FORWARD:          0
L1D WQ ACCESS:    8639208
L1D WQ TO_CACHE:    8622617
L1D WQ MERGED:      16591
L1D WQ FORWARD:        153
L1I TOTAL     ACCESS:  178798272  HIT:  178134595  MISS:     663677
L1I LOAD      ACCESS:  178798272  HIT:  178134595  MISS:     663677
L1I RFO       ACCESS:          0  HIT:          0  MISS:          0
L1I PREFETCH  ACCESS:          0  HIT:          0  MISS:          0
L1I WRITEBACK ACCESS:          0  HIT:          0  MISS:          0
L1I PREFETCH  REQUESTED:          0  ISSUED:          0  USEFUL:          0  USELESS:          0
L1I TOTAL MSHR MERGED:     597416
L1I LOAD MSHR MERGED:     597416
L1I RFO MSHR MERGED:          0
L1I PREFETCH MSHR MERGED:          0
L1I WRITEBACK MSHR MERGED:          0
L1I TOTAL ACCESSES:  179395688 HITS:  178134595 MISSES:    1261093
L1I LOAD ACCESSES:  179395688 HITS:  178134595 MISSES:    1261093
L1I RFO ACCESSES:          0 HITS:          0 MISSES:          0
L1I PREFETCH ACCESSES:          0 HITS:          0 MISSES:          0
L1I WRITEBACK ACCESSES:          0 HITS:          0 MISSES:          0
L1I RQ ACCESS:  499999757
L1I RQ TO_CACHE:  179395688
L1I RQ MERGED:  320604069
L1I RQ FORWARD:          0
L1I WQ ACCESS:          0
L1I WQ TO_CACHE:          0
L1I WQ MERGED:          0
L1I WQ FORWARD:          0
L2C TOTAL     ACCESS:   19276904  HIT:    2057602  MISS:   17219302
L2C LOAD      ACCESS:    8409548  HIT:     951241  MISS:    7458307
L2C RFO       ACCESS:      85298  HIT:      53736  MISS:      31562
L2C PREFETCH  ACCESS:   10497051  HIT:     770428  MISS:    9726623
L2C WRITEBACK ACCESS:     285007  HIT:     282197  MISS:       2810
L2C PREFETCH  REQUESTED:    1017320  ISSUED:    1017320  USEFUL:     274864  USELESS:    9450849
L2C TOTAL MSHR MERGED:       1057
L2C LOAD MSHR MERGED:        226
L2C RFO MSHR MERGED:          1
L2C PREFETCH MSHR MERGED:        830
L2C WRITEBACK MSHR MERGED:          0
L2C TOTAL ACCESSES:   19280416 HITS:    2057793 MISSES:   17222623
L2C LOAD ACCESSES:    8409651 HITS:     951344 MISSES:    7458307
L2C RFO ACCESSES:      85322 HITS:      53760 MISSES:      31562
L2C PREFETCH ACCESSES:   10500436 HITS:     770492 MISSES:    9729944
L2C WRITEBACK ACCESSES:     285007 HITS:     282197 MISSES:       2810
L2C RQ ACCESS:    8494973
L2C RQ TO_CACHE:    8494846
L2C RQ MERGED:          0
L2C RQ FORWARD:          0
L2C WQ ACCESS:     285007
L2C WQ TO_CACHE:     285007
L2C WQ MERGED:          0
L2C WQ FORWARD:        191
LLC TOTAL     ACCESS:   17324813  HIT:    5032200  MISS:   12292613
LLC LOAD      ACCESS:    7458081  HIT:    4169799  MISS:    3288282
LLC RFO       ACCESS:      31561  HIT:      18280  MISS:      13281
LLC PREFETCH  ACCESS:    9729111  HIT:     759400  MISS:    8969711
LLC WRITEBACK ACCESS:     106060  HIT:      84721  MISS:      21339
LLC PREFETCH  REQUESTED:          0  ISSUED:          0  USEFUL:       1814  USELESS:    8967243
LLC TOTAL MSHR MERGED:          3
LLC LOAD MSHR MERGED:          0
LLC RFO MSHR MERGED:          0
LLC PREFETCH MSHR MERGED:          3
LLC WRITEBACK MSHR MERGED:          0
LLC TOTAL ACCESSES:   17324816 HITS:    5032200 MISSES:   12292616
LLC LOAD ACCESSES:    7458081 HITS:    4169799 MISSES:    3288282
LLC RFO ACCESSES:      31561 HITS:      18280 MISSES:      13281
LLC PREFETCH ACCESSES:    9729114 HITS:     759400 MISSES:    8969714
LLC WRITEBACK ACCESSES:     106060 HITS:      84721 MISSES:      21339
LLC 0 RQ ACCESS:    7489642
LLC 0 RQ TO_CACHE:    7489642
LLC 0 RQ MERGED:          0
LLC 0 RQ FORWARD:          0
LLC WQ ACCESS:     106060
LLC WQ TO_CACHE:     106060
LLC WQ MERGED:          0
LLC WQ FORWARD:          0
Major fault: 0 Minor fault: 6432
CPU 0 L1D next line prefetcher final stats
CPU 0 L2C PC-based stride prefetcher final stats
All Misses: 14542083
All Hits: 6002406
SD Algo Stats - Switches: 0 SRR-Repls: 3518489 BRR-Repls: 0

DRAM Statistics
 CHANNEL 0
 RQ ROW_BUFFER_HIT:    9257219  ROW_BUFFER_MISS:    3008816
 DBUS_CONGESTED:    5650044
 WQ ROW_BUFFER_HIT:       1297  ROW_BUFFER_MISS:      38418  FULL:          0

 AVG_CONGESTED_CYCLE: 12
LOADS RETIRED: 157382665
INSTR RETIRED: 500000000
