
*** ChampSim Multicore Out-of-Order Simulator ***

Warmup Instructions: 100000000
Simulation Instructions: 500000000
Number of CPUs: 1
LLC sets: 2048
LLC ways: 16
Clean RRIP Policies: 1212032212120322 Dirty RRIP Policies: 2212230222122302 PSEL Width: 10 Track Set: 4294967295 PSEL Mask: 1 Demote Mask: 1310310413103104DS Algo: 0Window size: 0
Off-chip DRAM Size: 4096 MB Channels: 1 Width: 64-bit Data Rate: 1600 MT/s

CPU 0 runs /mnt/beegfs/iconst01/spec2017/Xalancbmk.trace.gz
NOT SORTED
TRACE STRING: /mnt/beegfs/iconst01/spec2017/Xalancbmk.trace.gz
SORTED
TRACE STRING: /mnt/beegfs/iconst01/spec2017/Xalancbmk.trace.gz
INITIAL
TRACE STRING: /mnt/beegfs/iconst01/spec2017/Xalancbmk.trace.gz

champsim_seed used: 913

CPU 0 L1D next line prefetcher
CPU 0 L2C IP-based stride prefetcher
Initialize DRRIP state
Assign rand_sets[0]: 454  LLC: 2048
rand_sets[0]: 454
Assign rand_sets[1]: 1662  LLC: 2048
rand_sets[1]: 1662
Assign rand_sets[2]: 1921  LLC: 2048
rand_sets[2]: 1921
Assign rand_sets[3]: 1131  LLC: 2048
rand_sets[3]: 1131
Assign rand_sets[4]: 331  LLC: 2048
rand_sets[4]: 331
Assign rand_sets[5]: 1531  LLC: 2048
rand_sets[5]: 1531
Assign rand_sets[6]: 482  LLC: 2048
rand_sets[6]: 482
Assign rand_sets[7]: 1275  LLC: 2048
rand_sets[7]: 1275
Assign rand_sets[8]: 1876  LLC: 2048
rand_sets[8]: 1876
Assign rand_sets[9]: 2038  LLC: 2048
rand_sets[9]: 2038
Assign rand_sets[10]: 701  LLC: 2048
rand_sets[10]: 701
Assign rand_sets[11]: 479  LLC: 2048
rand_sets[11]: 479
Assign rand_sets[12]: 892  LLC: 2048
rand_sets[12]: 892
Assign rand_sets[13]: 1820  LLC: 2048
rand_sets[13]: 1820
Assign rand_sets[14]: 1505  LLC: 2048
rand_sets[14]: 1505
Assign rand_sets[15]: 1159  LLC: 2048
rand_sets[15]: 1159
Assign rand_sets[16]: 513  LLC: 2048
rand_sets[16]: 513
Assign rand_sets[17]: 703  LLC: 2048
rand_sets[17]: 703
Assign rand_sets[18]: 561  LLC: 2048
rand_sets[18]: 561
Assign rand_sets[19]: 990  LLC: 2048
rand_sets[19]: 990
Assign rand_sets[20]: 342  LLC: 2048
rand_sets[20]: 342
Assign rand_sets[21]: 882  LLC: 2048
rand_sets[21]: 882
Assign rand_sets[22]: 15  LLC: 2048
rand_sets[22]: 15
Assign rand_sets[23]: 71  LLC: 2048
rand_sets[23]: 71
Assign rand_sets[24]: 1127  LLC: 2048
rand_sets[24]: 1127
Assign rand_sets[25]: 1382  LLC: 2048
rand_sets[25]: 1382
Assign rand_sets[26]: 647  LLC: 2048
rand_sets[26]: 647
Assign rand_sets[27]: 857  LLC: 2048
rand_sets[27]: 857
Assign rand_sets[28]: 1450  LLC: 2048
rand_sets[28]: 1450
Assign rand_sets[29]: 1160  LLC: 2048
rand_sets[29]: 1160
Assign rand_sets[30]: 1852  LLC: 2048
rand_sets[30]: 1852
Assign rand_sets[31]: 1881  LLC: 2048
rand_sets[31]: 1881
Assign rand_sets[32]: 1770  LLC: 2048
rand_sets[32]: 1770
Assign rand_sets[33]: 1622  LLC: 2048
rand_sets[33]: 1622
Assign rand_sets[34]: 275  LLC: 2048
rand_sets[34]: 275
Assign rand_sets[35]: 635  LLC: 2048
rand_sets[35]: 635
Assign rand_sets[36]: 466  LLC: 2048
rand_sets[36]: 466
Assign rand_sets[37]: 1413  LLC: 2048
rand_sets[37]: 1413
Assign rand_sets[38]: 417  LLC: 2048
rand_sets[38]: 417
Assign rand_sets[39]: 472  LLC: 2048
rand_sets[39]: 472
Assign rand_sets[40]: 1340  LLC: 2048
rand_sets[40]: 1340
Assign rand_sets[41]: 852  LLC: 2048
rand_sets[41]: 852
Assign rand_sets[42]: 1365  LLC: 2048
rand_sets[42]: 1365
Assign rand_sets[43]: 47  LLC: 2048
rand_sets[43]: 47
Assign rand_sets[44]: 823  LLC: 2048
rand_sets[44]: 823
Assign rand_sets[45]: 686  LLC: 2048
rand_sets[45]: 686
Assign rand_sets[46]: 1637  LLC: 2048
rand_sets[46]: 1637
Assign rand_sets[47]: 1115  LLC: 2048
rand_sets[47]: 1115
Assign rand_sets[48]: 986  LLC: 2048
rand_sets[48]: 986
Assign rand_sets[49]: 258  LLC: 2048
rand_sets[49]: 258
Assign rand_sets[50]: 633  LLC: 2048
rand_sets[50]: 633
Assign rand_sets[51]: 920  LLC: 2048
rand_sets[51]: 920
Assign rand_sets[52]: 204  LLC: 2048
rand_sets[52]: 204
Assign rand_sets[53]: 227  LLC: 2048
rand_sets[53]: 227
Assign rand_sets[54]: 1818  LLC: 2048
rand_sets[54]: 1818
Assign rand_sets[55]: 886  LLC: 2048
rand_sets[55]: 886
Assign rand_sets[56]: 1422  LLC: 2048
rand_sets[56]: 1422
Assign rand_sets[57]: 607  LLC: 2048
rand_sets[57]: 607
Assign rand_sets[58]: 217  LLC: 2048
rand_sets[58]: 217
Assign rand_sets[59]: 1945  LLC: 2048
rand_sets[59]: 1945
Assign rand_sets[60]: 143  LLC: 2048
rand_sets[60]: 143
Assign rand_sets[61]: 1311  LLC: 2048
rand_sets[61]: 1311
Assign rand_sets[62]: 319  LLC: 2048
rand_sets[62]: 319
Assign rand_sets[63]: 1846  LLC: 2048
rand_sets[63]: 1846
 CLEAN-RRIP-POLICY-1: 1-2-1-2-0-3-2-2- CLEAN-RRIP-POLICY-2: 1-2-1-2-0-3-2-2-
 DIRTY-RRIP-POLICY-1: 2-2-1-2-2-3-0-2- DIRTY-RRIP-POLICY-2: 2-2-1-2-2-3-0-2-
 PSEL width: 10
Heartbeat CPU 0 instructions: 10000003 cycles: 4601520 heartbeat IPC: 2.1732 cumulative IPC: 2.1732 (Simulation time: 0 hr 0 min 14 sec) 
Heartbeat CPU 0 instructions: 20000000 cycles: 9042228 heartbeat IPC: 2.25189 cumulative IPC: 2.21184 (Simulation time: 0 hr 0 min 28 sec) 
Heartbeat CPU 0 instructions: 30000000 cycles: 13490172 heartbeat IPC: 2.24823 cumulative IPC: 2.22384 (Simulation time: 0 hr 0 min 42 sec) 
Heartbeat CPU 0 instructions: 40000000 cycles: 18130533 heartbeat IPC: 2.155 cumulative IPC: 2.20622 (Simulation time: 0 hr 0 min 57 sec) 
Heartbeat CPU 0 instructions: 50000002 cycles: 22585970 heartbeat IPC: 2.24445 cumulative IPC: 2.21376 (Simulation time: 0 hr 1 min 11 sec) 
Heartbeat CPU 0 instructions: 60000000 cycles: 27261378 heartbeat IPC: 2.13885 cumulative IPC: 2.20092 (Simulation time: 0 hr 1 min 26 sec) 
Heartbeat CPU 0 instructions: 70000003 cycles: 31703665 heartbeat IPC: 2.25109 cumulative IPC: 2.20795 (Simulation time: 0 hr 1 min 40 sec) 
Heartbeat CPU 0 instructions: 80000000 cycles: 36167151 heartbeat IPC: 2.2404 cumulative IPC: 2.21195 (Simulation time: 0 hr 1 min 54 sec) 
Heartbeat CPU 0 instructions: 90000002 cycles: 40662263 heartbeat IPC: 2.22464 cumulative IPC: 2.21335 (Simulation time: 0 hr 2 min 8 sec) 
Heartbeat CPU 0 instructions: 100000000 cycles: 45171279 heartbeat IPC: 2.21778 cumulative IPC: 2.2138 (Simulation time: 0 hr 2 min 22 sec) 

Warmup complete CPU 0 instructions: 100000003 cycles: 45171280 (Simulation time: 0 hr 2 min 22 sec) 

Heartbeat CPU 0 instructions: 110000000 cycles: 72108576 heartbeat IPC: 0.371233 cumulative IPC: 0.371232 (Simulation time: 0 hr 2 min 52 sec) 
Heartbeat CPU 0 instructions: 120000000 cycles: 103060858 heartbeat IPC: 0.323078 cumulative IPC: 0.345485 (Simulation time: 0 hr 3 min 25 sec) 
Heartbeat CPU 0 instructions: 130000000 cycles: 126937784 heartbeat IPC: 0.418814 cumulative IPC: 0.366898 (Simulation time: 0 hr 3 min 52 sec) 
Heartbeat CPU 0 instructions: 140000000 cycles: 149877882 heartbeat IPC: 0.435918 cumulative IPC: 0.38202 (Simulation time: 0 hr 4 min 20 sec) 
Heartbeat CPU 0 instructions: 150000000 cycles: 174181811 heartbeat IPC: 0.411456 cumulative IPC: 0.387565 (Simulation time: 0 hr 4 min 48 sec) 
Heartbeat CPU 0 instructions: 160000000 cycles: 199334724 heartbeat IPC: 0.397568 cumulative IPC: 0.389197 (Simulation time: 0 hr 5 min 16 sec) 
Heartbeat CPU 0 instructions: 170000002 cycles: 221832200 heartbeat IPC: 0.444494 cumulative IPC: 0.396239 (Simulation time: 0 hr 5 min 43 sec) 
Heartbeat CPU 0 instructions: 180000000 cycles: 244558046 heartbeat IPC: 0.440028 cumulative IPC: 0.40123 (Simulation time: 0 hr 6 min 10 sec) 
Heartbeat CPU 0 instructions: 190000000 cycles: 264971333 heartbeat IPC: 0.489877 cumulative IPC: 0.409463 (Simulation time: 0 hr 6 min 36 sec) 
Heartbeat CPU 0 instructions: 200000000 cycles: 286563697 heartbeat IPC: 0.463127 cumulative IPC: 0.414263 (Simulation time: 0 hr 7 min 2 sec) 
Heartbeat CPU 0 instructions: 210000001 cycles: 313032382 heartbeat IPC: 0.377805 cumulative IPC: 0.410661 (Simulation time: 0 hr 7 min 32 sec) 
Heartbeat CPU 0 instructions: 220000000 cycles: 339044158 heartbeat IPC: 0.384441 cumulative IPC: 0.40834 (Simulation time: 0 hr 8 min 1 sec) 
Heartbeat CPU 0 instructions: 230000000 cycles: 362543849 heartbeat IPC: 0.425537 cumulative IPC: 0.409613 (Simulation time: 0 hr 8 min 28 sec) 
Heartbeat CPU 0 instructions: 240000000 cycles: 388436255 heartbeat IPC: 0.386214 cumulative IPC: 0.407848 (Simulation time: 0 hr 8 min 58 sec) 
Heartbeat CPU 0 instructions: 250000001 cycles: 414494185 heartbeat IPC: 0.38376 cumulative IPC: 0.406149 (Simulation time: 0 hr 9 min 27 sec) 
Heartbeat CPU 0 instructions: 260000000 cycles: 436190904 heartbeat IPC: 0.460899 cumulative IPC: 0.409187 (Simulation time: 0 hr 9 min 53 sec) 
Heartbeat CPU 0 instructions: 270000000 cycles: 458219926 heartbeat IPC: 0.453947 cumulative IPC: 0.411574 (Simulation time: 0 hr 10 min 20 sec) 
Heartbeat CPU 0 instructions: 280000000 cycles: 487164825 heartbeat IPC: 0.345484 cumulative IPC: 0.407246 (Simulation time: 0 hr 10 min 51 sec) 
Heartbeat CPU 0 instructions: 290000000 cycles: 508823667 heartbeat IPC: 0.461705 cumulative IPC: 0.40979 (Simulation time: 0 hr 11 min 17 sec) 
Heartbeat CPU 0 instructions: 300000000 cycles: 530337065 heartbeat IPC: 0.464827 cumulative IPC: 0.41223 (Simulation time: 0 hr 11 min 43 sec) 
Heartbeat CPU 0 instructions: 310000000 cycles: 550939765 heartbeat IPC: 0.485373 cumulative IPC: 0.41521 (Simulation time: 0 hr 12 min 8 sec) 
Heartbeat CPU 0 instructions: 320000000 cycles: 581291952 heartbeat IPC: 0.329466 cumulative IPC: 0.410355 (Simulation time: 0 hr 12 min 40 sec) 
Heartbeat CPU 0 instructions: 330000001 cycles: 601782606 heartbeat IPC: 0.488027 cumulative IPC: 0.413215 (Simulation time: 0 hr 13 min 5 sec) 
Heartbeat CPU 0 instructions: 340000000 cycles: 622421319 heartbeat IPC: 0.484526 cumulative IPC: 0.415764 (Simulation time: 0 hr 13 min 30 sec) 
Heartbeat CPU 0 instructions: 350000002 cycles: 648684302 heartbeat IPC: 0.380764 cumulative IPC: 0.414241 (Simulation time: 0 hr 13 min 59 sec) 
Heartbeat CPU 0 instructions: 360000000 cycles: 671386000 heartbeat IPC: 0.440496 cumulative IPC: 0.415193 (Simulation time: 0 hr 14 min 25 sec) 
Heartbeat CPU 0 instructions: 370000001 cycles: 696861602 heartbeat IPC: 0.392532 cumulative IPC: 0.414307 (Simulation time: 0 hr 14 min 54 sec) 
Heartbeat CPU 0 instructions: 380000000 cycles: 721006175 heartbeat IPC: 0.414172 cumulative IPC: 0.414302 (Simulation time: 0 hr 15 min 21 sec) 
Heartbeat CPU 0 instructions: 390000000 cycles: 740838632 heartbeat IPC: 0.504224 cumulative IPC: 0.416866 (Simulation time: 0 hr 15 min 46 sec) 
Heartbeat CPU 0 instructions: 400000000 cycles: 761902543 heartbeat IPC: 0.474746 cumulative IPC: 0.418567 (Simulation time: 0 hr 16 min 11 sec) 
Heartbeat CPU 0 instructions: 410000001 cycles: 788798156 heartbeat IPC: 0.371808 cumulative IPC: 0.416876 (Simulation time: 0 hr 16 min 40 sec) 
Heartbeat CPU 0 instructions: 420000000 cycles: 813793902 heartbeat IPC: 0.400068 cumulative IPC: 0.416329 (Simulation time: 0 hr 17 min 8 sec) 
Heartbeat CPU 0 instructions: 430000002 cycles: 835596444 heartbeat IPC: 0.458662 cumulative IPC: 0.417497 (Simulation time: 0 hr 17 min 33 sec) 
Heartbeat CPU 0 instructions: 440000000 cycles: 856836745 heartbeat IPC: 0.470803 cumulative IPC: 0.418892 (Simulation time: 0 hr 17 min 59 sec) 
Heartbeat CPU 0 instructions: 450000002 cycles: 884254154 heartbeat IPC: 0.364732 cumulative IPC: 0.417122 (Simulation time: 0 hr 18 min 28 sec) 
Heartbeat CPU 0 instructions: 460000000 cycles: 911828291 heartbeat IPC: 0.362659 cumulative IPC: 0.415389 (Simulation time: 0 hr 18 min 57 sec) 
Heartbeat CPU 0 instructions: 470000002 cycles: 938719189 heartbeat IPC: 0.371873 cumulative IPC: 0.41408 (Simulation time: 0 hr 19 min 26 sec) 
Heartbeat CPU 0 instructions: 480000000 cycles: 963269125 heartbeat IPC: 0.407333 cumulative IPC: 0.413899 (Simulation time: 0 hr 19 min 54 sec) 
Heartbeat CPU 0 instructions: 490000000 cycles: 984893934 heartbeat IPC: 0.462432 cumulative IPC: 0.415016 (Simulation time: 0 hr 20 min 19 sec) 
Heartbeat CPU 0 instructions: 500000000 cycles: 1010829322 heartbeat IPC: 0.385574 cumulative IPC: 0.414225 (Simulation time: 0 hr 20 min 48 sec) 
Heartbeat CPU 0 instructions: 510000000 cycles: 1036558350 heartbeat IPC: 0.388666 cumulative IPC: 0.413562 (Simulation time: 0 hr 21 min 16 sec) 
Heartbeat CPU 0 instructions: 520000000 cycles: 1058422439 heartbeat IPC: 0.457371 cumulative IPC: 0.414507 (Simulation time: 0 hr 21 min 42 sec) 
Heartbeat CPU 0 instructions: 530000003 cycles: 1084529960 heartbeat IPC: 0.383032 cumulative IPC: 0.413717 (Simulation time: 0 hr 22 min 10 sec) 
Heartbeat CPU 0 instructions: 540000000 cycles: 1108502083 heartbeat IPC: 0.417151 cumulative IPC: 0.413794 (Simulation time: 0 hr 22 min 37 sec) 
Heartbeat CPU 0 instructions: 550000000 cycles: 1134516605 heartbeat IPC: 0.384401 cumulative IPC: 0.413092 (Simulation time: 0 hr 23 min 6 sec) 
Heartbeat CPU 0 instructions: 560000000 cycles: 1157809265 heartbeat IPC: 0.42932 cumulative IPC: 0.413432 (Simulation time: 0 hr 23 min 32 sec) 
Heartbeat CPU 0 instructions: 570000002 cycles: 1182234317 heartbeat IPC: 0.409416 cumulative IPC: 0.413346 (Simulation time: 0 hr 24 min 0 sec) 
Heartbeat CPU 0 instructions: 580000000 cycles: 1203813658 heartbeat IPC: 0.463406 cumulative IPC: 0.414278 (Simulation time: 0 hr 24 min 25 sec) 
Heartbeat CPU 0 instructions: 590000001 cycles: 1228224678 heartbeat IPC: 0.409651 cumulative IPC: 0.414182 (Simulation time: 0 hr 24 min 52 sec) 
Heartbeat CPU 0 instructions: 600000000 cycles: 1248271266 heartbeat IPC: 0.498838 cumulative IPC: 0.415593 (Simulation time: 0 hr 25 min 17 sec) 
Finished CPU 0 instructions: 500000000 cycles: 1203100007 cumulative IPC: 0.415593 (Simulation time: 0 hr 25 min 17 sec) 

CPU 0 Branch Prediction Accuracy: 99.5434% MPKI: 1.33026
Number of Branches: 145676990 Number of Mispredictions: 665128
Number of LOAD Instructions: 188863207
Number of LOAD Instructions (ROI): 188863207
Number of STORE Instructions: 7332002
Number of STORE Instructions (ROI): 7332002
Total Destination Memory Operands: 10029285
Total Destination Memory Operands (ROI): 10029285
Total Source Memory Operands: 188863207
Total Source Memory Operands (ROI): 188863207
Number of DEPENDED LOADS: 299607
Number of DEPENDED LOADS (ROI): 299607
Number of SQ_ADDED: 10029285
Number of SQ_ADDED (ROI): 10029285
Number of LQ_ADDED: 201560741
Number of LQ_ADDED (ROI): 201560741
Number of Instructions read from trace: 600000010

ChampSim completed all CPUs

Region of Interest Statistics

CPU 0 cumulative IPC: 0.415593 instructions: 500000000 cycles: 1203100007
ITLB TOTAL     ACCESS:  146072218  HIT:  146032616  MISS:      39602
ITLB LOAD      ACCESS:  146072218  HIT:  146032616  MISS:      39602
ITLB RFO       ACCESS:          0  HIT:          0  MISS:          0
ITLB PREFETCH  ACCESS:          0  HIT:          0  MISS:          0
ITLB WRITEBACK ACCESS:          0  HIT:          0  MISS:          0
ITLB PREFETCH  REQUESTED:          0  ISSUED:          0  USEFUL:          0  USELESS:          0
ITLB TOTAL MSHR MERGED:      57469
ITLB LOAD MSHR MERGED:      57469
ITLB RFO MSHR MERGED:          0
ITLB PREFETCH MSHR MERGED:          0
ITLB WRITEBACK MSHR MERGED:          0
ITLB TOTAL ACCESSES:  146129687 HITS:  146032616 MISSES:      97071
ITLB LOAD ACCESSES:  146129687 HITS:  146032616 MISSES:      97071
ITLB RFO ACCESSES:          0 HITS:          0 MISSES:          0
ITLB PREFETCH ACCESSES:          0 HITS:          0 MISSES:          0
ITLB WRITEBACK ACCESSES:          0 HITS:          0 MISSES:          0
ITLB RQ ACCESS:  499999754
ITLB RQ TO_CACHE:  146129687
ITLB RQ MERGED:  353870067
ITLB RQ FORWARD:          0
ITLB WQ ACCESS:          0
ITLB WQ TO_CACHE:          0
ITLB WQ MERGED:          0
ITLB WQ FORWARD:          0
DTLB TOTAL     ACCESS:  135291596  HIT:  134123247  MISS:    1168349
DTLB LOAD      ACCESS:  127248582  HIT:  126089319  MISS:    1159263
DTLB RFO       ACCESS:    8043014  HIT:    8033928  MISS:       9086
DTLB PREFETCH  ACCESS:          0  HIT:          0  MISS:          0
DTLB WRITEBACK ACCESS:          0  HIT:          0  MISS:          0
DTLB PREFETCH  REQUESTED:          0  ISSUED:          0  USEFUL:          0  USELESS:          0
DTLB TOTAL MSHR MERGED:     572743
DTLB LOAD MSHR MERGED:     568482
DTLB RFO MSHR MERGED:       4261
DTLB PREFETCH MSHR MERGED:          0
DTLB WRITEBACK MSHR MERGED:          0
DTLB TOTAL ACCESSES:  135864339 HITS:  134123247 MISSES:    1741092
DTLB LOAD ACCESSES:  127817064 HITS:  126089319 MISSES:    1727745
DTLB RFO ACCESSES:    8047275 HITS:    8033928 MISSES:      13347
DTLB PREFETCH ACCESSES:          0 HITS:          0 MISSES:          0
DTLB WRITEBACK ACCESSES:          0 HITS:          0 MISSES:          0
DTLB RQ ACCESS:  165754769
DTLB RQ TO_CACHE:  135864339
DTLB RQ MERGED:   29890430
DTLB RQ FORWARD:          0
DTLB WQ ACCESS:          0
DTLB WQ TO_CACHE:          0
DTLB WQ MERGED:          0
DTLB WQ FORWARD:          0
L1D TOTAL     ACCESS:  159427020  HIT:  142111285  MISS:   17315735
L1D LOAD      ACCESS:   90549959  HIT:   79965768  MISS:   10584191
L1D RFO       ACCESS:    8496283  HIT:    8409148  MISS:      87135
L1D PREFETCH  ACCESS:   60380778  HIT:   53736369  MISS:    6644409
L1D WRITEBACK ACCESS:          0  HIT:          0  MISS:          0
L1D PREFETCH  REQUESTED:   93863654  ISSUED:   92995364  USEFUL:    2562907  USELESS:    4081576
L1D TOTAL MSHR MERGED:   12916081
L1D LOAD MSHR MERGED:    6178582
L1D RFO MSHR MERGED:     128421
L1D PREFETCH MSHR MERGED:    6609078
L1D WRITEBACK MSHR MERGED:          0
L1D TOTAL ACCESSES:  172343288 HITS:  142111471 MISSES:   30231817
L1D LOAD ACCESSES:   93863666 HITS:   79965780 MISSES:   13897886
L1D RFO ACCESSES:    8622865 HITS:    8409148 MISSES:     213717
L1D PREFETCH ACCESSES:   69856757 HITS:   53736543 MISSES:   16120214
L1D WRITEBACK ACCESSES:          0 HITS:          0 MISSES:          0
L1D RQ ACCESS:  157115563
L1D RQ TO_CACHE:   93863654
L1D RQ MERGED:   63251897
L1D RQ FORWARD:          0
L1D WQ ACCESS:    8639208
L1D WQ TO_CACHE:    8622865
L1D WQ MERGED:      16343
L1D WQ FORWARD:        186
L1I TOTAL     ACCESS:  178974099  HIT:  178310642  MISS:     663457
L1I LOAD      ACCESS:  178974099  HIT:  178310642  MISS:     663457
L1I RFO       ACCESS:          0  HIT:          0  MISS:          0
L1I PREFETCH  ACCESS:          0  HIT:          0  MISS:          0
L1I WRITEBACK ACCESS:          0  HIT:          0  MISS:          0
L1I PREFETCH  REQUESTED:          0  ISSUED:          0  USEFUL:          0  USELESS:          0
L1I TOTAL MSHR MERGED:     631781
L1I LOAD MSHR MERGED:     631781
L1I RFO MSHR MERGED:          0
L1I PREFETCH MSHR MERGED:          0
L1I WRITEBACK MSHR MERGED:          0
L1I TOTAL ACCESSES:  179605880 HITS:  178310642 MISSES:    1295238
L1I LOAD ACCESSES:  179605880 HITS:  178310642 MISSES:    1295238
L1I RFO ACCESSES:          0 HITS:          0 MISSES:          0
L1I PREFETCH ACCESSES:          0 HITS:          0 MISSES:          0
L1I WRITEBACK ACCESSES:          0 HITS:          0 MISSES:          0
L1I RQ ACCESS:  499999757
L1I RQ TO_CACHE:  179605880
L1I RQ MERGED:  320393877
L1I RQ FORWARD:          0
L1I WQ ACCESS:          0
L1I WQ TO_CACHE:          0
L1I WQ MERGED:          0
L1I WQ FORWARD:          0
L2C TOTAL     ACCESS:   19270673  HIT:    2053307  MISS:   17217366
L2C LOAD      ACCESS:    8382661  HIT:     949749  MISS:    7432912
L2C RFO       ACCESS:      85272  HIT:      53722  MISS:      31550
L2C PREFETCH  ACCESS:   10517760  HIT:     767668  MISS:    9750092
L2C WRITEBACK ACCESS:     284980  HIT:     282168  MISS:       2812
L2C PREFETCH  REQUESTED:    1008680  ISSUED:    1008680  USEFUL:     273564  USELESS:    9475616
L2C TOTAL MSHR MERGED:        464
L2C LOAD MSHR MERGED:         43
L2C RFO MSHR MERGED:          1
L2C PREFETCH MSHR MERGED:        420
L2C WRITEBACK MSHR MERGED:          0
L2C TOTAL ACCESSES:   19271583 HITS:    2053495 MISSES:   17218088
L2C LOAD ACCESSES:    8382761 HITS:     949849 MISSES:    7432912
L2C RFO ACCESSES:      85296 HITS:      53746 MISSES:      31550
L2C PREFETCH ACCESSES:   10518546 HITS:     767732 MISSES:    9750814
L2C WRITEBACK ACCESSES:     284980 HITS:     282168 MISSES:       2812
L2C RQ ACCESS:    8468057
L2C RQ TO_CACHE:    8467933
L2C RQ MERGED:          0
L2C RQ FORWARD:          0
L2C WQ ACCESS:     284980
L2C WQ TO_CACHE:     284980
L2C WQ MERGED:          0
L2C WQ FORWARD:        188
LLC TOTAL     ACCESS:   17320858  HIT:    5825326  MISS:   11495532
LLC LOAD      ACCESS:    7432869  HIT:    2103122  MISS:    5329747
LLC RFO       ACCESS:      31549  HIT:       6627  MISS:      24922
LLC PREFETCH  ACCESS:    9750380  HIT:    3675163  MISS:    6075217
LLC WRITEBACK ACCESS:     106060  HIT:      40414  MISS:      65646
LLC PREFETCH  REQUESTED:          0  ISSUED:          0  USEFUL:      13356  USELESS:    6061785
LLC TOTAL MSHR MERGED:         11
LLC LOAD MSHR MERGED:          0
LLC RFO MSHR MERGED:          0
LLC PREFETCH MSHR MERGED:         11
LLC WRITEBACK MSHR MERGED:          0
LLC TOTAL ACCESSES:   17320870 HITS:    5825326 MISSES:   11495544
LLC LOAD ACCESSES:    7432869 HITS:    2103122 MISSES:    5329747
LLC RFO ACCESSES:      31549 HITS:       6627 MISSES:      24922
LLC PREFETCH ACCESSES:    9750392 HITS:    3675163 MISSES:    6075229
LLC WRITEBACK ACCESSES:     106060 HITS:      40414 MISSES:      65646
LLC 0 RQ ACCESS:    7464418
LLC 0 RQ TO_CACHE:    7464418
LLC 0 RQ MERGED:          0
LLC 0 RQ FORWARD:          0
LLC WQ ACCESS:     106060
LLC WQ TO_CACHE:     106060
LLC WQ MERGED:          0
LLC WQ FORWARD:          0
Major fault: 0 Minor fault: 6432
CPU 0 L1D next line prefetcher final stats
CPU 0 L2C PC-based stride prefetcher final stats
All Misses: 13773466
All Hits: 6765824
SD Algo Stats - Switches: 0 SRR-Repls: 5931693 BRR-Repls: 0

DRAM Statistics
 CHANNEL 0
 RQ ROW_BUFFER_HIT:    8468499  ROW_BUFFER_MISS:    2953550
 DBUS_CONGESTED:    5731540
 WQ ROW_BUFFER_HIT:       3357  ROW_BUFFER_MISS:      89721  FULL:          0

 AVG_CONGESTED_CYCLE: 13
LOADS RETIRED: 157382665
INSTR RETIRED: 500000000
