
*** ChampSim Multicore Out-of-Order Simulator ***

Warmup Instructions: 100000000
Simulation Instructions: 500000000
Number of CPUs: 1
LLC sets: 2048
LLC ways: 16
Clean RRIP Policies: 213230202132302 Dirty RRIP Policies: 1203030212030302 PSEL Width: 10 Track Set: 4294967295 PSEL Mask: 1 Demote Mask: 3040100030401000DS Algo: 0Window size: 0
Off-chip DRAM Size: 4096 MB Channels: 1 Width: 64-bit Data Rate: 1600 MT/s

CPU 0 runs /mnt/beegfs/iconst01/spec2017/cactuBSSN.trace.gz
NOT SORTED
TRACE STRING: /mnt/beegfs/iconst01/spec2017/cactuBSSN.trace.gz
SORTED
TRACE STRING: /mnt/beegfs/iconst01/spec2017/cactuBSSN.trace.gz
INITIAL
TRACE STRING: /mnt/beegfs/iconst01/spec2017/cactuBSSN.trace.gz

champsim_seed used: 838

CPU 0 L1D next line prefetcher
CPU 0 L2C IP-based stride prefetcher
Initialize DRRIP state
Assign rand_sets[0]: 454  LLC: 2048
rand_sets[0]: 454
Assign rand_sets[1]: 1662  LLC: 2048
rand_sets[1]: 1662
Assign rand_sets[2]: 1921  LLC: 2048
rand_sets[2]: 1921
Assign rand_sets[3]: 1131  LLC: 2048
rand_sets[3]: 1131
Assign rand_sets[4]: 331  LLC: 2048
rand_sets[4]: 331
Assign rand_sets[5]: 1531  LLC: 2048
rand_sets[5]: 1531
Assign rand_sets[6]: 482  LLC: 2048
rand_sets[6]: 482
Assign rand_sets[7]: 1275  LLC: 2048
rand_sets[7]: 1275
Assign rand_sets[8]: 1876  LLC: 2048
rand_sets[8]: 1876
Assign rand_sets[9]: 2038  LLC: 2048
rand_sets[9]: 2038
Assign rand_sets[10]: 701  LLC: 2048
rand_sets[10]: 701
Assign rand_sets[11]: 479  LLC: 2048
rand_sets[11]: 479
Assign rand_sets[12]: 892  LLC: 2048
rand_sets[12]: 892
Assign rand_sets[13]: 1820  LLC: 2048
rand_sets[13]: 1820
Assign rand_sets[14]: 1505  LLC: 2048
rand_sets[14]: 1505
Assign rand_sets[15]: 1159  LLC: 2048
rand_sets[15]: 1159
Assign rand_sets[16]: 513  LLC: 2048
rand_sets[16]: 513
Assign rand_sets[17]: 703  LLC: 2048
rand_sets[17]: 703
Assign rand_sets[18]: 561  LLC: 2048
rand_sets[18]: 561
Assign rand_sets[19]: 990  LLC: 2048
rand_sets[19]: 990
Assign rand_sets[20]: 342  LLC: 2048
rand_sets[20]: 342
Assign rand_sets[21]: 882  LLC: 2048
rand_sets[21]: 882
Assign rand_sets[22]: 15  LLC: 2048
rand_sets[22]: 15
Assign rand_sets[23]: 71  LLC: 2048
rand_sets[23]: 71
Assign rand_sets[24]: 1127  LLC: 2048
rand_sets[24]: 1127
Assign rand_sets[25]: 1382  LLC: 2048
rand_sets[25]: 1382
Assign rand_sets[26]: 647  LLC: 2048
rand_sets[26]: 647
Assign rand_sets[27]: 857  LLC: 2048
rand_sets[27]: 857
Assign rand_sets[28]: 1450  LLC: 2048
rand_sets[28]: 1450
Assign rand_sets[29]: 1160  LLC: 2048
rand_sets[29]: 1160
Assign rand_sets[30]: 1852  LLC: 2048
rand_sets[30]: 1852
Assign rand_sets[31]: 1881  LLC: 2048
rand_sets[31]: 1881
Assign rand_sets[32]: 1770  LLC: 2048
rand_sets[32]: 1770
Assign rand_sets[33]: 1622  LLC: 2048
rand_sets[33]: 1622
Assign rand_sets[34]: 275  LLC: 2048
rand_sets[34]: 275
Assign rand_sets[35]: 635  LLC: 2048
rand_sets[35]: 635
Assign rand_sets[36]: 466  LLC: 2048
rand_sets[36]: 466
Assign rand_sets[37]: 1413  LLC: 2048
rand_sets[37]: 1413
Assign rand_sets[38]: 417  LLC: 2048
rand_sets[38]: 417
Assign rand_sets[39]: 472  LLC: 2048
rand_sets[39]: 472
Assign rand_sets[40]: 1340  LLC: 2048
rand_sets[40]: 1340
Assign rand_sets[41]: 852  LLC: 2048
rand_sets[41]: 852
Assign rand_sets[42]: 1365  LLC: 2048
rand_sets[42]: 1365
Assign rand_sets[43]: 47  LLC: 2048
rand_sets[43]: 47
Assign rand_sets[44]: 823  LLC: 2048
rand_sets[44]: 823
Assign rand_sets[45]: 686  LLC: 2048
rand_sets[45]: 686
Assign rand_sets[46]: 1637  LLC: 2048
rand_sets[46]: 1637
Assign rand_sets[47]: 1115  LLC: 2048
rand_sets[47]: 1115
Assign rand_sets[48]: 986  LLC: 2048
rand_sets[48]: 986
Assign rand_sets[49]: 258  LLC: 2048
rand_sets[49]: 258
Assign rand_sets[50]: 633  LLC: 2048
rand_sets[50]: 633
Assign rand_sets[51]: 920  LLC: 2048
rand_sets[51]: 920
Assign rand_sets[52]: 204  LLC: 2048
rand_sets[52]: 204
Assign rand_sets[53]: 227  LLC: 2048
rand_sets[53]: 227
Assign rand_sets[54]: 1818  LLC: 2048
rand_sets[54]: 1818
Assign rand_sets[55]: 886  LLC: 2048
rand_sets[55]: 886
Assign rand_sets[56]: 1422  LLC: 2048
rand_sets[56]: 1422
Assign rand_sets[57]: 607  LLC: 2048
rand_sets[57]: 607
Assign rand_sets[58]: 217  LLC: 2048
rand_sets[58]: 217
Assign rand_sets[59]: 1945  LLC: 2048
rand_sets[59]: 1945
Assign rand_sets[60]: 143  LLC: 2048
rand_sets[60]: 143
Assign rand_sets[61]: 1311  LLC: 2048
rand_sets[61]: 1311
Assign rand_sets[62]: 319  LLC: 2048
rand_sets[62]: 319
Assign rand_sets[63]: 1846  LLC: 2048
rand_sets[63]: 1846
 CLEAN-RRIP-POLICY-1: 0-2-1-3-2-3-0-2- CLEAN-RRIP-POLICY-2: 0-2-1-3-2-3-0-2-
 DIRTY-RRIP-POLICY-1: 1-2-0-3-0-3-0-2- DIRTY-RRIP-POLICY-2: 1-2-0-3-0-3-0-2-
 PSEL width: 10
Heartbeat CPU 0 instructions: 10000000 cycles: 6588002 heartbeat IPC: 1.51791 cumulative IPC: 1.51791 (Simulation time: 0 hr 0 min 24 sec) 
Heartbeat CPU 0 instructions: 20000000 cycles: 13179591 heartbeat IPC: 1.51708 cumulative IPC: 1.5175 (Simulation time: 0 hr 0 min 49 sec) 
Heartbeat CPU 0 instructions: 30000003 cycles: 19772909 heartbeat IPC: 1.51669 cumulative IPC: 1.51723 (Simulation time: 0 hr 1 min 13 sec) 
Heartbeat CPU 0 instructions: 40000000 cycles: 26364656 heartbeat IPC: 1.51705 cumulative IPC: 1.51718 (Simulation time: 0 hr 1 min 38 sec) 
Heartbeat CPU 0 instructions: 50000001 cycles: 32957329 heartbeat IPC: 1.51684 cumulative IPC: 1.51711 (Simulation time: 0 hr 2 min 2 sec) 
Heartbeat CPU 0 instructions: 60000000 cycles: 39556156 heartbeat IPC: 1.51542 cumulative IPC: 1.51683 (Simulation time: 0 hr 2 min 26 sec) 
Heartbeat CPU 0 instructions: 70000003 cycles: 46154533 heartbeat IPC: 1.51552 cumulative IPC: 1.51664 (Simulation time: 0 hr 2 min 51 sec) 
Heartbeat CPU 0 instructions: 80000000 cycles: 52752581 heartbeat IPC: 1.5156 cumulative IPC: 1.51651 (Simulation time: 0 hr 3 min 15 sec) 
Heartbeat CPU 0 instructions: 90000002 cycles: 59348258 heartbeat IPC: 1.51614 cumulative IPC: 1.51647 (Simulation time: 0 hr 3 min 40 sec) 
Heartbeat CPU 0 instructions: 100000000 cycles: 65943328 heartbeat IPC: 1.51628 cumulative IPC: 1.51645 (Simulation time: 0 hr 4 min 4 sec) 

Warmup complete CPU 0 instructions: 100000002 cycles: 65943329 (Simulation time: 0 hr 4 min 4 sec) 

Heartbeat CPU 0 instructions: 110000000 cycles: 79182116 heartbeat IPC: 0.755356 cumulative IPC: 0.755356 (Simulation time: 0 hr 4 min 34 sec) 
Heartbeat CPU 0 instructions: 120000000 cycles: 92385043 heartbeat IPC: 0.757408 cumulative IPC: 0.756381 (Simulation time: 0 hr 5 min 4 sec) 
Heartbeat CPU 0 instructions: 130000001 cycles: 105655223 heartbeat IPC: 0.753569 cumulative IPC: 0.755441 (Simulation time: 0 hr 5 min 34 sec) 
Heartbeat CPU 0 instructions: 140000000 cycles: 118829803 heartbeat IPC: 0.759037 cumulative IPC: 0.756337 (Simulation time: 0 hr 6 min 4 sec) 
Heartbeat CPU 0 instructions: 150000001 cycles: 132012728 heartbeat IPC: 0.758557 cumulative IPC: 0.75678 (Simulation time: 0 hr 6 min 34 sec) 
Heartbeat CPU 0 instructions: 160000000 cycles: 145248474 heartbeat IPC: 0.75553 cumulative IPC: 0.756571 (Simulation time: 0 hr 7 min 3 sec) 
Heartbeat CPU 0 instructions: 170000000 cycles: 158462639 heartbeat IPC: 0.756764 cumulative IPC: 0.756599 (Simulation time: 0 hr 7 min 33 sec) 
Heartbeat CPU 0 instructions: 180000000 cycles: 171659087 heartbeat IPC: 0.75778 cumulative IPC: 0.756746 (Simulation time: 0 hr 8 min 3 sec) 
Heartbeat CPU 0 instructions: 190000000 cycles: 184814411 heartbeat IPC: 0.760149 cumulative IPC: 0.757123 (Simulation time: 0 hr 8 min 33 sec) 
Heartbeat CPU 0 instructions: 200000000 cycles: 198069563 heartbeat IPC: 0.754424 cumulative IPC: 0.756852 (Simulation time: 0 hr 9 min 3 sec) 
Heartbeat CPU 0 instructions: 210000002 cycles: 211287708 heartbeat IPC: 0.756536 cumulative IPC: 0.756823 (Simulation time: 0 hr 9 min 33 sec) 
Heartbeat CPU 0 instructions: 220000000 cycles: 224462039 heartbeat IPC: 0.759052 cumulative IPC: 0.757008 (Simulation time: 0 hr 10 min 3 sec) 
Heartbeat CPU 0 instructions: 230000003 cycles: 237704991 heartbeat IPC: 0.755119 cumulative IPC: 0.756863 (Simulation time: 0 hr 10 min 33 sec) 
Heartbeat CPU 0 instructions: 240000000 cycles: 250894041 heartbeat IPC: 0.758205 cumulative IPC: 0.756958 (Simulation time: 0 hr 11 min 3 sec) 
Heartbeat CPU 0 instructions: 250000001 cycles: 264117239 heartbeat IPC: 0.756247 cumulative IPC: 0.756911 (Simulation time: 0 hr 11 min 33 sec) 
Heartbeat CPU 0 instructions: 260000000 cycles: 277334896 heartbeat IPC: 0.756564 cumulative IPC: 0.756889 (Simulation time: 0 hr 12 min 2 sec) 
Heartbeat CPU 0 instructions: 270000003 cycles: 290579708 heartbeat IPC: 0.755013 cumulative IPC: 0.756779 (Simulation time: 0 hr 12 min 32 sec) 
Heartbeat CPU 0 instructions: 280000000 cycles: 303778495 heartbeat IPC: 0.757645 cumulative IPC: 0.756827 (Simulation time: 0 hr 13 min 2 sec) 
Heartbeat CPU 0 instructions: 290000000 cycles: 316949036 heartbeat IPC: 0.75927 cumulative IPC: 0.756955 (Simulation time: 0 hr 13 min 32 sec) 
Heartbeat CPU 0 instructions: 300000000 cycles: 330205637 heartbeat IPC: 0.754341 cumulative IPC: 0.756824 (Simulation time: 0 hr 14 min 1 sec) 
Heartbeat CPU 0 instructions: 310000001 cycles: 343387150 heartbeat IPC: 0.758638 cumulative IPC: 0.75691 (Simulation time: 0 hr 14 min 31 sec) 
Heartbeat CPU 0 instructions: 320000000 cycles: 356576295 heartbeat IPC: 0.758199 cumulative IPC: 0.756968 (Simulation time: 0 hr 15 min 1 sec) 
Heartbeat CPU 0 instructions: 330000002 cycles: 369773486 heartbeat IPC: 0.757737 cumulative IPC: 0.757002 (Simulation time: 0 hr 15 min 31 sec) 
Heartbeat CPU 0 instructions: 340000000 cycles: 383015786 heartbeat IPC: 0.755156 cumulative IPC: 0.756925 (Simulation time: 0 hr 16 min 0 sec) 
Heartbeat CPU 0 instructions: 350000000 cycles: 396269285 heartbeat IPC: 0.754518 cumulative IPC: 0.756828 (Simulation time: 0 hr 16 min 30 sec) 
Heartbeat CPU 0 instructions: 360000000 cycles: 409484399 heartbeat IPC: 0.756709 cumulative IPC: 0.756824 (Simulation time: 0 hr 17 min 0 sec) 
Heartbeat CPU 0 instructions: 370000002 cycles: 422763715 heartbeat IPC: 0.753051 cumulative IPC: 0.756683 (Simulation time: 0 hr 17 min 29 sec) 
Heartbeat CPU 0 instructions: 380000000 cycles: 435970473 heartbeat IPC: 0.757188 cumulative IPC: 0.756701 (Simulation time: 0 hr 17 min 59 sec) 
Heartbeat CPU 0 instructions: 390000000 cycles: 449148411 heartbeat IPC: 0.758844 cumulative IPC: 0.756775 (Simulation time: 0 hr 18 min 28 sec) 
Heartbeat CPU 0 instructions: 400000000 cycles: 462343285 heartbeat IPC: 0.75787 cumulative IPC: 0.756811 (Simulation time: 0 hr 18 min 58 sec) 
Heartbeat CPU 0 instructions: 410000001 cycles: 475595655 heartbeat IPC: 0.754582 cumulative IPC: 0.756739 (Simulation time: 0 hr 19 min 28 sec) 
Heartbeat CPU 0 instructions: 420000000 cycles: 488768243 heartbeat IPC: 0.759152 cumulative IPC: 0.756814 (Simulation time: 0 hr 19 min 57 sec) 
Heartbeat CPU 0 instructions: 430000001 cycles: 501957711 heartbeat IPC: 0.758181 cumulative IPC: 0.756856 (Simulation time: 0 hr 20 min 27 sec) 
Heartbeat CPU 0 instructions: 440000000 cycles: 515129375 heartbeat IPC: 0.759205 cumulative IPC: 0.756925 (Simulation time: 0 hr 20 min 56 sec) 
Heartbeat CPU 0 instructions: 450000002 cycles: 528446399 heartbeat IPC: 0.750919 cumulative IPC: 0.756752 (Simulation time: 0 hr 21 min 26 sec) 
Heartbeat CPU 0 instructions: 460000000 cycles: 541666990 heartbeat IPC: 0.756396 cumulative IPC: 0.756742 (Simulation time: 0 hr 21 min 56 sec) 
Heartbeat CPU 0 instructions: 470000003 cycles: 554861880 heartbeat IPC: 0.757869 cumulative IPC: 0.756772 (Simulation time: 0 hr 22 min 25 sec) 
Heartbeat CPU 0 instructions: 480000000 cycles: 568105576 heartbeat IPC: 0.755076 cumulative IPC: 0.756728 (Simulation time: 0 hr 22 min 55 sec) 
Heartbeat CPU 0 instructions: 490000000 cycles: 581321526 heartbeat IPC: 0.756661 cumulative IPC: 0.756726 (Simulation time: 0 hr 23 min 24 sec) 
Heartbeat CPU 0 instructions: 500000000 cycles: 594517650 heartbeat IPC: 0.757798 cumulative IPC: 0.756753 (Simulation time: 0 hr 23 min 54 sec) 
Heartbeat CPU 0 instructions: 510000001 cycles: 607688277 heartbeat IPC: 0.759265 cumulative IPC: 0.756814 (Simulation time: 0 hr 24 min 23 sec) 
Heartbeat CPU 0 instructions: 520000000 cycles: 620968419 heartbeat IPC: 0.753004 cumulative IPC: 0.756723 (Simulation time: 0 hr 24 min 53 sec) 
Heartbeat CPU 0 instructions: 530000000 cycles: 634215854 heartbeat IPC: 0.754863 cumulative IPC: 0.756679 (Simulation time: 0 hr 25 min 22 sec) 
Heartbeat CPU 0 instructions: 540000000 cycles: 647438505 heartbeat IPC: 0.756278 cumulative IPC: 0.75667 (Simulation time: 0 hr 25 min 52 sec) 
Heartbeat CPU 0 instructions: 550000002 cycles: 660697164 heartbeat IPC: 0.754224 cumulative IPC: 0.756616 (Simulation time: 0 hr 26 min 22 sec) 
Heartbeat CPU 0 instructions: 560000000 cycles: 673886594 heartbeat IPC: 0.758183 cumulative IPC: 0.75665 (Simulation time: 0 hr 26 min 51 sec) 
Heartbeat CPU 0 instructions: 570000001 cycles: 687096771 heartbeat IPC: 0.756992 cumulative IPC: 0.756657 (Simulation time: 0 hr 27 min 21 sec) 
Heartbeat CPU 0 instructions: 580000000 cycles: 700298660 heartbeat IPC: 0.757467 cumulative IPC: 0.756674 (Simulation time: 0 hr 27 min 50 sec) 
Heartbeat CPU 0 instructions: 590000003 cycles: 713539541 heartbeat IPC: 0.755237 cumulative IPC: 0.756644 (Simulation time: 0 hr 28 min 20 sec) 
Heartbeat CPU 0 instructions: 600000000 cycles: 726791021 heartbeat IPC: 0.754632 cumulative IPC: 0.756604 (Simulation time: 0 hr 28 min 49 sec) 
Finished CPU 0 instructions: 500000000 cycles: 660847702 cumulative IPC: 0.756604 (Simulation time: 0 hr 28 min 49 sec) 

CPU 0 Branch Prediction Accuracy: 99.968% MPKI: 0.002246
Number of Branches: 3513331 Number of Mispredictions: 1123
Number of LOAD Instructions: 287251172
Number of LOAD Instructions (ROI): 287251172
Number of STORE Instructions: 51060820
Number of STORE Instructions (ROI): 51060820
Total Destination Memory Operands: 51166221
Total Destination Memory Operands (ROI): 51166221
Total Source Memory Operands: 287251172
Total Source Memory Operands (ROI): 287251172
Number of DEPENDED LOADS: 9555461
Number of DEPENDED LOADS (ROI): 9555461
Number of SQ_ADDED: 51166208
Number of SQ_ADDED (ROI): 51166208
Number of LQ_ADDED: 290419941
Number of LQ_ADDED (ROI): 290419941
Number of Instructions read from trace: 600000257

ChampSim completed all CPUs

Region of Interest Statistics

CPU 0 cumulative IPC: 0.756604 instructions: 500000000 cycles: 660847702
ITLB TOTAL     ACCESS:  108949684  HIT:  108949684  MISS:          0
ITLB LOAD      ACCESS:  108949684  HIT:  108949684  MISS:          0
ITLB RFO       ACCESS:          0  HIT:          0  MISS:          0
ITLB PREFETCH  ACCESS:          0  HIT:          0  MISS:          0
ITLB WRITEBACK ACCESS:          0  HIT:          0  MISS:          0
ITLB PREFETCH  REQUESTED:          0  ISSUED:          0  USEFUL:          0  USELESS:          0
ITLB TOTAL MSHR MERGED:          0
ITLB LOAD MSHR MERGED:          0
ITLB RFO MSHR MERGED:          0
ITLB PREFETCH MSHR MERGED:          0
ITLB WRITEBACK MSHR MERGED:          0
ITLB TOTAL ACCESSES:  108949684 HITS:  108949684 MISSES:          0
ITLB LOAD ACCESSES:  108949684 HITS:  108949684 MISSES:          0
ITLB RFO ACCESSES:          0 HITS:          0 MISSES:          0
ITLB PREFETCH ACCESSES:          0 HITS:          0 MISSES:          0
ITLB WRITEBACK ACCESSES:          0 HITS:          0 MISSES:          0
ITLB RQ ACCESS:  500000001
ITLB RQ TO_CACHE:  108949684
ITLB RQ MERGED:  391050317
ITLB RQ FORWARD:          0
ITLB WQ ACCESS:          0
ITLB WQ TO_CACHE:          0
ITLB WQ MERGED:          0
ITLB WQ FORWARD:          0
DTLB TOTAL     ACCESS:  171131306  HIT:  161114981  MISS:   10016325
DTLB LOAD      ACCESS:  143472085  HIT:  135596010  MISS:    7876075
DTLB RFO       ACCESS:   27659221  HIT:   25518971  MISS:    2140250
DTLB PREFETCH  ACCESS:          0  HIT:          0  MISS:          0
DTLB WRITEBACK ACCESS:          0  HIT:          0  MISS:          0
DTLB PREFETCH  REQUESTED:          0  ISSUED:          0  USEFUL:          0  USELESS:          0
DTLB TOTAL MSHR MERGED:     360429
DTLB LOAD MSHR MERGED:     360429
DTLB RFO MSHR MERGED:          0
DTLB PREFETCH MSHR MERGED:          0
DTLB WRITEBACK MSHR MERGED:          0
DTLB TOTAL ACCESSES:  171491735 HITS:  161114981 MISSES:   10376754
DTLB LOAD ACCESSES:  143832514 HITS:  135596010 MISSES:    8236504
DTLB RFO ACCESSES:   27659221 HITS:   25518971 MISSES:    2140250
DTLB PREFETCH ACCESSES:          0 HITS:          0 MISSES:          0
DTLB WRITEBACK ACCESSES:          0 HITS:          0 MISSES:          0
DTLB RQ ACCESS:  274072356
DTLB RQ TO_CACHE:  171491735
DTLB RQ MERGED:  102580621
DTLB RQ FORWARD:          0
DTLB WQ ACCESS:          0
DTLB WQ TO_CACHE:          0
DTLB WQ MERGED:          0
DTLB WQ FORWARD:          0
L1D TOTAL     ACCESS:  350939766  HIT:  283740448  MISS:   67199318
L1D LOAD      ACCESS:  175626643  HIT:  142587349  MISS:   33039294
L1D RFO       ACCESS:   42019787  HIT:   39214126  MISS:    2805661
L1D PREFETCH  ACCESS:  133293336  HIT:  101938973  MISS:   31354363
L1D WRITEBACK ACCESS:          0  HIT:          0  MISS:          0
L1D PREFETCH  REQUESTED:  176230651  ISSUED:  175292373  USEFUL:    2180479  USELESS:   29173886
L1D TOTAL MSHR MERGED:    1482890
L1D LOAD MSHR MERGED:     703939
L1D RFO MSHR MERGED:     349342
L1D PREFETCH MSHR MERGED:     429609
L1D WRITEBACK MSHR MERGED:          0
L1D TOTAL ACCESSES:  352535497 HITS:  283853289 MISSES:   68682208
L1D LOAD ACCESSES:  176237505 HITS:  142594203 MISSES:   33643302
L1D RFO ACCESSES:   42368435 HITS:   39214126 MISSES:    3154309
L1D PREFETCH ACCESSES:  133929557 HITS:  102044960 MISSES:   31884597
L1D WRITEBACK ACCESSES:          0 HITS:          0 MISSES:          0
L1D RQ ACCESS:  231433883
L1D RQ TO_CACHE:  176230651
L1D RQ MERGED:   55196378
L1D RQ FORWARD:          0
L1D WQ ACCESS:   42638475
L1D WQ TO_CACHE:   42368435
L1D WQ MERGED:     270040
L1D WQ FORWARD:     112841
L1I TOTAL     ACCESS:  109343954  HIT:   77828250  MISS:   31515704
L1I LOAD      ACCESS:  109343954  HIT:   77828250  MISS:   31515704
L1I RFO       ACCESS:          0  HIT:          0  MISS:          0
L1I PREFETCH  ACCESS:          0  HIT:          0  MISS:          0
L1I WRITEBACK ACCESS:          0  HIT:          0  MISS:          0
L1I PREFETCH  REQUESTED:          0  ISSUED:          0  USEFUL:          0  USELESS:          0
L1I TOTAL MSHR MERGED:   30749916
L1I LOAD MSHR MERGED:   30749916
L1I RFO MSHR MERGED:          0
L1I PREFETCH MSHR MERGED:          0
L1I WRITEBACK MSHR MERGED:          0
L1I TOTAL ACCESSES:  140093872 HITS:   77828250 MISSES:   62265622
L1I LOAD ACCESSES:  140093872 HITS:   77828250 MISSES:   62265622
L1I RFO ACCESSES:          0 HITS:          0 MISSES:          0
L1I PREFETCH ACCESSES:          0 HITS:          0 MISSES:          0
L1I WRITEBACK ACCESSES:          0 HITS:          0 MISSES:          0
L1I RQ ACCESS:  500000003
L1I RQ TO_CACHE:  140093872
L1I RQ MERGED:  359906131
L1I RQ FORWARD:          0
L1I WQ ACCESS:          0
L1I WQ TO_CACHE:          0
L1I WQ MERGED:          0
L1I WQ FORWARD:          0
L2C TOTAL     ACCESS:  113695784  HIT:  110694123  MISS:    3001661
L2C LOAD      ACCESS:   64453187  HIT:   63892860  MISS:     560327
L2C RFO       ACCESS:    2803062  HIT:    2193536  MISS:     609526
L2C PREFETCH  ACCESS:   43278546  HIT:   41452998  MISS:    1825548
L2C WRITEBACK ACCESS:    3160989  HIT:    3154729  MISS:       6260
L2C PREFETCH  REQUESTED:   15134473  ISSUED:   14620517  USEFUL:    1700751  USELESS:     124803
L2C TOTAL MSHR MERGED:      12894
L2C LOAD MSHR MERGED:          0
L2C RFO MSHR MERGED:          0
L2C PREFETCH MSHR MERGED:      12894
L2C WRITEBACK MSHR MERGED:          0
L2C TOTAL ACCESSES:  113906136 HITS:  110700016 MISSES:    3206120
L2C LOAD ACCESSES:   64455068 HITS:   63894740 MISSES:     560328
L2C RFO ACCESSES:    2804967 HITS:    2195441 MISSES:     609526
L2C PREFETCH ACCESSES:   43485112 HITS:   41455106 MISSES:    2030006
L2C WRITEBACK ACCESSES:    3160989 HITS:    3154729 MISSES:       6260
L2C RQ ACCESS:   67260036
L2C RQ TO_CACHE:   67256251
L2C RQ MERGED:          0
L2C RQ FORWARD:          0
L2C WQ ACCESS:    3160989
L2C WQ TO_CACHE:    3160989
L2C WQ MERGED:          0
L2C WQ FORWARD:       5893
LLC TOTAL     ACCESS:    3717907  HIT:    1811756  MISS:    1906151
LLC LOAD      ACCESS:     560298  HIT:     496052  MISS:      64246
LLC RFO       ACCESS:     527419  HIT:     239317  MISS:     288102
LLC PREFETCH  ACCESS:    2011658  HIT:     609957  MISS:    1401701
LLC WRITEBACK ACCESS:     618532  HIT:     466430  MISS:     152102
LLC PREFETCH  REQUESTED:          0  ISSUED:          0  USEFUL:      43687  USELESS:    1353305
LLC TOTAL MSHR MERGED:       4796
LLC LOAD MSHR MERGED:          0
LLC RFO MSHR MERGED:          0
LLC PREFETCH MSHR MERGED:       4796
LLC WRITEBACK MSHR MERGED:          0
LLC TOTAL ACCESSES:    3804926 HITS:    1893979 MISSES:    1910947
LLC LOAD ACCESSES:     560327 HITS:     496081 MISSES:      64246
LLC RFO ACCESSES:     609526 HITS:     321424 MISSES:     288102
LLC PREFETCH ACCESSES:    2016541 HITS:     610044 MISSES:    1406497
LLC WRITEBACK ACCESSES:     618532 HITS:     466430 MISSES:     152102
LLC 0 RQ ACCESS:    1169854
LLC 0 RQ TO_CACHE:    1087718
LLC 0 RQ MERGED:          0
LLC 0 RQ FORWARD:          0
LLC WQ ACCESS:     618532
LLC WQ TO_CACHE:     618532
LLC WQ MERGED:          0
LLC WQ FORWARD:      82223
Major fault: 0 Minor fault: 12800
CPU 0 L1D next line prefetcher final stats
CPU 0 L2C PC-based stride prefetcher final stats
All Misses: 2307998
All Hits: 2260856
SD Algo Stats - Switches: 0 SRR-Repls: 81900 BRR-Repls: 0

DRAM Statistics
 CHANNEL 0
 RQ ROW_BUFFER_HIT:     869167  ROW_BUFFER_MISS:     884880
 DBUS_CONGESTED:     934565
 WQ ROW_BUFFER_HIT:      29212  ROW_BUFFER_MISS:     261111  FULL:          0

 AVG_CONGESTED_CYCLE: 13
LOADS RETIRED: 239375970
INSTR RETIRED: 500000000
