
*** ChampSim Multicore Out-of-Order Simulator ***

Warmup Instructions: 100000000
Simulation Instructions: 500000000
Number of CPUs: 1
LLC sets: 2048
LLC ways: 16
Clean RRIP Policies: 213230202132302 Dirty RRIP Policies: 1203030212030302 PSEL Width: 10 Track Set: 4294967295 PSEL Mask: 1 Demote Mask: 3040100030401000DS Algo: 0Window size: 0
Off-chip DRAM Size: 4096 MB Channels: 1 Width: 64-bit Data Rate: 1600 MT/s

CPU 0 runs /mnt/beegfs/iconst01/spec2017/Xalancbmk.trace.gz
NOT SORTED
TRACE STRING: /mnt/beegfs/iconst01/spec2017/Xalancbmk.trace.gz
SORTED
TRACE STRING: /mnt/beegfs/iconst01/spec2017/Xalancbmk.trace.gz
INITIAL
TRACE STRING: /mnt/beegfs/iconst01/spec2017/Xalancbmk.trace.gz

champsim_seed used: 913

CPU 0 L1D next line prefetcher
CPU 0 L2C IP-based stride prefetcher
Initialize DRRIP state
Assign rand_sets[0]: 454  LLC: 2048
rand_sets[0]: 454
Assign rand_sets[1]: 1662  LLC: 2048
rand_sets[1]: 1662
Assign rand_sets[2]: 1921  LLC: 2048
rand_sets[2]: 1921
Assign rand_sets[3]: 1131  LLC: 2048
rand_sets[3]: 1131
Assign rand_sets[4]: 331  LLC: 2048
rand_sets[4]: 331
Assign rand_sets[5]: 1531  LLC: 2048
rand_sets[5]: 1531
Assign rand_sets[6]: 482  LLC: 2048
rand_sets[6]: 482
Assign rand_sets[7]: 1275  LLC: 2048
rand_sets[7]: 1275
Assign rand_sets[8]: 1876  LLC: 2048
rand_sets[8]: 1876
Assign rand_sets[9]: 2038  LLC: 2048
rand_sets[9]: 2038
Assign rand_sets[10]: 701  LLC: 2048
rand_sets[10]: 701
Assign rand_sets[11]: 479  LLC: 2048
rand_sets[11]: 479
Assign rand_sets[12]: 892  LLC: 2048
rand_sets[12]: 892
Assign rand_sets[13]: 1820  LLC: 2048
rand_sets[13]: 1820
Assign rand_sets[14]: 1505  LLC: 2048
rand_sets[14]: 1505
Assign rand_sets[15]: 1159  LLC: 2048
rand_sets[15]: 1159
Assign rand_sets[16]: 513  LLC: 2048
rand_sets[16]: 513
Assign rand_sets[17]: 703  LLC: 2048
rand_sets[17]: 703
Assign rand_sets[18]: 561  LLC: 2048
rand_sets[18]: 561
Assign rand_sets[19]: 990  LLC: 2048
rand_sets[19]: 990
Assign rand_sets[20]: 342  LLC: 2048
rand_sets[20]: 342
Assign rand_sets[21]: 882  LLC: 2048
rand_sets[21]: 882
Assign rand_sets[22]: 15  LLC: 2048
rand_sets[22]: 15
Assign rand_sets[23]: 71  LLC: 2048
rand_sets[23]: 71
Assign rand_sets[24]: 1127  LLC: 2048
rand_sets[24]: 1127
Assign rand_sets[25]: 1382  LLC: 2048
rand_sets[25]: 1382
Assign rand_sets[26]: 647  LLC: 2048
rand_sets[26]: 647
Assign rand_sets[27]: 857  LLC: 2048
rand_sets[27]: 857
Assign rand_sets[28]: 1450  LLC: 2048
rand_sets[28]: 1450
Assign rand_sets[29]: 1160  LLC: 2048
rand_sets[29]: 1160
Assign rand_sets[30]: 1852  LLC: 2048
rand_sets[30]: 1852
Assign rand_sets[31]: 1881  LLC: 2048
rand_sets[31]: 1881
Assign rand_sets[32]: 1770  LLC: 2048
rand_sets[32]: 1770
Assign rand_sets[33]: 1622  LLC: 2048
rand_sets[33]: 1622
Assign rand_sets[34]: 275  LLC: 2048
rand_sets[34]: 275
Assign rand_sets[35]: 635  LLC: 2048
rand_sets[35]: 635
Assign rand_sets[36]: 466  LLC: 2048
rand_sets[36]: 466
Assign rand_sets[37]: 1413  LLC: 2048
rand_sets[37]: 1413
Assign rand_sets[38]: 417  LLC: 2048
rand_sets[38]: 417
Assign rand_sets[39]: 472  LLC: 2048
rand_sets[39]: 472
Assign rand_sets[40]: 1340  LLC: 2048
rand_sets[40]: 1340
Assign rand_sets[41]: 852  LLC: 2048
rand_sets[41]: 852
Assign rand_sets[42]: 1365  LLC: 2048
rand_sets[42]: 1365
Assign rand_sets[43]: 47  LLC: 2048
rand_sets[43]: 47
Assign rand_sets[44]: 823  LLC: 2048
rand_sets[44]: 823
Assign rand_sets[45]: 686  LLC: 2048
rand_sets[45]: 686
Assign rand_sets[46]: 1637  LLC: 2048
rand_sets[46]: 1637
Assign rand_sets[47]: 1115  LLC: 2048
rand_sets[47]: 1115
Assign rand_sets[48]: 986  LLC: 2048
rand_sets[48]: 986
Assign rand_sets[49]: 258  LLC: 2048
rand_sets[49]: 258
Assign rand_sets[50]: 633  LLC: 2048
rand_sets[50]: 633
Assign rand_sets[51]: 920  LLC: 2048
rand_sets[51]: 920
Assign rand_sets[52]: 204  LLC: 2048
rand_sets[52]: 204
Assign rand_sets[53]: 227  LLC: 2048
rand_sets[53]: 227
Assign rand_sets[54]: 1818  LLC: 2048
rand_sets[54]: 1818
Assign rand_sets[55]: 886  LLC: 2048
rand_sets[55]: 886
Assign rand_sets[56]: 1422  LLC: 2048
rand_sets[56]: 1422
Assign rand_sets[57]: 607  LLC: 2048
rand_sets[57]: 607
Assign rand_sets[58]: 217  LLC: 2048
rand_sets[58]: 217
Assign rand_sets[59]: 1945  LLC: 2048
rand_sets[59]: 1945
Assign rand_sets[60]: 143  LLC: 2048
rand_sets[60]: 143
Assign rand_sets[61]: 1311  LLC: 2048
rand_sets[61]: 1311
Assign rand_sets[62]: 319  LLC: 2048
rand_sets[62]: 319
Assign rand_sets[63]: 1846  LLC: 2048
rand_sets[63]: 1846
 CLEAN-RRIP-POLICY-1: 0-2-1-3-2-3-0-2- CLEAN-RRIP-POLICY-2: 0-2-1-3-2-3-0-2-
 DIRTY-RRIP-POLICY-1: 1-2-0-3-0-3-0-2- DIRTY-RRIP-POLICY-2: 1-2-0-3-0-3-0-2-
 PSEL width: 10
Heartbeat CPU 0 instructions: 10000003 cycles: 4592519 heartbeat IPC: 2.17745 cumulative IPC: 2.17745 (Simulation time: 0 hr 0 min 14 sec) 
Heartbeat CPU 0 instructions: 20000000 cycles: 8984829 heartbeat IPC: 2.27671 cumulative IPC: 2.22597 (Simulation time: 0 hr 0 min 28 sec) 
Heartbeat CPU 0 instructions: 30000000 cycles: 13393763 heartbeat IPC: 2.26812 cumulative IPC: 2.23985 (Simulation time: 0 hr 0 min 42 sec) 
Heartbeat CPU 0 instructions: 40000000 cycles: 18022064 heartbeat IPC: 2.16062 cumulative IPC: 2.2195 (Simulation time: 0 hr 0 min 57 sec) 
Heartbeat CPU 0 instructions: 50000002 cycles: 22438110 heartbeat IPC: 2.26447 cumulative IPC: 2.22835 (Simulation time: 0 hr 1 min 11 sec) 
Heartbeat CPU 0 instructions: 60000000 cycles: 27093425 heartbeat IPC: 2.14808 cumulative IPC: 2.21456 (Simulation time: 0 hr 1 min 26 sec) 
Heartbeat CPU 0 instructions: 70000003 cycles: 31498077 heartbeat IPC: 2.27033 cumulative IPC: 2.22236 (Simulation time: 0 hr 1 min 40 sec) 
Heartbeat CPU 0 instructions: 80000000 cycles: 35918570 heartbeat IPC: 2.26219 cumulative IPC: 2.22726 (Simulation time: 0 hr 1 min 54 sec) 
Heartbeat CPU 0 instructions: 90000002 cycles: 40373890 heartbeat IPC: 2.24451 cumulative IPC: 2.22916 (Simulation time: 0 hr 2 min 8 sec) 
Heartbeat CPU 0 instructions: 100000000 cycles: 44845565 heartbeat IPC: 2.2363 cumulative IPC: 2.22987 (Simulation time: 0 hr 2 min 22 sec) 

Warmup complete CPU 0 instructions: 100000003 cycles: 44845566 (Simulation time: 0 hr 2 min 22 sec) 

Heartbeat CPU 0 instructions: 110000000 cycles: 71839079 heartbeat IPC: 0.370459 cumulative IPC: 0.370459 (Simulation time: 0 hr 2 min 52 sec) 
Heartbeat CPU 0 instructions: 120000000 cycles: 100405800 heartbeat IPC: 0.350058 cumulative IPC: 0.35997 (Simulation time: 0 hr 3 min 23 sec) 
Heartbeat CPU 0 instructions: 130000000 cycles: 123807181 heartbeat IPC: 0.427325 cumulative IPC: 0.379931 (Simulation time: 0 hr 3 min 51 sec) 
Heartbeat CPU 0 instructions: 140000000 cycles: 146428094 heartbeat IPC: 0.442069 cumulative IPC: 0.393768 (Simulation time: 0 hr 4 min 18 sec) 
Heartbeat CPU 0 instructions: 150000000 cycles: 170806250 heartbeat IPC: 0.410203 cumulative IPC: 0.396949 (Simulation time: 0 hr 4 min 47 sec) 
Heartbeat CPU 0 instructions: 160000000 cycles: 195746778 heartbeat IPC: 0.400954 cumulative IPC: 0.397611 (Simulation time: 0 hr 5 min 15 sec) 
Heartbeat CPU 0 instructions: 170000002 cycles: 217102151 heartbeat IPC: 0.468266 cumulative IPC: 0.406371 (Simulation time: 0 hr 5 min 41 sec) 
Heartbeat CPU 0 instructions: 180000000 cycles: 239536763 heartbeat IPC: 0.44574 cumulative IPC: 0.410907 (Simulation time: 0 hr 6 min 8 sec) 
Heartbeat CPU 0 instructions: 190000000 cycles: 258478369 heartbeat IPC: 0.527938 cumulative IPC: 0.421284 (Simulation time: 0 hr 6 min 33 sec) 
Heartbeat CPU 0 instructions: 200000000 cycles: 279411301 heartbeat IPC: 0.477716 cumulative IPC: 0.42632 (Simulation time: 0 hr 6 min 59 sec) 
Heartbeat CPU 0 instructions: 210000001 cycles: 305829963 heartbeat IPC: 0.37852 cumulative IPC: 0.421481 (Simulation time: 0 hr 7 min 28 sec) 
Heartbeat CPU 0 instructions: 220000000 cycles: 331618845 heartbeat IPC: 0.387764 cumulative IPC: 0.418449 (Simulation time: 0 hr 7 min 57 sec) 
Heartbeat CPU 0 instructions: 230000000 cycles: 353914954 heartbeat IPC: 0.448509 cumulative IPC: 0.420618 (Simulation time: 0 hr 8 min 24 sec) 
Heartbeat CPU 0 instructions: 240000000 cycles: 379725104 heartbeat IPC: 0.387444 cumulative IPC: 0.418061 (Simulation time: 0 hr 8 min 53 sec) 
Heartbeat CPU 0 instructions: 250000001 cycles: 404686826 heartbeat IPC: 0.400613 cumulative IPC: 0.41685 (Simulation time: 0 hr 9 min 22 sec) 
Heartbeat CPU 0 instructions: 260000000 cycles: 425574389 heartbeat IPC: 0.478754 cumulative IPC: 0.420247 (Simulation time: 0 hr 9 min 48 sec) 
Heartbeat CPU 0 instructions: 270000000 cycles: 447079503 heartbeat IPC: 0.465006 cumulative IPC: 0.42264 (Simulation time: 0 hr 10 min 14 sec) 
Heartbeat CPU 0 instructions: 280000000 cycles: 474988982 heartbeat IPC: 0.358301 cumulative IPC: 0.418465 (Simulation time: 0 hr 10 min 44 sec) 
Heartbeat CPU 0 instructions: 290000000 cycles: 496059035 heartbeat IPC: 0.474607 cumulative IPC: 0.421087 (Simulation time: 0 hr 11 min 10 sec) 
Heartbeat CPU 0 instructions: 300000000 cycles: 516480171 heartbeat IPC: 0.489689 cumulative IPC: 0.424057 (Simulation time: 0 hr 11 min 35 sec) 
Heartbeat CPU 0 instructions: 310000000 cycles: 535615182 heartbeat IPC: 0.522602 cumulative IPC: 0.427899 (Simulation time: 0 hr 12 min 0 sec) 
Heartbeat CPU 0 instructions: 320000000 cycles: 565115738 heartbeat IPC: 0.338977 cumulative IPC: 0.422857 (Simulation time: 0 hr 12 min 31 sec) 
Heartbeat CPU 0 instructions: 330000001 cycles: 584520585 heartbeat IPC: 0.515335 cumulative IPC: 0.426182 (Simulation time: 0 hr 12 min 56 sec) 
Heartbeat CPU 0 instructions: 340000000 cycles: 603765983 heartbeat IPC: 0.519605 cumulative IPC: 0.429399 (Simulation time: 0 hr 13 min 21 sec) 
Heartbeat CPU 0 instructions: 350000001 cycles: 628983513 heartbeat IPC: 0.39655 cumulative IPC: 0.427981 (Simulation time: 0 hr 13 min 49 sec) 
Heartbeat CPU 0 instructions: 360000000 cycles: 651280301 heartbeat IPC: 0.448495 cumulative IPC: 0.428735 (Simulation time: 0 hr 14 min 16 sec) 
Heartbeat CPU 0 instructions: 370000001 cycles: 676380312 heartbeat IPC: 0.398406 cumulative IPC: 0.42753 (Simulation time: 0 hr 14 min 44 sec) 
Heartbeat CPU 0 instructions: 380000000 cycles: 699545171 heartbeat IPC: 0.431688 cumulative IPC: 0.427677 (Simulation time: 0 hr 15 min 11 sec) 
Heartbeat CPU 0 instructions: 390000000 cycles: 718310415 heartbeat IPC: 0.5329 cumulative IPC: 0.430609 (Simulation time: 0 hr 15 min 36 sec) 
Heartbeat CPU 0 instructions: 400000000 cycles: 738106192 heartbeat IPC: 0.505158 cumulative IPC: 0.432738 (Simulation time: 0 hr 16 min 0 sec) 
Heartbeat CPU 0 instructions: 410000001 cycles: 764404423 heartbeat IPC: 0.380254 cumulative IPC: 0.43082 (Simulation time: 0 hr 16 min 29 sec) 
Heartbeat CPU 0 instructions: 420000000 cycles: 789034446 heartbeat IPC: 0.406009 cumulative IPC: 0.429998 (Simulation time: 0 hr 16 min 57 sec) 
Heartbeat CPU 0 instructions: 430000002 cycles: 810185546 heartbeat IPC: 0.472789 cumulative IPC: 0.431181 (Simulation time: 0 hr 17 min 23 sec) 
Heartbeat CPU 0 instructions: 440000000 cycles: 830326431 heartbeat IPC: 0.496502 cumulative IPC: 0.432856 (Simulation time: 0 hr 17 min 48 sec) 
Heartbeat CPU 0 instructions: 450000002 cycles: 857168215 heartbeat IPC: 0.372554 cumulative IPC: 0.430863 (Simulation time: 0 hr 18 min 17 sec) 
Heartbeat CPU 0 instructions: 460000000 cycles: 883234417 heartbeat IPC: 0.383638 cumulative IPC: 0.429395 (Simulation time: 0 hr 18 min 46 sec) 
Heartbeat CPU 0 instructions: 470000002 cycles: 909192229 heartbeat IPC: 0.385241 cumulative IPC: 0.428069 (Simulation time: 0 hr 19 min 15 sec) 
Heartbeat CPU 0 instructions: 480000000 cycles: 933457922 heartbeat IPC: 0.412104 cumulative IPC: 0.427633 (Simulation time: 0 hr 19 min 42 sec) 
Heartbeat CPU 0 instructions: 490000000 cycles: 954292719 heartbeat IPC: 0.479966 cumulative IPC: 0.428832 (Simulation time: 0 hr 20 min 8 sec) 
Heartbeat CPU 0 instructions: 500000000 cycles: 979151100 heartbeat IPC: 0.402279 cumulative IPC: 0.428125 (Simulation time: 0 hr 20 min 36 sec) 
Heartbeat CPU 0 instructions: 510000000 cycles: 1004177660 heartbeat IPC: 0.399576 cumulative IPC: 0.427381 (Simulation time: 0 hr 21 min 4 sec) 
Heartbeat CPU 0 instructions: 520000000 cycles: 1025170966 heartbeat IPC: 0.476342 cumulative IPC: 0.428429 (Simulation time: 0 hr 21 min 30 sec) 
Heartbeat CPU 0 instructions: 530000003 cycles: 1050875890 heartbeat IPC: 0.389031 cumulative IPC: 0.427422 (Simulation time: 0 hr 21 min 58 sec) 
Heartbeat CPU 0 instructions: 540000000 cycles: 1073821423 heartbeat IPC: 0.435815 cumulative IPC: 0.42761 (Simulation time: 0 hr 22 min 25 sec) 
Heartbeat CPU 0 instructions: 550000000 cycles: 1099382578 heartbeat IPC: 0.391219 cumulative IPC: 0.426728 (Simulation time: 0 hr 22 min 53 sec) 
Heartbeat CPU 0 instructions: 560000000 cycles: 1122454694 heartbeat IPC: 0.433424 cumulative IPC: 0.426871 (Simulation time: 0 hr 23 min 20 sec) 
Heartbeat CPU 0 instructions: 570000002 cycles: 1145898857 heartbeat IPC: 0.426546 cumulative IPC: 0.426864 (Simulation time: 0 hr 23 min 47 sec) 
Heartbeat CPU 0 instructions: 580000000 cycles: 1166798676 heartbeat IPC: 0.478473 cumulative IPC: 0.427825 (Simulation time: 0 hr 24 min 13 sec) 
Heartbeat CPU 0 instructions: 590000001 cycles: 1190749403 heartbeat IPC: 0.417524 cumulative IPC: 0.42761 (Simulation time: 0 hr 24 min 40 sec) 
Heartbeat CPU 0 instructions: 600000000 cycles: 1209869907 heartbeat IPC: 0.522999 cumulative IPC: 0.429176 (Simulation time: 0 hr 25 min 4 sec) 
Finished CPU 0 instructions: 500000000 cycles: 1165024362 cumulative IPC: 0.429176 (Simulation time: 0 hr 25 min 4 sec) 

CPU 0 Branch Prediction Accuracy: 99.5434% MPKI: 1.33026
Number of Branches: 145676990 Number of Mispredictions: 665128
Number of LOAD Instructions: 188863207
Number of LOAD Instructions (ROI): 188863207
Number of STORE Instructions: 7332002
Number of STORE Instructions (ROI): 7332002
Total Destination Memory Operands: 10029285
Total Destination Memory Operands (ROI): 10029285
Total Source Memory Operands: 188863207
Total Source Memory Operands (ROI): 188863207
Number of DEPENDED LOADS: 289789
Number of DEPENDED LOADS (ROI): 289789
Number of SQ_ADDED: 10029285
Number of SQ_ADDED (ROI): 10029285
Number of LQ_ADDED: 200474312
Number of LQ_ADDED (ROI): 200474312
Number of Instructions read from trace: 600000010

ChampSim completed all CPUs

Region of Interest Statistics

CPU 0 cumulative IPC: 0.429176 instructions: 500000000 cycles: 1165024362
ITLB TOTAL     ACCESS:  145829046  HIT:  145789519  MISS:      39527
ITLB LOAD      ACCESS:  145829046  HIT:  145789519  MISS:      39527
ITLB RFO       ACCESS:          0  HIT:          0  MISS:          0
ITLB PREFETCH  ACCESS:          0  HIT:          0  MISS:          0
ITLB WRITEBACK ACCESS:          0  HIT:          0  MISS:          0
ITLB PREFETCH  REQUESTED:          0  ISSUED:          0  USEFUL:          0  USELESS:          0
ITLB TOTAL MSHR MERGED:      57356
ITLB LOAD MSHR MERGED:      57356
ITLB RFO MSHR MERGED:          0
ITLB PREFETCH MSHR MERGED:          0
ITLB WRITEBACK MSHR MERGED:          0
ITLB TOTAL ACCESSES:  145886402 HITS:  145789519 MISSES:      96883
ITLB LOAD ACCESSES:  145886402 HITS:  145789519 MISSES:      96883
ITLB RFO ACCESSES:          0 HITS:          0 MISSES:          0
ITLB PREFETCH ACCESSES:          0 HITS:          0 MISSES:          0
ITLB WRITEBACK ACCESSES:          0 HITS:          0 MISSES:          0
ITLB RQ ACCESS:  499999754
ITLB RQ TO_CACHE:  145886402
ITLB RQ MERGED:  354113352
ITLB RQ FORWARD:          0
ITLB WQ ACCESS:          0
ITLB WQ TO_CACHE:          0
ITLB WQ MERGED:          0
ITLB WQ FORWARD:          0
DTLB TOTAL     ACCESS:  135201869  HIT:  134033510  MISS:    1168359
DTLB LOAD      ACCESS:  127161016  HIT:  126001763  MISS:    1159253
DTLB RFO       ACCESS:    8040853  HIT:    8031747  MISS:       9106
DTLB PREFETCH  ACCESS:          0  HIT:          0  MISS:          0
DTLB WRITEBACK ACCESS:          0  HIT:          0  MISS:          0
DTLB PREFETCH  REQUESTED:          0  ISSUED:          0  USEFUL:          0  USELESS:          0
DTLB TOTAL MSHR MERGED:     579054
DTLB LOAD MSHR MERGED:     574681
DTLB RFO MSHR MERGED:       4373
DTLB PREFETCH MSHR MERGED:          0
DTLB WRITEBACK MSHR MERGED:          0
DTLB TOTAL ACCESSES:  135780923 HITS:  134033510 MISSES:    1747413
DTLB LOAD ACCESSES:  127735697 HITS:  126001763 MISSES:    1733934
DTLB RFO ACCESSES:    8045226 HITS:    8031747 MISSES:      13479
DTLB PREFETCH ACCESSES:          0 HITS:          0 MISSES:          0
DTLB WRITEBACK ACCESSES:          0 HITS:          0 MISSES:          0
DTLB RQ ACCESS:  165764548
DTLB RQ TO_CACHE:  135780923
DTLB RQ MERGED:   29983625
DTLB RQ FORWARD:          0
DTLB WQ ACCESS:          0
DTLB WQ TO_CACHE:          0
DTLB WQ MERGED:          0
DTLB WQ FORWARD:          0
L1D TOTAL     ACCESS:  157093207  HIT:  139777525  MISS:   17315682
L1D LOAD      ACCESS:   90003727  HIT:   78868213  MISS:   11135514
L1D RFO       ACCESS:    8501741  HIT:    8414661  MISS:      87080
L1D PREFETCH  ACCESS:   58587739  HIT:   52494651  MISS:    6093088
L1D WRITEBACK ACCESS:          0  HIT:          0  MISS:          0
L1D PREFETCH  REQUESTED:   93723452  ISSUED:   92855751  USEFUL:    2011694  USELESS:    4081467
L1D TOTAL MSHR MERGED:   14976869
L1D LOAD MSHR MERGED:    7112086
L1D RFO MSHR MERGED:     122581
L1D PREFETCH MSHR MERGED:    7742202
L1D WRITEBACK MSHR MERGED:          0
L1D TOTAL ACCESSES:  172070228 HITS:  139777677 MISSES:   32292551
L1D LOAD ACCESSES:   93723455 HITS:   78868216 MISSES:   14855239
L1D RFO ACCESSES:    8622570 HITS:    8414661 MISSES:     207909
L1D PREFETCH ACCESSES:   69724203 HITS:   52494800 MISSES:   17229403
L1D WRITEBACK ACCESSES:          0 HITS:          0 MISSES:          0
L1D RQ ACCESS:  157125342
L1D RQ TO_CACHE:   93723452
L1D RQ MERGED:   63401887
L1D RQ FORWARD:          0
L1D WQ ACCESS:    8639208
L1D WQ TO_CACHE:    8622570
L1D WQ MERGED:      16638
L1D WQ FORWARD:        152
L1I TOTAL     ACCESS:  178810182  HIT:  178146510  MISS:     663672
L1I LOAD      ACCESS:  178810182  HIT:  178146510  MISS:     663672
L1I RFO       ACCESS:          0  HIT:          0  MISS:          0
L1I PREFETCH  ACCESS:          0  HIT:          0  MISS:          0
L1I WRITEBACK ACCESS:          0  HIT:          0  MISS:          0
L1I PREFETCH  REQUESTED:          0  ISSUED:          0  USEFUL:          0  USELESS:          0
L1I TOTAL MSHR MERGED:     596923
L1I LOAD MSHR MERGED:     596923
L1I RFO MSHR MERGED:          0
L1I PREFETCH MSHR MERGED:          0
L1I WRITEBACK MSHR MERGED:          0
L1I TOTAL ACCESSES:  179407105 HITS:  178146510 MISSES:    1260595
L1I LOAD ACCESSES:  179407105 HITS:  178146510 MISSES:    1260595
L1I RFO ACCESSES:          0 HITS:          0 MISSES:          0
L1I PREFETCH ACCESSES:          0 HITS:          0 MISSES:          0
L1I WRITEBACK ACCESSES:          0 HITS:          0 MISSES:          0
L1I RQ ACCESS:  499999757
L1I RQ TO_CACHE:  179407105
L1I RQ MERGED:  320592652
L1I RQ FORWARD:          0
L1I WQ ACCESS:          0
L1I WQ TO_CACHE:          0
L1I WQ MERGED:          0
L1I WQ FORWARD:          0
L2C TOTAL     ACCESS:   19277802  HIT:    2058001  MISS:   17219801
L2C LOAD      ACCESS:    8406720  HIT:     951452  MISS:    7455268
L2C RFO       ACCESS:      85305  HIT:      53743  MISS:      31562
L2C PREFETCH  ACCESS:   10500749  HIT:     770589  MISS:    9730160
L2C WRITEBACK ACCESS:     285028  HIT:     282217  MISS:       2811
L2C PREFETCH  REQUESTED:    1017918  ISSUED:    1017918  USEFUL:     275038  USELESS:    9454218
L2C TOTAL MSHR MERGED:        969
L2C LOAD MSHR MERGED:        206
L2C RFO MSHR MERGED:          1
L2C PREFETCH MSHR MERGED:        762
L2C WRITEBACK MSHR MERGED:          0
L2C TOTAL ACCESSES:   19281045 HITS:    2058193 MISSES:   17222852
L2C LOAD ACCESSES:    8406825 HITS:     951557 MISSES:    7455268
L2C RFO ACCESSES:      85328 HITS:      53766 MISSES:      31562
L2C PREFETCH ACCESSES:   10503864 HITS:     770653 MISSES:    9733211
L2C WRITEBACK ACCESSES:     285028 HITS:     282217 MISSES:       2811
L2C RQ ACCESS:    8492153
L2C RQ TO_CACHE:    8492025
L2C RQ MERGED:          0
L2C RQ FORWARD:          0
L2C WQ ACCESS:     285028
L2C WQ TO_CACHE:     285028
L2C WQ MERGED:          0
L2C WQ FORWARD:        192
LLC TOTAL     ACCESS:   17325125  HIT:    4962356  MISS:   12362769
LLC LOAD      ACCESS:    7455062  HIT:    3916580  MISS:    3538482
LLC RFO       ACCESS:      31561  HIT:      21540  MISS:      10021
LLC PREFETCH  ACCESS:    9732446  HIT:     932618  MISS:    8799828
LLC WRITEBACK ACCESS:     106056  HIT:      91618  MISS:      14438
LLC PREFETCH  REQUESTED:          0  ISSUED:          0  USEFUL:       2223  USELESS:    8796858
LLC TOTAL MSHR MERGED:          3
LLC LOAD MSHR MERGED:          0
LLC RFO MSHR MERGED:          0
LLC PREFETCH MSHR MERGED:          3
LLC WRITEBACK MSHR MERGED:          0
LLC TOTAL ACCESSES:   17325128 HITS:    4962356 MISSES:   12362772
LLC LOAD ACCESSES:    7455062 HITS:    3916580 MISSES:    3538482
LLC RFO ACCESSES:      31561 HITS:      21540 MISSES:      10021
LLC PREFETCH ACCESSES:    9732449 HITS:     932618 MISSES:    8799831
LLC WRITEBACK ACCESSES:     106056 HITS:      91618 MISSES:      14438
LLC 0 RQ ACCESS:    7486623
LLC 0 RQ TO_CACHE:    7486623
LLC 0 RQ MERGED:          0
LLC 0 RQ FORWARD:          0
LLC WQ ACCESS:     106056
LLC WQ TO_CACHE:     106056
LLC WQ MERGED:          0
LLC WQ FORWARD:          0
Major fault: 0 Minor fault: 6432
CPU 0 L1D next line prefetcher final stats
CPU 0 L2C PC-based stride prefetcher final stats
All Misses: 14592957
All Hits: 5951810
SD Algo Stats - Switches: 0 SRR-Repls: 3783511 BRR-Repls: 0

DRAM Statistics
 CHANNEL 0
 RQ ROW_BUFFER_HIT:    9345146  ROW_BUFFER_MISS:    2999939
 DBUS_CONGESTED:    5778094
 WQ ROW_BUFFER_HIT:       1112  ROW_BUFFER_MISS:      23144  FULL:          0

 AVG_CONGESTED_CYCLE: 12
LOADS RETIRED: 157382665
INSTR RETIRED: 500000000
