
*** ChampSim Multicore Out-of-Order Simulator ***

Warmup Instructions: 100000000
Simulation Instructions: 500000000
Number of CPUs: 1
LLC sets: 2048
LLC ways: 16
Clean RRIP Policies: 213230202132302 Dirty RRIP Policies: 1203030212030302 PSEL Width: 10 Track Set: 4294967295 PSEL Mask: 1 Demote Mask: 3040100030401000DS Algo: 0Window size: 0
Off-chip DRAM Size: 4096 MB Channels: 1 Width: 64-bit Data Rate: 1600 MT/s

CPU 0 runs /mnt/beegfs/iconst01/spec2017/Xz.trace.gz
NOT SORTED
TRACE STRING: /mnt/beegfs/iconst01/spec2017/Xz.trace.gz
SORTED
TRACE STRING: /mnt/beegfs/iconst01/spec2017/Xz.trace.gz
INITIAL
TRACE STRING: /mnt/beegfs/iconst01/spec2017/Xz.trace.gz

champsim_seed used: 210

CPU 0 L1D next line prefetcher
CPU 0 L2C IP-based stride prefetcher
Initialize DRRIP state
Assign rand_sets[0]: 454  LLC: 2048
rand_sets[0]: 454
Assign rand_sets[1]: 1662  LLC: 2048
rand_sets[1]: 1662
Assign rand_sets[2]: 1921  LLC: 2048
rand_sets[2]: 1921
Assign rand_sets[3]: 1131  LLC: 2048
rand_sets[3]: 1131
Assign rand_sets[4]: 331  LLC: 2048
rand_sets[4]: 331
Assign rand_sets[5]: 1531  LLC: 2048
rand_sets[5]: 1531
Assign rand_sets[6]: 482  LLC: 2048
rand_sets[6]: 482
Assign rand_sets[7]: 1275  LLC: 2048
rand_sets[7]: 1275
Assign rand_sets[8]: 1876  LLC: 2048
rand_sets[8]: 1876
Assign rand_sets[9]: 2038  LLC: 2048
rand_sets[9]: 2038
Assign rand_sets[10]: 701  LLC: 2048
rand_sets[10]: 701
Assign rand_sets[11]: 479  LLC: 2048
rand_sets[11]: 479
Assign rand_sets[12]: 892  LLC: 2048
rand_sets[12]: 892
Assign rand_sets[13]: 1820  LLC: 2048
rand_sets[13]: 1820
Assign rand_sets[14]: 1505  LLC: 2048
rand_sets[14]: 1505
Assign rand_sets[15]: 1159  LLC: 2048
rand_sets[15]: 1159
Assign rand_sets[16]: 513  LLC: 2048
rand_sets[16]: 513
Assign rand_sets[17]: 703  LLC: 2048
rand_sets[17]: 703
Assign rand_sets[18]: 561  LLC: 2048
rand_sets[18]: 561
Assign rand_sets[19]: 990  LLC: 2048
rand_sets[19]: 990
Assign rand_sets[20]: 342  LLC: 2048
rand_sets[20]: 342
Assign rand_sets[21]: 882  LLC: 2048
rand_sets[21]: 882
Assign rand_sets[22]: 15  LLC: 2048
rand_sets[22]: 15
Assign rand_sets[23]: 71  LLC: 2048
rand_sets[23]: 71
Assign rand_sets[24]: 1127  LLC: 2048
rand_sets[24]: 1127
Assign rand_sets[25]: 1382  LLC: 2048
rand_sets[25]: 1382
Assign rand_sets[26]: 647  LLC: 2048
rand_sets[26]: 647
Assign rand_sets[27]: 857  LLC: 2048
rand_sets[27]: 857
Assign rand_sets[28]: 1450  LLC: 2048
rand_sets[28]: 1450
Assign rand_sets[29]: 1160  LLC: 2048
rand_sets[29]: 1160
Assign rand_sets[30]: 1852  LLC: 2048
rand_sets[30]: 1852
Assign rand_sets[31]: 1881  LLC: 2048
rand_sets[31]: 1881
Assign rand_sets[32]: 1770  LLC: 2048
rand_sets[32]: 1770
Assign rand_sets[33]: 1622  LLC: 2048
rand_sets[33]: 1622
Assign rand_sets[34]: 275  LLC: 2048
rand_sets[34]: 275
Assign rand_sets[35]: 635  LLC: 2048
rand_sets[35]: 635
Assign rand_sets[36]: 466  LLC: 2048
rand_sets[36]: 466
Assign rand_sets[37]: 1413  LLC: 2048
rand_sets[37]: 1413
Assign rand_sets[38]: 417  LLC: 2048
rand_sets[38]: 417
Assign rand_sets[39]: 472  LLC: 2048
rand_sets[39]: 472
Assign rand_sets[40]: 1340  LLC: 2048
rand_sets[40]: 1340
Assign rand_sets[41]: 852  LLC: 2048
rand_sets[41]: 852
Assign rand_sets[42]: 1365  LLC: 2048
rand_sets[42]: 1365
Assign rand_sets[43]: 47  LLC: 2048
rand_sets[43]: 47
Assign rand_sets[44]: 823  LLC: 2048
rand_sets[44]: 823
Assign rand_sets[45]: 686  LLC: 2048
rand_sets[45]: 686
Assign rand_sets[46]: 1637  LLC: 2048
rand_sets[46]: 1637
Assign rand_sets[47]: 1115  LLC: 2048
rand_sets[47]: 1115
Assign rand_sets[48]: 986  LLC: 2048
rand_sets[48]: 986
Assign rand_sets[49]: 258  LLC: 2048
rand_sets[49]: 258
Assign rand_sets[50]: 633  LLC: 2048
rand_sets[50]: 633
Assign rand_sets[51]: 920  LLC: 2048
rand_sets[51]: 920
Assign rand_sets[52]: 204  LLC: 2048
rand_sets[52]: 204
Assign rand_sets[53]: 227  LLC: 2048
rand_sets[53]: 227
Assign rand_sets[54]: 1818  LLC: 2048
rand_sets[54]: 1818
Assign rand_sets[55]: 886  LLC: 2048
rand_sets[55]: 886
Assign rand_sets[56]: 1422  LLC: 2048
rand_sets[56]: 1422
Assign rand_sets[57]: 607  LLC: 2048
rand_sets[57]: 607
Assign rand_sets[58]: 217  LLC: 2048
rand_sets[58]: 217
Assign rand_sets[59]: 1945  LLC: 2048
rand_sets[59]: 1945
Assign rand_sets[60]: 143  LLC: 2048
rand_sets[60]: 143
Assign rand_sets[61]: 1311  LLC: 2048
rand_sets[61]: 1311
Assign rand_sets[62]: 319  LLC: 2048
rand_sets[62]: 319
Assign rand_sets[63]: 1846  LLC: 2048
rand_sets[63]: 1846
 CLEAN-RRIP-POLICY-1: 0-2-1-3-2-3-0-2- CLEAN-RRIP-POLICY-2: 0-2-1-3-2-3-0-2-
 DIRTY-RRIP-POLICY-1: 1-2-0-3-0-3-0-2- DIRTY-RRIP-POLICY-2: 1-2-0-3-0-3-0-2-
 PSEL width: 10
Heartbeat CPU 0 instructions: 10000000 cycles: 4305270 heartbeat IPC: 2.32273 cumulative IPC: 2.32273 (Simulation time: 0 hr 0 min 12 sec) 
Heartbeat CPU 0 instructions: 20000000 cycles: 8617101 heartbeat IPC: 2.3192 cumulative IPC: 2.32097 (Simulation time: 0 hr 0 min 24 sec) 
Heartbeat CPU 0 instructions: 30000003 cycles: 13160984 heartbeat IPC: 2.20076 cumulative IPC: 2.27946 (Simulation time: 0 hr 0 min 36 sec) 
Heartbeat CPU 0 instructions: 40000000 cycles: 17515477 heartbeat IPC: 2.29648 cumulative IPC: 2.28369 (Simulation time: 0 hr 0 min 48 sec) 
Heartbeat CPU 0 instructions: 50000001 cycles: 21878299 heartbeat IPC: 2.29209 cumulative IPC: 2.28537 (Simulation time: 0 hr 0 min 59 sec) 
Heartbeat CPU 0 instructions: 60000000 cycles: 26178516 heartbeat IPC: 2.32546 cumulative IPC: 2.29196 (Simulation time: 0 hr 1 min 11 sec) 
Heartbeat CPU 0 instructions: 70000001 cycles: 30244414 heartbeat IPC: 2.45948 cumulative IPC: 2.31448 (Simulation time: 0 hr 1 min 21 sec) 
Heartbeat CPU 0 instructions: 80000000 cycles: 34523205 heartbeat IPC: 2.33711 cumulative IPC: 2.31728 (Simulation time: 0 hr 1 min 33 sec) 
Heartbeat CPU 0 instructions: 90000001 cycles: 38739846 heartbeat IPC: 2.37156 cumulative IPC: 2.32319 (Simulation time: 0 hr 1 min 44 sec) 
Heartbeat CPU 0 instructions: 100000000 cycles: 42980247 heartbeat IPC: 2.35827 cumulative IPC: 2.32665 (Simulation time: 0 hr 1 min 55 sec) 

Warmup complete CPU 0 instructions: 100000001 cycles: 42980248 (Simulation time: 0 hr 1 min 55 sec) 

Heartbeat CPU 0 instructions: 110000000 cycles: 53108573 heartbeat IPC: 0.98733 cumulative IPC: 0.98733 (Simulation time: 0 hr 2 min 12 sec) 
Heartbeat CPU 0 instructions: 120000000 cycles: 63730990 heartbeat IPC: 0.941405 cumulative IPC: 0.963821 (Simulation time: 0 hr 2 min 29 sec) 
Heartbeat CPU 0 instructions: 130000001 cycles: 74320330 heartbeat IPC: 0.944346 cumulative IPC: 0.957241 (Simulation time: 0 hr 2 min 46 sec) 
Heartbeat CPU 0 instructions: 140000000 cycles: 84003088 heartbeat IPC: 1.03276 cumulative IPC: 0.975067 (Simulation time: 0 hr 3 min 2 sec) 
Heartbeat CPU 0 instructions: 150000001 cycles: 94308921 heartbeat IPC: 0.970324 cumulative IPC: 0.974114 (Simulation time: 0 hr 3 min 19 sec) 
Heartbeat CPU 0 instructions: 160000000 cycles: 104348955 heartbeat IPC: 0.996012 cumulative IPC: 0.977697 (Simulation time: 0 hr 3 min 36 sec) 
Heartbeat CPU 0 instructions: 170000000 cycles: 114009469 heartbeat IPC: 1.03514 cumulative IPC: 0.98551 (Simulation time: 0 hr 3 min 53 sec) 
Heartbeat CPU 0 instructions: 180000000 cycles: 124545399 heartbeat IPC: 0.949133 cumulative IPC: 0.980811 (Simulation time: 0 hr 4 min 10 sec) 
Heartbeat CPU 0 instructions: 190000001 cycles: 134798564 heartbeat IPC: 0.975309 cumulative IPC: 0.980197 (Simulation time: 0 hr 4 min 27 sec) 
Heartbeat CPU 0 instructions: 200000000 cycles: 145352805 heartbeat IPC: 0.947486 cumulative IPC: 0.976824 (Simulation time: 0 hr 4 min 44 sec) 
Heartbeat CPU 0 instructions: 210000002 cycles: 157793230 heartbeat IPC: 0.803831 cumulative IPC: 0.95808 (Simulation time: 0 hr 5 min 2 sec) 
Heartbeat CPU 0 instructions: 220000000 cycles: 170302283 heartbeat IPC: 0.799421 cumulative IPC: 0.942492 (Simulation time: 0 hr 5 min 20 sec) 
Heartbeat CPU 0 instructions: 230000000 cycles: 182443364 heartbeat IPC: 0.82365 cumulative IPC: 0.932146 (Simulation time: 0 hr 5 min 38 sec) 
Heartbeat CPU 0 instructions: 240000000 cycles: 194543273 heartbeat IPC: 0.826452 cumulative IPC: 0.923708 (Simulation time: 0 hr 5 min 56 sec) 
Heartbeat CPU 0 instructions: 250000000 cycles: 206492775 heartbeat IPC: 0.836855 cumulative IPC: 0.917361 (Simulation time: 0 hr 6 min 14 sec) 
Heartbeat CPU 0 instructions: 260000000 cycles: 218033035 heartbeat IPC: 0.866532 cumulative IPC: 0.91401 (Simulation time: 0 hr 6 min 32 sec) 
Heartbeat CPU 0 instructions: 270000003 cycles: 229885449 heartbeat IPC: 0.84371 cumulative IPC: 0.909552 (Simulation time: 0 hr 6 min 50 sec) 
Heartbeat CPU 0 instructions: 280000000 cycles: 241408786 heartbeat IPC: 0.867804 cumulative IPC: 0.907128 (Simulation time: 0 hr 7 min 7 sec) 
Heartbeat CPU 0 instructions: 290000002 cycles: 252916657 heartbeat IPC: 0.868971 cumulative IPC: 0.905036 (Simulation time: 0 hr 7 min 25 sec) 
Heartbeat CPU 0 instructions: 300000000 cycles: 265372418 heartbeat IPC: 0.802841 cumulative IPC: 0.899312 (Simulation time: 0 hr 7 min 43 sec) 
Heartbeat CPU 0 instructions: 310000000 cycles: 277530093 heartbeat IPC: 0.822526 cumulative IPC: 0.895332 (Simulation time: 0 hr 8 min 1 sec) 
Heartbeat CPU 0 instructions: 320000000 cycles: 290165887 heartbeat IPC: 0.791403 cumulative IPC: 0.890019 (Simulation time: 0 hr 8 min 19 sec) 
Heartbeat CPU 0 instructions: 330000003 cycles: 302100432 heartbeat IPC: 0.837904 cumulative IPC: 0.887619 (Simulation time: 0 hr 8 min 37 sec) 
Heartbeat CPU 0 instructions: 340000000 cycles: 314202755 heartbeat IPC: 0.826287 cumulative IPC: 0.884882 (Simulation time: 0 hr 8 min 55 sec) 
Heartbeat CPU 0 instructions: 350000001 cycles: 325189441 heartbeat IPC: 0.910193 cumulative IPC: 0.885868 (Simulation time: 0 hr 9 min 12 sec) 
Heartbeat CPU 0 instructions: 360000000 cycles: 336977329 heartbeat IPC: 0.848328 cumulative IPC: 0.884363 (Simulation time: 0 hr 9 min 30 sec) 
Heartbeat CPU 0 instructions: 370000001 cycles: 348390772 heartbeat IPC: 0.87616 cumulative IPC: 0.884056 (Simulation time: 0 hr 9 min 47 sec) 
Heartbeat CPU 0 instructions: 380000000 cycles: 359376099 heartbeat IPC: 0.910305 cumulative IPC: 0.884967 (Simulation time: 0 hr 10 min 5 sec) 
Heartbeat CPU 0 instructions: 390000003 cycles: 369988479 heartbeat IPC: 0.942296 cumulative IPC: 0.886828 (Simulation time: 0 hr 10 min 22 sec) 
Heartbeat CPU 0 instructions: 400000000 cycles: 380203884 heartbeat IPC: 0.978913 cumulative IPC: 0.889617 (Simulation time: 0 hr 10 min 39 sec) 
Heartbeat CPU 0 instructions: 410000000 cycles: 390705368 heartbeat IPC: 0.952246 cumulative IPC: 0.891509 (Simulation time: 0 hr 10 min 56 sec) 
Heartbeat CPU 0 instructions: 420000000 cycles: 400083104 heartbeat IPC: 1.06636 cumulative IPC: 0.8961 (Simulation time: 0 hr 11 min 13 sec) 
Heartbeat CPU 0 instructions: 430000002 cycles: 409166295 heartbeat IPC: 1.10093 cumulative IPC: 0.901181 (Simulation time: 0 hr 11 min 30 sec) 
Heartbeat CPU 0 instructions: 440000000 cycles: 419412362 heartbeat IPC: 0.975984 cumulative IPC: 0.903217 (Simulation time: 0 hr 11 min 47 sec) 
Heartbeat CPU 0 instructions: 450000002 cycles: 430484460 heartbeat IPC: 0.903171 cumulative IPC: 0.903216 (Simulation time: 0 hr 12 min 4 sec) 
Heartbeat CPU 0 instructions: 460000000 cycles: 442018258 heartbeat IPC: 0.867017 cumulative IPC: 0.90217 (Simulation time: 0 hr 12 min 22 sec) 
Heartbeat CPU 0 instructions: 470000003 cycles: 452205360 heartbeat IPC: 0.981634 cumulative IPC: 0.904148 (Simulation time: 0 hr 12 min 38 sec) 
Heartbeat CPU 0 instructions: 480000000 cycles: 462732733 heartbeat IPC: 0.949904 cumulative IPC: 0.905295 (Simulation time: 0 hr 12 min 56 sec) 
Heartbeat CPU 0 instructions: 490000000 cycles: 472680340 heartbeat IPC: 1.00527 cumulative IPC: 0.90761 (Simulation time: 0 hr 13 min 12 sec) 
Heartbeat CPU 0 instructions: 500000000 cycles: 484472832 heartbeat IPC: 0.847997 cumulative IPC: 0.906017 (Simulation time: 0 hr 13 min 30 sec) 
Heartbeat CPU 0 instructions: 510000002 cycles: 496877683 heartbeat IPC: 0.806136 cumulative IPC: 0.903288 (Simulation time: 0 hr 13 min 48 sec) 
Heartbeat CPU 0 instructions: 520000000 cycles: 508725734 heartbeat IPC: 0.84402 cumulative IPC: 0.90178 (Simulation time: 0 hr 14 min 6 sec) 
Heartbeat CPU 0 instructions: 530000001 cycles: 520553759 heartbeat IPC: 0.84545 cumulative IPC: 0.900385 (Simulation time: 0 hr 14 min 24 sec) 
Heartbeat CPU 0 instructions: 540000000 cycles: 532132085 heartbeat IPC: 0.863683 cumulative IPC: 0.899516 (Simulation time: 0 hr 14 min 41 sec) 
Heartbeat CPU 0 instructions: 550000001 cycles: 543504577 heartbeat IPC: 0.879315 cumulative IPC: 0.899057 (Simulation time: 0 hr 14 min 59 sec) 
Heartbeat CPU 0 instructions: 560000000 cycles: 555067363 heartbeat IPC: 0.864843 cumulative IPC: 0.898285 (Simulation time: 0 hr 15 min 16 sec) 
Heartbeat CPU 0 instructions: 570000000 cycles: 566462352 heartbeat IPC: 0.877579 cumulative IPC: 0.897834 (Simulation time: 0 hr 15 min 34 sec) 
Heartbeat CPU 0 instructions: 580000000 cycles: 577213839 heartbeat IPC: 0.930104 cumulative IPC: 0.898483 (Simulation time: 0 hr 15 min 51 sec) 
Heartbeat CPU 0 instructions: 590000003 cycles: 588607909 heartbeat IPC: 0.87765 cumulative IPC: 0.898048 (Simulation time: 0 hr 16 min 8 sec) 
Heartbeat CPU 0 instructions: 600000000 cycles: 599199556 heartbeat IPC: 0.94414 cumulative IPC: 0.898926 (Simulation time: 0 hr 16 min 25 sec) 
Finished CPU 0 instructions: 500000001 cycles: 556219316 cumulative IPC: 0.898926 (Simulation time: 0 hr 16 min 25 sec) 

CPU 0 Branch Prediction Accuracy: 93.0095% MPKI: 10.0046
Number of Branches: 71558147 Number of Mispredictions: 5002285
Number of LOAD Instructions: 145708893
Number of LOAD Instructions (ROI): 145708893
Number of STORE Instructions: 40463820
Number of STORE Instructions (ROI): 40463820
Total Destination Memory Operands: 45240498
Total Destination Memory Operands (ROI): 45240498
Total Source Memory Operands: 145708893
Total Source Memory Operands (ROI): 145708893
Number of DEPENDED LOADS: 10663336
Number of DEPENDED LOADS (ROI): 10663336
Number of SQ_ADDED: 45240498
Number of SQ_ADDED (ROI): 45240498
Number of LQ_ADDED: 193327455
Number of LQ_ADDED (ROI): 193327455
Number of Instructions read from trace: 600000002

ChampSim completed all CPUs

Region of Interest Statistics

CPU 0 cumulative IPC: 0.898926 instructions: 500000001 cycles: 556219316
ITLB TOTAL     ACCESS:   77993357  HIT:   77993356  MISS:          1
ITLB LOAD      ACCESS:   77993357  HIT:   77993356  MISS:          1
ITLB RFO       ACCESS:          0  HIT:          0  MISS:          0
ITLB PREFETCH  ACCESS:          0  HIT:          0  MISS:          0
ITLB WRITEBACK ACCESS:          0  HIT:          0  MISS:          0
ITLB PREFETCH  REQUESTED:          0  ISSUED:          0  USEFUL:          0  USELESS:          0
ITLB TOTAL MSHR MERGED:          0
ITLB LOAD MSHR MERGED:          0
ITLB RFO MSHR MERGED:          0
ITLB PREFETCH MSHR MERGED:          0
ITLB WRITEBACK MSHR MERGED:          0
ITLB TOTAL ACCESSES:   77993357 HITS:   77993356 MISSES:          1
ITLB LOAD ACCESSES:   77993357 HITS:   77993356 MISSES:          1
ITLB RFO ACCESSES:          0 HITS:          0 MISSES:          0
ITLB PREFETCH ACCESSES:          0 HITS:          0 MISSES:          0
ITLB WRITEBACK ACCESSES:          0 HITS:          0 MISSES:          0
ITLB RQ ACCESS:  499999995
ITLB RQ TO_CACHE:   77993357
ITLB RQ MERGED:  422006638
ITLB RQ FORWARD:          0
ITLB WQ ACCESS:          0
ITLB WQ TO_CACHE:          0
ITLB WQ MERGED:          0
ITLB WQ FORWARD:          0
DTLB TOTAL     ACCESS:   98671615  HIT:   97790279  MISS:     881336
DTLB LOAD      ACCESS:   70892247  HIT:   70030714  MISS:     861533
DTLB RFO       ACCESS:   27779368  HIT:   27759565  MISS:      19803
DTLB PREFETCH  ACCESS:          0  HIT:          0  MISS:          0
DTLB WRITEBACK ACCESS:          0  HIT:          0  MISS:          0
DTLB PREFETCH  REQUESTED:          0  ISSUED:          0  USEFUL:          0  USELESS:          0
DTLB TOTAL MSHR MERGED:      87345
DTLB LOAD MSHR MERGED:      65602
DTLB RFO MSHR MERGED:      21743
DTLB PREFETCH MSHR MERGED:          0
DTLB WRITEBACK MSHR MERGED:          0
DTLB TOTAL ACCESSES:   98758960 HITS:   97790279 MISSES:     968681
DTLB LOAD ACCESSES:   70957849 HITS:   70030714 MISSES:     927135
DTLB RFO ACCESSES:   27801111 HITS:   27759565 MISSES:      41546
DTLB PREFETCH ACCESSES:          0 HITS:          0 MISSES:          0
DTLB WRITEBACK ACCESSES:          0 HITS:          0 MISSES:          0
DTLB RQ ACCESS:  150281718
DTLB RQ TO_CACHE:   98758960
DTLB RQ MERGED:   51522758
DTLB RQ FORWARD:          0
DTLB WQ ACCESS:          0
DTLB WQ TO_CACHE:          0
DTLB WQ MERGED:          0
DTLB WQ FORWARD:          0
L1D TOTAL     ACCESS:  173345198  HIT:  169176581  MISS:    4168617
L1D LOAD      ACCESS:   75290051  HIT:   73408697  MISS:    1881354
L1D RFO       ACCESS:   36778501  HIT:   36571892  MISS:     206609
L1D PREFETCH  ACCESS:   61276646  HIT:   59195992  MISS:    2080654
L1D WRITEBACK ACCESS:          0  HIT:          0  MISS:          0
L1D PREFETCH  REQUESTED:   75393893  ISSUED:   74829706  USEFUL:     415110  USELESS:    1665533
L1D TOTAL MSHR MERGED:     375699
L1D LOAD MSHR MERGED:     112634
L1D RFO MSHR MERGED:     132971
L1D PREFETCH MSHR MERGED:     130094
L1D WRITEBACK MSHR MERGED:          0
L1D TOTAL ACCESSES:  173872255 HITS:  169327939 MISSES:    4544316
L1D LOAD ACCESSES:   75396595 HITS:   73411399 MISSES:    1985196
L1D RFO ACCESSES:   36910074 HITS:   36571892 MISSES:     338182
L1D PREFETCH ACCESSES:   61565586 HITS:   59344648 MISSES:    2220938
L1D WRITEBACK ACCESSES:          0 HITS:          0 MISSES:          0
L1D RQ ACCESS:  112619315
L1D RQ TO_CACHE:   75393893
L1D RQ MERGED:   37222720
L1D RQ FORWARD:          0
L1D WQ ACCESS:   37662403
L1D WQ TO_CACHE:   36910074
L1D WQ MERGED:     752329
L1D WQ FORWARD:     151358
L1I TOTAL     ACCESS:  100701331  HIT:  100701306  MISS:         25
L1I LOAD      ACCESS:  100701331  HIT:  100701306  MISS:         25
L1I RFO       ACCESS:          0  HIT:          0  MISS:          0
L1I PREFETCH  ACCESS:          0  HIT:          0  MISS:          0
L1I WRITEBACK ACCESS:          0  HIT:          0  MISS:          0
L1I PREFETCH  REQUESTED:          0  ISSUED:          0  USEFUL:          0  USELESS:          0
L1I TOTAL MSHR MERGED:         10
L1I LOAD MSHR MERGED:         10
L1I RFO MSHR MERGED:          0
L1I PREFETCH MSHR MERGED:          0
L1I WRITEBACK MSHR MERGED:          0
L1I TOTAL ACCESSES:  100701341 HITS:  100701306 MISSES:         35
L1I LOAD ACCESSES:  100701341 HITS:  100701306 MISSES:         35
L1I RFO ACCESSES:          0 HITS:          0 MISSES:          0
L1I PREFETCH ACCESSES:          0 HITS:          0 MISSES:          0
L1I WRITEBACK ACCESSES:          0 HITS:          0 MISSES:          0
L1I RQ ACCESS:  499999995
L1I RQ TO_CACHE:  100701341
L1I RQ MERGED:  399298654
L1I RQ FORWARD:          0
L1I WQ ACCESS:          0
L1I WQ TO_CACHE:          0
L1I WQ MERGED:          0
L1I WQ FORWARD:          0
L2C TOTAL     ACCESS:    5852527  HIT:    4009333  MISS:    1843194
L2C LOAD      ACCESS:    1872460  HIT:    1061491  MISS:     810969
L2C RFO       ACCESS:     205204  HIT:     100563  MISS:     104641
L2C PREFETCH  ACCESS:    2169230  HIT:    1246067  MISS:     923163
L2C WRITEBACK ACCESS:    1605633  HIT:    1601212  MISS:       4421
L2C PREFETCH  REQUESTED:      91706  ISSUED:      91706  USEFUL:      86438  USELESS:     836748
L2C TOTAL MSHR MERGED:       1038
L2C LOAD MSHR MERGED:        270
L2C RFO MSHR MERGED:          0
L2C PREFETCH MSHR MERGED:        768
L2C WRITEBACK MSHR MERGED:          0
L2C TOTAL ACCESSES:    5853910 HITS:    4009504 MISSES:    1844406
L2C LOAD ACCESSES:    1872587 HITS:    1061618 MISSES:     810969
L2C RFO ACCESSES:     205211 HITS:     100570 MISSES:     104641
L2C PREFETCH ACCESSES:    2170479 HITS:    1246104 MISSES:     924375
L2C WRITEBACK ACCESSES:    1605633 HITS:    1601212 MISSES:       4421
L2C RQ ACCESS:    2077798
L2C RQ TO_CACHE:    2077664
L2C RQ MERGED:          0
L2C RQ FORWARD:          0
L2C WQ ACCESS:    1605633
L2C WQ TO_CACHE:    1605633
L2C WQ MERGED:          0
L2C WQ FORWARD:        171
LLC TOTAL     ACCESS:    2673592  HIT:    2168149  MISS:     505443
LLC LOAD      ACCESS:     810690  HIT:     637661  MISS:     173029
LLC RFO       ACCESS:     104640  HIT:      60402  MISS:      44238
LLC PREFETCH  ACCESS:     923586  HIT:     667285  MISS:     256301
LLC WRITEBACK ACCESS:     834676  HIT:     802801  MISS:      31875
LLC PREFETCH  REQUESTED:          0  ISSUED:          0  USEFUL:       8246  USELESS:     248196
LLC TOTAL MSHR MERGED:          7
LLC LOAD MSHR MERGED:          2
LLC RFO MSHR MERGED:          0
LLC PREFETCH MSHR MERGED:          5
LLC WRITEBACK MSHR MERGED:          0
LLC TOTAL ACCESSES:    2673611 HITS:    2168161 MISSES:     505450
LLC LOAD ACCESSES:     810699 HITS:     637670 MISSES:     173029
LLC RFO ACCESSES:     104641 HITS:      60403 MISSES:      44238
LLC PREFETCH ACCESSES:     923595 HITS:     667287 MISSES:     256308
LLC WRITEBACK ACCESSES:     834676 HITS:     802801 MISSES:      31875
LLC 0 RQ ACCESS:     915340
LLC 0 RQ TO_CACHE:     915330
LLC 0 RQ MERGED:          0
LLC 0 RQ FORWARD:          0
LLC WQ ACCESS:     834676
LLC WQ TO_CACHE:     834676
LLC WQ MERGED:          0
LLC WQ FORWARD:         12
Major fault: 0 Minor fault: 11278
CPU 0 L1D next line prefetcher final stats
CPU 0 L2C PC-based stride prefetcher final stats
All Misses: 619878
All Hits: 2434732
SD Algo Stats - Switches: 0 SRR-Repls: 206432 BRR-Repls: 0

DRAM Statistics
 CHANNEL 0
 RQ ROW_BUFFER_HIT:      30663  ROW_BUFFER_MISS:     442550
 DBUS_CONGESTED:     349488
 WQ ROW_BUFFER_HIT:      13458  ROW_BUFFER_MISS:     196684  FULL:          0

 AVG_CONGESTED_CYCLE: 13
LOADS RETIRED: 121769268
INSTR RETIRED: 500000000
