
*** ChampSim Multicore Out-of-Order Simulator ***

Warmup Instructions: 100000000
Simulation Instructions: 500000000
Number of CPUs: 1
LLC sets: 2048
LLC ways: 16
Clean RRIP Policies: 2213030122130301 Dirty RRIP Policies: 2213130122131301 PSEL Width: 10 Track Set: 4294967295 PSEL Mask: 1 Demote Mask: 3340211033402110DS Algo: 0Window size: 0
Off-chip DRAM Size: 4096 MB Channels: 1 Width: 64-bit Data Rate: 1600 MT/s

CPU 0 runs /mnt/beegfs/iconst01/spec2017/Blender.trace.gz
NOT SORTED
TRACE STRING: /mnt/beegfs/iconst01/spec2017/Blender.trace.gz
SORTED
TRACE STRING: /mnt/beegfs/iconst01/spec2017/Blender.trace.gz
INITIAL
TRACE STRING: /mnt/beegfs/iconst01/spec2017/Blender.trace.gz

champsim_seed used: 700

CPU 0 L1D next line prefetcher
CPU 0 L2C IP-based stride prefetcher
Initialize DRRIP state
Assign rand_sets[0]: 454  LLC: 2048
rand_sets[0]: 454
Assign rand_sets[1]: 1662  LLC: 2048
rand_sets[1]: 1662
Assign rand_sets[2]: 1921  LLC: 2048
rand_sets[2]: 1921
Assign rand_sets[3]: 1131  LLC: 2048
rand_sets[3]: 1131
Assign rand_sets[4]: 331  LLC: 2048
rand_sets[4]: 331
Assign rand_sets[5]: 1531  LLC: 2048
rand_sets[5]: 1531
Assign rand_sets[6]: 482  LLC: 2048
rand_sets[6]: 482
Assign rand_sets[7]: 1275  LLC: 2048
rand_sets[7]: 1275
Assign rand_sets[8]: 1876  LLC: 2048
rand_sets[8]: 1876
Assign rand_sets[9]: 2038  LLC: 2048
rand_sets[9]: 2038
Assign rand_sets[10]: 701  LLC: 2048
rand_sets[10]: 701
Assign rand_sets[11]: 479  LLC: 2048
rand_sets[11]: 479
Assign rand_sets[12]: 892  LLC: 2048
rand_sets[12]: 892
Assign rand_sets[13]: 1820  LLC: 2048
rand_sets[13]: 1820
Assign rand_sets[14]: 1505  LLC: 2048
rand_sets[14]: 1505
Assign rand_sets[15]: 1159  LLC: 2048
rand_sets[15]: 1159
Assign rand_sets[16]: 513  LLC: 2048
rand_sets[16]: 513
Assign rand_sets[17]: 703  LLC: 2048
rand_sets[17]: 703
Assign rand_sets[18]: 561  LLC: 2048
rand_sets[18]: 561
Assign rand_sets[19]: 990  LLC: 2048
rand_sets[19]: 990
Assign rand_sets[20]: 342  LLC: 2048
rand_sets[20]: 342
Assign rand_sets[21]: 882  LLC: 2048
rand_sets[21]: 882
Assign rand_sets[22]: 15  LLC: 2048
rand_sets[22]: 15
Assign rand_sets[23]: 71  LLC: 2048
rand_sets[23]: 71
Assign rand_sets[24]: 1127  LLC: 2048
rand_sets[24]: 1127
Assign rand_sets[25]: 1382  LLC: 2048
rand_sets[25]: 1382
Assign rand_sets[26]: 647  LLC: 2048
rand_sets[26]: 647
Assign rand_sets[27]: 857  LLC: 2048
rand_sets[27]: 857
Assign rand_sets[28]: 1450  LLC: 2048
rand_sets[28]: 1450
Assign rand_sets[29]: 1160  LLC: 2048
rand_sets[29]: 1160
Assign rand_sets[30]: 1852  LLC: 2048
rand_sets[30]: 1852
Assign rand_sets[31]: 1881  LLC: 2048
rand_sets[31]: 1881
Assign rand_sets[32]: 1770  LLC: 2048
rand_sets[32]: 1770
Assign rand_sets[33]: 1622  LLC: 2048
rand_sets[33]: 1622
Assign rand_sets[34]: 275  LLC: 2048
rand_sets[34]: 275
Assign rand_sets[35]: 635  LLC: 2048
rand_sets[35]: 635
Assign rand_sets[36]: 466  LLC: 2048
rand_sets[36]: 466
Assign rand_sets[37]: 1413  LLC: 2048
rand_sets[37]: 1413
Assign rand_sets[38]: 417  LLC: 2048
rand_sets[38]: 417
Assign rand_sets[39]: 472  LLC: 2048
rand_sets[39]: 472
Assign rand_sets[40]: 1340  LLC: 2048
rand_sets[40]: 1340
Assign rand_sets[41]: 852  LLC: 2048
rand_sets[41]: 852
Assign rand_sets[42]: 1365  LLC: 2048
rand_sets[42]: 1365
Assign rand_sets[43]: 47  LLC: 2048
rand_sets[43]: 47
Assign rand_sets[44]: 823  LLC: 2048
rand_sets[44]: 823
Assign rand_sets[45]: 686  LLC: 2048
rand_sets[45]: 686
Assign rand_sets[46]: 1637  LLC: 2048
rand_sets[46]: 1637
Assign rand_sets[47]: 1115  LLC: 2048
rand_sets[47]: 1115
Assign rand_sets[48]: 986  LLC: 2048
rand_sets[48]: 986
Assign rand_sets[49]: 258  LLC: 2048
rand_sets[49]: 258
Assign rand_sets[50]: 633  LLC: 2048
rand_sets[50]: 633
Assign rand_sets[51]: 920  LLC: 2048
rand_sets[51]: 920
Assign rand_sets[52]: 204  LLC: 2048
rand_sets[52]: 204
Assign rand_sets[53]: 227  LLC: 2048
rand_sets[53]: 227
Assign rand_sets[54]: 1818  LLC: 2048
rand_sets[54]: 1818
Assign rand_sets[55]: 886  LLC: 2048
rand_sets[55]: 886
Assign rand_sets[56]: 1422  LLC: 2048
rand_sets[56]: 1422
Assign rand_sets[57]: 607  LLC: 2048
rand_sets[57]: 607
Assign rand_sets[58]: 217  LLC: 2048
rand_sets[58]: 217
Assign rand_sets[59]: 1945  LLC: 2048
rand_sets[59]: 1945
Assign rand_sets[60]: 143  LLC: 2048
rand_sets[60]: 143
Assign rand_sets[61]: 1311  LLC: 2048
rand_sets[61]: 1311
Assign rand_sets[62]: 319  LLC: 2048
rand_sets[62]: 319
Assign rand_sets[63]: 1846  LLC: 2048
rand_sets[63]: 1846
 CLEAN-RRIP-POLICY-1: 2-2-1-3-0-3-0-1- CLEAN-RRIP-POLICY-2: 2-2-1-3-0-3-0-1-
 DIRTY-RRIP-POLICY-1: 2-2-1-3-1-3-0-1- DIRTY-RRIP-POLICY-2: 2-2-1-3-1-3-0-1-
 PSEL width: 10
Heartbeat CPU 0 instructions: 10000002 cycles: 5480930 heartbeat IPC: 1.82451 cumulative IPC: 1.82451 (Simulation time: 0 hr 0 min 12 sec) 
Heartbeat CPU 0 instructions: 20000000 cycles: 10913520 heartbeat IPC: 1.84074 cumulative IPC: 1.83259 (Simulation time: 0 hr 0 min 25 sec) 
Heartbeat CPU 0 instructions: 30000000 cycles: 16447384 heartbeat IPC: 1.80706 cumulative IPC: 1.824 (Simulation time: 0 hr 0 min 38 sec) 
Heartbeat CPU 0 instructions: 40000000 cycles: 21898150 heartbeat IPC: 1.8346 cumulative IPC: 1.82664 (Simulation time: 0 hr 0 min 50 sec) 
Heartbeat CPU 0 instructions: 50000000 cycles: 27400041 heartbeat IPC: 1.81756 cumulative IPC: 1.82481 (Simulation time: 0 hr 1 min 3 sec) 
Heartbeat CPU 0 instructions: 60000000 cycles: 32778878 heartbeat IPC: 1.85914 cumulative IPC: 1.83045 (Simulation time: 0 hr 1 min 16 sec) 
Heartbeat CPU 0 instructions: 70000001 cycles: 38335185 heartbeat IPC: 1.79976 cumulative IPC: 1.826 (Simulation time: 0 hr 1 min 28 sec) 
Heartbeat CPU 0 instructions: 80000000 cycles: 43795363 heartbeat IPC: 1.83144 cumulative IPC: 1.82668 (Simulation time: 0 hr 1 min 41 sec) 
Heartbeat CPU 0 instructions: 90000000 cycles: 49242075 heartbeat IPC: 1.83597 cumulative IPC: 1.82771 (Simulation time: 0 hr 1 min 54 sec) 
Heartbeat CPU 0 instructions: 100000000 cycles: 54787164 heartbeat IPC: 1.8034 cumulative IPC: 1.82525 (Simulation time: 0 hr 2 min 6 sec) 

Warmup complete CPU 0 instructions: 100000002 cycles: 54787165 (Simulation time: 0 hr 2 min 6 sec) 

Heartbeat CPU 0 instructions: 110000001 cycles: 69187141 heartbeat IPC: 0.694446 cumulative IPC: 0.694446 (Simulation time: 0 hr 2 min 24 sec) 
Heartbeat CPU 0 instructions: 120000000 cycles: 84195069 heartbeat IPC: 0.666314 cumulative IPC: 0.680089 (Simulation time: 0 hr 2 min 42 sec) 
Heartbeat CPU 0 instructions: 130000000 cycles: 98697544 heartbeat IPC: 0.689537 cumulative IPC: 0.68321 (Simulation time: 0 hr 3 min 0 sec) 
Heartbeat CPU 0 instructions: 140000000 cycles: 113039374 heartbeat IPC: 0.697261 cumulative IPC: 0.686669 (Simulation time: 0 hr 3 min 18 sec) 
Heartbeat CPU 0 instructions: 150000000 cycles: 127749844 heartbeat IPC: 0.679788 cumulative IPC: 0.685282 (Simulation time: 0 hr 3 min 36 sec) 
Heartbeat CPU 0 instructions: 160000000 cycles: 142872048 heartbeat IPC: 0.661279 cumulative IPC: 0.681161 (Simulation time: 0 hr 3 min 54 sec) 
Heartbeat CPU 0 instructions: 170000001 cycles: 157733888 heartbeat IPC: 0.672864 cumulative IPC: 0.679963 (Simulation time: 0 hr 4 min 12 sec) 
Heartbeat CPU 0 instructions: 180000000 cycles: 172663969 heartbeat IPC: 0.669789 cumulative IPC: 0.678675 (Simulation time: 0 hr 4 min 30 sec) 
Heartbeat CPU 0 instructions: 190000002 cycles: 187146339 heartbeat IPC: 0.690495 cumulative IPC: 0.679968 (Simulation time: 0 hr 4 min 48 sec) 
Heartbeat CPU 0 instructions: 200000000 cycles: 201504633 heartbeat IPC: 0.696461 cumulative IPC: 0.681582 (Simulation time: 0 hr 5 min 7 sec) 
Heartbeat CPU 0 instructions: 210000003 cycles: 216127931 heartbeat IPC: 0.68384 cumulative IPC: 0.681787 (Simulation time: 0 hr 5 min 25 sec) 
Heartbeat CPU 0 instructions: 220000000 cycles: 230824570 heartbeat IPC: 0.680427 cumulative IPC: 0.681673 (Simulation time: 0 hr 5 min 43 sec) 
Heartbeat CPU 0 instructions: 230000001 cycles: 245940183 heartbeat IPC: 0.661568 cumulative IPC: 0.680083 (Simulation time: 0 hr 6 min 1 sec) 
Heartbeat CPU 0 instructions: 240000000 cycles: 260858324 heartbeat IPC: 0.670325 cumulative IPC: 0.679377 (Simulation time: 0 hr 6 min 19 sec) 
Heartbeat CPU 0 instructions: 250000003 cycles: 275683078 heartbeat IPC: 0.674548 cumulative IPC: 0.679053 (Simulation time: 0 hr 6 min 37 sec) 
Heartbeat CPU 0 instructions: 260000000 cycles: 291169155 heartbeat IPC: 0.645741 cumulative IPC: 0.676871 (Simulation time: 0 hr 6 min 55 sec) 
Heartbeat CPU 0 instructions: 270000003 cycles: 305763023 heartbeat IPC: 0.68522 cumulative IPC: 0.677356 (Simulation time: 0 hr 7 min 13 sec) 
Heartbeat CPU 0 instructions: 280000000 cycles: 320255108 heartbeat IPC: 0.690032 cumulative IPC: 0.678048 (Simulation time: 0 hr 7 min 31 sec) 
Heartbeat CPU 0 instructions: 290000002 cycles: 334704659 heartbeat IPC: 0.692063 cumulative IPC: 0.678771 (Simulation time: 0 hr 7 min 49 sec) 
Heartbeat CPU 0 instructions: 300000000 cycles: 350096267 heartbeat IPC: 0.649705 cumulative IPC: 0.677256 (Simulation time: 0 hr 8 min 8 sec) 
Heartbeat CPU 0 instructions: 310000000 cycles: 365068728 heartbeat IPC: 0.667893 cumulative IPC: 0.676805 (Simulation time: 0 hr 8 min 26 sec) 
Heartbeat CPU 0 instructions: 320000000 cycles: 379879923 heartbeat IPC: 0.675165 cumulative IPC: 0.67673 (Simulation time: 0 hr 8 min 43 sec) 
Heartbeat CPU 0 instructions: 330000000 cycles: 395649958 heartbeat IPC: 0.634114 cumulative IPC: 0.674758 (Simulation time: 0 hr 9 min 2 sec) 
Heartbeat CPU 0 instructions: 340000000 cycles: 410290558 heartbeat IPC: 0.683032 cumulative IPC: 0.675099 (Simulation time: 0 hr 9 min 20 sec) 
Heartbeat CPU 0 instructions: 350000000 cycles: 424925835 heartbeat IPC: 0.683281 cumulative IPC: 0.675423 (Simulation time: 0 hr 9 min 37 sec) 
Heartbeat CPU 0 instructions: 360000000 cycles: 439592694 heartbeat IPC: 0.681809 cumulative IPC: 0.675666 (Simulation time: 0 hr 9 min 55 sec) 
Heartbeat CPU 0 instructions: 370000002 cycles: 455012384 heartbeat IPC: 0.648522 cumulative IPC: 0.67462 (Simulation time: 0 hr 10 min 14 sec) 
Heartbeat CPU 0 instructions: 380000000 cycles: 469865506 heartbeat IPC: 0.673259 cumulative IPC: 0.674571 (Simulation time: 0 hr 10 min 32 sec) 
Heartbeat CPU 0 instructions: 390000003 cycles: 484822600 heartbeat IPC: 0.668579 cumulative IPC: 0.674363 (Simulation time: 0 hr 10 min 49 sec) 
Heartbeat CPU 0 instructions: 400000000 cycles: 500666655 heartbeat IPC: 0.631151 cumulative IPC: 0.672828 (Simulation time: 0 hr 11 min 8 sec) 
Heartbeat CPU 0 instructions: 410000001 cycles: 515687815 heartbeat IPC: 0.665728 cumulative IPC: 0.672596 (Simulation time: 0 hr 11 min 26 sec) 
Heartbeat CPU 0 instructions: 420000000 cycles: 530418346 heartbeat IPC: 0.678862 cumulative IPC: 0.67279 (Simulation time: 0 hr 11 min 43 sec) 
Heartbeat CPU 0 instructions: 430000000 cycles: 545838107 heartbeat IPC: 0.648519 cumulative IPC: 0.672028 (Simulation time: 0 hr 12 min 2 sec) 
Heartbeat CPU 0 instructions: 440000000 cycles: 560640984 heartbeat IPC: 0.675544 cumulative IPC: 0.672131 (Simulation time: 0 hr 12 min 20 sec) 
Heartbeat CPU 0 instructions: 450000000 cycles: 575619109 heartbeat IPC: 0.66764 cumulative IPC: 0.672002 (Simulation time: 0 hr 12 min 38 sec) 
Heartbeat CPU 0 instructions: 460000000 cycles: 591351725 heartbeat IPC: 0.635622 cumulative IPC: 0.670935 (Simulation time: 0 hr 12 min 56 sec) 
Heartbeat CPU 0 instructions: 470000000 cycles: 606425859 heartbeat IPC: 0.663388 cumulative IPC: 0.670729 (Simulation time: 0 hr 13 min 13 sec) 
Heartbeat CPU 0 instructions: 480000000 cycles: 621301650 heartbeat IPC: 0.672233 cumulative IPC: 0.670768 (Simulation time: 0 hr 13 min 31 sec) 
Heartbeat CPU 0 instructions: 490000002 cycles: 636562290 heartbeat IPC: 0.655281 cumulative IPC: 0.670362 (Simulation time: 0 hr 13 min 50 sec) 
Heartbeat CPU 0 instructions: 500000000 cycles: 651433064 heartbeat IPC: 0.67246 cumulative IPC: 0.670414 (Simulation time: 0 hr 14 min 8 sec) 
Heartbeat CPU 0 instructions: 510000001 cycles: 666538214 heartbeat IPC: 0.662026 cumulative IPC: 0.670207 (Simulation time: 0 hr 14 min 25 sec) 
Heartbeat CPU 0 instructions: 520000000 cycles: 682003515 heartbeat IPC: 0.646609 cumulative IPC: 0.669625 (Simulation time: 0 hr 14 min 43 sec) 
Heartbeat CPU 0 instructions: 530000001 cycles: 697427015 heartbeat IPC: 0.648361 cumulative IPC: 0.669115 (Simulation time: 0 hr 15 min 2 sec) 
Heartbeat CPU 0 instructions: 540000000 cycles: 712013123 heartbeat IPC: 0.685584 cumulative IPC: 0.669481 (Simulation time: 0 hr 15 min 19 sec) 
Heartbeat CPU 0 instructions: 550000001 cycles: 727273700 heartbeat IPC: 0.655283 cumulative IPC: 0.669158 (Simulation time: 0 hr 15 min 38 sec) 
Heartbeat CPU 0 instructions: 560000000 cycles: 742081011 heartbeat IPC: 0.675342 cumulative IPC: 0.669292 (Simulation time: 0 hr 15 min 55 sec) 
Heartbeat CPU 0 instructions: 570000002 cycles: 757232895 heartbeat IPC: 0.659984 cumulative IPC: 0.669091 (Simulation time: 0 hr 16 min 14 sec) 
Heartbeat CPU 0 instructions: 580000000 cycles: 772240735 heartbeat IPC: 0.666318 cumulative IPC: 0.669033 (Simulation time: 0 hr 16 min 31 sec) 
Heartbeat CPU 0 instructions: 590000001 cycles: 787244645 heartbeat IPC: 0.666493 cumulative IPC: 0.668981 (Simulation time: 0 hr 16 min 49 sec) 
Heartbeat CPU 0 instructions: 600000000 cycles: 801903746 heartbeat IPC: 0.68217 cumulative IPC: 0.66924 (Simulation time: 0 hr 17 min 7 sec) 
Finished CPU 0 instructions: 500000000 cycles: 747116589 cumulative IPC: 0.66924 (Simulation time: 0 hr 17 min 7 sec) 

CPU 0 Branch Prediction Accuracy: 93.7783% MPKI: 10.0718
Number of Branches: 80940586 Number of Mispredictions: 5035908
Number of LOAD Instructions: 184238101
Number of LOAD Instructions (ROI): 184238101
Number of STORE Instructions: 33143298
Number of STORE Instructions (ROI): 33143298
Total Destination Memory Operands: 33324321
Total Destination Memory Operands (ROI): 33324321
Total Source Memory Operands: 184238101
Total Source Memory Operands (ROI): 184238101
Number of DEPENDED LOADS: 4461467
Number of DEPENDED LOADS (ROI): 4461467
Number of SQ_ADDED: 33324292
Number of SQ_ADDED (ROI): 33324292
Number of LQ_ADDED: 184867878
Number of LQ_ADDED (ROI): 184867878
Number of Instructions read from trace: 600000256

ChampSim completed all CPUs

Region of Interest Statistics

CPU 0 cumulative IPC: 0.66924 instructions: 500000000 cycles: 747116589
ITLB TOTAL     ACCESS:   77746109  HIT:   77746109  MISS:          0
ITLB LOAD      ACCESS:   77746109  HIT:   77746109  MISS:          0
ITLB RFO       ACCESS:          0  HIT:          0  MISS:          0
ITLB PREFETCH  ACCESS:          0  HIT:          0  MISS:          0
ITLB WRITEBACK ACCESS:          0  HIT:          0  MISS:          0
ITLB PREFETCH  REQUESTED:          0  ISSUED:          0  USEFUL:          0  USELESS:          0
ITLB TOTAL MSHR MERGED:          0
ITLB LOAD MSHR MERGED:          0
ITLB RFO MSHR MERGED:          0
ITLB PREFETCH MSHR MERGED:          0
ITLB WRITEBACK MSHR MERGED:          0
ITLB TOTAL ACCESSES:   77746109 HITS:   77746109 MISSES:          0
ITLB LOAD ACCESSES:   77746109 HITS:   77746109 MISSES:          0
ITLB RFO ACCESSES:          0 HITS:          0 MISSES:          0
ITLB PREFETCH ACCESSES:          0 HITS:          0 MISSES:          0
ITLB WRITEBACK ACCESSES:          0 HITS:          0 MISSES:          0
ITLB RQ ACCESS:  500000245
ITLB RQ TO_CACHE:   77746109
ITLB RQ MERGED:  422254136
ITLB RQ FORWARD:          0
ITLB WQ ACCESS:          0
ITLB WQ TO_CACHE:          0
ITLB WQ MERGED:          0
ITLB WQ FORWARD:          0
DTLB TOTAL     ACCESS:   88436875  HIT:   87300025  MISS:    1136850
DTLB LOAD      ACCESS:   66310238  HIT:   65177628  MISS:    1132610
DTLB RFO       ACCESS:   22126637  HIT:   22122397  MISS:       4240
DTLB PREFETCH  ACCESS:          0  HIT:          0  MISS:          0
DTLB WRITEBACK ACCESS:          0  HIT:          0  MISS:          0
DTLB PREFETCH  REQUESTED:          0  ISSUED:          0  USEFUL:          0  USELESS:          0
DTLB TOTAL MSHR MERGED:     135523
DTLB LOAD MSHR MERGED:     133706
DTLB RFO MSHR MERGED:       1817
DTLB PREFETCH MSHR MERGED:          0
DTLB WRITEBACK MSHR MERGED:          0
DTLB TOTAL ACCESSES:   88572398 HITS:   87300025 MISSES:    1272373
DTLB LOAD ACCESSES:   66443944 HITS:   65177628 MISSES:    1266316
DTLB RFO ACCESSES:   22128454 HITS:   22122397 MISSES:       6057
DTLB PREFETCH ACCESSES:          0 HITS:          0 MISSES:          0
DTLB WRITEBACK ACCESSES:          0 HITS:          0 MISSES:          0
DTLB RQ ACCESS:  177579264
DTLB RQ TO_CACHE:   88572398
DTLB RQ MERGED:   89006866
DTLB RQ FORWARD:          0
DTLB WQ ACCESS:          0
DTLB WQ TO_CACHE:          0
DTLB WQ MERGED:          0
DTLB WQ FORWARD:          0
L1D TOTAL     ACCESS:  142075508  HIT:  136516465  MISS:    5559043
L1D LOAD      ACCESS:   61384153  HIT:   58274641  MISS:    3109512
L1D RFO       ACCESS:   27668370  HIT:   27586563  MISS:      81807
L1D PREFETCH  ACCESS:   53022985  HIT:   50655261  MISS:    2367724
L1D WRITEBACK ACCESS:          0  HIT:          0  MISS:          0
L1D PREFETCH  REQUESTED:   61670616  ISSUED:   60752444  USEFUL:     660851  USELESS:    1706878
L1D TOTAL MSHR MERGED:    1204695
L1D LOAD MSHR MERGED:     390334
L1D RFO MSHR MERGED:     164711
L1D PREFETCH MSHR MERGED:     649650
L1D WRITEBACK MSHR MERGED:          0
L1D TOTAL ACCESSES:  143377817 HITS:  136614079 MISSES:    6763738
L1D LOAD ACCESSES:   61670626 HITS:   58274651 MISSES:    3395975
L1D RFO ACCESSES:   27829287 HITS:   27586563 MISSES:     242724
L1D PREFETCH ACCESSES:   53877904 HITS:   50752865 MISSES:    3125039
L1D WRITEBACK ACCESSES:          0 HITS:          0 MISSES:          0
L1D RQ ACCESS:  149746298
L1D RQ TO_CACHE:   61670616
L1D RQ MERGED:   88075672
L1D RQ FORWARD:          0
L1D WQ ACCESS:   27832966
L1D WQ TO_CACHE:   27829287
L1D WQ MERGED:       3679
L1D WQ FORWARD:      97614
L1I TOTAL     ACCESS:   96223446  HIT:   96064180  MISS:     159266
L1I LOAD      ACCESS:   96223446  HIT:   96064180  MISS:     159266
L1I RFO       ACCESS:          0  HIT:          0  MISS:          0
L1I PREFETCH  ACCESS:          0  HIT:          0  MISS:          0
L1I WRITEBACK ACCESS:          0  HIT:          0  MISS:          0
L1I PREFETCH  REQUESTED:          0  ISSUED:          0  USEFUL:          0  USELESS:          0
L1I TOTAL MSHR MERGED:     130250
L1I LOAD MSHR MERGED:     130250
L1I RFO MSHR MERGED:          0
L1I PREFETCH MSHR MERGED:          0
L1I WRITEBACK MSHR MERGED:          0
L1I TOTAL ACCESSES:   96353696 HITS:   96064180 MISSES:     289516
L1I LOAD ACCESSES:   96353696 HITS:   96064180 MISSES:     289516
L1I RFO ACCESSES:          0 HITS:          0 MISSES:          0
L1I PREFETCH ACCESSES:          0 HITS:          0 MISSES:          0
L1I WRITEBACK ACCESSES:          0 HITS:          0 MISSES:          0
L1I RQ ACCESS:  500000245
L1I RQ TO_CACHE:   96353696
L1I RQ MERGED:  403646549
L1I RQ FORWARD:          0
L1I WQ ACCESS:          0
L1I WQ TO_CACHE:          0
L1I WQ MERGED:          0
L1I WQ FORWARD:          0
L2C TOTAL     ACCESS:    5910866  HIT:    3062195  MISS:    2848671
L2C LOAD      ACCESS:    3164897  HIT:    1582998  MISS:    1581899
L2C RFO       ACCESS:      77938  HIT:      45085  MISS:      32853
L2C PREFETCH  ACCESS:    2524504  HIT:    1296169  MISS:    1228335
L2C WRITEBACK ACCESS:     143527  HIT:     137943  MISS:       5584
L2C PREFETCH  REQUESTED:      52724  ISSUED:      52724  USEFUL:      18648  USELESS:    1209727
L2C TOTAL MSHR MERGED:       2675
L2C LOAD MSHR MERGED:        960
L2C RFO MSHR MERGED:          0
L2C PREFETCH MSHR MERGED:       1715
L2C WRITEBACK MSHR MERGED:          0
L2C TOTAL ACCESSES:    5913634 HITS:    3062280 MISSES:    2851354
L2C LOAD ACCESSES:    3164907 HITS:    1583008 MISSES:    1581899
L2C RFO ACCESSES:      78013 HITS:      45160 MISSES:      32853
L2C PREFETCH ACCESSES:    2527187 HITS:    1296169 MISSES:    1231018
L2C WRITEBACK ACCESSES:     143527 HITS:     137943 MISSES:       5584
L2C RQ ACCESS:    3242920
L2C RQ TO_CACHE:    3242835
L2C RQ MERGED:          0
L2C RQ FORWARD:          0
L2C WQ ACCESS:     143527
L2C WQ TO_CACHE:     143527
L2C WQ MERGED:          0
L2C WQ FORWARD:         85
LLC TOTAL     ACCESS:    2892632  HIT:    1791729  MISS:    1100903
LLC LOAD      ACCESS:    1580939  HIT:    1134189  MISS:     446750
LLC RFO       ACCESS:      32844  HIT:      31757  MISS:       1087
LLC PREFETCH  ACCESS:    1229303  HIT:     578277  MISS:     651026
LLC WRITEBACK ACCESS:      49546  HIT:      47506  MISS:       2040
LLC PREFETCH  REQUESTED:          0  ISSUED:          0  USEFUL:       3014  USELESS:     647974
LLC TOTAL MSHR MERGED:          0
LLC LOAD MSHR MERGED:          0
LLC RFO MSHR MERGED:          0
LLC PREFETCH MSHR MERGED:          0
LLC WRITEBACK MSHR MERGED:          0
LLC TOTAL ACCESSES:    2892641 HITS:    1791738 MISSES:    1100903
LLC LOAD ACCESSES:    1580939 HITS:    1134189 MISSES:     446750
LLC RFO ACCESSES:      32853 HITS:      31766 MISSES:       1087
LLC PREFETCH ACCESSES:    1229303 HITS:     578277 MISSES:     651026
LLC WRITEBACK ACCESSES:      49546 HITS:      47506 MISSES:       2040
LLC 0 RQ ACCESS:    1613792
LLC 0 RQ TO_CACHE:    1613783
LLC 0 RQ MERGED:          0
LLC 0 RQ FORWARD:          0
LLC WQ ACCESS:      49546
LLC WQ TO_CACHE:      49546
LLC WQ MERGED:          0
LLC WQ FORWARD:          9
Major fault: 0 Minor fault: 8460
CPU 0 L1D next line prefetcher final stats
CPU 0 L2C PC-based stride prefetcher final stats
All Misses: 1334373
All Hits: 2094855
SD Algo Stats - Switches: 0 SRR-Repls: 517924 BRR-Repls: 0

DRAM Statistics
 CHANNEL 0
 RQ ROW_BUFFER_HIT:     373842  ROW_BUFFER_MISS:     723976
 DBUS_CONGESTED:     332617
 WQ ROW_BUFFER_HIT:        437  ROW_BUFFER_MISS:       1617  FULL:          0

 AVG_CONGESTED_CYCLE: 12
LOADS RETIRED: 153532848
INSTR RETIRED: 500000000
