
*** ChampSim Multicore Out-of-Order Simulator ***

Warmup Instructions: 100000000
Simulation Instructions: 500000000
Number of CPUs: 1
LLC sets: 2048
LLC ways: 16
Clean RRIP Policies: 1223220112232201 Dirty RRIP Policies: 2213021122130211 PSEL Width: 10 Track Set: 4294967295 PSEL Mask: 1 Demote Mask: 3340011033400110DS Algo: 0Window size: 0
Off-chip DRAM Size: 4096 MB Channels: 1 Width: 64-bit Data Rate: 1600 MT/s

CPU 0 runs /mnt/beegfs/iconst01/spec2017/Gcc.trace.gz
NOT SORTED
TRACE STRING: /mnt/beegfs/iconst01/spec2017/Gcc.trace.gz
SORTED
TRACE STRING: /mnt/beegfs/iconst01/spec2017/Gcc.trace.gz
INITIAL
TRACE STRING: /mnt/beegfs/iconst01/spec2017/Gcc.trace.gz

champsim_seed used: 269

CPU 0 L1D next line prefetcher
CPU 0 L2C IP-based stride prefetcher
Initialize DRRIP state
Assign rand_sets[0]: 454  LLC: 2048
rand_sets[0]: 454
Assign rand_sets[1]: 1662  LLC: 2048
rand_sets[1]: 1662
Assign rand_sets[2]: 1921  LLC: 2048
rand_sets[2]: 1921
Assign rand_sets[3]: 1131  LLC: 2048
rand_sets[3]: 1131
Assign rand_sets[4]: 331  LLC: 2048
rand_sets[4]: 331
Assign rand_sets[5]: 1531  LLC: 2048
rand_sets[5]: 1531
Assign rand_sets[6]: 482  LLC: 2048
rand_sets[6]: 482
Assign rand_sets[7]: 1275  LLC: 2048
rand_sets[7]: 1275
Assign rand_sets[8]: 1876  LLC: 2048
rand_sets[8]: 1876
Assign rand_sets[9]: 2038  LLC: 2048
rand_sets[9]: 2038
Assign rand_sets[10]: 701  LLC: 2048
rand_sets[10]: 701
Assign rand_sets[11]: 479  LLC: 2048
rand_sets[11]: 479
Assign rand_sets[12]: 892  LLC: 2048
rand_sets[12]: 892
Assign rand_sets[13]: 1820  LLC: 2048
rand_sets[13]: 1820
Assign rand_sets[14]: 1505  LLC: 2048
rand_sets[14]: 1505
Assign rand_sets[15]: 1159  LLC: 2048
rand_sets[15]: 1159
Assign rand_sets[16]: 513  LLC: 2048
rand_sets[16]: 513
Assign rand_sets[17]: 703  LLC: 2048
rand_sets[17]: 703
Assign rand_sets[18]: 561  LLC: 2048
rand_sets[18]: 561
Assign rand_sets[19]: 990  LLC: 2048
rand_sets[19]: 990
Assign rand_sets[20]: 342  LLC: 2048
rand_sets[20]: 342
Assign rand_sets[21]: 882  LLC: 2048
rand_sets[21]: 882
Assign rand_sets[22]: 15  LLC: 2048
rand_sets[22]: 15
Assign rand_sets[23]: 71  LLC: 2048
rand_sets[23]: 71
Assign rand_sets[24]: 1127  LLC: 2048
rand_sets[24]: 1127
Assign rand_sets[25]: 1382  LLC: 2048
rand_sets[25]: 1382
Assign rand_sets[26]: 647  LLC: 2048
rand_sets[26]: 647
Assign rand_sets[27]: 857  LLC: 2048
rand_sets[27]: 857
Assign rand_sets[28]: 1450  LLC: 2048
rand_sets[28]: 1450
Assign rand_sets[29]: 1160  LLC: 2048
rand_sets[29]: 1160
Assign rand_sets[30]: 1852  LLC: 2048
rand_sets[30]: 1852
Assign rand_sets[31]: 1881  LLC: 2048
rand_sets[31]: 1881
Assign rand_sets[32]: 1770  LLC: 2048
rand_sets[32]: 1770
Assign rand_sets[33]: 1622  LLC: 2048
rand_sets[33]: 1622
Assign rand_sets[34]: 275  LLC: 2048
rand_sets[34]: 275
Assign rand_sets[35]: 635  LLC: 2048
rand_sets[35]: 635
Assign rand_sets[36]: 466  LLC: 2048
rand_sets[36]: 466
Assign rand_sets[37]: 1413  LLC: 2048
rand_sets[37]: 1413
Assign rand_sets[38]: 417  LLC: 2048
rand_sets[38]: 417
Assign rand_sets[39]: 472  LLC: 2048
rand_sets[39]: 472
Assign rand_sets[40]: 1340  LLC: 2048
rand_sets[40]: 1340
Assign rand_sets[41]: 852  LLC: 2048
rand_sets[41]: 852
Assign rand_sets[42]: 1365  LLC: 2048
rand_sets[42]: 1365
Assign rand_sets[43]: 47  LLC: 2048
rand_sets[43]: 47
Assign rand_sets[44]: 823  LLC: 2048
rand_sets[44]: 823
Assign rand_sets[45]: 686  LLC: 2048
rand_sets[45]: 686
Assign rand_sets[46]: 1637  LLC: 2048
rand_sets[46]: 1637
Assign rand_sets[47]: 1115  LLC: 2048
rand_sets[47]: 1115
Assign rand_sets[48]: 986  LLC: 2048
rand_sets[48]: 986
Assign rand_sets[49]: 258  LLC: 2048
rand_sets[49]: 258
Assign rand_sets[50]: 633  LLC: 2048
rand_sets[50]: 633
Assign rand_sets[51]: 920  LLC: 2048
rand_sets[51]: 920
Assign rand_sets[52]: 204  LLC: 2048
rand_sets[52]: 204
Assign rand_sets[53]: 227  LLC: 2048
rand_sets[53]: 227
Assign rand_sets[54]: 1818  LLC: 2048
rand_sets[54]: 1818
Assign rand_sets[55]: 886  LLC: 2048
rand_sets[55]: 886
Assign rand_sets[56]: 1422  LLC: 2048
rand_sets[56]: 1422
Assign rand_sets[57]: 607  LLC: 2048
rand_sets[57]: 607
Assign rand_sets[58]: 217  LLC: 2048
rand_sets[58]: 217
Assign rand_sets[59]: 1945  LLC: 2048
rand_sets[59]: 1945
Assign rand_sets[60]: 143  LLC: 2048
rand_sets[60]: 143
Assign rand_sets[61]: 1311  LLC: 2048
rand_sets[61]: 1311
Assign rand_sets[62]: 319  LLC: 2048
rand_sets[62]: 319
Assign rand_sets[63]: 1846  LLC: 2048
rand_sets[63]: 1846
 CLEAN-RRIP-POLICY-1: 1-2-2-3-2-2-0-1- CLEAN-RRIP-POLICY-2: 1-2-2-3-2-2-0-1-
 DIRTY-RRIP-POLICY-1: 2-2-1-3-0-2-1-1- DIRTY-RRIP-POLICY-2: 2-2-1-3-0-2-1-1-
 PSEL width: 10
Heartbeat CPU 0 instructions: 10000001 cycles: 7315980 heartbeat IPC: 1.36687 cumulative IPC: 1.36687 (Simulation time: 0 hr 0 min 14 sec) 
Heartbeat CPU 0 instructions: 20000000 cycles: 14307466 heartbeat IPC: 1.43031 cumulative IPC: 1.39787 (Simulation time: 0 hr 0 min 28 sec) 
Heartbeat CPU 0 instructions: 30000001 cycles: 21020327 heartbeat IPC: 1.48968 cumulative IPC: 1.42719 (Simulation time: 0 hr 0 min 43 sec) 
Heartbeat CPU 0 instructions: 40000000 cycles: 27481129 heartbeat IPC: 1.5478 cumulative IPC: 1.45554 (Simulation time: 0 hr 0 min 59 sec) 
Heartbeat CPU 0 instructions: 50000001 cycles: 33582864 heartbeat IPC: 1.63888 cumulative IPC: 1.48885 (Simulation time: 0 hr 1 min 14 sec) 
Heartbeat CPU 0 instructions: 60000000 cycles: 40064034 heartbeat IPC: 1.54293 cumulative IPC: 1.4976 (Simulation time: 0 hr 1 min 29 sec) 
Heartbeat CPU 0 instructions: 70000000 cycles: 47102160 heartbeat IPC: 1.42083 cumulative IPC: 1.48613 (Simulation time: 0 hr 1 min 43 sec) 
Heartbeat CPU 0 instructions: 80000000 cycles: 54191670 heartbeat IPC: 1.41053 cumulative IPC: 1.47624 (Simulation time: 0 hr 1 min 58 sec) 
Heartbeat CPU 0 instructions: 90000003 cycles: 61195975 heartbeat IPC: 1.42769 cumulative IPC: 1.47069 (Simulation time: 0 hr 2 min 12 sec) 
Heartbeat CPU 0 instructions: 100000000 cycles: 68363129 heartbeat IPC: 1.39525 cumulative IPC: 1.46278 (Simulation time: 0 hr 2 min 26 sec) 

Warmup complete CPU 0 instructions: 100000004 cycles: 68363130 (Simulation time: 0 hr 2 min 26 sec) 

Heartbeat CPU 0 instructions: 110000003 cycles: 95984286 heartbeat IPC: 0.362041 cumulative IPC: 0.362041 (Simulation time: 0 hr 2 min 54 sec) 
Heartbeat CPU 0 instructions: 120000000 cycles: 123443708 heartbeat IPC: 0.364174 cumulative IPC: 0.363104 (Simulation time: 0 hr 3 min 22 sec) 
Heartbeat CPU 0 instructions: 130000000 cycles: 148421481 heartbeat IPC: 0.400356 cumulative IPC: 0.374727 (Simulation time: 0 hr 3 min 49 sec) 
Heartbeat CPU 0 instructions: 140000000 cycles: 177862977 heartbeat IPC: 0.339657 cumulative IPC: 0.365297 (Simulation time: 0 hr 4 min 16 sec) 
Heartbeat CPU 0 instructions: 150000000 cycles: 207681789 heartbeat IPC: 0.335359 cumulative IPC: 0.358889 (Simulation time: 0 hr 4 min 44 sec) 
Heartbeat CPU 0 instructions: 160000000 cycles: 235086811 heartbeat IPC: 0.364897 cumulative IPC: 0.359877 (Simulation time: 0 hr 5 min 11 sec) 
Heartbeat CPU 0 instructions: 170000001 cycles: 263102686 heartbeat IPC: 0.356941 cumulative IPC: 0.359454 (Simulation time: 0 hr 5 min 40 sec) 
Heartbeat CPU 0 instructions: 180000000 cycles: 291527822 heartbeat IPC: 0.351801 cumulative IPC: 0.35848 (Simulation time: 0 hr 6 min 8 sec) 
Heartbeat CPU 0 instructions: 190000002 cycles: 319517932 heartbeat IPC: 0.357269 cumulative IPC: 0.358345 (Simulation time: 0 hr 6 min 36 sec) 
Heartbeat CPU 0 instructions: 200000000 cycles: 347835011 heartbeat IPC: 0.353144 cumulative IPC: 0.357818 (Simulation time: 0 hr 7 min 4 sec) 
Heartbeat CPU 0 instructions: 210000002 cycles: 375647192 heartbeat IPC: 0.359555 cumulative IPC: 0.357975 (Simulation time: 0 hr 7 min 32 sec) 
Heartbeat CPU 0 instructions: 220000000 cycles: 404711192 heartbeat IPC: 0.344068 cumulative IPC: 0.356773 (Simulation time: 0 hr 7 min 58 sec) 
Heartbeat CPU 0 instructions: 230000000 cycles: 432220536 heartbeat IPC: 0.363513 cumulative IPC: 0.357283 (Simulation time: 0 hr 8 min 25 sec) 
Heartbeat CPU 0 instructions: 240000000 cycles: 458120090 heartbeat IPC: 0.386107 cumulative IPC: 0.359198 (Simulation time: 0 hr 8 min 51 sec) 
Heartbeat CPU 0 instructions: 250000000 cycles: 488246816 heartbeat IPC: 0.331931 cumulative IPC: 0.357242 (Simulation time: 0 hr 9 min 20 sec) 
Heartbeat CPU 0 instructions: 260000000 cycles: 515351481 heartbeat IPC: 0.36894 cumulative IPC: 0.357951 (Simulation time: 0 hr 9 min 48 sec) 
Heartbeat CPU 0 instructions: 270000003 cycles: 543784437 heartbeat IPC: 0.351705 cumulative IPC: 0.357578 (Simulation time: 0 hr 10 min 16 sec) 
Heartbeat CPU 0 instructions: 280000000 cycles: 571963660 heartbeat IPC: 0.354871 cumulative IPC: 0.357426 (Simulation time: 0 hr 10 min 45 sec) 
Heartbeat CPU 0 instructions: 290000000 cycles: 600844053 heartbeat IPC: 0.346256 cumulative IPC: 0.35682 (Simulation time: 0 hr 11 min 14 sec) 
Heartbeat CPU 0 instructions: 300000000 cycles: 630707148 heartbeat IPC: 0.334861 cumulative IPC: 0.355654 (Simulation time: 0 hr 11 min 41 sec) 
Heartbeat CPU 0 instructions: 310000001 cycles: 660061195 heartbeat IPC: 0.340669 cumulative IPC: 0.354911 (Simulation time: 0 hr 12 min 9 sec) 
Heartbeat CPU 0 instructions: 320000000 cycles: 688234162 heartbeat IPC: 0.35495 cumulative IPC: 0.354913 (Simulation time: 0 hr 12 min 36 sec) 
Heartbeat CPU 0 instructions: 330000000 cycles: 716832401 heartbeat IPC: 0.349672 cumulative IPC: 0.354681 (Simulation time: 0 hr 13 min 2 sec) 
Heartbeat CPU 0 instructions: 340000000 cycles: 746089572 heartbeat IPC: 0.341797 cumulative IPC: 0.354125 (Simulation time: 0 hr 13 min 29 sec) 
Heartbeat CPU 0 instructions: 350000003 cycles: 773094950 heartbeat IPC: 0.370297 cumulative IPC: 0.354745 (Simulation time: 0 hr 13 min 56 sec) 
Heartbeat CPU 0 instructions: 360000000 cycles: 801180005 heartbeat IPC: 0.356061 cumulative IPC: 0.354795 (Simulation time: 0 hr 14 min 21 sec) 
Heartbeat CPU 0 instructions: 370000000 cycles: 829375500 heartbeat IPC: 0.354667 cumulative IPC: 0.354791 (Simulation time: 0 hr 14 min 47 sec) 
Heartbeat CPU 0 instructions: 380000000 cycles: 857890981 heartbeat IPC: 0.350687 cumulative IPC: 0.354642 (Simulation time: 0 hr 15 min 13 sec) 
Heartbeat CPU 0 instructions: 390000001 cycles: 885508553 heartbeat IPC: 0.362088 cumulative IPC: 0.354894 (Simulation time: 0 hr 15 min 38 sec) 
Heartbeat CPU 0 instructions: 400000000 cycles: 914140710 heartbeat IPC: 0.349258 cumulative IPC: 0.354703 (Simulation time: 0 hr 16 min 4 sec) 
Heartbeat CPU 0 instructions: 410000001 cycles: 941451138 heartbeat IPC: 0.366161 cumulative IPC: 0.355062 (Simulation time: 0 hr 16 min 29 sec) 
Heartbeat CPU 0 instructions: 420000000 cycles: 968776315 heartbeat IPC: 0.365963 cumulative IPC: 0.355392 (Simulation time: 0 hr 16 min 54 sec) 
Heartbeat CPU 0 instructions: 430000002 cycles: 996462666 heartbeat IPC: 0.361189 cumulative IPC: 0.355565 (Simulation time: 0 hr 17 min 19 sec) 
Heartbeat CPU 0 instructions: 440000000 cycles: 1025956115 heartbeat IPC: 0.339058 cumulative IPC: 0.355057 (Simulation time: 0 hr 17 min 44 sec) 
Heartbeat CPU 0 instructions: 450000002 cycles: 1055181512 heartbeat IPC: 0.342168 cumulative IPC: 0.354675 (Simulation time: 0 hr 18 min 10 sec) 
Heartbeat CPU 0 instructions: 460000000 cycles: 1082877121 heartbeat IPC: 0.361068 cumulative IPC: 0.35485 (Simulation time: 0 hr 18 min 34 sec) 
Heartbeat CPU 0 instructions: 470000000 cycles: 1110519190 heartbeat IPC: 0.361767 cumulative IPC: 0.355033 (Simulation time: 0 hr 18 min 59 sec) 
Heartbeat CPU 0 instructions: 480000000 cycles: 1138408060 heartbeat IPC: 0.358566 cumulative IPC: 0.355125 (Simulation time: 0 hr 19 min 24 sec) 
Heartbeat CPU 0 instructions: 490000000 cycles: 1166000968 heartbeat IPC: 0.362412 cumulative IPC: 0.355308 (Simulation time: 0 hr 19 min 49 sec) 
Heartbeat CPU 0 instructions: 500000000 cycles: 1194288139 heartbeat IPC: 0.353517 cumulative IPC: 0.355263 (Simulation time: 0 hr 20 min 14 sec) 
Heartbeat CPU 0 instructions: 510000000 cycles: 1228809214 heartbeat IPC: 0.289678 cumulative IPC: 0.353312 (Simulation time: 0 hr 20 min 42 sec) 
Heartbeat CPU 0 instructions: 520000000 cycles: 1256778616 heartbeat IPC: 0.357534 cumulative IPC: 0.353412 (Simulation time: 0 hr 21 min 8 sec) 
Heartbeat CPU 0 instructions: 530000001 cycles: 1286011911 heartbeat IPC: 0.342076 cumulative IPC: 0.35314 (Simulation time: 0 hr 21 min 34 sec) 
Heartbeat CPU 0 instructions: 540000000 cycles: 1314002801 heartbeat IPC: 0.357259 cumulative IPC: 0.353232 (Simulation time: 0 hr 22 min 0 sec) 
Heartbeat CPU 0 instructions: 550000001 cycles: 1343181395 heartbeat IPC: 0.342717 cumulative IPC: 0.352991 (Simulation time: 0 hr 22 min 27 sec) 
Heartbeat CPU 0 instructions: 560000000 cycles: 1368543067 heartbeat IPC: 0.394296 cumulative IPC: 0.353797 (Simulation time: 0 hr 22 min 53 sec) 
Heartbeat CPU 0 instructions: 570000000 cycles: 1397982668 heartbeat IPC: 0.339679 cumulative IPC: 0.353485 (Simulation time: 0 hr 23 min 19 sec) 
Heartbeat CPU 0 instructions: 580000000 cycles: 1425917303 heartbeat IPC: 0.357979 cumulative IPC: 0.353577 (Simulation time: 0 hr 23 min 45 sec) 
Heartbeat CPU 0 instructions: 590000001 cycles: 1450665080 heartbeat IPC: 0.404077 cumulative IPC: 0.354481 (Simulation time: 0 hr 24 min 10 sec) 
Heartbeat CPU 0 instructions: 600000000 cycles: 1476760470 heartbeat IPC: 0.383209 cumulative IPC: 0.355013 (Simulation time: 0 hr 24 min 35 sec) 
Finished CPU 0 instructions: 500000000 cycles: 1408397362 cumulative IPC: 0.355013 (Simulation time: 0 hr 24 min 35 sec) 

CPU 0 Branch Prediction Accuracy: 86.4311% MPKI: 26.2662
Number of Branches: 96788573 Number of Mispredictions: 13133102
Number of LOAD Instructions: 164682285
Number of LOAD Instructions (ROI): 164682285
Number of STORE Instructions: 78194750
Number of STORE Instructions (ROI): 78194750
Total Destination Memory Operands: 83268534
Total Destination Memory Operands (ROI): 83268534
Total Source Memory Operands: 164712438
Total Source Memory Operands (ROI): 164712438
Number of DEPENDED LOADS: 7058952
Number of DEPENDED LOADS (ROI): 7058952
Number of SQ_ADDED: 83268522
Number of SQ_ADDED (ROI): 83268522
Number of LQ_ADDED: 236786590
Number of LQ_ADDED (ROI): 236786590
Number of Instructions read from trace: 600000066

ChampSim completed all CPUs

Region of Interest Statistics

CPU 0 cumulative IPC: 0.355013 instructions: 500000000 cycles: 1408397362
ITLB TOTAL     ACCESS:  100518185  HIT:  100313739  MISS:     204446
ITLB LOAD      ACCESS:  100518185  HIT:  100313739  MISS:     204446
ITLB RFO       ACCESS:          0  HIT:          0  MISS:          0
ITLB PREFETCH  ACCESS:          0  HIT:          0  MISS:          0
ITLB WRITEBACK ACCESS:          0  HIT:          0  MISS:          0
ITLB PREFETCH  REQUESTED:          0  ISSUED:          0  USEFUL:          0  USELESS:          0
ITLB TOTAL MSHR MERGED:     172424
ITLB LOAD MSHR MERGED:     172424
ITLB RFO MSHR MERGED:          0
ITLB PREFETCH MSHR MERGED:          0
ITLB WRITEBACK MSHR MERGED:          0
ITLB TOTAL ACCESSES:  100690609 HITS:  100313739 MISSES:     376870
ITLB LOAD ACCESSES:  100690609 HITS:  100313739 MISSES:     376870
ITLB RFO ACCESSES:          0 HITS:          0 MISSES:          0
ITLB PREFETCH ACCESSES:          0 HITS:          0 MISSES:          0
ITLB WRITEBACK ACCESSES:          0 HITS:          0 MISSES:          0
ITLB RQ ACCESS:  500000057
ITLB RQ TO_CACHE:  100690609
ITLB RQ MERGED:  399309448
ITLB RQ FORWARD:          0
ITLB WQ ACCESS:          0
ITLB WQ TO_CACHE:          0
ITLB WQ MERGED:          0
ITLB WQ FORWARD:          0
DTLB TOTAL     ACCESS:  165336764  HIT:  164702412  MISS:     634352
DTLB LOAD      ACCESS:  106292519  HIT:  105722556  MISS:     569963
DTLB RFO       ACCESS:   59044245  HIT:   58979856  MISS:      64389
DTLB PREFETCH  ACCESS:          0  HIT:          0  MISS:          0
DTLB WRITEBACK ACCESS:          0  HIT:          0  MISS:          0
DTLB PREFETCH  REQUESTED:          0  ISSUED:          0  USEFUL:          0  USELESS:          0
DTLB TOTAL MSHR MERGED:      99971
DTLB LOAD MSHR MERGED:      59442
DTLB RFO MSHR MERGED:      40529
DTLB PREFETCH MSHR MERGED:          0
DTLB WRITEBACK MSHR MERGED:          0
DTLB TOTAL ACCESSES:  165436735 HITS:  164702412 MISSES:     734323
DTLB LOAD ACCESSES:  106351961 HITS:  105722556 MISSES:     629405
DTLB RFO ACCESSES:   59084774 HITS:   58979856 MISSES:     104918
DTLB PREFETCH ACCESSES:          0 HITS:          0 MISSES:          0
DTLB WRITEBACK ACCESSES:          0 HITS:          0 MISSES:          0
DTLB RQ ACCESS:  200311924
DTLB RQ TO_CACHE:  165436735
DTLB RQ MERGED:   34875189
DTLB RQ FORWARD:          0
DTLB WQ ACCESS:          0
DTLB WQ TO_CACHE:          0
DTLB WQ MERGED:          0
DTLB WQ FORWARD:          0
L1D TOTAL     ACCESS:  281806656  HIT:  273897372  MISS:    7909284
L1D LOAD      ACCESS:  110413087  HIT:  107132737  MISS:    3280350
L1D RFO       ACCESS:   67113463  HIT:   66222646  MISS:     890817
L1D PREFETCH  ACCESS:  104280106  HIT:  100541989  MISS:    3738117
L1D WRITEBACK ACCESS:          0  HIT:          0  MISS:          0
L1D PREFETCH  REQUESTED:  110817994  ISSUED:  109118704  USEFUL:    1658894  USELESS:    2079187
L1D TOTAL MSHR MERGED:    2899063
L1D LOAD MSHR MERGED:     504721
L1D RFO MSHR MERGED:    1872641
L1D PREFETCH MSHR MERGED:     521701
L1D WRITEBACK MSHR MERGED:          0
L1D TOTAL ACCESSES:  284733196 HITS:  273924849 MISSES:   10808347
L1D LOAD ACCESSES:  110819480 HITS:  107134223 MISSES:    3685257
L1D RFO ACCESSES:   68974077 HITS:   66222646 MISSES:    2751431
L1D PREFETCH ACCESSES:  104939639 HITS:  100567980 MISSES:    4371659
L1D WRITEBACK ACCESSES:          0 HITS:          0 MISSES:          0
L1D RQ ACCESS:  130759321
L1D RQ TO_CACHE:  110817997
L1D RQ MERGED:   19939838
L1D RQ FORWARD:          0
L1D WQ ACCESS:   69552603
L1D WQ TO_CACHE:   68974078
L1D WQ MERGED:     578525
L1D WQ FORWARD:      27477
L1I TOTAL     ACCESS:  126565563  HIT:  122327010  MISS:    4238553
L1I LOAD      ACCESS:  126565563  HIT:  122327010  MISS:    4238553
L1I RFO       ACCESS:          0  HIT:          0  MISS:          0
L1I PREFETCH  ACCESS:          0  HIT:          0  MISS:          0
L1I WRITEBACK ACCESS:          0  HIT:          0  MISS:          0
L1I PREFETCH  REQUESTED:          0  ISSUED:          0  USEFUL:          0  USELESS:          0
L1I TOTAL MSHR MERGED:    1834544
L1I LOAD MSHR MERGED:    1834544
L1I RFO MSHR MERGED:          0
L1I PREFETCH MSHR MERGED:          0
L1I WRITEBACK MSHR MERGED:          0
L1I TOTAL ACCESSES:  128400110 HITS:  122327010 MISSES:    6073100
L1I LOAD ACCESSES:  128400110 HITS:  122327010 MISSES:    6073100
L1I RFO ACCESSES:          0 HITS:          0 MISSES:          0
L1I PREFETCH ACCESSES:          0 HITS:          0 MISSES:          0
L1I WRITEBACK ACCESSES:          0 HITS:          0 MISSES:          0
L1I RQ ACCESS:  500000057
L1I RQ TO_CACHE:  128400110
L1I RQ MERGED:  371599947
L1I RQ FORWARD:          0
L1I WQ ACCESS:          0
L1I WQ TO_CACHE:          0
L1I WQ MERGED:          0
L1I WQ FORWARD:          0
L2C TOTAL     ACCESS:   14904615  HIT:   11158252  MISS:    3746363
L2C LOAD      ACCESS:    7418879  HIT:    5098782  MISS:    2320097
L2C RFO       ACCESS:     878692  HIT:     409908  MISS:     468784
L2C PREFETCH  ACCESS:    4567813  HIT:    3627585  MISS:     940228
L2C WRITEBACK ACCESS:    2039231  HIT:    2021977  MISS:      17254
L2C PREFETCH  REQUESTED:     842753  ISSUED:     842753  USEFUL:     203239  USELESS:     736695
L2C TOTAL MSHR MERGED:       7581
L2C LOAD MSHR MERGED:        923
L2C RFO MSHR MERGED:          0
L2C PREFETCH MSHR MERGED:       6658
L2C WRITEBACK MSHR MERGED:          0
L2C TOTAL ACCESSES:   14913096 HITS:   11158703 MISSES:    3754393
L2C LOAD ACCESSES:    7419089 HITS:    5098992 MISSES:    2320097
L2C RFO ACCESSES:     878790 HITS:     410006 MISSES:     468784
L2C PREFETCH ACCESSES:    4575986 HITS:    3627728 MISSES:     948258
L2C WRITEBACK ACCESSES:    2039231 HITS:    2021977 MISSES:      17254
L2C RQ ACCESS:    8297882
L2C RQ TO_CACHE:    8297574
L2C RQ MERGED:          0
L2C RQ FORWARD:          0
L2C WQ ACCESS:    2039231
L2C WQ TO_CACHE:    2039231
L2C WQ MERGED:          0
L2C WQ FORWARD:        451
LLC TOTAL     ACCESS:    4609657  HIT:    3931913  MISS:     677744
LLC LOAD      ACCESS:    2319160  HIT:    2090585  MISS:     228575
LLC RFO       ACCESS:     468773  HIT:     395432  MISS:      73341
LLC PREFETCH  ACCESS:     941481  HIT:     610282  MISS:     331199
LLC WRITEBACK ACCESS:     880243  HIT:     835614  MISS:      44629
LLC PREFETCH  REQUESTED:          0  ISSUED:          0  USEFUL:      15341  USELESS:     316123
LLC TOTAL MSHR MERGED:         99
LLC LOAD MSHR MERGED:         29
LLC RFO MSHR MERGED:          0
LLC PREFETCH MSHR MERGED:         70
LLC WRITEBACK MSHR MERGED:          0
LLC TOTAL ACCESSES:    4609791 HITS:    3931948 MISSES:     677843
LLC LOAD ACCESSES:    2319174 HITS:    2090599 MISSES:     228575
LLC RFO ACCESSES:     468784 HITS:     395443 MISSES:      73341
LLC PREFETCH ACCESSES:     941590 HITS:     610292 MISSES:     331298
LLC WRITEBACK ACCESSES:     880243 HITS:     835614 MISSES:      44629
LLC 0 RQ ACCESS:    2787958
LLC 0 RQ TO_CACHE:    2787933
LLC 0 RQ MERGED:          0
LLC 0 RQ FORWARD:          0
LLC WQ ACCESS:     880243
LLC WQ TO_CACHE:     880243
LLC WQ MERGED:          0
LLC WQ FORWARD:         35
Major fault: 0 Minor fault: 12862
CPU 0 L1D next line prefetcher final stats
CPU 0 L2C PC-based stride prefetcher final stats
All Misses: 803276
All Hits: 4623387
SD Algo Stats - Switches: 0 SRR-Repls: 268734 BRR-Repls: 0

DRAM Statistics
 CHANNEL 0
 RQ ROW_BUFFER_HIT:     123466  ROW_BUFFER_MISS:     508113
 DBUS_CONGESTED:     352421
 WQ ROW_BUFFER_HIT:      13508  ROW_BUFFER_MISS:     178290  FULL:          0

 AVG_CONGESTED_CYCLE: 13
LOADS RETIRED: 136549171
INSTR RETIRED: 500000000
