
*** ChampSim Multicore Out-of-Order Simulator ***

Warmup Instructions: 100000000
Simulation Instructions: 500000000
Number of CPUs: 1
LLC sets: 2048
LLC ways: 16
Clean RRIP Policies: 2212230222122302 Dirty RRIP Policies: 1222130212221302 PSEL Width: 10 Track Set: 4294967295 PSEL Mask: 1 Demote Mask: 3040100030401000DS Algo: 0Window size: 0
Off-chip DRAM Size: 4096 MB Channels: 1 Width: 64-bit Data Rate: 1600 MT/s

CPU 0 runs /mnt/beegfs/iconst01/spec2017/cactuBSSN.trace.gz
NOT SORTED
TRACE STRING: /mnt/beegfs/iconst01/spec2017/cactuBSSN.trace.gz
SORTED
TRACE STRING: /mnt/beegfs/iconst01/spec2017/cactuBSSN.trace.gz
INITIAL
TRACE STRING: /mnt/beegfs/iconst01/spec2017/cactuBSSN.trace.gz

champsim_seed used: 838

CPU 0 L1D next line prefetcher
CPU 0 L2C IP-based stride prefetcher
Initialize DRRIP state
Assign rand_sets[0]: 454  LLC: 2048
rand_sets[0]: 454
Assign rand_sets[1]: 1662  LLC: 2048
rand_sets[1]: 1662
Assign rand_sets[2]: 1921  LLC: 2048
rand_sets[2]: 1921
Assign rand_sets[3]: 1131  LLC: 2048
rand_sets[3]: 1131
Assign rand_sets[4]: 331  LLC: 2048
rand_sets[4]: 331
Assign rand_sets[5]: 1531  LLC: 2048
rand_sets[5]: 1531
Assign rand_sets[6]: 482  LLC: 2048
rand_sets[6]: 482
Assign rand_sets[7]: 1275  LLC: 2048
rand_sets[7]: 1275
Assign rand_sets[8]: 1876  LLC: 2048
rand_sets[8]: 1876
Assign rand_sets[9]: 2038  LLC: 2048
rand_sets[9]: 2038
Assign rand_sets[10]: 701  LLC: 2048
rand_sets[10]: 701
Assign rand_sets[11]: 479  LLC: 2048
rand_sets[11]: 479
Assign rand_sets[12]: 892  LLC: 2048
rand_sets[12]: 892
Assign rand_sets[13]: 1820  LLC: 2048
rand_sets[13]: 1820
Assign rand_sets[14]: 1505  LLC: 2048
rand_sets[14]: 1505
Assign rand_sets[15]: 1159  LLC: 2048
rand_sets[15]: 1159
Assign rand_sets[16]: 513  LLC: 2048
rand_sets[16]: 513
Assign rand_sets[17]: 703  LLC: 2048
rand_sets[17]: 703
Assign rand_sets[18]: 561  LLC: 2048
rand_sets[18]: 561
Assign rand_sets[19]: 990  LLC: 2048
rand_sets[19]: 990
Assign rand_sets[20]: 342  LLC: 2048
rand_sets[20]: 342
Assign rand_sets[21]: 882  LLC: 2048
rand_sets[21]: 882
Assign rand_sets[22]: 15  LLC: 2048
rand_sets[22]: 15
Assign rand_sets[23]: 71  LLC: 2048
rand_sets[23]: 71
Assign rand_sets[24]: 1127  LLC: 2048
rand_sets[24]: 1127
Assign rand_sets[25]: 1382  LLC: 2048
rand_sets[25]: 1382
Assign rand_sets[26]: 647  LLC: 2048
rand_sets[26]: 647
Assign rand_sets[27]: 857  LLC: 2048
rand_sets[27]: 857
Assign rand_sets[28]: 1450  LLC: 2048
rand_sets[28]: 1450
Assign rand_sets[29]: 1160  LLC: 2048
rand_sets[29]: 1160
Assign rand_sets[30]: 1852  LLC: 2048
rand_sets[30]: 1852
Assign rand_sets[31]: 1881  LLC: 2048
rand_sets[31]: 1881
Assign rand_sets[32]: 1770  LLC: 2048
rand_sets[32]: 1770
Assign rand_sets[33]: 1622  LLC: 2048
rand_sets[33]: 1622
Assign rand_sets[34]: 275  LLC: 2048
rand_sets[34]: 275
Assign rand_sets[35]: 635  LLC: 2048
rand_sets[35]: 635
Assign rand_sets[36]: 466  LLC: 2048
rand_sets[36]: 466
Assign rand_sets[37]: 1413  LLC: 2048
rand_sets[37]: 1413
Assign rand_sets[38]: 417  LLC: 2048
rand_sets[38]: 417
Assign rand_sets[39]: 472  LLC: 2048
rand_sets[39]: 472
Assign rand_sets[40]: 1340  LLC: 2048
rand_sets[40]: 1340
Assign rand_sets[41]: 852  LLC: 2048
rand_sets[41]: 852
Assign rand_sets[42]: 1365  LLC: 2048
rand_sets[42]: 1365
Assign rand_sets[43]: 47  LLC: 2048
rand_sets[43]: 47
Assign rand_sets[44]: 823  LLC: 2048
rand_sets[44]: 823
Assign rand_sets[45]: 686  LLC: 2048
rand_sets[45]: 686
Assign rand_sets[46]: 1637  LLC: 2048
rand_sets[46]: 1637
Assign rand_sets[47]: 1115  LLC: 2048
rand_sets[47]: 1115
Assign rand_sets[48]: 986  LLC: 2048
rand_sets[48]: 986
Assign rand_sets[49]: 258  LLC: 2048
rand_sets[49]: 258
Assign rand_sets[50]: 633  LLC: 2048
rand_sets[50]: 633
Assign rand_sets[51]: 920  LLC: 2048
rand_sets[51]: 920
Assign rand_sets[52]: 204  LLC: 2048
rand_sets[52]: 204
Assign rand_sets[53]: 227  LLC: 2048
rand_sets[53]: 227
Assign rand_sets[54]: 1818  LLC: 2048
rand_sets[54]: 1818
Assign rand_sets[55]: 886  LLC: 2048
rand_sets[55]: 886
Assign rand_sets[56]: 1422  LLC: 2048
rand_sets[56]: 1422
Assign rand_sets[57]: 607  LLC: 2048
rand_sets[57]: 607
Assign rand_sets[58]: 217  LLC: 2048
rand_sets[58]: 217
Assign rand_sets[59]: 1945  LLC: 2048
rand_sets[59]: 1945
Assign rand_sets[60]: 143  LLC: 2048
rand_sets[60]: 143
Assign rand_sets[61]: 1311  LLC: 2048
rand_sets[61]: 1311
Assign rand_sets[62]: 319  LLC: 2048
rand_sets[62]: 319
Assign rand_sets[63]: 1846  LLC: 2048
rand_sets[63]: 1846
 CLEAN-RRIP-POLICY-1: 2-2-1-2-2-3-0-2- CLEAN-RRIP-POLICY-2: 2-2-1-2-2-3-0-2-
 DIRTY-RRIP-POLICY-1: 1-2-2-2-1-3-0-2- DIRTY-RRIP-POLICY-2: 1-2-2-2-1-3-0-2-
 PSEL width: 10
Heartbeat CPU 0 instructions: 10000000 cycles: 6587903 heartbeat IPC: 1.51793 cumulative IPC: 1.51793 (Simulation time: 0 hr 0 min 25 sec) 
Heartbeat CPU 0 instructions: 20000000 cycles: 13179348 heartbeat IPC: 1.51712 cumulative IPC: 1.51753 (Simulation time: 0 hr 0 min 50 sec) 
Heartbeat CPU 0 instructions: 30000003 cycles: 19772519 heartbeat IPC: 1.51672 cumulative IPC: 1.51726 (Simulation time: 0 hr 1 min 14 sec) 
Heartbeat CPU 0 instructions: 40000000 cycles: 26364002 heartbeat IPC: 1.51711 cumulative IPC: 1.51722 (Simulation time: 0 hr 1 min 39 sec) 
Heartbeat CPU 0 instructions: 50000001 cycles: 32956426 heartbeat IPC: 1.51689 cumulative IPC: 1.51715 (Simulation time: 0 hr 2 min 3 sec) 
Heartbeat CPU 0 instructions: 60000000 cycles: 39554896 heartbeat IPC: 1.5155 cumulative IPC: 1.51688 (Simulation time: 0 hr 2 min 28 sec) 
Heartbeat CPU 0 instructions: 70000003 cycles: 46153077 heartbeat IPC: 1.51557 cumulative IPC: 1.51669 (Simulation time: 0 hr 2 min 52 sec) 
Heartbeat CPU 0 instructions: 80000000 cycles: 52751006 heartbeat IPC: 1.51563 cumulative IPC: 1.51656 (Simulation time: 0 hr 3 min 17 sec) 
Heartbeat CPU 0 instructions: 90000002 cycles: 59346261 heartbeat IPC: 1.51624 cumulative IPC: 1.51652 (Simulation time: 0 hr 3 min 41 sec) 
Heartbeat CPU 0 instructions: 100000000 cycles: 65940960 heartbeat IPC: 1.51637 cumulative IPC: 1.51651 (Simulation time: 0 hr 4 min 6 sec) 

Warmup complete CPU 0 instructions: 100000002 cycles: 65940961 (Simulation time: 0 hr 4 min 6 sec) 

Heartbeat CPU 0 instructions: 110000000 cycles: 79092388 heartbeat IPC: 0.760374 cumulative IPC: 0.760374 (Simulation time: 0 hr 4 min 36 sec) 
Heartbeat CPU 0 instructions: 120000000 cycles: 92218920 heartbeat IPC: 0.761816 cumulative IPC: 0.761094 (Simulation time: 0 hr 5 min 6 sec) 
Heartbeat CPU 0 instructions: 130000001 cycles: 105402793 heartbeat IPC: 0.758503 cumulative IPC: 0.760228 (Simulation time: 0 hr 5 min 36 sec) 
Heartbeat CPU 0 instructions: 140000000 cycles: 118501496 heartbeat IPC: 0.763434 cumulative IPC: 0.761027 (Simulation time: 0 hr 6 min 6 sec) 
Heartbeat CPU 0 instructions: 150000001 cycles: 131604464 heartbeat IPC: 0.763186 cumulative IPC: 0.761458 (Simulation time: 0 hr 6 min 35 sec) 
Heartbeat CPU 0 instructions: 160000000 cycles: 144760724 heartbeat IPC: 0.760094 cumulative IPC: 0.76123 (Simulation time: 0 hr 7 min 5 sec) 
Heartbeat CPU 0 instructions: 170000000 cycles: 157875558 heartbeat IPC: 0.762495 cumulative IPC: 0.761411 (Simulation time: 0 hr 7 min 35 sec) 
Heartbeat CPU 0 instructions: 180000000 cycles: 170985080 heartbeat IPC: 0.762804 cumulative IPC: 0.761585 (Simulation time: 0 hr 8 min 5 sec) 
Heartbeat CPU 0 instructions: 190000000 cycles: 184087098 heartbeat IPC: 0.763241 cumulative IPC: 0.761768 (Simulation time: 0 hr 8 min 35 sec) 
Heartbeat CPU 0 instructions: 200000000 cycles: 197249402 heartbeat IPC: 0.759745 cumulative IPC: 0.761566 (Simulation time: 0 hr 9 min 5 sec) 
Heartbeat CPU 0 instructions: 210000002 cycles: 210365056 heartbeat IPC: 0.762448 cumulative IPC: 0.761646 (Simulation time: 0 hr 9 min 35 sec) 
Heartbeat CPU 0 instructions: 220000000 cycles: 223470860 heartbeat IPC: 0.763021 cumulative IPC: 0.76176 (Simulation time: 0 hr 10 min 5 sec) 
Heartbeat CPU 0 instructions: 230000003 cycles: 236627751 heartbeat IPC: 0.760058 cumulative IPC: 0.761629 (Simulation time: 0 hr 10 min 35 sec) 
Heartbeat CPU 0 instructions: 240000000 cycles: 249749624 heartbeat IPC: 0.762086 cumulative IPC: 0.761662 (Simulation time: 0 hr 11 min 5 sec) 
Heartbeat CPU 0 instructions: 250000001 cycles: 262888580 heartbeat IPC: 0.761096 cumulative IPC: 0.761624 (Simulation time: 0 hr 11 min 35 sec) 
Heartbeat CPU 0 instructions: 260000000 cycles: 276005327 heartbeat IPC: 0.762384 cumulative IPC: 0.761671 (Simulation time: 0 hr 12 min 5 sec) 
Heartbeat CPU 0 instructions: 270000003 cycles: 289175146 heartbeat IPC: 0.759312 cumulative IPC: 0.761532 (Simulation time: 0 hr 12 min 34 sec) 
Heartbeat CPU 0 instructions: 280000000 cycles: 302312624 heartbeat IPC: 0.761181 cumulative IPC: 0.761513 (Simulation time: 0 hr 13 min 4 sec) 
Heartbeat CPU 0 instructions: 290000000 cycles: 315428748 heartbeat IPC: 0.76242 cumulative IPC: 0.76156 (Simulation time: 0 hr 13 min 34 sec) 
Heartbeat CPU 0 instructions: 300000000 cycles: 328587063 heartbeat IPC: 0.759976 cumulative IPC: 0.761481 (Simulation time: 0 hr 14 min 4 sec) 
Heartbeat CPU 0 instructions: 310000001 cycles: 341695657 heartbeat IPC: 0.762858 cumulative IPC: 0.761546 (Simulation time: 0 hr 14 min 34 sec) 
Heartbeat CPU 0 instructions: 320000000 cycles: 354812512 heartbeat IPC: 0.762378 cumulative IPC: 0.761584 (Simulation time: 0 hr 15 min 4 sec) 
Heartbeat CPU 0 instructions: 330000002 cycles: 367939968 heartbeat IPC: 0.761762 cumulative IPC: 0.761592 (Simulation time: 0 hr 15 min 33 sec) 
Heartbeat CPU 0 instructions: 340000000 cycles: 381106980 heartbeat IPC: 0.759474 cumulative IPC: 0.761503 (Simulation time: 0 hr 16 min 3 sec) 
Heartbeat CPU 0 instructions: 350000000 cycles: 394253981 heartbeat IPC: 0.76063 cumulative IPC: 0.761468 (Simulation time: 0 hr 16 min 33 sec) 
Heartbeat CPU 0 instructions: 360000000 cycles: 407408993 heartbeat IPC: 0.760167 cumulative IPC: 0.761418 (Simulation time: 0 hr 17 min 2 sec) 
Heartbeat CPU 0 instructions: 370000002 cycles: 420598690 heartbeat IPC: 0.758168 cumulative IPC: 0.761297 (Simulation time: 0 hr 17 min 32 sec) 
Heartbeat CPU 0 instructions: 380000000 cycles: 433712684 heartbeat IPC: 0.762544 cumulative IPC: 0.761342 (Simulation time: 0 hr 18 min 2 sec) 
Heartbeat CPU 0 instructions: 390000000 cycles: 446807682 heartbeat IPC: 0.76365 cumulative IPC: 0.761421 (Simulation time: 0 hr 18 min 32 sec) 
Heartbeat CPU 0 instructions: 400000000 cycles: 459913389 heartbeat IPC: 0.763026 cumulative IPC: 0.761475 (Simulation time: 0 hr 19 min 1 sec) 
Heartbeat CPU 0 instructions: 410000001 cycles: 473069195 heartbeat IPC: 0.760121 cumulative IPC: 0.761431 (Simulation time: 0 hr 19 min 31 sec) 
Heartbeat CPU 0 instructions: 420000000 cycles: 486169155 heartbeat IPC: 0.763361 cumulative IPC: 0.761491 (Simulation time: 0 hr 20 min 1 sec) 
Heartbeat CPU 0 instructions: 430000001 cycles: 499280053 heartbeat IPC: 0.762724 cumulative IPC: 0.761528 (Simulation time: 0 hr 20 min 30 sec) 
Heartbeat CPU 0 instructions: 440000000 cycles: 512384606 heartbeat IPC: 0.763093 cumulative IPC: 0.761574 (Simulation time: 0 hr 21 min 0 sec) 
Heartbeat CPU 0 instructions: 450000002 cycles: 525577278 heartbeat IPC: 0.757997 cumulative IPC: 0.761472 (Simulation time: 0 hr 21 min 30 sec) 
Heartbeat CPU 0 instructions: 460000000 cycles: 538697827 heartbeat IPC: 0.762163 cumulative IPC: 0.761491 (Simulation time: 0 hr 21 min 59 sec) 
Heartbeat CPU 0 instructions: 470000003 cycles: 551825703 heartbeat IPC: 0.761738 cumulative IPC: 0.761497 (Simulation time: 0 hr 22 min 29 sec) 
Heartbeat CPU 0 instructions: 480000000 cycles: 565001291 heartbeat IPC: 0.758979 cumulative IPC: 0.761431 (Simulation time: 0 hr 22 min 59 sec) 
Heartbeat CPU 0 instructions: 490000000 cycles: 578109974 heartbeat IPC: 0.762853 cumulative IPC: 0.761467 (Simulation time: 0 hr 23 min 28 sec) 
Heartbeat CPU 0 instructions: 500000000 cycles: 591224605 heartbeat IPC: 0.762507 cumulative IPC: 0.761493 (Simulation time: 0 hr 23 min 58 sec) 
Heartbeat CPU 0 instructions: 510000001 cycles: 604327259 heartbeat IPC: 0.763204 cumulative IPC: 0.761535 (Simulation time: 0 hr 24 min 28 sec) 
Heartbeat CPU 0 instructions: 520000000 cycles: 617512465 heartbeat IPC: 0.758426 cumulative IPC: 0.761461 (Simulation time: 0 hr 24 min 57 sec) 
Heartbeat CPU 0 instructions: 530000000 cycles: 630654239 heartbeat IPC: 0.760932 cumulative IPC: 0.761448 (Simulation time: 0 hr 25 min 27 sec) 
Heartbeat CPU 0 instructions: 540000000 cycles: 643783551 heartbeat IPC: 0.761655 cumulative IPC: 0.761453 (Simulation time: 0 hr 25 min 57 sec) 
Heartbeat CPU 0 instructions: 550000002 cycles: 656961535 heartbeat IPC: 0.758842 cumulative IPC: 0.761395 (Simulation time: 0 hr 26 min 26 sec) 
Heartbeat CPU 0 instructions: 560000000 cycles: 670054488 heartbeat IPC: 0.76377 cumulative IPC: 0.761446 (Simulation time: 0 hr 26 min 56 sec) 
Heartbeat CPU 0 instructions: 570000001 cycles: 683163930 heartbeat IPC: 0.762809 cumulative IPC: 0.761475 (Simulation time: 0 hr 27 min 26 sec) 
Heartbeat CPU 0 instructions: 580000000 cycles: 696279176 heartbeat IPC: 0.762471 cumulative IPC: 0.761496 (Simulation time: 0 hr 27 min 55 sec) 
Heartbeat CPU 0 instructions: 590000003 cycles: 709420601 heartbeat IPC: 0.760953 cumulative IPC: 0.761485 (Simulation time: 0 hr 28 min 25 sec) 
Heartbeat CPU 0 instructions: 600000000 cycles: 722570523 heartbeat IPC: 0.760461 cumulative IPC: 0.761464 (Simulation time: 0 hr 28 min 55 sec) 
Finished CPU 0 instructions: 500000000 cycles: 656629572 cumulative IPC: 0.761464 (Simulation time: 0 hr 28 min 55 sec) 

CPU 0 Branch Prediction Accuracy: 99.968% MPKI: 0.002246
Number of Branches: 3513331 Number of Mispredictions: 1123
Number of LOAD Instructions: 287251172
Number of LOAD Instructions (ROI): 287251172
Number of STORE Instructions: 51060820
Number of STORE Instructions (ROI): 51060820
Total Destination Memory Operands: 51166221
Total Destination Memory Operands (ROI): 51166221
Total Source Memory Operands: 287251172
Total Source Memory Operands (ROI): 287251172
Number of DEPENDED LOADS: 9555446
Number of DEPENDED LOADS (ROI): 9555446
Number of SQ_ADDED: 51166208
Number of SQ_ADDED (ROI): 51166208
Number of LQ_ADDED: 290420194
Number of LQ_ADDED (ROI): 290420194
Number of Instructions read from trace: 600000257

ChampSim completed all CPUs

Region of Interest Statistics

CPU 0 cumulative IPC: 0.761464 instructions: 500000000 cycles: 656629572
ITLB TOTAL     ACCESS:  108929530  HIT:  108929530  MISS:          0
ITLB LOAD      ACCESS:  108929530  HIT:  108929530  MISS:          0
ITLB RFO       ACCESS:          0  HIT:          0  MISS:          0
ITLB PREFETCH  ACCESS:          0  HIT:          0  MISS:          0
ITLB WRITEBACK ACCESS:          0  HIT:          0  MISS:          0
ITLB PREFETCH  REQUESTED:          0  ISSUED:          0  USEFUL:          0  USELESS:          0
ITLB TOTAL MSHR MERGED:          0
ITLB LOAD MSHR MERGED:          0
ITLB RFO MSHR MERGED:          0
ITLB PREFETCH MSHR MERGED:          0
ITLB WRITEBACK MSHR MERGED:          0
ITLB TOTAL ACCESSES:  108929530 HITS:  108929530 MISSES:          0
ITLB LOAD ACCESSES:  108929530 HITS:  108929530 MISSES:          0
ITLB RFO ACCESSES:          0 HITS:          0 MISSES:          0
ITLB PREFETCH ACCESSES:          0 HITS:          0 MISSES:          0
ITLB WRITEBACK ACCESSES:          0 HITS:          0 MISSES:          0
ITLB RQ ACCESS:  500000001
ITLB RQ TO_CACHE:  108929530
ITLB RQ MERGED:  391070471
ITLB RQ FORWARD:          0
ITLB WQ ACCESS:          0
ITLB WQ TO_CACHE:          0
ITLB WQ MERGED:          0
ITLB WQ FORWARD:          0
DTLB TOTAL     ACCESS:  171117649  HIT:  161101323  MISS:   10016326
DTLB LOAD      ACCESS:  143464068  HIT:  135587992  MISS:    7876076
DTLB RFO       ACCESS:   27653581  HIT:   25513331  MISS:    2140250
DTLB PREFETCH  ACCESS:          0  HIT:          0  MISS:          0
DTLB WRITEBACK ACCESS:          0  HIT:          0  MISS:          0
DTLB PREFETCH  REQUESTED:          0  ISSUED:          0  USEFUL:          0  USELESS:          0
DTLB TOTAL MSHR MERGED:     360500
DTLB LOAD MSHR MERGED:     360500
DTLB RFO MSHR MERGED:          0
DTLB PREFETCH MSHR MERGED:          0
DTLB WRITEBACK MSHR MERGED:          0
DTLB TOTAL ACCESSES:  171478149 HITS:  161101323 MISSES:   10376826
DTLB LOAD ACCESSES:  143824568 HITS:  135587992 MISSES:    8236576
DTLB RFO ACCESSES:   27653581 HITS:   25513331 MISSES:    2140250
DTLB PREFETCH ACCESSES:          0 HITS:          0 MISSES:          0
DTLB WRITEBACK ACCESSES:          0 HITS:          0 MISSES:          0
DTLB RQ ACCESS:  274072371
DTLB RQ TO_CACHE:  171478149
DTLB RQ MERGED:  102594222
DTLB RQ FORWARD:          0
DTLB WQ ACCESS:          0
DTLB WQ TO_CACHE:          0
DTLB WQ MERGED:          0
DTLB WQ FORWARD:          0
L1D TOTAL     ACCESS:  350886566  HIT:  283705479  MISS:   67181087
L1D LOAD      ACCESS:  175624311  HIT:  142595241  MISS:   33029070
L1D RFO       ACCESS:   42019013  HIT:   39213225  MISS:    2805788
L1D PREFETCH  ACCESS:  133243242  HIT:  101897013  MISS:   31346229
L1D WRITEBACK ACCESS:          0  HIT:          0  MISS:          0
L1D PREFETCH  REQUESTED:  176226755  ISSUED:  175287976  USEFUL:    2180161  USELESS:   29166070
L1D TOTAL MSHR MERGED:    1483573
L1D LOAD MSHR MERGED:     702679
L1D RFO MSHR MERGED:     350011
L1D PREFETCH MSHR MERGED:     430883
L1D WRITEBACK MSHR MERGED:          0
L1D TOTAL ACCESSES:  352483828 HITS:  283819168 MISSES:   68664660
L1D LOAD ACCESSES:  176234078 HITS:  142602564 MISSES:   33631514
L1D RFO ACCESSES:   42368347 HITS:   39213225 MISSES:    3155122
L1D PREFETCH ACCESSES:  133881403 HITS:  102003379 MISSES:   31878024
L1D WRITEBACK ACCESSES:          0 HITS:          0 MISSES:          0
L1D RQ ACCESS:  231433898
L1D RQ TO_CACHE:  176226755
L1D RQ MERGED:   55199820
L1D RQ FORWARD:          0
L1D WQ ACCESS:   42638475
L1D WQ TO_CACHE:   42368347
L1D WQ MERGED:     270128
L1D WQ FORWARD:     113689
L1I TOTAL     ACCESS:  109320359  HIT:   77804655  MISS:   31515704
L1I LOAD      ACCESS:  109320359  HIT:   77804655  MISS:   31515704
L1I RFO       ACCESS:          0  HIT:          0  MISS:          0
L1I PREFETCH  ACCESS:          0  HIT:          0  MISS:          0
L1I WRITEBACK ACCESS:          0  HIT:          0  MISS:          0
L1I PREFETCH  REQUESTED:          0  ISSUED:          0  USEFUL:          0  USELESS:          0
L1I TOTAL MSHR MERGED:   30761503
L1I LOAD MSHR MERGED:   30761503
L1I RFO MSHR MERGED:          0
L1I PREFETCH MSHR MERGED:          0
L1I WRITEBACK MSHR MERGED:          0
L1I TOTAL ACCESSES:  140081864 HITS:   77804655 MISSES:   62277209
L1I LOAD ACCESSES:  140081864 HITS:   77804655 MISSES:   62277209
L1I RFO ACCESSES:          0 HITS:          0 MISSES:          0
L1I PREFETCH ACCESSES:          0 HITS:          0 MISSES:          0
L1I WRITEBACK ACCESSES:          0 HITS:          0 MISSES:          0
L1I RQ ACCESS:  500000003
L1I RQ TO_CACHE:  140081864
L1I RQ MERGED:  359918139
L1I RQ FORWARD:          0
L1I WQ ACCESS:          0
L1I WQ TO_CACHE:          0
L1I WQ MERGED:          0
L1I WQ FORWARD:          0
L2C TOTAL     ACCESS:  113695418  HIT:  110680409  MISS:    3015009
L2C LOAD      ACCESS:   64442626  HIT:   63870631  MISS:     571995
L2C RFO       ACCESS:    2803060  HIT:    2193748  MISS:     609312
L2C PREFETCH  ACCESS:   43288188  HIT:   41460785  MISS:    1827403
L2C WRITEBACK ACCESS:    3161544  HIT:    3155245  MISS:       6299
L2C PREFETCH  REQUESTED:   15133415  ISSUED:   14617781  USEFUL:    1701657  USELESS:     125754
L2C TOTAL MSHR MERGED:      10000
L2C LOAD MSHR MERGED:          0
L2C RFO MSHR MERGED:          0
L2C PREFETCH MSHR MERGED:      10000
L2C WRITEBACK MSHR MERGED:          0
L2C TOTAL ACCESSES:  113880843 HITS:  110686456 MISSES:    3194387
L2C LOAD ACCESSES:   64444540 HITS:   63872544 MISSES:     571996
L2C RFO ACCESSES:    2805111 HITS:    2195799 MISSES:     609312
L2C PREFETCH ACCESSES:   43469648 HITS:   41462868 MISSES:    2006780
L2C WRITEBACK ACCESSES:    3161544 HITS:    3155245 MISSES:       6299
L2C RQ ACCESS:   67249652
L2C RQ TO_CACHE:   67245688
L2C RQ MERGED:          0
L2C RQ FORWARD:          0
L2C WQ ACCESS:    3161544
L2C WQ TO_CACHE:    3161544
L2C WQ MERGED:          0
L2C WQ FORWARD:       6047
LLC TOTAL     ACCESS:    3710345  HIT:    2326057  MISS:    1384288
LLC LOAD      ACCESS:     571967  HIT:     550187  MISS:      21780
LLC RFO       ACCESS:     527323  HIT:     239223  MISS:     288100
LLC PREFETCH  ACCESS:    1992717  HIT:     985210  MISS:    1007507
LLC WRITEBACK ACCESS:     618338  HIT:     551437  MISS:      66901
LLC PREFETCH  REQUESTED:          0  ISSUED:          0  USEFUL:      93550  USELESS:     912410
LLC TOTAL MSHR MERGED:       3500
LLC LOAD MSHR MERGED:          0
LLC RFO MSHR MERGED:          0
LLC PREFETCH MSHR MERGED:       3500
LLC WRITEBACK MSHR MERGED:          0
LLC TOTAL ACCESSES:    3795945 HITS:    2408157 MISSES:    1387788
LLC LOAD ACCESSES:     571995 HITS:     550215 MISSES:      21780
LLC RFO ACCESSES:     609312 HITS:     321212 MISSES:     288100
LLC PREFETCH ACCESSES:    1996300 HITS:     985293 MISSES:    1011007
LLC WRITEBACK ACCESSES:     618338 HITS:     551437 MISSES:      66901
LLC 0 RQ ACCESS:    1181308
LLC 0 RQ TO_CACHE:    1099291
LLC 0 RQ MERGED:          0
LLC 0 RQ FORWARD:          0
LLC WQ ACCESS:     618338
LLC WQ TO_CACHE:     618338
LLC WQ MERGED:          0
LLC WQ FORWARD:      82100
Major fault: 0 Minor fault: 12800
CPU 0 L1D next line prefetcher final stats
CPU 0 L2C PC-based stride prefetcher final stats
All Misses: 1666877
All Hits: 2894577
SD Algo Stats - Switches: 0 SRR-Repls: 27074 BRR-Repls: 0

DRAM Statistics
 CHANNEL 0
 RQ ROW_BUFFER_HIT:     722479  ROW_BUFFER_MISS:     594908
 DBUS_CONGESTED:     781786
 WQ ROW_BUFFER_HIT:      39170  ROW_BUFFER_MISS:     249366  FULL:          0

 AVG_CONGESTED_CYCLE: 13
LOADS RETIRED: 239375970
INSTR RETIRED: 500000000
