
*** ChampSim Multicore Out-of-Order Simulator ***

Warmup Instructions: 100000000
Simulation Instructions: 500000000
Number of CPUs: 1
LLC sets: 2048
LLC ways: 16
Clean RRIP Policies: 2212230222122302 Dirty RRIP Policies: 1222130212221302 PSEL Width: 10 Track Set: 4294967295 PSEL Mask: 1 Demote Mask: 3040100030401000DS Algo: 0Window size: 0
Off-chip DRAM Size: 4096 MB Channels: 1 Width: 64-bit Data Rate: 1600 MT/s

CPU 0 runs /mnt/beegfs/iconst01/spec2017/Gcc.trace.gz
NOT SORTED
TRACE STRING: /mnt/beegfs/iconst01/spec2017/Gcc.trace.gz
SORTED
TRACE STRING: /mnt/beegfs/iconst01/spec2017/Gcc.trace.gz
INITIAL
TRACE STRING: /mnt/beegfs/iconst01/spec2017/Gcc.trace.gz

champsim_seed used: 269

CPU 0 L1D next line prefetcher
CPU 0 L2C IP-based stride prefetcher
Initialize DRRIP state
Assign rand_sets[0]: 454  LLC: 2048
rand_sets[0]: 454
Assign rand_sets[1]: 1662  LLC: 2048
rand_sets[1]: 1662
Assign rand_sets[2]: 1921  LLC: 2048
rand_sets[2]: 1921
Assign rand_sets[3]: 1131  LLC: 2048
rand_sets[3]: 1131
Assign rand_sets[4]: 331  LLC: 2048
rand_sets[4]: 331
Assign rand_sets[5]: 1531  LLC: 2048
rand_sets[5]: 1531
Assign rand_sets[6]: 482  LLC: 2048
rand_sets[6]: 482
Assign rand_sets[7]: 1275  LLC: 2048
rand_sets[7]: 1275
Assign rand_sets[8]: 1876  LLC: 2048
rand_sets[8]: 1876
Assign rand_sets[9]: 2038  LLC: 2048
rand_sets[9]: 2038
Assign rand_sets[10]: 701  LLC: 2048
rand_sets[10]: 701
Assign rand_sets[11]: 479  LLC: 2048
rand_sets[11]: 479
Assign rand_sets[12]: 892  LLC: 2048
rand_sets[12]: 892
Assign rand_sets[13]: 1820  LLC: 2048
rand_sets[13]: 1820
Assign rand_sets[14]: 1505  LLC: 2048
rand_sets[14]: 1505
Assign rand_sets[15]: 1159  LLC: 2048
rand_sets[15]: 1159
Assign rand_sets[16]: 513  LLC: 2048
rand_sets[16]: 513
Assign rand_sets[17]: 703  LLC: 2048
rand_sets[17]: 703
Assign rand_sets[18]: 561  LLC: 2048
rand_sets[18]: 561
Assign rand_sets[19]: 990  LLC: 2048
rand_sets[19]: 990
Assign rand_sets[20]: 342  LLC: 2048
rand_sets[20]: 342
Assign rand_sets[21]: 882  LLC: 2048
rand_sets[21]: 882
Assign rand_sets[22]: 15  LLC: 2048
rand_sets[22]: 15
Assign rand_sets[23]: 71  LLC: 2048
rand_sets[23]: 71
Assign rand_sets[24]: 1127  LLC: 2048
rand_sets[24]: 1127
Assign rand_sets[25]: 1382  LLC: 2048
rand_sets[25]: 1382
Assign rand_sets[26]: 647  LLC: 2048
rand_sets[26]: 647
Assign rand_sets[27]: 857  LLC: 2048
rand_sets[27]: 857
Assign rand_sets[28]: 1450  LLC: 2048
rand_sets[28]: 1450
Assign rand_sets[29]: 1160  LLC: 2048
rand_sets[29]: 1160
Assign rand_sets[30]: 1852  LLC: 2048
rand_sets[30]: 1852
Assign rand_sets[31]: 1881  LLC: 2048
rand_sets[31]: 1881
Assign rand_sets[32]: 1770  LLC: 2048
rand_sets[32]: 1770
Assign rand_sets[33]: 1622  LLC: 2048
rand_sets[33]: 1622
Assign rand_sets[34]: 275  LLC: 2048
rand_sets[34]: 275
Assign rand_sets[35]: 635  LLC: 2048
rand_sets[35]: 635
Assign rand_sets[36]: 466  LLC: 2048
rand_sets[36]: 466
Assign rand_sets[37]: 1413  LLC: 2048
rand_sets[37]: 1413
Assign rand_sets[38]: 417  LLC: 2048
rand_sets[38]: 417
Assign rand_sets[39]: 472  LLC: 2048
rand_sets[39]: 472
Assign rand_sets[40]: 1340  LLC: 2048
rand_sets[40]: 1340
Assign rand_sets[41]: 852  LLC: 2048
rand_sets[41]: 852
Assign rand_sets[42]: 1365  LLC: 2048
rand_sets[42]: 1365
Assign rand_sets[43]: 47  LLC: 2048
rand_sets[43]: 47
Assign rand_sets[44]: 823  LLC: 2048
rand_sets[44]: 823
Assign rand_sets[45]: 686  LLC: 2048
rand_sets[45]: 686
Assign rand_sets[46]: 1637  LLC: 2048
rand_sets[46]: 1637
Assign rand_sets[47]: 1115  LLC: 2048
rand_sets[47]: 1115
Assign rand_sets[48]: 986  LLC: 2048
rand_sets[48]: 986
Assign rand_sets[49]: 258  LLC: 2048
rand_sets[49]: 258
Assign rand_sets[50]: 633  LLC: 2048
rand_sets[50]: 633
Assign rand_sets[51]: 920  LLC: 2048
rand_sets[51]: 920
Assign rand_sets[52]: 204  LLC: 2048
rand_sets[52]: 204
Assign rand_sets[53]: 227  LLC: 2048
rand_sets[53]: 227
Assign rand_sets[54]: 1818  LLC: 2048
rand_sets[54]: 1818
Assign rand_sets[55]: 886  LLC: 2048
rand_sets[55]: 886
Assign rand_sets[56]: 1422  LLC: 2048
rand_sets[56]: 1422
Assign rand_sets[57]: 607  LLC: 2048
rand_sets[57]: 607
Assign rand_sets[58]: 217  LLC: 2048
rand_sets[58]: 217
Assign rand_sets[59]: 1945  LLC: 2048
rand_sets[59]: 1945
Assign rand_sets[60]: 143  LLC: 2048
rand_sets[60]: 143
Assign rand_sets[61]: 1311  LLC: 2048
rand_sets[61]: 1311
Assign rand_sets[62]: 319  LLC: 2048
rand_sets[62]: 319
Assign rand_sets[63]: 1846  LLC: 2048
rand_sets[63]: 1846
 CLEAN-RRIP-POLICY-1: 2-2-1-2-2-3-0-2- CLEAN-RRIP-POLICY-2: 2-2-1-2-2-3-0-2-
 DIRTY-RRIP-POLICY-1: 1-2-2-2-1-3-0-2- DIRTY-RRIP-POLICY-2: 1-2-2-2-1-3-0-2-
 PSEL width: 10
Heartbeat CPU 0 instructions: 10000001 cycles: 7315902 heartbeat IPC: 1.36689 cumulative IPC: 1.36689 (Simulation time: 0 hr 0 min 14 sec) 
Heartbeat CPU 0 instructions: 20000000 cycles: 14307892 heartbeat IPC: 1.43021 cumulative IPC: 1.39783 (Simulation time: 0 hr 0 min 28 sec) 
Heartbeat CPU 0 instructions: 30000001 cycles: 21020947 heartbeat IPC: 1.48963 cumulative IPC: 1.42715 (Simulation time: 0 hr 0 min 44 sec) 
Heartbeat CPU 0 instructions: 40000000 cycles: 27481726 heartbeat IPC: 1.5478 cumulative IPC: 1.45551 (Simulation time: 0 hr 0 min 59 sec) 
Heartbeat CPU 0 instructions: 50000001 cycles: 33583539 heartbeat IPC: 1.63886 cumulative IPC: 1.48882 (Simulation time: 0 hr 1 min 13 sec) 
Heartbeat CPU 0 instructions: 60000000 cycles: 40064796 heartbeat IPC: 1.54291 cumulative IPC: 1.49757 (Simulation time: 0 hr 1 min 29 sec) 
Heartbeat CPU 0 instructions: 70000000 cycles: 47103811 heartbeat IPC: 1.42065 cumulative IPC: 1.48608 (Simulation time: 0 hr 1 min 43 sec) 
Heartbeat CPU 0 instructions: 80000000 cycles: 54194086 heartbeat IPC: 1.41038 cumulative IPC: 1.47618 (Simulation time: 0 hr 1 min 57 sec) 
Heartbeat CPU 0 instructions: 90000003 cycles: 61199037 heartbeat IPC: 1.42756 cumulative IPC: 1.47061 (Simulation time: 0 hr 2 min 10 sec) 
Heartbeat CPU 0 instructions: 100000000 cycles: 68366823 heartbeat IPC: 1.39513 cumulative IPC: 1.4627 (Simulation time: 0 hr 2 min 24 sec) 

Warmup complete CPU 0 instructions: 100000004 cycles: 68366824 (Simulation time: 0 hr 2 min 24 sec) 

Heartbeat CPU 0 instructions: 110000003 cycles: 96015517 heartbeat IPC: 0.361681 cumulative IPC: 0.361681 (Simulation time: 0 hr 2 min 51 sec) 
Heartbeat CPU 0 instructions: 120000000 cycles: 123473991 heartbeat IPC: 0.364186 cumulative IPC: 0.362929 (Simulation time: 0 hr 3 min 18 sec) 
Heartbeat CPU 0 instructions: 130000000 cycles: 148463501 heartbeat IPC: 0.400168 cumulative IPC: 0.374547 (Simulation time: 0 hr 3 min 44 sec) 
Heartbeat CPU 0 instructions: 140000000 cycles: 178064087 heartbeat IPC: 0.337831 cumulative IPC: 0.36464 (Simulation time: 0 hr 4 min 10 sec) 
Heartbeat CPU 0 instructions: 150000000 cycles: 207951015 heartbeat IPC: 0.334594 cumulative IPC: 0.358207 (Simulation time: 0 hr 4 min 37 sec) 
Heartbeat CPU 0 instructions: 160000000 cycles: 235389014 heartbeat IPC: 0.364458 cumulative IPC: 0.359234 (Simulation time: 0 hr 5 min 2 sec) 
Heartbeat CPU 0 instructions: 170000001 cycles: 263391367 heartbeat IPC: 0.357113 cumulative IPC: 0.358929 (Simulation time: 0 hr 5 min 30 sec) 
Heartbeat CPU 0 instructions: 180000000 cycles: 291848371 heartbeat IPC: 0.351407 cumulative IPC: 0.357971 (Simulation time: 0 hr 5 min 57 sec) 
Heartbeat CPU 0 instructions: 190000002 cycles: 319883868 heartbeat IPC: 0.356691 cumulative IPC: 0.357829 (Simulation time: 0 hr 6 min 24 sec) 
Heartbeat CPU 0 instructions: 200000000 cycles: 348252200 heartbeat IPC: 0.352506 cumulative IPC: 0.357289 (Simulation time: 0 hr 6 min 51 sec) 
Heartbeat CPU 0 instructions: 210000002 cycles: 376140592 heartbeat IPC: 0.358572 cumulative IPC: 0.357405 (Simulation time: 0 hr 7 min 18 sec) 
Heartbeat CPU 0 instructions: 220000000 cycles: 405407899 heartbeat IPC: 0.341678 cumulative IPC: 0.35604 (Simulation time: 0 hr 7 min 43 sec) 
Heartbeat CPU 0 instructions: 230000000 cycles: 432939020 heartbeat IPC: 0.363225 cumulative IPC: 0.356582 (Simulation time: 0 hr 8 min 9 sec) 
Heartbeat CPU 0 instructions: 240000000 cycles: 458872162 heartbeat IPC: 0.385607 cumulative IPC: 0.35851 (Simulation time: 0 hr 8 min 34 sec) 
Heartbeat CPU 0 instructions: 250000000 cycles: 488991820 heartbeat IPC: 0.332009 cumulative IPC: 0.356612 (Simulation time: 0 hr 9 min 2 sec) 
Heartbeat CPU 0 instructions: 260000000 cycles: 516075785 heartbeat IPC: 0.369222 cumulative IPC: 0.357375 (Simulation time: 0 hr 9 min 28 sec) 
Heartbeat CPU 0 instructions: 270000003 cycles: 544490261 heartbeat IPC: 0.351933 cumulative IPC: 0.35705 (Simulation time: 0 hr 9 min 56 sec) 
Heartbeat CPU 0 instructions: 280000000 cycles: 572656589 heartbeat IPC: 0.355034 cumulative IPC: 0.356938 (Simulation time: 0 hr 10 min 23 sec) 
Heartbeat CPU 0 instructions: 290000000 cycles: 601596967 heartbeat IPC: 0.345538 cumulative IPC: 0.356319 (Simulation time: 0 hr 10 min 51 sec) 
Heartbeat CPU 0 instructions: 300000000 cycles: 631695225 heartbeat IPC: 0.332245 cumulative IPC: 0.355033 (Simulation time: 0 hr 11 min 17 sec) 
Heartbeat CPU 0 instructions: 310000001 cycles: 661161112 heartbeat IPC: 0.339376 cumulative IPC: 0.354254 (Simulation time: 0 hr 11 min 44 sec) 
Heartbeat CPU 0 instructions: 320000000 cycles: 689447531 heartbeat IPC: 0.353527 cumulative IPC: 0.354221 (Simulation time: 0 hr 12 min 10 sec) 
Heartbeat CPU 0 instructions: 330000000 cycles: 718137750 heartbeat IPC: 0.348551 cumulative IPC: 0.353971 (Simulation time: 0 hr 12 min 36 sec) 
Heartbeat CPU 0 instructions: 340000000 cycles: 747436058 heartbeat IPC: 0.341317 cumulative IPC: 0.353425 (Simulation time: 0 hr 13 min 2 sec) 
Heartbeat CPU 0 instructions: 350000003 cycles: 774538466 heartbeat IPC: 0.368971 cumulative IPC: 0.354022 (Simulation time: 0 hr 13 min 28 sec) 
Heartbeat CPU 0 instructions: 360000000 cycles: 802735658 heartbeat IPC: 0.354645 cumulative IPC: 0.354046 (Simulation time: 0 hr 13 min 53 sec) 
Heartbeat CPU 0 instructions: 370000000 cycles: 830896106 heartbeat IPC: 0.355108 cumulative IPC: 0.354085 (Simulation time: 0 hr 14 min 18 sec) 
Heartbeat CPU 0 instructions: 380000000 cycles: 859374331 heartbeat IPC: 0.351145 cumulative IPC: 0.353979 (Simulation time: 0 hr 14 min 43 sec) 
Heartbeat CPU 0 instructions: 390000001 cycles: 886958209 heartbeat IPC: 0.362531 cumulative IPC: 0.354267 (Simulation time: 0 hr 15 min 8 sec) 
Heartbeat CPU 0 instructions: 400000000 cycles: 915592059 heartbeat IPC: 0.349237 cumulative IPC: 0.354097 (Simulation time: 0 hr 15 min 33 sec) 
Heartbeat CPU 0 instructions: 410000001 cycles: 942863494 heartbeat IPC: 0.366684 cumulative IPC: 0.35449 (Simulation time: 0 hr 15 min 58 sec) 
Heartbeat CPU 0 instructions: 420000000 cycles: 970148438 heartbeat IPC: 0.366502 cumulative IPC: 0.354853 (Simulation time: 0 hr 16 min 22 sec) 
Heartbeat CPU 0 instructions: 430000002 cycles: 997845421 heartbeat IPC: 0.36105 cumulative IPC: 0.355038 (Simulation time: 0 hr 16 min 47 sec) 
Heartbeat CPU 0 instructions: 440000000 cycles: 1027436709 heartbeat IPC: 0.337937 cumulative IPC: 0.35451 (Simulation time: 0 hr 17 min 13 sec) 
Heartbeat CPU 0 instructions: 450000002 cycles: 1056695886 heartbeat IPC: 0.341773 cumulative IPC: 0.354133 (Simulation time: 0 hr 17 min 38 sec) 
Heartbeat CPU 0 instructions: 460000000 cycles: 1084377474 heartbeat IPC: 0.361251 cumulative IPC: 0.354327 (Simulation time: 0 hr 18 min 3 sec) 
Heartbeat CPU 0 instructions: 470000000 cycles: 1111980275 heartbeat IPC: 0.362282 cumulative IPC: 0.354537 (Simulation time: 0 hr 18 min 27 sec) 
Heartbeat CPU 0 instructions: 480000000 cycles: 1139834793 heartbeat IPC: 0.359008 cumulative IPC: 0.354654 (Simulation time: 0 hr 18 min 52 sec) 
Heartbeat CPU 0 instructions: 490000000 cycles: 1167396528 heartbeat IPC: 0.362822 cumulative IPC: 0.354858 (Simulation time: 0 hr 19 min 17 sec) 
Heartbeat CPU 0 instructions: 500000000 cycles: 1195706936 heartbeat IPC: 0.353227 cumulative IPC: 0.354818 (Simulation time: 0 hr 19 min 42 sec) 
Heartbeat CPU 0 instructions: 510000000 cycles: 1230081121 heartbeat IPC: 0.290916 cumulative IPC: 0.352927 (Simulation time: 0 hr 20 min 11 sec) 
Heartbeat CPU 0 instructions: 520000000 cycles: 1258080907 heartbeat IPC: 0.357146 cumulative IPC: 0.353026 (Simulation time: 0 hr 20 min 37 sec) 
Heartbeat CPU 0 instructions: 530000001 cycles: 1287611376 heartbeat IPC: 0.338633 cumulative IPC: 0.352677 (Simulation time: 0 hr 21 min 3 sec) 
Heartbeat CPU 0 instructions: 540000000 cycles: 1315694479 heartbeat IPC: 0.356086 cumulative IPC: 0.352754 (Simulation time: 0 hr 21 min 29 sec) 
Heartbeat CPU 0 instructions: 550000001 cycles: 1344865925 heartbeat IPC: 0.342801 cumulative IPC: 0.352527 (Simulation time: 0 hr 21 min 56 sec) 
Heartbeat CPU 0 instructions: 560000000 cycles: 1370272486 heartbeat IPC: 0.393599 cumulative IPC: 0.353328 (Simulation time: 0 hr 22 min 22 sec) 
Heartbeat CPU 0 instructions: 570000000 cycles: 1399773883 heartbeat IPC: 0.338967 cumulative IPC: 0.35301 (Simulation time: 0 hr 22 min 48 sec) 
Heartbeat CPU 0 instructions: 580000000 cycles: 1427701786 heartbeat IPC: 0.358065 cumulative IPC: 0.353114 (Simulation time: 0 hr 23 min 14 sec) 
Heartbeat CPU 0 instructions: 590000001 cycles: 1452430417 heartbeat IPC: 0.40439 cumulative IPC: 0.35403 (Simulation time: 0 hr 23 min 39 sec) 
Heartbeat CPU 0 instructions: 600000000 cycles: 1478492819 heartbeat IPC: 0.383694 cumulative IPC: 0.354578 (Simulation time: 0 hr 24 min 4 sec) 
Finished CPU 0 instructions: 500000000 cycles: 1410126017 cumulative IPC: 0.354578 (Simulation time: 0 hr 24 min 4 sec) 

CPU 0 Branch Prediction Accuracy: 86.4311% MPKI: 26.2662
Number of Branches: 96788573 Number of Mispredictions: 13133102
Number of LOAD Instructions: 164682285
Number of LOAD Instructions (ROI): 164682285
Number of STORE Instructions: 78194750
Number of STORE Instructions (ROI): 78194750
Total Destination Memory Operands: 83268534
Total Destination Memory Operands (ROI): 83268534
Total Source Memory Operands: 164712438
Total Source Memory Operands (ROI): 164712438
Number of DEPENDED LOADS: 7057923
Number of DEPENDED LOADS (ROI): 7057923
Number of SQ_ADDED: 83268522
Number of SQ_ADDED (ROI): 83268522
Number of LQ_ADDED: 236505411
Number of LQ_ADDED (ROI): 236505411
Number of Instructions read from trace: 600000066

ChampSim completed all CPUs

Region of Interest Statistics

CPU 0 cumulative IPC: 0.354578 instructions: 500000000 cycles: 1410126017
ITLB TOTAL     ACCESS:  100515878  HIT:  100311432  MISS:     204446
ITLB LOAD      ACCESS:  100515878  HIT:  100311432  MISS:     204446
ITLB RFO       ACCESS:          0  HIT:          0  MISS:          0
ITLB PREFETCH  ACCESS:          0  HIT:          0  MISS:          0
ITLB WRITEBACK ACCESS:          0  HIT:          0  MISS:          0
ITLB PREFETCH  REQUESTED:          0  ISSUED:          0  USEFUL:          0  USELESS:          0
ITLB TOTAL MSHR MERGED:     172424
ITLB LOAD MSHR MERGED:     172424
ITLB RFO MSHR MERGED:          0
ITLB PREFETCH MSHR MERGED:          0
ITLB WRITEBACK MSHR MERGED:          0
ITLB TOTAL ACCESSES:  100688302 HITS:  100311432 MISSES:     376870
ITLB LOAD ACCESSES:  100688302 HITS:  100311432 MISSES:     376870
ITLB RFO ACCESSES:          0 HITS:          0 MISSES:          0
ITLB PREFETCH ACCESSES:          0 HITS:          0 MISSES:          0
ITLB WRITEBACK ACCESSES:          0 HITS:          0 MISSES:          0
ITLB RQ ACCESS:  500000057
ITLB RQ TO_CACHE:  100688302
ITLB RQ MERGED:  399311755
ITLB RQ FORWARD:          0
ITLB WQ ACCESS:          0
ITLB WQ TO_CACHE:          0
ITLB WQ MERGED:          0
ITLB WQ FORWARD:          0
DTLB TOTAL     ACCESS:  165339123  HIT:  164704773  MISS:     634350
DTLB LOAD      ACCESS:  106294058  HIT:  105724111  MISS:     569947
DTLB RFO       ACCESS:   59045065  HIT:   58980662  MISS:      64403
DTLB PREFETCH  ACCESS:          0  HIT:          0  MISS:          0
DTLB WRITEBACK ACCESS:          0  HIT:          0  MISS:          0
DTLB PREFETCH  REQUESTED:          0  ISSUED:          0  USEFUL:          0  USELESS:          0
DTLB TOTAL MSHR MERGED:      99958
DTLB LOAD MSHR MERGED:      59435
DTLB RFO MSHR MERGED:      40523
DTLB PREFETCH MSHR MERGED:          0
DTLB WRITEBACK MSHR MERGED:          0
DTLB TOTAL ACCESSES:  165439081 HITS:  164704773 MISSES:     734308
DTLB LOAD ACCESSES:  106353493 HITS:  105724111 MISSES:     629382
DTLB RFO ACCESSES:   59085588 HITS:   58980662 MISSES:     104926
DTLB PREFETCH ACCESSES:          0 HITS:          0 MISSES:          0
DTLB WRITEBACK ACCESSES:          0 HITS:          0 MISSES:          0
DTLB RQ ACCESS:  200312975
DTLB RQ TO_CACHE:  165439081
DTLB RQ MERGED:   34873894
DTLB RQ FORWARD:          0
DTLB WQ ACCESS:          0
DTLB WQ TO_CACHE:          0
DTLB WQ MERGED:          0
DTLB WQ FORWARD:          0
L1D TOTAL     ACCESS:  281881965  HIT:  273972554  MISS:    7909411
L1D LOAD      ACCESS:  110431359  HIT:  107157401  MISS:    3273958
L1D RFO       ACCESS:   67126709  HIT:   66236509  MISS:     890200
L1D PREFETCH  ACCESS:  104323897  HIT:  100578644  MISS:    3745253
L1D WRITEBACK ACCESS:          0  HIT:          0  MISS:          0
L1D PREFETCH  REQUESTED:  110818437  ISSUED:  109119076  USEFUL:    1665875  USELESS:    2079342
L1D TOTAL MSHR MERGED:    2824873
L1D LOAD MSHR MERGED:     480563
L1D RFO MSHR MERGED:    1858839
L1D PREFETCH MSHR MERGED:     485471
L1D WRITEBACK MSHR MERGED:          0
L1D TOTAL ACCESSES:  284734282 HITS:  273999998 MISSES:   10734284
L1D LOAD ACCESSES:  110819875 HITS:  107158839 MISSES:    3661036
L1D RFO ACCESSES:   68974150 HITS:   66236509 MISSES:    2737641
L1D PREFETCH ACCESSES:  104940257 HITS:  100604650 MISSES:    4335607
L1D WRITEBACK ACCESSES:          0 HITS:          0 MISSES:          0
L1D RQ ACCESS:  130760372
L1D RQ TO_CACHE:  110818440
L1D RQ MERGED:   19940494
L1D RQ FORWARD:          0
L1D WQ ACCESS:   69552603
L1D WQ TO_CACHE:   68974151
L1D WQ MERGED:     578452
L1D WQ FORWARD:      27444
L1I TOTAL     ACCESS:  126563195  HIT:  122324642  MISS:    4238553
L1I LOAD      ACCESS:  126563195  HIT:  122324642  MISS:    4238553
L1I RFO       ACCESS:          0  HIT:          0  MISS:          0
L1I PREFETCH  ACCESS:          0  HIT:          0  MISS:          0
L1I WRITEBACK ACCESS:          0  HIT:          0  MISS:          0
L1I PREFETCH  REQUESTED:          0  ISSUED:          0  USEFUL:          0  USELESS:          0
L1I TOTAL MSHR MERGED:    1834718
L1I LOAD MSHR MERGED:    1834718
L1I RFO MSHR MERGED:          0
L1I PREFETCH MSHR MERGED:          0
L1I WRITEBACK MSHR MERGED:          0
L1I TOTAL ACCESSES:  128397916 HITS:  122324642 MISSES:    6073274
L1I LOAD ACCESSES:  128397916 HITS:  122324642 MISSES:    6073274
L1I RFO ACCESSES:          0 HITS:          0 MISSES:          0
L1I PREFETCH ACCESSES:          0 HITS:          0 MISSES:          0
L1I WRITEBACK ACCESSES:          0 HITS:          0 MISSES:          0
L1I RQ ACCESS:  500000057
L1I RQ TO_CACHE:  128397916
L1I RQ MERGED:  371602141
L1I RQ FORWARD:          0
L1I WQ ACCESS:          0
L1I WQ TO_CACHE:          0
L1I WQ MERGED:          0
L1I WQ FORWARD:          0
L2C TOTAL     ACCESS:   14905715  HIT:   11159169  MISS:    3746546
L2C LOAD      ACCESS:    7418819  HIT:    5098921  MISS:    2319898
L2C RFO       ACCESS:     878704  HIT:     409907  MISS:     468797
L2C PREFETCH  ACCESS:    4568940  HIT:    3628345  MISS:     940595
L2C WRITEBACK ACCESS:    2039252  HIT:    2021996  MISS:      17256
L2C PREFETCH  REQUESTED:     842794  ISSUED:     842794  USEFUL:     203481  USELESS:     736820
L2C TOTAL MSHR MERGED:       6712
L2C LOAD MSHR MERGED:        722
L2C RFO MSHR MERGED:          0
L2C PREFETCH MSHR MERGED:       5990
L2C WRITEBACK MSHR MERGED:          0
L2C TOTAL ACCESSES:   14913287 HITS:   11159618 MISSES:    3753669
L2C LOAD ACCESSES:    7419026 HITS:    5099128 MISSES:    2319898
L2C RFO ACCESSES:     878802 HITS:     410005 MISSES:     468797
L2C PREFETCH ACCESSES:    4576207 HITS:    3628489 MISSES:     947718
L2C WRITEBACK ACCESSES:    2039252 HITS:    2021996 MISSES:      17256
L2C RQ ACCESS:    8297831
L2C RQ TO_CACHE:    8297526
L2C RQ MERGED:          0
L2C RQ FORWARD:          0
L2C WQ ACCESS:    2039252
L2C WQ TO_CACHE:    2039252
L2C WQ MERGED:          0
L2C WQ FORWARD:        449
LLC TOTAL     ACCESS:    4609862  HIT:    4053502  MISS:     556360
LLC LOAD      ACCESS:    2319162  HIT:    2056839  MISS:     262323
LLC RFO       ACCESS:     468787  HIT:     415306  MISS:      53481
LLC PREFETCH  ACCESS:     941615  HIT:     723754  MISS:     217861
LLC WRITEBACK ACCESS:     880298  HIT:     857603  MISS:      22695
LLC PREFETCH  REQUESTED:          0  ISSUED:          0  USEFUL:      32326  USELESS:     186468
LLC TOTAL MSHR MERGED:         90
LLC LOAD MSHR MERGED:         32
LLC RFO MSHR MERGED:          0
LLC PREFETCH MSHR MERGED:         58
LLC WRITEBACK MSHR MERGED:          0
LLC TOTAL ACCESSES:    4609988 HITS:    4053538 MISSES:     556450
LLC LOAD ACCESSES:    2319176 HITS:    2056853 MISSES:     262323
LLC RFO ACCESSES:     468797 HITS:     415316 MISSES:      53481
LLC PREFETCH ACCESSES:     941717 HITS:     723766 MISSES:     217951
LLC WRITEBACK ACCESSES:     880298 HITS:     857603 MISSES:      22695
LLC 0 RQ ACCESS:    2787973
LLC 0 RQ TO_CACHE:    2787949
LLC 0 RQ MERGED:          0
LLC 0 RQ FORWARD:          0
LLC WQ ACCESS:     880298
LLC WQ TO_CACHE:     880298
LLC WQ MERGED:          0
LLC WQ FORWARD:         36
Major fault: 0 Minor fault: 12862
CPU 0 L1D next line prefetcher final stats
CPU 0 L2C PC-based stride prefetcher final stats
All Misses: 664985
All Hits: 4761883
SD Algo Stats - Switches: 0 SRR-Repls: 310394 BRR-Repls: 0

DRAM Statistics
 CHANNEL 0
 RQ ROW_BUFFER_HIT:     116661  ROW_BUFFER_MISS:     416366
 DBUS_CONGESTED:     326335
 WQ ROW_BUFFER_HIT:      12756  ROW_BUFFER_MISS:     156491  FULL:          0

 AVG_CONGESTED_CYCLE: 13
LOADS RETIRED: 136549171
INSTR RETIRED: 500000000
