
*** ChampSim Multicore Out-of-Order Simulator ***

Warmup Instructions: 100000000
Simulation Instructions: 500000000
Number of CPUs: 1
LLC sets: 2048
LLC ways: 16
Clean RRIP Policies: 1323121113231211 Dirty RRIP Policies: 1323222113232221 PSEL Width: 10 Track Set: 4294967295 PSEL Mask: 1 Demote Mask: 2224212022242120DS Algo: 0Window size: 0
Off-chip DRAM Size: 4096 MB Channels: 1 Width: 64-bit Data Rate: 1600 MT/s

CPU 0 runs /mnt/beegfs/iconst01/spec2017/Gcc.trace.gz
NOT SORTED
TRACE STRING: /mnt/beegfs/iconst01/spec2017/Gcc.trace.gz
SORTED
TRACE STRING: /mnt/beegfs/iconst01/spec2017/Gcc.trace.gz
INITIAL
TRACE STRING: /mnt/beegfs/iconst01/spec2017/Gcc.trace.gz

champsim_seed used: 269

CPU 0 L1D next line prefetcher
CPU 0 L2C IP-based stride prefetcher
Initialize DRRIP state
Assign rand_sets[0]: 454  LLC: 2048
rand_sets[0]: 454
Assign rand_sets[1]: 1662  LLC: 2048
rand_sets[1]: 1662
Assign rand_sets[2]: 1921  LLC: 2048
rand_sets[2]: 1921
Assign rand_sets[3]: 1131  LLC: 2048
rand_sets[3]: 1131
Assign rand_sets[4]: 331  LLC: 2048
rand_sets[4]: 331
Assign rand_sets[5]: 1531  LLC: 2048
rand_sets[5]: 1531
Assign rand_sets[6]: 482  LLC: 2048
rand_sets[6]: 482
Assign rand_sets[7]: 1275  LLC: 2048
rand_sets[7]: 1275
Assign rand_sets[8]: 1876  LLC: 2048
rand_sets[8]: 1876
Assign rand_sets[9]: 2038  LLC: 2048
rand_sets[9]: 2038
Assign rand_sets[10]: 701  LLC: 2048
rand_sets[10]: 701
Assign rand_sets[11]: 479  LLC: 2048
rand_sets[11]: 479
Assign rand_sets[12]: 892  LLC: 2048
rand_sets[12]: 892
Assign rand_sets[13]: 1820  LLC: 2048
rand_sets[13]: 1820
Assign rand_sets[14]: 1505  LLC: 2048
rand_sets[14]: 1505
Assign rand_sets[15]: 1159  LLC: 2048
rand_sets[15]: 1159
Assign rand_sets[16]: 513  LLC: 2048
rand_sets[16]: 513
Assign rand_sets[17]: 703  LLC: 2048
rand_sets[17]: 703
Assign rand_sets[18]: 561  LLC: 2048
rand_sets[18]: 561
Assign rand_sets[19]: 990  LLC: 2048
rand_sets[19]: 990
Assign rand_sets[20]: 342  LLC: 2048
rand_sets[20]: 342
Assign rand_sets[21]: 882  LLC: 2048
rand_sets[21]: 882
Assign rand_sets[22]: 15  LLC: 2048
rand_sets[22]: 15
Assign rand_sets[23]: 71  LLC: 2048
rand_sets[23]: 71
Assign rand_sets[24]: 1127  LLC: 2048
rand_sets[24]: 1127
Assign rand_sets[25]: 1382  LLC: 2048
rand_sets[25]: 1382
Assign rand_sets[26]: 647  LLC: 2048
rand_sets[26]: 647
Assign rand_sets[27]: 857  LLC: 2048
rand_sets[27]: 857
Assign rand_sets[28]: 1450  LLC: 2048
rand_sets[28]: 1450
Assign rand_sets[29]: 1160  LLC: 2048
rand_sets[29]: 1160
Assign rand_sets[30]: 1852  LLC: 2048
rand_sets[30]: 1852
Assign rand_sets[31]: 1881  LLC: 2048
rand_sets[31]: 1881
Assign rand_sets[32]: 1770  LLC: 2048
rand_sets[32]: 1770
Assign rand_sets[33]: 1622  LLC: 2048
rand_sets[33]: 1622
Assign rand_sets[34]: 275  LLC: 2048
rand_sets[34]: 275
Assign rand_sets[35]: 635  LLC: 2048
rand_sets[35]: 635
Assign rand_sets[36]: 466  LLC: 2048
rand_sets[36]: 466
Assign rand_sets[37]: 1413  LLC: 2048
rand_sets[37]: 1413
Assign rand_sets[38]: 417  LLC: 2048
rand_sets[38]: 417
Assign rand_sets[39]: 472  LLC: 2048
rand_sets[39]: 472
Assign rand_sets[40]: 1340  LLC: 2048
rand_sets[40]: 1340
Assign rand_sets[41]: 852  LLC: 2048
rand_sets[41]: 852
Assign rand_sets[42]: 1365  LLC: 2048
rand_sets[42]: 1365
Assign rand_sets[43]: 47  LLC: 2048
rand_sets[43]: 47
Assign rand_sets[44]: 823  LLC: 2048
rand_sets[44]: 823
Assign rand_sets[45]: 686  LLC: 2048
rand_sets[45]: 686
Assign rand_sets[46]: 1637  LLC: 2048
rand_sets[46]: 1637
Assign rand_sets[47]: 1115  LLC: 2048
rand_sets[47]: 1115
Assign rand_sets[48]: 986  LLC: 2048
rand_sets[48]: 986
Assign rand_sets[49]: 258  LLC: 2048
rand_sets[49]: 258
Assign rand_sets[50]: 633  LLC: 2048
rand_sets[50]: 633
Assign rand_sets[51]: 920  LLC: 2048
rand_sets[51]: 920
Assign rand_sets[52]: 204  LLC: 2048
rand_sets[52]: 204
Assign rand_sets[53]: 227  LLC: 2048
rand_sets[53]: 227
Assign rand_sets[54]: 1818  LLC: 2048
rand_sets[54]: 1818
Assign rand_sets[55]: 886  LLC: 2048
rand_sets[55]: 886
Assign rand_sets[56]: 1422  LLC: 2048
rand_sets[56]: 1422
Assign rand_sets[57]: 607  LLC: 2048
rand_sets[57]: 607
Assign rand_sets[58]: 217  LLC: 2048
rand_sets[58]: 217
Assign rand_sets[59]: 1945  LLC: 2048
rand_sets[59]: 1945
Assign rand_sets[60]: 143  LLC: 2048
rand_sets[60]: 143
Assign rand_sets[61]: 1311  LLC: 2048
rand_sets[61]: 1311
Assign rand_sets[62]: 319  LLC: 2048
rand_sets[62]: 319
Assign rand_sets[63]: 1846  LLC: 2048
rand_sets[63]: 1846
 CLEAN-RRIP-POLICY-1: 1-3-2-3-1-2-1-1- CLEAN-RRIP-POLICY-2: 1-3-2-3-1-2-1-1-
 DIRTY-RRIP-POLICY-1: 1-3-2-3-2-2-2-1- DIRTY-RRIP-POLICY-2: 1-3-2-3-2-2-2-1-
 PSEL width: 10
Heartbeat CPU 0 instructions: 10000001 cycles: 7316002 heartbeat IPC: 1.36687 cumulative IPC: 1.36687 (Simulation time: 0 hr 0 min 14 sec) 
Heartbeat CPU 0 instructions: 20000000 cycles: 14307819 heartbeat IPC: 1.43024 cumulative IPC: 1.39784 (Simulation time: 0 hr 0 min 28 sec) 
Heartbeat CPU 0 instructions: 30000001 cycles: 21021140 heartbeat IPC: 1.48958 cumulative IPC: 1.42713 (Simulation time: 0 hr 0 min 43 sec) 
Heartbeat CPU 0 instructions: 40000000 cycles: 27482170 heartbeat IPC: 1.54774 cumulative IPC: 1.45549 (Simulation time: 0 hr 0 min 58 sec) 
Heartbeat CPU 0 instructions: 50000001 cycles: 33584092 heartbeat IPC: 1.63883 cumulative IPC: 1.4888 (Simulation time: 0 hr 1 min 12 sec) 
Heartbeat CPU 0 instructions: 60000000 cycles: 40065447 heartbeat IPC: 1.54289 cumulative IPC: 1.49755 (Simulation time: 0 hr 1 min 27 sec) 
Heartbeat CPU 0 instructions: 70000000 cycles: 47106193 heartbeat IPC: 1.4203 cumulative IPC: 1.486 (Simulation time: 0 hr 1 min 41 sec) 
Heartbeat CPU 0 instructions: 80000000 cycles: 54198492 heartbeat IPC: 1.40998 cumulative IPC: 1.47606 (Simulation time: 0 hr 1 min 55 sec) 
Heartbeat CPU 0 instructions: 90000003 cycles: 61205967 heartbeat IPC: 1.42705 cumulative IPC: 1.47044 (Simulation time: 0 hr 2 min 9 sec) 
Heartbeat CPU 0 instructions: 100000000 cycles: 68376454 heartbeat IPC: 1.39461 cumulative IPC: 1.46249 (Simulation time: 0 hr 2 min 22 sec) 

Warmup complete CPU 0 instructions: 100000004 cycles: 68376455 (Simulation time: 0 hr 2 min 22 sec) 

Heartbeat CPU 0 instructions: 110000003 cycles: 96535748 heartbeat IPC: 0.355123 cumulative IPC: 0.355123 (Simulation time: 0 hr 2 min 49 sec) 
Heartbeat CPU 0 instructions: 120000000 cycles: 124169435 heartbeat IPC: 0.361877 cumulative IPC: 0.358468 (Simulation time: 0 hr 3 min 15 sec) 
Heartbeat CPU 0 instructions: 130000000 cycles: 149322067 heartbeat IPC: 0.397573 cumulative IPC: 0.370619 (Simulation time: 0 hr 3 min 42 sec) 
Heartbeat CPU 0 instructions: 140000000 cycles: 179839125 heartbeat IPC: 0.327686 cumulative IPC: 0.358865 (Simulation time: 0 hr 4 min 8 sec) 
Heartbeat CPU 0 instructions: 150000000 cycles: 210332850 heartbeat IPC: 0.327936 cumulative IPC: 0.352221 (Simulation time: 0 hr 4 min 34 sec) 
Heartbeat CPU 0 instructions: 160000000 cycles: 237943303 heartbeat IPC: 0.362182 cumulative IPC: 0.353843 (Simulation time: 0 hr 5 min 0 sec) 
Heartbeat CPU 0 instructions: 170000001 cycles: 266288149 heartbeat IPC: 0.352798 cumulative IPC: 0.353693 (Simulation time: 0 hr 5 min 27 sec) 
Heartbeat CPU 0 instructions: 180000000 cycles: 295055360 heartbeat IPC: 0.347618 cumulative IPC: 0.352922 (Simulation time: 0 hr 5 min 54 sec) 
Heartbeat CPU 0 instructions: 190000002 cycles: 323573566 heartbeat IPC: 0.350653 cumulative IPC: 0.352669 (Simulation time: 0 hr 6 min 21 sec) 
Heartbeat CPU 0 instructions: 200000000 cycles: 352291520 heartbeat IPC: 0.348214 cumulative IPC: 0.352218 (Simulation time: 0 hr 6 min 48 sec) 
Heartbeat CPU 0 instructions: 210000002 cycles: 380611163 heartbeat IPC: 0.353112 cumulative IPC: 0.352299 (Simulation time: 0 hr 7 min 14 sec) 
Heartbeat CPU 0 instructions: 220000000 cycles: 410772561 heartbeat IPC: 0.33155 cumulative IPC: 0.350471 (Simulation time: 0 hr 7 min 40 sec) 
Heartbeat CPU 0 instructions: 230000000 cycles: 438785298 heartbeat IPC: 0.35698 cumulative IPC: 0.350964 (Simulation time: 0 hr 8 min 6 sec) 
Heartbeat CPU 0 instructions: 240000000 cycles: 464968507 heartbeat IPC: 0.381924 cumulative IPC: 0.353008 (Simulation time: 0 hr 8 min 31 sec) 
Heartbeat CPU 0 instructions: 250000000 cycles: 495358656 heartbeat IPC: 0.329054 cumulative IPC: 0.351303 (Simulation time: 0 hr 8 min 58 sec) 
Heartbeat CPU 0 instructions: 260000000 cycles: 522630634 heartbeat IPC: 0.366677 cumulative IPC: 0.352226 (Simulation time: 0 hr 9 min 24 sec) 
Heartbeat CPU 0 instructions: 270000003 cycles: 551389527 heartbeat IPC: 0.347719 cumulative IPC: 0.351957 (Simulation time: 0 hr 9 min 52 sec) 
Heartbeat CPU 0 instructions: 280000000 cycles: 579983734 heartbeat IPC: 0.349721 cumulative IPC: 0.351832 (Simulation time: 0 hr 10 min 19 sec) 
Heartbeat CPU 0 instructions: 290000000 cycles: 609208393 heartbeat IPC: 0.342177 cumulative IPC: 0.351311 (Simulation time: 0 hr 10 min 47 sec) 
Heartbeat CPU 0 instructions: 300000000 cycles: 640342006 heartbeat IPC: 0.321196 cumulative IPC: 0.349671 (Simulation time: 0 hr 11 min 13 sec) 
Heartbeat CPU 0 instructions: 310000001 cycles: 670479178 heartbeat IPC: 0.331816 cumulative IPC: 0.348778 (Simulation time: 0 hr 11 min 39 sec) 
Heartbeat CPU 0 instructions: 320000000 cycles: 699572840 heartbeat IPC: 0.343717 cumulative IPC: 0.348544 (Simulation time: 0 hr 12 min 5 sec) 
Heartbeat CPU 0 instructions: 330000000 cycles: 728886202 heartbeat IPC: 0.341141 cumulative IPC: 0.348216 (Simulation time: 0 hr 12 min 32 sec) 
Heartbeat CPU 0 instructions: 340000000 cycles: 758814253 heartbeat IPC: 0.334135 cumulative IPC: 0.347606 (Simulation time: 0 hr 12 min 58 sec) 
Heartbeat CPU 0 instructions: 350000003 cycles: 786268770 heartbeat IPC: 0.364239 cumulative IPC: 0.348242 (Simulation time: 0 hr 13 min 24 sec) 
Heartbeat CPU 0 instructions: 360000000 cycles: 816086832 heartbeat IPC: 0.335367 cumulative IPC: 0.347728 (Simulation time: 0 hr 13 min 50 sec) 
Heartbeat CPU 0 instructions: 370000000 cycles: 845762016 heartbeat IPC: 0.336982 cumulative IPC: 0.347318 (Simulation time: 0 hr 14 min 15 sec) 
Heartbeat CPU 0 instructions: 380000000 cycles: 875633317 heartbeat IPC: 0.334769 cumulative IPC: 0.346854 (Simulation time: 0 hr 14 min 41 sec) 
Heartbeat CPU 0 instructions: 390000001 cycles: 904379505 heartbeat IPC: 0.347872 cumulative IPC: 0.346889 (Simulation time: 0 hr 15 min 6 sec) 
Heartbeat CPU 0 instructions: 400000000 cycles: 934240577 heartbeat IPC: 0.334884 cumulative IPC: 0.346475 (Simulation time: 0 hr 15 min 31 sec) 
Heartbeat CPU 0 instructions: 410000001 cycles: 962501100 heartbeat IPC: 0.353851 cumulative IPC: 0.346708 (Simulation time: 0 hr 15 min 57 sec) 
Heartbeat CPU 0 instructions: 420000000 cycles: 990671779 heartbeat IPC: 0.354979 cumulative IPC: 0.34696 (Simulation time: 0 hr 16 min 22 sec) 
Heartbeat CPU 0 instructions: 430000002 cycles: 1019302555 heartbeat IPC: 0.349275 cumulative IPC: 0.34703 (Simulation time: 0 hr 16 min 47 sec) 
Heartbeat CPU 0 instructions: 440000000 cycles: 1049931901 heartbeat IPC: 0.326484 cumulative IPC: 0.346389 (Simulation time: 0 hr 17 min 13 sec) 
Heartbeat CPU 0 instructions: 450000002 cycles: 1080390684 heartbeat IPC: 0.328313 cumulative IPC: 0.345845 (Simulation time: 0 hr 17 min 38 sec) 
Heartbeat CPU 0 instructions: 460000000 cycles: 1108982802 heartbeat IPC: 0.349747 cumulative IPC: 0.345952 (Simulation time: 0 hr 18 min 4 sec) 
Heartbeat CPU 0 instructions: 470000000 cycles: 1137264638 heartbeat IPC: 0.353584 cumulative IPC: 0.346154 (Simulation time: 0 hr 18 min 29 sec) 
