
*** ChampSim Multicore Out-of-Order Simulator ***

Warmup Instructions: 100000000
Simulation Instructions: 500000000
Number of CPUs: 1
LLC sets: 2048
LLC ways: 16
Clean RRIP Policies: 1213230212132302 Dirty RRIP Policies: 2203130222031302 PSEL Width: 10 Track Set: 4294967295 PSEL Mask: 1 Demote Mask: 3030100030301000DS Algo: 0Window size: 0
Off-chip DRAM Size: 4096 MB Channels: 1 Width: 64-bit Data Rate: 1600 MT/s

CPU 0 runs /mnt/beegfs/iconst01/spec2017/Cam4.trace.gz
NOT SORTED
TRACE STRING: /mnt/beegfs/iconst01/spec2017/Cam4.trace.gz
SORTED
TRACE STRING: /mnt/beegfs/iconst01/spec2017/Cam4.trace.gz
INITIAL
TRACE STRING: /mnt/beegfs/iconst01/spec2017/Cam4.trace.gz

champsim_seed used: 325

CPU 0 L1D next line prefetcher
CPU 0 L2C IP-based stride prefetcher
Initialize DRRIP state
Assign rand_sets[0]: 454  LLC: 2048
rand_sets[0]: 454
Assign rand_sets[1]: 1662  LLC: 2048
rand_sets[1]: 1662
Assign rand_sets[2]: 1921  LLC: 2048
rand_sets[2]: 1921
Assign rand_sets[3]: 1131  LLC: 2048
rand_sets[3]: 1131
Assign rand_sets[4]: 331  LLC: 2048
rand_sets[4]: 331
Assign rand_sets[5]: 1531  LLC: 2048
rand_sets[5]: 1531
Assign rand_sets[6]: 482  LLC: 2048
rand_sets[6]: 482
Assign rand_sets[7]: 1275  LLC: 2048
rand_sets[7]: 1275
Assign rand_sets[8]: 1876  LLC: 2048
rand_sets[8]: 1876
Assign rand_sets[9]: 2038  LLC: 2048
rand_sets[9]: 2038
Assign rand_sets[10]: 701  LLC: 2048
rand_sets[10]: 701
Assign rand_sets[11]: 479  LLC: 2048
rand_sets[11]: 479
Assign rand_sets[12]: 892  LLC: 2048
rand_sets[12]: 892
Assign rand_sets[13]: 1820  LLC: 2048
rand_sets[13]: 1820
Assign rand_sets[14]: 1505  LLC: 2048
rand_sets[14]: 1505
Assign rand_sets[15]: 1159  LLC: 2048
rand_sets[15]: 1159
Assign rand_sets[16]: 513  LLC: 2048
rand_sets[16]: 513
Assign rand_sets[17]: 703  LLC: 2048
rand_sets[17]: 703
Assign rand_sets[18]: 561  LLC: 2048
rand_sets[18]: 561
Assign rand_sets[19]: 990  LLC: 2048
rand_sets[19]: 990
Assign rand_sets[20]: 342  LLC: 2048
rand_sets[20]: 342
Assign rand_sets[21]: 882  LLC: 2048
rand_sets[21]: 882
Assign rand_sets[22]: 15  LLC: 2048
rand_sets[22]: 15
Assign rand_sets[23]: 71  LLC: 2048
rand_sets[23]: 71
Assign rand_sets[24]: 1127  LLC: 2048
rand_sets[24]: 1127
Assign rand_sets[25]: 1382  LLC: 2048
rand_sets[25]: 1382
Assign rand_sets[26]: 647  LLC: 2048
rand_sets[26]: 647
Assign rand_sets[27]: 857  LLC: 2048
rand_sets[27]: 857
Assign rand_sets[28]: 1450  LLC: 2048
rand_sets[28]: 1450
Assign rand_sets[29]: 1160  LLC: 2048
rand_sets[29]: 1160
Assign rand_sets[30]: 1852  LLC: 2048
rand_sets[30]: 1852
Assign rand_sets[31]: 1881  LLC: 2048
rand_sets[31]: 1881
Assign rand_sets[32]: 1770  LLC: 2048
rand_sets[32]: 1770
Assign rand_sets[33]: 1622  LLC: 2048
rand_sets[33]: 1622
Assign rand_sets[34]: 275  LLC: 2048
rand_sets[34]: 275
Assign rand_sets[35]: 635  LLC: 2048
rand_sets[35]: 635
Assign rand_sets[36]: 466  LLC: 2048
rand_sets[36]: 466
Assign rand_sets[37]: 1413  LLC: 2048
rand_sets[37]: 1413
Assign rand_sets[38]: 417  LLC: 2048
rand_sets[38]: 417
Assign rand_sets[39]: 472  LLC: 2048
rand_sets[39]: 472
Assign rand_sets[40]: 1340  LLC: 2048
rand_sets[40]: 1340
Assign rand_sets[41]: 852  LLC: 2048
rand_sets[41]: 852
Assign rand_sets[42]: 1365  LLC: 2048
rand_sets[42]: 1365
Assign rand_sets[43]: 47  LLC: 2048
rand_sets[43]: 47
Assign rand_sets[44]: 823  LLC: 2048
rand_sets[44]: 823
Assign rand_sets[45]: 686  LLC: 2048
rand_sets[45]: 686
Assign rand_sets[46]: 1637  LLC: 2048
rand_sets[46]: 1637
Assign rand_sets[47]: 1115  LLC: 2048
rand_sets[47]: 1115
Assign rand_sets[48]: 986  LLC: 2048
rand_sets[48]: 986
Assign rand_sets[49]: 258  LLC: 2048
rand_sets[49]: 258
Assign rand_sets[50]: 633  LLC: 2048
rand_sets[50]: 633
Assign rand_sets[51]: 920  LLC: 2048
rand_sets[51]: 920
Assign rand_sets[52]: 204  LLC: 2048
rand_sets[52]: 204
Assign rand_sets[53]: 227  LLC: 2048
rand_sets[53]: 227
Assign rand_sets[54]: 1818  LLC: 2048
rand_sets[54]: 1818
Assign rand_sets[55]: 886  LLC: 2048
rand_sets[55]: 886
Assign rand_sets[56]: 1422  LLC: 2048
rand_sets[56]: 1422
Assign rand_sets[57]: 607  LLC: 2048
rand_sets[57]: 607
Assign rand_sets[58]: 217  LLC: 2048
rand_sets[58]: 217
Assign rand_sets[59]: 1945  LLC: 2048
rand_sets[59]: 1945
Assign rand_sets[60]: 143  LLC: 2048
rand_sets[60]: 143
Assign rand_sets[61]: 1311  LLC: 2048
rand_sets[61]: 1311
Assign rand_sets[62]: 319  LLC: 2048
rand_sets[62]: 319
Assign rand_sets[63]: 1846  LLC: 2048
rand_sets[63]: 1846
 CLEAN-RRIP-POLICY-1: 1-2-1-3-2-3-0-2- CLEAN-RRIP-POLICY-2: 1-2-1-3-2-3-0-2-
 DIRTY-RRIP-POLICY-1: 2-2-0-3-1-3-0-2- DIRTY-RRIP-POLICY-2: 2-2-0-3-1-3-0-2-
 PSEL width: 10
Heartbeat CPU 0 instructions: 10000000 cycles: 4859184 heartbeat IPC: 2.05796 cumulative IPC: 2.05796 (Simulation time: 0 hr 0 min 16 sec) 
Heartbeat CPU 0 instructions: 20000000 cycles: 9790786 heartbeat IPC: 2.02774 cumulative IPC: 2.04274 (Simulation time: 0 hr 0 min 33 sec) 
Heartbeat CPU 0 instructions: 30000001 cycles: 14562958 heartbeat IPC: 2.09548 cumulative IPC: 2.06002 (Simulation time: 0 hr 0 min 47 sec) 
Heartbeat CPU 0 instructions: 40000000 cycles: 19399951 heartbeat IPC: 2.0674 cumulative IPC: 2.06186 (Simulation time: 0 hr 1 min 3 sec) 
Heartbeat CPU 0 instructions: 50000000 cycles: 24256448 heartbeat IPC: 2.0591 cumulative IPC: 2.06131 (Simulation time: 0 hr 1 min 20 sec) 
Heartbeat CPU 0 instructions: 60000000 cycles: 29181873 heartbeat IPC: 2.03028 cumulative IPC: 2.05607 (Simulation time: 0 hr 1 min 36 sec) 
Heartbeat CPU 0 instructions: 70000001 cycles: 33956899 heartbeat IPC: 2.09423 cumulative IPC: 2.06144 (Simulation time: 0 hr 1 min 51 sec) 
Heartbeat CPU 0 instructions: 80000000 cycles: 38793166 heartbeat IPC: 2.06771 cumulative IPC: 2.06222 (Simulation time: 0 hr 2 min 7 sec) 
Heartbeat CPU 0 instructions: 90000002 cycles: 43647226 heartbeat IPC: 2.06013 cumulative IPC: 2.06199 (Simulation time: 0 hr 2 min 24 sec) 
Heartbeat CPU 0 instructions: 100000000 cycles: 48566029 heartbeat IPC: 2.03301 cumulative IPC: 2.05905 (Simulation time: 0 hr 2 min 40 sec) 

Warmup complete CPU 0 instructions: 100000001 cycles: 48566030 (Simulation time: 0 hr 2 min 40 sec) 

Heartbeat CPU 0 instructions: 110000000 cycles: 61678468 heartbeat IPC: 0.762635 cumulative IPC: 0.762635 (Simulation time: 0 hr 3 min 2 sec) 
Heartbeat CPU 0 instructions: 120000000 cycles: 75429202 heartbeat IPC: 0.727234 cumulative IPC: 0.744514 (Simulation time: 0 hr 3 min 27 sec) 
Heartbeat CPU 0 instructions: 130000000 cycles: 89176285 heartbeat IPC: 0.727427 cumulative IPC: 0.73873 (Simulation time: 0 hr 3 min 51 sec) 
Heartbeat CPU 0 instructions: 140000000 cycles: 103432333 heartbeat IPC: 0.701457 cumulative IPC: 0.729045 (Simulation time: 0 hr 4 min 16 sec) 
Heartbeat CPU 0 instructions: 150000003 cycles: 116635932 heartbeat IPC: 0.757369 cumulative IPC: 0.734539 (Simulation time: 0 hr 4 min 38 sec) 
Heartbeat CPU 0 instructions: 160000000 cycles: 130381033 heartbeat IPC: 0.727532 cumulative IPC: 0.733362 (Simulation time: 0 hr 5 min 2 sec) 
Heartbeat CPU 0 instructions: 170000001 cycles: 144161773 heartbeat IPC: 0.72565 cumulative IPC: 0.73225 (Simulation time: 0 hr 5 min 27 sec) 
Heartbeat CPU 0 instructions: 180000000 cycles: 158403237 heartbeat IPC: 0.702175 cumulative IPC: 0.728351 (Simulation time: 0 hr 5 min 51 sec) 
Heartbeat CPU 0 instructions: 190000003 cycles: 171569753 heartbeat IPC: 0.759503 cumulative IPC: 0.731685 (Simulation time: 0 hr 6 min 13 sec) 
Heartbeat CPU 0 instructions: 200000000 cycles: 185310506 heartbeat IPC: 0.727762 cumulative IPC: 0.731291 (Simulation time: 0 hr 6 min 38 sec) 
Heartbeat CPU 0 instructions: 210000002 cycles: 199092183 heartbeat IPC: 0.725601 cumulative IPC: 0.73077 (Simulation time: 0 hr 7 min 2 sec) 
Heartbeat CPU 0 instructions: 220000000 cycles: 213334388 heartbeat IPC: 0.702138 cumulative IPC: 0.728295 (Simulation time: 0 hr 7 min 27 sec) 
Heartbeat CPU 0 instructions: 230000001 cycles: 226448076 heartbeat IPC: 0.762562 cumulative IPC: 0.730821 (Simulation time: 0 hr 7 min 49 sec) 
Heartbeat CPU 0 instructions: 240000000 cycles: 240177198 heartbeat IPC: 0.728379 cumulative IPC: 0.730646 (Simulation time: 0 hr 8 min 13 sec) 
Heartbeat CPU 0 instructions: 250000001 cycles: 253905366 heartbeat IPC: 0.728429 cumulative IPC: 0.730498 (Simulation time: 0 hr 8 min 38 sec) 
Heartbeat CPU 0 instructions: 260000000 cycles: 268042760 heartbeat IPC: 0.707344 cumulative IPC: 0.729007 (Simulation time: 0 hr 9 min 2 sec) 
Heartbeat CPU 0 instructions: 270000003 cycles: 281274732 heartbeat IPC: 0.755745 cumulative IPC: 0.730527 (Simulation time: 0 hr 9 min 24 sec) 
Heartbeat CPU 0 instructions: 280000000 cycles: 295020272 heartbeat IPC: 0.727508 cumulative IPC: 0.730359 (Simulation time: 0 hr 9 min 49 sec) 
Heartbeat CPU 0 instructions: 290000001 cycles: 308792759 heartbeat IPC: 0.726085 cumulative IPC: 0.730133 (Simulation time: 0 hr 10 min 13 sec) 
Heartbeat CPU 0 instructions: 300000000 cycles: 322880724 heartbeat IPC: 0.709826 cumulative IPC: 0.72909 (Simulation time: 0 hr 10 min 37 sec) 
Heartbeat CPU 0 instructions: 310000000 cycles: 336124473 heartbeat IPC: 0.755073 cumulative IPC: 0.730286 (Simulation time: 0 hr 11 min 0 sec) 
Heartbeat CPU 0 instructions: 320000000 cycles: 349915108 heartbeat IPC: 0.72513 cumulative IPC: 0.73005 (Simulation time: 0 hr 11 min 24 sec) 
Heartbeat CPU 0 instructions: 330000000 cycles: 363705171 heartbeat IPC: 0.72516 cumulative IPC: 0.729836 (Simulation time: 0 hr 11 min 48 sec) 
Heartbeat CPU 0 instructions: 340000000 cycles: 377764602 heartbeat IPC: 0.711266 cumulative IPC: 0.729043 (Simulation time: 0 hr 12 min 13 sec) 
Heartbeat CPU 0 instructions: 350000000 cycles: 391052782 heartbeat IPC: 0.752549 cumulative IPC: 0.729955 (Simulation time: 0 hr 12 min 34 sec) 
Heartbeat CPU 0 instructions: 360000000 cycles: 404869981 heartbeat IPC: 0.723736 cumulative IPC: 0.729714 (Simulation time: 0 hr 12 min 58 sec) 
Heartbeat CPU 0 instructions: 370000003 cycles: 418663131 heartbeat IPC: 0.724998 cumulative IPC: 0.729538 (Simulation time: 0 hr 13 min 23 sec) 
Heartbeat CPU 0 instructions: 380000000 cycles: 432689338 heartbeat IPC: 0.712951 cumulative IPC: 0.728933 (Simulation time: 0 hr 13 min 47 sec) 
Heartbeat CPU 0 instructions: 390000003 cycles: 445964534 heartbeat IPC: 0.753285 cumulative IPC: 0.729746 (Simulation time: 0 hr 14 min 9 sec) 
Heartbeat CPU 0 instructions: 400000000 cycles: 459773967 heartbeat IPC: 0.724142 cumulative IPC: 0.729558 (Simulation time: 0 hr 14 min 33 sec) 
Heartbeat CPU 0 instructions: 410000000 cycles: 473534973 heartbeat IPC: 0.726691 cumulative IPC: 0.729465 (Simulation time: 0 hr 14 min 57 sec) 
Heartbeat CPU 0 instructions: 420000000 cycles: 487545661 heartbeat IPC: 0.713741 cumulative IPC: 0.728963 (Simulation time: 0 hr 15 min 21 sec) 
Heartbeat CPU 0 instructions: 430000003 cycles: 500848335 heartbeat IPC: 0.751729 cumulative IPC: 0.729633 (Simulation time: 0 hr 15 min 43 sec) 
Heartbeat CPU 0 instructions: 440000000 cycles: 514656775 heartbeat IPC: 0.724195 cumulative IPC: 0.729472 (Simulation time: 0 hr 16 min 7 sec) 
Heartbeat CPU 0 instructions: 450000000 cycles: 528436185 heartbeat IPC: 0.72572 cumulative IPC: 0.729364 (Simulation time: 0 hr 16 min 31 sec) 
Heartbeat CPU 0 instructions: 460000000 cycles: 542429114 heartbeat IPC: 0.714647 cumulative IPC: 0.728947 (Simulation time: 0 hr 16 min 55 sec) 
Heartbeat CPU 0 instructions: 470000001 cycles: 555719900 heartbeat IPC: 0.752401 cumulative IPC: 0.729562 (Simulation time: 0 hr 17 min 17 sec) 
Heartbeat CPU 0 instructions: 480000000 cycles: 569507462 heartbeat IPC: 0.725291 cumulative IPC: 0.729449 (Simulation time: 0 hr 17 min 41 sec) 
Heartbeat CPU 0 instructions: 490000002 cycles: 583260753 heartbeat IPC: 0.727099 cumulative IPC: 0.729388 (Simulation time: 0 hr 18 min 5 sec) 
Heartbeat CPU 0 instructions: 500000000 cycles: 597253817 heartbeat IPC: 0.71464 cumulative IPC: 0.729012 (Simulation time: 0 hr 18 min 29 sec) 
Heartbeat CPU 0 instructions: 510000002 cycles: 610610743 heartbeat IPC: 0.748675 cumulative IPC: 0.729479 (Simulation time: 0 hr 18 min 51 sec) 
Heartbeat CPU 0 instructions: 520000000 cycles: 624381343 heartbeat IPC: 0.726185 cumulative IPC: 0.729401 (Simulation time: 0 hr 19 min 15 sec) 
Heartbeat CPU 0 instructions: 530000003 cycles: 638115038 heartbeat IPC: 0.728136 cumulative IPC: 0.729371 (Simulation time: 0 hr 19 min 39 sec) 
Heartbeat CPU 0 instructions: 540000000 cycles: 652125543 heartbeat IPC: 0.71375 cumulative IPC: 0.729008 (Simulation time: 0 hr 20 min 3 sec) 
Heartbeat CPU 0 instructions: 550000003 cycles: 665453984 heartbeat IPC: 0.750275 cumulative IPC: 0.729468 (Simulation time: 0 hr 20 min 25 sec) 
Heartbeat CPU 0 instructions: 560000000 cycles: 679201268 heartbeat IPC: 0.727416 cumulative IPC: 0.729423 (Simulation time: 0 hr 20 min 49 sec) 
Heartbeat CPU 0 instructions: 570000001 cycles: 692965161 heartbeat IPC: 0.726539 cumulative IPC: 0.729362 (Simulation time: 0 hr 21 min 13 sec) 
Heartbeat CPU 0 instructions: 580000000 cycles: 707001409 heartbeat IPC: 0.712441 cumulative IPC: 0.729001 (Simulation time: 0 hr 21 min 37 sec) 
Heartbeat CPU 0 instructions: 590000000 cycles: 720283454 heartbeat IPC: 0.752896 cumulative IPC: 0.729473 (Simulation time: 0 hr 21 min 58 sec) 
Heartbeat CPU 0 instructions: 600000000 cycles: 734032634 heartbeat IPC: 0.727316 cumulative IPC: 0.72943 (Simulation time: 0 hr 22 min 22 sec) 
Finished CPU 0 instructions: 500000001 cycles: 685466612 cumulative IPC: 0.72943 (Simulation time: 0 hr 22 min 22 sec) 

CPU 0 Branch Prediction Accuracy: 97.5275% MPKI: 2.1997
Number of Branches: 44482865 Number of Mispredictions: 1099852
Number of LOAD Instructions: 144955155
Number of LOAD Instructions (ROI): 144955155
Number of STORE Instructions: 55921098
Number of STORE Instructions (ROI): 55921098
Total Destination Memory Operands: 57111147
Total Destination Memory Operands (ROI): 57111147
Total Source Memory Operands: 144955155
Total Source Memory Operands (ROI): 144955155
Number of DEPENDED LOADS: 13454859
Number of DEPENDED LOADS (ROI): 13454859
Number of SQ_ADDED: 57111126
Number of SQ_ADDED (ROI): 57111126
Number of LQ_ADDED: 174281650
Number of LQ_ADDED (ROI): 174281650
Number of Instructions read from trace: 600000256

ChampSim completed all CPUs

Region of Interest Statistics

CPU 0 cumulative IPC: 0.72943 instructions: 500000001 cycles: 685466612
ITLB TOTAL     ACCESS:  136063321  HIT:  136060768  MISS:       2553
ITLB LOAD      ACCESS:  136063321  HIT:  136060768  MISS:       2553
ITLB RFO       ACCESS:          0  HIT:          0  MISS:          0
ITLB PREFETCH  ACCESS:          0  HIT:          0  MISS:          0
ITLB WRITEBACK ACCESS:          0  HIT:          0  MISS:          0
ITLB PREFETCH  REQUESTED:          0  ISSUED:          0  USEFUL:          0  USELESS:          0
ITLB TOTAL MSHR MERGED:       4370
ITLB LOAD MSHR MERGED:       4370
ITLB RFO MSHR MERGED:          0
ITLB PREFETCH MSHR MERGED:          0
ITLB WRITEBACK MSHR MERGED:          0
ITLB TOTAL ACCESSES:  136067691 HITS:  136060768 MISSES:       6923
ITLB LOAD ACCESSES:  136067691 HITS:  136060768 MISSES:       6923
ITLB RFO ACCESSES:          0 HITS:          0 MISSES:          0
ITLB PREFETCH ACCESSES:          0 HITS:          0 MISSES:          0
ITLB WRITEBACK ACCESSES:          0 HITS:          0 MISSES:          0
ITLB RQ ACCESS:  500000202
ITLB RQ TO_CACHE:  136067691
ITLB RQ MERGED:  363932511
ITLB RQ FORWARD:          0
ITLB WQ ACCESS:          0
ITLB WQ TO_CACHE:          0
ITLB WQ MERGED:          0
ITLB WQ FORWARD:          0
DTLB TOTAL     ACCESS:  111547174  HIT:  111410980  MISS:     136194
DTLB LOAD      ACCESS:   78949536  HIT:   78823910  MISS:     125626
DTLB RFO       ACCESS:   32597638  HIT:   32587070  MISS:      10568
DTLB PREFETCH  ACCESS:          0  HIT:          0  MISS:          0
DTLB WRITEBACK ACCESS:          0  HIT:          0  MISS:          0
DTLB PREFETCH  REQUESTED:          0  ISSUED:          0  USEFUL:          0  USELESS:          0
DTLB TOTAL MSHR MERGED:      63556
DTLB LOAD MSHR MERGED:      50936
DTLB RFO MSHR MERGED:      12620
DTLB PREFETCH MSHR MERGED:          0
DTLB WRITEBACK MSHR MERGED:          0
DTLB TOTAL ACCESSES:  111610730 HITS:  111410980 MISSES:     199750
DTLB LOAD ACCESSES:   79000472 HITS:   78823910 MISSES:     176562
DTLB RFO ACCESSES:   32610258 HITS:   32587070 MISSES:      23188
DTLB PREFETCH ACCESSES:          0 HITS:          0 MISSES:          0
DTLB WRITEBACK ACCESSES:          0 HITS:          0 MISSES:          0
DTLB RQ ACCESS:  157180565
DTLB RQ TO_CACHE:  111610730
DTLB RQ MERGED:   45569835
DTLB RQ FORWARD:          0
DTLB WQ ACCESS:          0
DTLB WQ TO_CACHE:          0
DTLB WQ MERGED:          0
DTLB WQ FORWARD:          0
L1D TOTAL     ACCESS:  198233598  HIT:  188392535  MISS:    9841063
L1D LOAD      ACCESS:   79949908  HIT:   75687492  MISS:    4262416
L1D RFO       ACCESS:   44531219  HIT:   43630814  MISS:     900405
L1D PREFETCH  ACCESS:   73752471  HIT:   69074229  MISS:    4678242
L1D WRITEBACK ACCESS:          0  HIT:          0  MISS:          0
L1D PREFETCH  REQUESTED:   80345481  ISSUED:   79889847  USEFUL:    1819958  USELESS:    2858193
L1D TOTAL MSHR MERGED:    2494634
L1D LOAD MSHR MERGED:     519420
L1D RFO MSHR MERGED:    1421491
L1D PREFETCH MSHR MERGED:     553723
L1D WRITEBACK MSHR MERGED:          0
L1D TOTAL ACCESSES:  200749466 HITS:  188413769 MISSES:   12335697
L1D LOAD ACCESSES:   80358101 HITS:   75700112 MISSES:    4657989
L1D RFO ACCESSES:   45949710 HITS:   43630814 MISSES:    2318896
L1D PREFETCH ACCESSES:   74441655 HITS:   69082843 MISSES:    5358812
L1D WRITEBACK ACCESSES:          0 HITS:          0 MISSES:          0
L1D RQ ACCESS:  109538595
L1D RQ TO_CACHE:   80345481
L1D RQ MERGED:   29180494
L1D RQ FORWARD:          0
L1D WQ ACCESS:   47641970
L1D WQ TO_CACHE:   45949710
L1D WQ MERGED:    1692260
L1D WQ FORWARD:      21234
L1I TOTAL     ACCESS:  161533865  HIT:  161269894  MISS:     263971
L1I LOAD      ACCESS:  161533865  HIT:  161269894  MISS:     263971
L1I RFO       ACCESS:          0  HIT:          0  MISS:          0
L1I PREFETCH  ACCESS:          0  HIT:          0  MISS:          0
L1I WRITEBACK ACCESS:          0  HIT:          0  MISS:          0
L1I PREFETCH  REQUESTED:          0  ISSUED:          0  USEFUL:          0  USELESS:          0
L1I TOTAL MSHR MERGED:     261042
L1I LOAD MSHR MERGED:     261042
L1I RFO MSHR MERGED:          0
L1I PREFETCH MSHR MERGED:          0
L1I WRITEBACK MSHR MERGED:          0
L1I TOTAL ACCESSES:  161794907 HITS:  161269894 MISSES:     525013
L1I LOAD ACCESSES:  161794907 HITS:  161269894 MISSES:     525013
L1I RFO ACCESSES:          0 HITS:          0 MISSES:          0
L1I PREFETCH ACCESSES:          0 HITS:          0 MISSES:          0
L1I WRITEBACK ACCESSES:          0 HITS:          0 MISSES:          0
L1I RQ ACCESS:  500000202
L1I RQ TO_CACHE:  161794907
L1I RQ MERGED:  338205295
L1I RQ FORWARD:          0
L1I WQ ACCESS:          0
L1I WQ TO_CACHE:          0
L1I WQ MERGED:          0
L1I WQ FORWARD:          0
L2C TOTAL     ACCESS:   11771780  HIT:   10382465  MISS:    1389315
L2C LOAD      ACCESS:    4402474  HIT:    3905860  MISS:     496614
L2C RFO       ACCESS:     897340  HIT:     536299  MISS:     361041
L2C PREFETCH  ACCESS:    5284420  HIT:    4755708  MISS:     528712
L2C WRITEBACK ACCESS:    1187546  HIT:    1184598  MISS:       2948
L2C PREFETCH  REQUESTED:     504621  ISSUED:     504621  USEFUL:     115023  USELESS:     413882
L2C TOTAL MSHR MERGED:       1988
L2C LOAD MSHR MERGED:        396
L2C RFO MSHR MERGED:          0
L2C PREFETCH MSHR MERGED:       1592
L2C WRITEBACK MSHR MERGED:          0
L2C TOTAL ACCESSES:   11776517 HITS:   10382685 MISSES:    1393832
L2C LOAD ACCESSES:    4402540 HITS:    3905926 MISSES:     496614
L2C RFO ACCESSES:     897405 HITS:     536364 MISSES:     361041
L2C PREFETCH ACCESSES:    5289026 HITS:    4755797 MISSES:     533229
L2C WRITEBACK ACCESSES:    1187546 HITS:    1184598 MISSES:       2948
L2C RQ ACCESS:    5299945
L2C RQ TO_CACHE:    5299814
L2C RQ MERGED:          0
L2C RQ FORWARD:          0
L2C WQ ACCESS:    1187546
L2C WQ TO_CACHE:    1187546
L2C WQ MERGED:          0
L2C WQ FORWARD:        220
LLC TOTAL     ACCESS:    1849553  HIT:    1121337  MISS:     728216
LLC LOAD      ACCESS:     496216  HIT:     239279  MISS:     256937
LLC RFO       ACCESS:     361038  HIT:     223687  MISS:     137351
LLC PREFETCH  ACCESS:     531559  HIT:     317526  MISS:     214033
LLC WRITEBACK ACCESS:     460740  HIT:     340845  MISS:     119895
LLC PREFETCH  REQUESTED:          0  ISSUED:          0  USEFUL:       2877  USELESS:     211150
LLC TOTAL MSHR MERGED:         54
LLC LOAD MSHR MERGED:         25
LLC RFO MSHR MERGED:          0
LLC PREFETCH MSHR MERGED:         29
LLC WRITEBACK MSHR MERGED:          0
LLC TOTAL ACCESSES:    1849630 HITS:    1121360 MISSES:     728270
LLC LOAD ACCESSES:     496218 HITS:     239281 MISSES:     256937
LLC RFO ACCESSES:     361041 HITS:     223690 MISSES:     137351
LLC PREFETCH ACCESSES:     531631 HITS:     317544 MISSES:     214087
LLC WRITEBACK ACCESSES:     460740 HITS:     340845 MISSES:     119895
LLC 0 RQ ACCESS:     857259
LLC 0 RQ TO_CACHE:     857254
LLC 0 RQ MERGED:          0
LLC 0 RQ FORWARD:          0
LLC WQ ACCESS:     460740
LLC WQ TO_CACHE:     460740
LLC WQ MERGED:          0
LLC WQ FORWARD:         23
Major fault: 0 Minor fault: 3073
CPU 0 L1D next line prefetcher final stats
CPU 0 L2C PC-based stride prefetcher final stats
All Misses: 884265
All Hits: 1291980
SD Algo Stats - Switches: 0 SRR-Repls: 295244 BRR-Repls: 0

DRAM Statistics
 CHANNEL 0
 RQ ROW_BUFFER_HIT:     411250  ROW_BUFFER_MISS:     196825
 DBUS_CONGESTED:     457589
 WQ ROW_BUFFER_HIT:      17656  ROW_BUFFER_MISS:     127753  FULL:          0

 AVG_CONGESTED_CYCLE: 13
LOADS RETIRED: 120673965
INSTR RETIRED: 500000000
