
*** ChampSim Multicore Out-of-Order Simulator ***

Warmup Instructions: 100000000
Simulation Instructions: 500000000
Number of CPUs: 1
LLC sets: 2048
LLC ways: 16
Clean RRIP Policies: 210000002100 Dirty RRIP Policies: 1000010010000100 PSEL Width: 10 Track Set: 4294967295 PSEL Mask: 1 Demote Mask: 4142142041421420DS Algo: 0Window size: 0
Off-chip DRAM Size: 4096 MB Channels: 1 Width: 64-bit Data Rate: 1600 MT/s

CPU 0 runs /mnt/beegfs/iconst01/spec2017/Lbm.trace.gz
NOT SORTED
TRACE STRING: /mnt/beegfs/iconst01/spec2017/Lbm.trace.gz
SORTED
TRACE STRING: /mnt/beegfs/iconst01/spec2017/Lbm.trace.gz
INITIAL
TRACE STRING: /mnt/beegfs/iconst01/spec2017/Lbm.trace.gz

champsim_seed used: 283

CPU 0 L1D next line prefetcher
CPU 0 L2C IP-based stride prefetcher
Initialize DRRIP state
Assign rand_sets[0]: 454  LLC: 2048
rand_sets[0]: 454
Assign rand_sets[1]: 1662  LLC: 2048
rand_sets[1]: 1662
Assign rand_sets[2]: 1921  LLC: 2048
rand_sets[2]: 1921
Assign rand_sets[3]: 1131  LLC: 2048
rand_sets[3]: 1131
Assign rand_sets[4]: 331  LLC: 2048
rand_sets[4]: 331
Assign rand_sets[5]: 1531  LLC: 2048
rand_sets[5]: 1531
Assign rand_sets[6]: 482  LLC: 2048
rand_sets[6]: 482
Assign rand_sets[7]: 1275  LLC: 2048
rand_sets[7]: 1275
Assign rand_sets[8]: 1876  LLC: 2048
rand_sets[8]: 1876
Assign rand_sets[9]: 2038  LLC: 2048
rand_sets[9]: 2038
Assign rand_sets[10]: 701  LLC: 2048
rand_sets[10]: 701
Assign rand_sets[11]: 479  LLC: 2048
rand_sets[11]: 479
Assign rand_sets[12]: 892  LLC: 2048
rand_sets[12]: 892
Assign rand_sets[13]: 1820  LLC: 2048
rand_sets[13]: 1820
Assign rand_sets[14]: 1505  LLC: 2048
rand_sets[14]: 1505
Assign rand_sets[15]: 1159  LLC: 2048
rand_sets[15]: 1159
Assign rand_sets[16]: 513  LLC: 2048
rand_sets[16]: 513
Assign rand_sets[17]: 703  LLC: 2048
rand_sets[17]: 703
Assign rand_sets[18]: 561  LLC: 2048
rand_sets[18]: 561
Assign rand_sets[19]: 990  LLC: 2048
rand_sets[19]: 990
Assign rand_sets[20]: 342  LLC: 2048
rand_sets[20]: 342
Assign rand_sets[21]: 882  LLC: 2048
rand_sets[21]: 882
Assign rand_sets[22]: 15  LLC: 2048
rand_sets[22]: 15
Assign rand_sets[23]: 71  LLC: 2048
rand_sets[23]: 71
Assign rand_sets[24]: 1127  LLC: 2048
rand_sets[24]: 1127
Assign rand_sets[25]: 1382  LLC: 2048
rand_sets[25]: 1382
Assign rand_sets[26]: 647  LLC: 2048
rand_sets[26]: 647
Assign rand_sets[27]: 857  LLC: 2048
rand_sets[27]: 857
Assign rand_sets[28]: 1450  LLC: 2048
rand_sets[28]: 1450
Assign rand_sets[29]: 1160  LLC: 2048
rand_sets[29]: 1160
Assign rand_sets[30]: 1852  LLC: 2048
rand_sets[30]: 1852
Assign rand_sets[31]: 1881  LLC: 2048
rand_sets[31]: 1881
Assign rand_sets[32]: 1770  LLC: 2048
rand_sets[32]: 1770
Assign rand_sets[33]: 1622  LLC: 2048
rand_sets[33]: 1622
Assign rand_sets[34]: 275  LLC: 2048
rand_sets[34]: 275
Assign rand_sets[35]: 635  LLC: 2048
rand_sets[35]: 635
Assign rand_sets[36]: 466  LLC: 2048
rand_sets[36]: 466
Assign rand_sets[37]: 1413  LLC: 2048
rand_sets[37]: 1413
Assign rand_sets[38]: 417  LLC: 2048
rand_sets[38]: 417
Assign rand_sets[39]: 472  LLC: 2048
rand_sets[39]: 472
Assign rand_sets[40]: 1340  LLC: 2048
rand_sets[40]: 1340
Assign rand_sets[41]: 852  LLC: 2048
rand_sets[41]: 852
Assign rand_sets[42]: 1365  LLC: 2048
rand_sets[42]: 1365
Assign rand_sets[43]: 47  LLC: 2048
rand_sets[43]: 47
Assign rand_sets[44]: 823  LLC: 2048
rand_sets[44]: 823
Assign rand_sets[45]: 686  LLC: 2048
rand_sets[45]: 686
Assign rand_sets[46]: 1637  LLC: 2048
rand_sets[46]: 1637
Assign rand_sets[47]: 1115  LLC: 2048
rand_sets[47]: 1115
Assign rand_sets[48]: 986  LLC: 2048
rand_sets[48]: 986
Assign rand_sets[49]: 258  LLC: 2048
rand_sets[49]: 258
Assign rand_sets[50]: 633  LLC: 2048
rand_sets[50]: 633
Assign rand_sets[51]: 920  LLC: 2048
rand_sets[51]: 920
Assign rand_sets[52]: 204  LLC: 2048
rand_sets[52]: 204
Assign rand_sets[53]: 227  LLC: 2048
rand_sets[53]: 227
Assign rand_sets[54]: 1818  LLC: 2048
rand_sets[54]: 1818
Assign rand_sets[55]: 886  LLC: 2048
rand_sets[55]: 886
Assign rand_sets[56]: 1422  LLC: 2048
rand_sets[56]: 1422
Assign rand_sets[57]: 607  LLC: 2048
rand_sets[57]: 607
Assign rand_sets[58]: 217  LLC: 2048
rand_sets[58]: 217
Assign rand_sets[59]: 1945  LLC: 2048
rand_sets[59]: 1945
Assign rand_sets[60]: 143  LLC: 2048
rand_sets[60]: 143
Assign rand_sets[61]: 1311  LLC: 2048
rand_sets[61]: 1311
Assign rand_sets[62]: 319  LLC: 2048
rand_sets[62]: 319
Assign rand_sets[63]: 1846  LLC: 2048
rand_sets[63]: 1846
 CLEAN-RRIP-POLICY-1: 0-0-0-0-2-1-0-0- CLEAN-RRIP-POLICY-2: 0-0-0-0-2-1-0-0-
 DIRTY-RRIP-POLICY-1: 1-0-0-0-0-1-0-0- DIRTY-RRIP-POLICY-2: 1-0-0-0-0-1-0-0-
 PSEL width: 10
Heartbeat CPU 0 instructions: 10000000 cycles: 4321548 heartbeat IPC: 2.31399 cumulative IPC: 2.31399 (Simulation time: 0 hr 0 min 17 sec) 
Heartbeat CPU 0 instructions: 20000000 cycles: 8643674 heartbeat IPC: 2.31368 cumulative IPC: 2.31383 (Simulation time: 0 hr 0 min 35 sec) 
Heartbeat CPU 0 instructions: 30000000 cycles: 12965479 heartbeat IPC: 2.31385 cumulative IPC: 2.31384 (Simulation time: 0 hr 0 min 52 sec) 
Heartbeat CPU 0 instructions: 40000000 cycles: 17291326 heartbeat IPC: 2.31169 cumulative IPC: 2.3133 (Simulation time: 0 hr 1 min 9 sec) 
Heartbeat CPU 0 instructions: 50000000 cycles: 21613299 heartbeat IPC: 2.31376 cumulative IPC: 2.31339 (Simulation time: 0 hr 1 min 27 sec) 
Heartbeat CPU 0 instructions: 60000000 cycles: 25935179 heartbeat IPC: 2.31381 cumulative IPC: 2.31346 (Simulation time: 0 hr 1 min 44 sec) 
Heartbeat CPU 0 instructions: 70000000 cycles: 30256744 heartbeat IPC: 2.31398 cumulative IPC: 2.31353 (Simulation time: 0 hr 2 min 2 sec) 
Heartbeat CPU 0 instructions: 80000000 cycles: 34582898 heartbeat IPC: 2.31152 cumulative IPC: 2.31328 (Simulation time: 0 hr 2 min 19 sec) 
Heartbeat CPU 0 instructions: 90000003 cycles: 38905081 heartbeat IPC: 2.31365 cumulative IPC: 2.31332 (Simulation time: 0 hr 2 min 37 sec) 
Heartbeat CPU 0 instructions: 100000000 cycles: 43226665 heartbeat IPC: 2.31397 cumulative IPC: 2.31339 (Simulation time: 0 hr 2 min 54 sec) 

Warmup complete CPU 0 instructions: 100000001 cycles: 43226666 (Simulation time: 0 hr 2 min 54 sec) 

Heartbeat CPU 0 instructions: 110000000 cycles: 57638088 heartbeat IPC: 0.693894 cumulative IPC: 0.693894 (Simulation time: 0 hr 3 min 19 sec) 
Heartbeat CPU 0 instructions: 120000000 cycles: 72073029 heartbeat IPC: 0.692764 cumulative IPC: 0.693328 (Simulation time: 0 hr 3 min 44 sec) 
Heartbeat CPU 0 instructions: 130000000 cycles: 86584837 heartbeat IPC: 0.689094 cumulative IPC: 0.691911 (Simulation time: 0 hr 4 min 9 sec) 
Heartbeat CPU 0 instructions: 140000000 cycles: 101063887 heartbeat IPC: 0.690653 cumulative IPC: 0.691596 (Simulation time: 0 hr 4 min 34 sec) 
Heartbeat CPU 0 instructions: 150000003 cycles: 115105604 heartbeat IPC: 0.712164 cumulative IPC: 0.695614 (Simulation time: 0 hr 4 min 59 sec) 
Heartbeat CPU 0 instructions: 160000000 cycles: 129199872 heartbeat IPC: 0.709508 cumulative IPC: 0.697892 (Simulation time: 0 hr 5 min 24 sec) 
Heartbeat CPU 0 instructions: 170000002 cycles: 143738483 heartbeat IPC: 0.687824 cumulative IPC: 0.696436 (Simulation time: 0 hr 5 min 49 sec) 
Heartbeat CPU 0 instructions: 180000000 cycles: 158040423 heartbeat IPC: 0.699206 cumulative IPC: 0.696781 (Simulation time: 0 hr 6 min 14 sec) 
Heartbeat CPU 0 instructions: 190000003 cycles: 175561227 heartbeat IPC: 0.57075 cumulative IPC: 0.680094 (Simulation time: 0 hr 6 min 42 sec) 
Heartbeat CPU 0 instructions: 200000000 cycles: 196368518 heartbeat IPC: 0.480601 cumulative IPC: 0.652989 (Simulation time: 0 hr 7 min 13 sec) 
Heartbeat CPU 0 instructions: 210000001 cycles: 210738003 heartbeat IPC: 0.695919 cumulative IPC: 0.656672 (Simulation time: 0 hr 7 min 38 sec) 
Heartbeat CPU 0 instructions: 220000000 cycles: 224882993 heartbeat IPC: 0.706964 cumulative IPC: 0.660588 (Simulation time: 0 hr 8 min 2 sec) 
Heartbeat CPU 0 instructions: 230000001 cycles: 239514111 heartbeat IPC: 0.683475 cumulative IPC: 0.662294 (Simulation time: 0 hr 8 min 28 sec) 
Heartbeat CPU 0 instructions: 240000000 cycles: 254000747 heartbeat IPC: 0.690291 cumulative IPC: 0.664218 (Simulation time: 0 hr 8 min 53 sec) 
Heartbeat CPU 0 instructions: 250000000 cycles: 268866248 heartbeat IPC: 0.672698 cumulative IPC: 0.664777 (Simulation time: 0 hr 9 min 18 sec) 
Heartbeat CPU 0 instructions: 260000000 cycles: 283667533 heartbeat IPC: 0.675617 cumulative IPC: 0.665444 (Simulation time: 0 hr 9 min 44 sec) 
Heartbeat CPU 0 instructions: 270000002 cycles: 298995393 heartbeat IPC: 0.652407 cumulative IPC: 0.664663 (Simulation time: 0 hr 10 min 9 sec) 
Heartbeat CPU 0 instructions: 280000000 cycles: 314448216 heartbeat IPC: 0.647131 cumulative IPC: 0.663664 (Simulation time: 0 hr 10 min 35 sec) 
Heartbeat CPU 0 instructions: 290000003 cycles: 330294801 heartbeat IPC: 0.631051 cumulative IPC: 0.661864 (Simulation time: 0 hr 11 min 2 sec) 
Heartbeat CPU 0 instructions: 300000000 cycles: 345862660 heartbeat IPC: 0.642349 cumulative IPC: 0.66086 (Simulation time: 0 hr 11 min 27 sec) 
Heartbeat CPU 0 instructions: 310000000 cycles: 362155312 heartbeat IPC: 0.613774 cumulative IPC: 0.658454 (Simulation time: 0 hr 11 min 54 sec) 
Heartbeat CPU 0 instructions: 320000000 cycles: 378334583 heartbeat IPC: 0.618075 cumulative IPC: 0.656505 (Simulation time: 0 hr 12 min 20 sec) 
Heartbeat CPU 0 instructions: 330000002 cycles: 393585307 heartbeat IPC: 0.655707 cumulative IPC: 0.65647 (Simulation time: 0 hr 12 min 45 sec) 
Heartbeat CPU 0 instructions: 340000000 cycles: 409823098 heartbeat IPC: 0.615847 cumulative IPC: 0.654671 (Simulation time: 0 hr 13 min 11 sec) 
Heartbeat CPU 0 instructions: 350000001 cycles: 424942132 heartbeat IPC: 0.661418 cumulative IPC: 0.654938 (Simulation time: 0 hr 13 min 37 sec) 
Heartbeat CPU 0 instructions: 360000000 cycles: 440870288 heartbeat IPC: 0.627819 cumulative IPC: 0.653852 (Simulation time: 0 hr 14 min 2 sec) 
Heartbeat CPU 0 instructions: 370000000 cycles: 456023950 heartbeat IPC: 0.659907 cumulative IPC: 0.654074 (Simulation time: 0 hr 14 min 28 sec) 
Heartbeat CPU 0 instructions: 380000000 cycles: 471569427 heartbeat IPC: 0.643274 cumulative IPC: 0.653682 (Simulation time: 0 hr 14 min 53 sec) 
Heartbeat CPU 0 instructions: 390000000 cycles: 486345179 heartbeat IPC: 0.676785 cumulative IPC: 0.654452 (Simulation time: 0 hr 15 min 18 sec) 
Heartbeat CPU 0 instructions: 400000000 cycles: 501043518 heartbeat IPC: 0.680349 cumulative IPC: 0.655284 (Simulation time: 0 hr 15 min 43 sec) 
Heartbeat CPU 0 instructions: 410000000 cycles: 515465736 heartbeat IPC: 0.693375 cumulative IPC: 0.656447 (Simulation time: 0 hr 16 min 7 sec) 
Heartbeat CPU 0 instructions: 420000000 cycles: 529845371 heartbeat IPC: 0.695428 cumulative IPC: 0.657599 (Simulation time: 0 hr 16 min 32 sec) 
Heartbeat CPU 0 instructions: 430000002 cycles: 544034371 heartbeat IPC: 0.704771 cumulative IPC: 0.658936 (Simulation time: 0 hr 16 min 56 sec) 
Heartbeat CPU 0 instructions: 440000000 cycles: 558193907 heartbeat IPC: 0.706238 cumulative IPC: 0.660236 (Simulation time: 0 hr 17 min 21 sec) 
Heartbeat CPU 0 instructions: 450000000 cycles: 572581440 heartbeat IPC: 0.695046 cumulative IPC: 0.661182 (Simulation time: 0 hr 17 min 45 sec) 
Heartbeat CPU 0 instructions: 460000000 cycles: 587410331 heartbeat IPC: 0.674359 cumulative IPC: 0.661541 (Simulation time: 0 hr 18 min 10 sec) 
Heartbeat CPU 0 instructions: 470000000 cycles: 601890612 heartbeat IPC: 0.690594 cumulative IPC: 0.662294 (Simulation time: 0 hr 18 min 34 sec) 
Heartbeat CPU 0 instructions: 480000000 cycles: 616104872 heartbeat IPC: 0.703519 cumulative IPC: 0.663317 (Simulation time: 0 hr 18 min 59 sec) 
Heartbeat CPU 0 instructions: 490000001 cycles: 630616587 heartbeat IPC: 0.689098 cumulative IPC: 0.663954 (Simulation time: 0 hr 19 min 23 sec) 
Heartbeat CPU 0 instructions: 500000000 cycles: 645058436 heartbeat IPC: 0.692432 cumulative IPC: 0.664638 (Simulation time: 0 hr 19 min 48 sec) 
Heartbeat CPU 0 instructions: 510000002 cycles: 659329837 heartbeat IPC: 0.700702 cumulative IPC: 0.665473 (Simulation time: 0 hr 20 min 12 sec) 
Heartbeat CPU 0 instructions: 520000000 cycles: 673400568 heartbeat IPC: 0.710695 cumulative IPC: 0.666483 (Simulation time: 0 hr 20 min 36 sec) 
Heartbeat CPU 0 instructions: 530000001 cycles: 687762688 heartbeat IPC: 0.696276 cumulative IPC: 0.667147 (Simulation time: 0 hr 21 min 1 sec) 
Heartbeat CPU 0 instructions: 540000000 cycles: 702236967 heartbeat IPC: 0.690881 cumulative IPC: 0.667668 (Simulation time: 0 hr 21 min 25 sec) 
Heartbeat CPU 0 instructions: 550000003 cycles: 716379606 heartbeat IPC: 0.707082 cumulative IPC: 0.668496 (Simulation time: 0 hr 21 min 50 sec) 
Heartbeat CPU 0 instructions: 560000000 cycles: 731359255 heartbeat IPC: 0.667572 cumulative IPC: 0.668476 (Simulation time: 0 hr 22 min 15 sec) 
Heartbeat CPU 0 instructions: 570000001 cycles: 745843623 heartbeat IPC: 0.6904 cumulative IPC: 0.668928 (Simulation time: 0 hr 22 min 39 sec) 
Heartbeat CPU 0 instructions: 580000000 cycles: 759926815 heartbeat IPC: 0.710066 cumulative IPC: 0.669736 (Simulation time: 0 hr 23 min 3 sec) 
Heartbeat CPU 0 instructions: 590000003 cycles: 773437419 heartbeat IPC: 0.74016 cumulative IPC: 0.671039 (Simulation time: 0 hr 23 min 27 sec) 
Heartbeat CPU 0 instructions: 600000000 cycles: 787938983 heartbeat IPC: 0.689581 cumulative IPC: 0.6714 (Simulation time: 0 hr 23 min 52 sec) 
Finished CPU 0 instructions: 500000000 cycles: 744712325 cumulative IPC: 0.6714 (Simulation time: 0 hr 23 min 52 sec) 

CPU 0 Branch Prediction Accuracy: 99.5915% MPKI: 0.037126
Number of Branches: 4544106 Number of Mispredictions: 18563
Number of LOAD Instructions: 149787067
Number of LOAD Instructions (ROI): 149787067
Number of STORE Instructions: 77239062
Number of STORE Instructions (ROI): 77239062
Total Destination Memory Operands: 77239062
Total Destination Memory Operands (ROI): 77239062
Total Source Memory Operands: 149787067
Total Source Memory Operands (ROI): 149787067
Number of DEPENDED LOADS: 19250495
Number of DEPENDED LOADS (ROI): 19250495
Number of SQ_ADDED: 77239036
Number of SQ_ADDED (ROI): 77239036
Number of LQ_ADDED: 149787020
Number of LQ_ADDED (ROI): 149787020
Number of Instructions read from trace: 600000256

ChampSim completed all CPUs

Region of Interest Statistics

CPU 0 cumulative IPC: 0.6714 instructions: 500000000 cycles: 744712325
ITLB TOTAL     ACCESS:   86449931  HIT:   86449930  MISS:          1
ITLB LOAD      ACCESS:   86449931  HIT:   86449930  MISS:          1
ITLB RFO       ACCESS:          0  HIT:          0  MISS:          0
ITLB PREFETCH  ACCESS:          0  HIT:          0  MISS:          0
ITLB WRITEBACK ACCESS:          0  HIT:          0  MISS:          0
ITLB PREFETCH  REQUESTED:          0  ISSUED:          0  USEFUL:          0  USELESS:          0
ITLB TOTAL MSHR MERGED:          1
ITLB LOAD MSHR MERGED:          1
ITLB RFO MSHR MERGED:          0
ITLB PREFETCH MSHR MERGED:          0
ITLB WRITEBACK MSHR MERGED:          0
ITLB TOTAL ACCESSES:   86449932 HITS:   86449930 MISSES:          2
ITLB LOAD ACCESSES:   86449932 HITS:   86449930 MISSES:          2
ITLB RFO ACCESSES:          0 HITS:          0 MISSES:          0
ITLB PREFETCH ACCESSES:          0 HITS:          0 MISSES:          0
ITLB WRITEBACK ACCESSES:          0 HITS:          0 MISSES:          0
ITLB RQ ACCESS:  500000002
ITLB RQ TO_CACHE:   86449932
ITLB RQ MERGED:  413550070
ITLB RQ FORWARD:          0
ITLB WQ ACCESS:          0
ITLB WQ TO_CACHE:          0
ITLB WQ MERGED:          0
ITLB WQ FORWARD:          0
DTLB TOTAL     ACCESS:   98102759  HIT:   97917498  MISS:     185261
DTLB LOAD      ACCESS:   55038975  HIT:   54992664  MISS:      46311
DTLB RFO       ACCESS:   43063784  HIT:   42924834  MISS:     138950
DTLB PREFETCH  ACCESS:          0  HIT:          0  MISS:          0
DTLB WRITEBACK ACCESS:          0  HIT:          0  MISS:          0
DTLB PREFETCH  REQUESTED:          0  ISSUED:          0  USEFUL:          0  USELESS:          0
DTLB TOTAL MSHR MERGED:      83540
DTLB LOAD MSHR MERGED:      83534
DTLB RFO MSHR MERGED:          6
DTLB PREFETCH MSHR MERGED:          0
DTLB WRITEBACK MSHR MERGED:          0
DTLB TOTAL ACCESSES:   98186299 HITS:   97917498 MISSES:     268801
DTLB LOAD ACCESSES:   55122509 HITS:   54992664 MISSES:     129845
DTLB RFO ACCESSES:   43063790 HITS:   42924834 MISSES:     138956
DTLB PREFETCH ACCESSES:          0 HITS:          0 MISSES:          0
DTLB WRITEBACK ACCESSES:          0 HITS:          0 MISSES:          0
DTLB RQ ACCESS:  173632032
DTLB RQ TO_CACHE:   98186299
DTLB RQ MERGED:   75445733
DTLB RQ FORWARD:          0
DTLB WQ ACCESS:          0
DTLB WQ TO_CACHE:          0
DTLB WQ MERGED:          0
DTLB WQ FORWARD:          0
L1D TOTAL     ACCESS:  164505863  HIT:  144933305  MISS:   19572558
L1D LOAD      ACCESS:   60488661  HIT:   58636092  MISS:    1852569
L1D RFO       ACCESS:   64512956  HIT:   47910824  MISS:   16602132
L1D PREFETCH  ACCESS:   39504246  HIT:   38386389  MISS:    1117857
L1D WRITEBACK ACCESS:          0  HIT:          0  MISS:          0
L1D PREFETCH  REQUESTED:   61641128  ISSUED:   61349431  USEFUL:    1115941  USELESS:       1917
L1D TOTAL MSHR MERGED:    3485728
L1D LOAD MSHR MERGED:    1222967
L1D RFO MSHR MERGED:      11201
L1D PREFETCH MSHR MERGED:    2251560
L1D WRITEBACK MSHR MERGED:          0
L1D TOTAL ACCESSES:  168577540 HITS:  145519254 MISSES:   23058286
L1D LOAD ACCESSES:   61920416 HITS:   58915380 MISSES:    3005036
L1D RFO ACCESSES:   64524124 HITS:   47910824 MISSES:   16613300
L1D PREFETCH ACCESSES:   42133000 HITS:   38693050 MISSES:    3439950
L1D WRITEBACK ACCESSES:          0 HITS:          0 MISSES:          0
L1D RQ ACCESS:  109090717
L1D RQ TO_CACHE:   61641128
L1D RQ MERGED:   47170301
L1D RQ FORWARD:          0
L1D WQ ACCESS:   64541313
L1D WQ TO_CACHE:   64524125
L1D WQ MERGED:      17188
L1D WQ FORWARD:     585949
L1I TOTAL     ACCESS:  107759399  HIT:  107759391  MISS:          8
L1I LOAD      ACCESS:  107759399  HIT:  107759391  MISS:          8
L1I RFO       ACCESS:          0  HIT:          0  MISS:          0
L1I PREFETCH  ACCESS:          0  HIT:          0  MISS:          0
L1I WRITEBACK ACCESS:          0  HIT:          0  MISS:          0
L1I PREFETCH  REQUESTED:          0  ISSUED:          0  USEFUL:          0  USELESS:          0
L1I TOTAL MSHR MERGED:          3
L1I LOAD MSHR MERGED:          3
L1I RFO MSHR MERGED:          0
L1I PREFETCH MSHR MERGED:          0
L1I WRITEBACK MSHR MERGED:          0
L1I TOTAL ACCESSES:  107759402 HITS:  107759391 MISSES:         11
L1I LOAD ACCESSES:  107759402 HITS:  107759391 MISSES:         11
L1I RFO ACCESSES:          0 HITS:          0 MISSES:          0
L1I PREFETCH ACCESSES:          0 HITS:          0 MISSES:          0
L1I WRITEBACK ACCESSES:          0 HITS:          0 MISSES:          0
L1I RQ ACCESS:  500000007
L1I RQ TO_CACHE:  107759402
L1I RQ MERGED:  392240605
L1I RQ FORWARD:          0
L1I WQ ACCESS:          0
L1I WQ TO_CACHE:          0
L1I WQ MERGED:          0
L1I WQ FORWARD:          0
L2C TOTAL     ACCESS:   36795314  HIT:   24837706  MISS:   11957608
L2C LOAD      ACCESS:    1782077  HIT:     250969  MISS:    1531108
L2C RFO       ACCESS:   16602098  HIT:    7610688  MISS:    8991410
L2C PREFETCH  ACCESS:    1808952  HIT:     375088  MISS:    1433864
L2C WRITEBACK ACCESS:   16602187  HIT:   16600961  MISS:       1226
L2C PREFETCH  REQUESTED:     817877  ISSUED:     817877  USEFUL:     248642  USELESS:    1185503
L2C TOTAL MSHR MERGED:       2689
L2C LOAD MSHR MERGED:        633
L2C RFO MSHR MERGED:          0
L2C PREFETCH MSHR MERGED:       2056
L2C WRITEBACK MSHR MERGED:          0
L2C TOTAL ACCESSES:   36992562 HITS:   24837708 MISSES:   12154854
L2C LOAD ACCESSES:    1782077 HITS:     250969 MISSES:    1531108
L2C RFO ACCESSES:   16602099 HITS:    7610690 MISSES:    8991409
L2C PREFETCH ACCESSES:    2006199 HITS:     375088 MISSES:    1631111
L2C WRITEBACK ACCESSES:   16602187 HITS:   16600961 MISSES:       1226
L2C RQ ACCESS:   18384176
L2C RQ TO_CACHE:   18384174
L2C RQ MERGED:          0
L2C RQ FORWARD:          0
L2C WQ ACCESS:   16602187
L2C WQ TO_CACHE:   16602187
L2C WQ MERGED:          0
L2C WQ FORWARD:          2
LLC TOTAL     ACCESS:   21139787  HIT:    5200644  MISS:   15939143
LLC LOAD      ACCESS:    1530475  HIT:      70547  MISS:    1459928
LLC RFO       ACCESS:    8991397  HIT:     367916  MISS:    8623481
LLC PREFETCH  ACCESS:    1625684  HIT:     120859  MISS:    1504825
LLC WRITEBACK ACCESS:    8992231  HIT:    4641322  MISS:    4350909
LLC PREFETCH  REQUESTED:          0  ISSUED:          0  USEFUL:      70461  USELESS:    1435036
LLC TOTAL MSHR MERGED:       2929
LLC LOAD MSHR MERGED:        258
LLC RFO MSHR MERGED:          0
LLC PREFETCH MSHR MERGED:       2671
LLC WRITEBACK MSHR MERGED:          0
LLC TOTAL ACCESSES:   21142728 HITS:    5200657 MISSES:   15942071
LLC LOAD ACCESSES:    1530475 HITS:      70547 MISSES:    1459928
LLC RFO ACCESSES:    8991409 HITS:     367929 MISSES:    8623480
LLC PREFETCH ACCESSES:    1628613 HITS:     120859 MISSES:    1507754
LLC WRITEBACK ACCESSES:    8992231 HITS:    4641322 MISSES:    4350909
LLC 0 RQ ACCESS:   10521884
LLC 0 RQ TO_CACHE:   10521871
LLC 0 RQ MERGED:          0
LLC 0 RQ FORWARD:          0
LLC WQ ACCESS:    8992231
LLC WQ TO_CACHE:    8992231
LLC WQ MERGED:          0
LLC WQ FORWARD:         13
Major fault: 0 Minor fault: 102360
CPU 0 L1D next line prefetcher final stats
CPU 0 L2C PC-based stride prefetcher final stats
All Misses: 18996686
All Hits: 6118612
SD Algo Stats - Switches: 0 SRR-Repls: 1638527 BRR-Repls: 0

DRAM Statistics
 CHANNEL 0
 RQ ROW_BUFFER_HIT:    3545896  ROW_BUFFER_MISS:    8042161
 DBUS_CONGESTED:   13942005
 WQ ROW_BUFFER_HIT:    1112651  ROW_BUFFER_MISS:    7510399  FULL:          0

 AVG_CONGESTED_CYCLE: 13
LOADS RETIRED: 124982196
INSTR RETIRED: 500000000
