
*** ChampSim Multicore Out-of-Order Simulator ***

Warmup Instructions: 100000000
Simulation Instructions: 500000000
Number of CPUs: 1
LLC sets: 2048
LLC ways: 16
Clean RRIP Policies: 2212230222122302 Dirty RRIP Policies: 1202130212021302 PSEL Width: 10 Track Set: 4294967295 PSEL Mask: 1 Demote Mask: 1040100010401000DS Algo: 0Window size: 0
Off-chip DRAM Size: 4096 MB Channels: 1 Width: 64-bit Data Rate: 1600 MT/s

CPU 0 runs /mnt/beegfs/iconst01/spec2017/Gcc.trace.gz
NOT SORTED
TRACE STRING: /mnt/beegfs/iconst01/spec2017/Gcc.trace.gz
SORTED
TRACE STRING: /mnt/beegfs/iconst01/spec2017/Gcc.trace.gz
INITIAL
TRACE STRING: /mnt/beegfs/iconst01/spec2017/Gcc.trace.gz

champsim_seed used: 269

CPU 0 L1D next line prefetcher
CPU 0 L2C IP-based stride prefetcher
Initialize DRRIP state
Assign rand_sets[0]: 454  LLC: 2048
rand_sets[0]: 454
Assign rand_sets[1]: 1662  LLC: 2048
rand_sets[1]: 1662
Assign rand_sets[2]: 1921  LLC: 2048
rand_sets[2]: 1921
Assign rand_sets[3]: 1131  LLC: 2048
rand_sets[3]: 1131
Assign rand_sets[4]: 331  LLC: 2048
rand_sets[4]: 331
Assign rand_sets[5]: 1531  LLC: 2048
rand_sets[5]: 1531
Assign rand_sets[6]: 482  LLC: 2048
rand_sets[6]: 482
Assign rand_sets[7]: 1275  LLC: 2048
rand_sets[7]: 1275
Assign rand_sets[8]: 1876  LLC: 2048
rand_sets[8]: 1876
Assign rand_sets[9]: 2038  LLC: 2048
rand_sets[9]: 2038
Assign rand_sets[10]: 701  LLC: 2048
rand_sets[10]: 701
Assign rand_sets[11]: 479  LLC: 2048
rand_sets[11]: 479
Assign rand_sets[12]: 892  LLC: 2048
rand_sets[12]: 892
Assign rand_sets[13]: 1820  LLC: 2048
rand_sets[13]: 1820
Assign rand_sets[14]: 1505  LLC: 2048
rand_sets[14]: 1505
Assign rand_sets[15]: 1159  LLC: 2048
rand_sets[15]: 1159
Assign rand_sets[16]: 513  LLC: 2048
rand_sets[16]: 513
Assign rand_sets[17]: 703  LLC: 2048
rand_sets[17]: 703
Assign rand_sets[18]: 561  LLC: 2048
rand_sets[18]: 561
Assign rand_sets[19]: 990  LLC: 2048
rand_sets[19]: 990
Assign rand_sets[20]: 342  LLC: 2048
rand_sets[20]: 342
Assign rand_sets[21]: 882  LLC: 2048
rand_sets[21]: 882
Assign rand_sets[22]: 15  LLC: 2048
rand_sets[22]: 15
Assign rand_sets[23]: 71  LLC: 2048
rand_sets[23]: 71
Assign rand_sets[24]: 1127  LLC: 2048
rand_sets[24]: 1127
Assign rand_sets[25]: 1382  LLC: 2048
rand_sets[25]: 1382
Assign rand_sets[26]: 647  LLC: 2048
rand_sets[26]: 647
Assign rand_sets[27]: 857  LLC: 2048
rand_sets[27]: 857
Assign rand_sets[28]: 1450  LLC: 2048
rand_sets[28]: 1450
Assign rand_sets[29]: 1160  LLC: 2048
rand_sets[29]: 1160
Assign rand_sets[30]: 1852  LLC: 2048
rand_sets[30]: 1852
Assign rand_sets[31]: 1881  LLC: 2048
rand_sets[31]: 1881
Assign rand_sets[32]: 1770  LLC: 2048
rand_sets[32]: 1770
Assign rand_sets[33]: 1622  LLC: 2048
rand_sets[33]: 1622
Assign rand_sets[34]: 275  LLC: 2048
rand_sets[34]: 275
Assign rand_sets[35]: 635  LLC: 2048
rand_sets[35]: 635
Assign rand_sets[36]: 466  LLC: 2048
rand_sets[36]: 466
Assign rand_sets[37]: 1413  LLC: 2048
rand_sets[37]: 1413
Assign rand_sets[38]: 417  LLC: 2048
rand_sets[38]: 417
Assign rand_sets[39]: 472  LLC: 2048
rand_sets[39]: 472
Assign rand_sets[40]: 1340  LLC: 2048
rand_sets[40]: 1340
Assign rand_sets[41]: 852  LLC: 2048
rand_sets[41]: 852
Assign rand_sets[42]: 1365  LLC: 2048
rand_sets[42]: 1365
Assign rand_sets[43]: 47  LLC: 2048
rand_sets[43]: 47
Assign rand_sets[44]: 823  LLC: 2048
rand_sets[44]: 823
Assign rand_sets[45]: 686  LLC: 2048
rand_sets[45]: 686
Assign rand_sets[46]: 1637  LLC: 2048
rand_sets[46]: 1637
Assign rand_sets[47]: 1115  LLC: 2048
rand_sets[47]: 1115
Assign rand_sets[48]: 986  LLC: 2048
rand_sets[48]: 986
Assign rand_sets[49]: 258  LLC: 2048
rand_sets[49]: 258
Assign rand_sets[50]: 633  LLC: 2048
rand_sets[50]: 633
Assign rand_sets[51]: 920  LLC: 2048
rand_sets[51]: 920
Assign rand_sets[52]: 204  LLC: 2048
rand_sets[52]: 204
Assign rand_sets[53]: 227  LLC: 2048
rand_sets[53]: 227
Assign rand_sets[54]: 1818  LLC: 2048
rand_sets[54]: 1818
Assign rand_sets[55]: 886  LLC: 2048
rand_sets[55]: 886
Assign rand_sets[56]: 1422  LLC: 2048
rand_sets[56]: 1422
Assign rand_sets[57]: 607  LLC: 2048
rand_sets[57]: 607
Assign rand_sets[58]: 217  LLC: 2048
rand_sets[58]: 217
Assign rand_sets[59]: 1945  LLC: 2048
rand_sets[59]: 1945
Assign rand_sets[60]: 143  LLC: 2048
rand_sets[60]: 143
Assign rand_sets[61]: 1311  LLC: 2048
rand_sets[61]: 1311
Assign rand_sets[62]: 319  LLC: 2048
rand_sets[62]: 319
Assign rand_sets[63]: 1846  LLC: 2048
rand_sets[63]: 1846
 CLEAN-RRIP-POLICY-1: 2-2-1-2-2-3-0-2- CLEAN-RRIP-POLICY-2: 2-2-1-2-2-3-0-2-
 DIRTY-RRIP-POLICY-1: 1-2-0-2-1-3-0-2- DIRTY-RRIP-POLICY-2: 1-2-0-2-1-3-0-2-
 PSEL width: 10
Heartbeat CPU 0 instructions: 10000001 cycles: 7315904 heartbeat IPC: 1.36689 cumulative IPC: 1.36689 (Simulation time: 0 hr 0 min 14 sec) 
Heartbeat CPU 0 instructions: 20000000 cycles: 14307954 heartbeat IPC: 1.4302 cumulative IPC: 1.39782 (Simulation time: 0 hr 0 min 29 sec) 
Heartbeat CPU 0 instructions: 30000001 cycles: 21021062 heartbeat IPC: 1.48962 cumulative IPC: 1.42714 (Simulation time: 0 hr 0 min 44 sec) 
Heartbeat CPU 0 instructions: 40000000 cycles: 27481874 heartbeat IPC: 1.54779 cumulative IPC: 1.4555 (Simulation time: 0 hr 1 min 0 sec) 
Heartbeat CPU 0 instructions: 50000001 cycles: 33583741 heartbeat IPC: 1.63884 cumulative IPC: 1.48882 (Simulation time: 0 hr 1 min 15 sec) 
Heartbeat CPU 0 instructions: 60000000 cycles: 40065061 heartbeat IPC: 1.5429 cumulative IPC: 1.49756 (Simulation time: 0 hr 1 min 30 sec) 
Heartbeat CPU 0 instructions: 70000000 cycles: 47104578 heartbeat IPC: 1.42055 cumulative IPC: 1.48606 (Simulation time: 0 hr 1 min 44 sec) 
Heartbeat CPU 0 instructions: 80000000 cycles: 54195277 heartbeat IPC: 1.4103 cumulative IPC: 1.47614 (Simulation time: 0 hr 1 min 58 sec) 
Heartbeat CPU 0 instructions: 90000003 cycles: 61200446 heartbeat IPC: 1.42752 cumulative IPC: 1.47058 (Simulation time: 0 hr 2 min 12 sec) 
Heartbeat CPU 0 instructions: 100000000 cycles: 68368408 heartbeat IPC: 1.3951 cumulative IPC: 1.46266 (Simulation time: 0 hr 2 min 26 sec) 

Warmup complete CPU 0 instructions: 100000004 cycles: 68368409 (Simulation time: 0 hr 2 min 26 sec) 

Heartbeat CPU 0 instructions: 110000003 cycles: 96037487 heartbeat IPC: 0.361414 cumulative IPC: 0.361414 (Simulation time: 0 hr 2 min 54 sec) 
Heartbeat CPU 0 instructions: 120000000 cycles: 123501273 heartbeat IPC: 0.364116 cumulative IPC: 0.36276 (Simulation time: 0 hr 3 min 21 sec) 
Heartbeat CPU 0 instructions: 130000000 cycles: 148493779 heartbeat IPC: 0.40012 cumulative IPC: 0.374413 (Simulation time: 0 hr 3 min 48 sec) 
Heartbeat CPU 0 instructions: 140000000 cycles: 178174920 heartbeat IPC: 0.336914 cumulative IPC: 0.364277 (Simulation time: 0 hr 4 min 15 sec) 
Heartbeat CPU 0 instructions: 150000000 cycles: 208094399 heartbeat IPC: 0.33423 cumulative IPC: 0.357843 (Simulation time: 0 hr 4 min 42 sec) 
Heartbeat CPU 0 instructions: 160000000 cycles: 235535069 heartbeat IPC: 0.364423 cumulative IPC: 0.358923 (Simulation time: 0 hr 5 min 9 sec) 
Heartbeat CPU 0 instructions: 170000001 cycles: 263560149 heartbeat IPC: 0.356823 cumulative IPC: 0.358622 (Simulation time: 0 hr 5 min 37 sec) 
Heartbeat CPU 0 instructions: 180000000 cycles: 292036467 heartbeat IPC: 0.351169 cumulative IPC: 0.357673 (Simulation time: 0 hr 6 min 4 sec) 
Heartbeat CPU 0 instructions: 190000002 cycles: 320105277 heartbeat IPC: 0.356267 cumulative IPC: 0.357516 (Simulation time: 0 hr 6 min 32 sec) 
Heartbeat CPU 0 instructions: 200000000 cycles: 348492844 heartbeat IPC: 0.352267 cumulative IPC: 0.356984 (Simulation time: 0 hr 6 min 59 sec) 
Heartbeat CPU 0 instructions: 210000002 cycles: 376404497 heartbeat IPC: 0.358273 cumulative IPC: 0.357101 (Simulation time: 0 hr 7 min 27 sec) 
Heartbeat CPU 0 instructions: 220000000 cycles: 405719484 heartbeat IPC: 0.341122 cumulative IPC: 0.355713 (Simulation time: 0 hr 7 min 53 sec) 
Heartbeat CPU 0 instructions: 230000000 cycles: 433265406 heartbeat IPC: 0.36303 cumulative IPC: 0.356265 (Simulation time: 0 hr 8 min 19 sec) 
Heartbeat CPU 0 instructions: 240000000 cycles: 459188643 heartbeat IPC: 0.385754 cumulative IPC: 0.358221 (Simulation time: 0 hr 8 min 45 sec) 
Heartbeat CPU 0 instructions: 250000000 cycles: 489318215 heartbeat IPC: 0.3319 cumulative IPC: 0.356337 (Simulation time: 0 hr 9 min 13 sec) 
Heartbeat CPU 0 instructions: 260000000 cycles: 516408475 heartbeat IPC: 0.369136 cumulative IPC: 0.357111 (Simulation time: 0 hr 9 min 40 sec) 
Heartbeat CPU 0 instructions: 270000003 cycles: 544842012 heartbeat IPC: 0.351697 cumulative IPC: 0.356788 (Simulation time: 0 hr 10 min 8 sec) 
Heartbeat CPU 0 instructions: 280000000 cycles: 573061640 heartbeat IPC: 0.354363 cumulative IPC: 0.356652 (Simulation time: 0 hr 10 min 36 sec) 
Heartbeat CPU 0 instructions: 290000000 cycles: 602026580 heartbeat IPC: 0.345245 cumulative IPC: 0.356033 (Simulation time: 0 hr 11 min 4 sec) 
Heartbeat CPU 0 instructions: 300000000 cycles: 632163978 heartbeat IPC: 0.331814 cumulative IPC: 0.354739 (Simulation time: 0 hr 11 min 31 sec) 
Heartbeat CPU 0 instructions: 310000001 cycles: 661668225 heartbeat IPC: 0.338934 cumulative IPC: 0.353953 (Simulation time: 0 hr 11 min 58 sec) 
Heartbeat CPU 0 instructions: 320000000 cycles: 689986788 heartbeat IPC: 0.353125 cumulative IPC: 0.353915 (Simulation time: 0 hr 12 min 24 sec) 
Heartbeat CPU 0 instructions: 330000000 cycles: 718703476 heartbeat IPC: 0.34823 cumulative IPC: 0.353664 (Simulation time: 0 hr 12 min 51 sec) 
Heartbeat CPU 0 instructions: 340000000 cycles: 748022938 heartbeat IPC: 0.34107 cumulative IPC: 0.353121 (Simulation time: 0 hr 13 min 18 sec) 
Heartbeat CPU 0 instructions: 350000003 cycles: 775132178 heartbeat IPC: 0.368878 cumulative IPC: 0.353725 (Simulation time: 0 hr 13 min 44 sec) 
Heartbeat CPU 0 instructions: 360000000 cycles: 803338234 heartbeat IPC: 0.354534 cumulative IPC: 0.353756 (Simulation time: 0 hr 14 min 9 sec) 
Heartbeat CPU 0 instructions: 370000000 cycles: 831502055 heartbeat IPC: 0.355065 cumulative IPC: 0.353804 (Simulation time: 0 hr 14 min 35 sec) 
Heartbeat CPU 0 instructions: 380000000 cycles: 859991159 heartbeat IPC: 0.351011 cumulative IPC: 0.353704 (Simulation time: 0 hr 15 min 0 sec) 
Heartbeat CPU 0 instructions: 390000001 cycles: 887580079 heartbeat IPC: 0.362464 cumulative IPC: 0.353999 (Simulation time: 0 hr 15 min 25 sec) 
Heartbeat CPU 0 instructions: 400000000 cycles: 916225174 heartbeat IPC: 0.3491 cumulative IPC: 0.353833 (Simulation time: 0 hr 15 min 51 sec) 
Heartbeat CPU 0 instructions: 410000001 cycles: 943497415 heartbeat IPC: 0.366673 cumulative IPC: 0.354233 (Simulation time: 0 hr 16 min 16 sec) 
Heartbeat CPU 0 instructions: 420000000 cycles: 970781627 heartbeat IPC: 0.366512 cumulative IPC: 0.354605 (Simulation time: 0 hr 16 min 41 sec) 
Heartbeat CPU 0 instructions: 430000002 cycles: 998475941 heartbeat IPC: 0.361085 cumulative IPC: 0.354798 (Simulation time: 0 hr 17 min 7 sec) 
Heartbeat CPU 0 instructions: 440000000 cycles: 1028062994 heartbeat IPC: 0.337986 cumulative IPC: 0.354279 (Simulation time: 0 hr 17 min 32 sec) 
Heartbeat CPU 0 instructions: 450000002 cycles: 1057332459 heartbeat IPC: 0.341653 cumulative IPC: 0.353906 (Simulation time: 0 hr 17 min 58 sec) 
Heartbeat CPU 0 instructions: 460000000 cycles: 1085026299 heartbeat IPC: 0.361091 cumulative IPC: 0.354101 (Simulation time: 0 hr 18 min 23 sec) 
Heartbeat CPU 0 instructions: 470000000 cycles: 1112629738 heartbeat IPC: 0.362274 cumulative IPC: 0.354317 (Simulation time: 0 hr 18 min 48 sec) 
Heartbeat CPU 0 instructions: 480000000 cycles: 1140480976 heartbeat IPC: 0.35905 cumulative IPC: 0.35444 (Simulation time: 0 hr 19 min 14 sec) 
Heartbeat CPU 0 instructions: 490000000 cycles: 1168038339 heartbeat IPC: 0.362879 cumulative IPC: 0.354652 (Simulation time: 0 hr 19 min 39 sec) 
Heartbeat CPU 0 instructions: 500000000 cycles: 1196363285 heartbeat IPC: 0.353046 cumulative IPC: 0.354612 (Simulation time: 0 hr 20 min 4 sec) 
Heartbeat CPU 0 instructions: 510000000 cycles: 1230606593 heartbeat IPC: 0.292028 cumulative IPC: 0.352768 (Simulation time: 0 hr 20 min 33 sec) 
Heartbeat CPU 0 instructions: 520000000 cycles: 1258614954 heartbeat IPC: 0.357036 cumulative IPC: 0.352868 (Simulation time: 0 hr 20 min 59 sec) 
Heartbeat CPU 0 instructions: 530000001 cycles: 1288256893 heartbeat IPC: 0.33736 cumulative IPC: 0.352491 (Simulation time: 0 hr 21 min 26 sec) 
Heartbeat CPU 0 instructions: 540000000 cycles: 1316367547 heartbeat IPC: 0.355737 cumulative IPC: 0.352564 (Simulation time: 0 hr 21 min 52 sec) 
Heartbeat CPU 0 instructions: 550000001 cycles: 1345553357 heartbeat IPC: 0.342632 cumulative IPC: 0.352337 (Simulation time: 0 hr 22 min 20 sec) 
Heartbeat CPU 0 instructions: 560000000 cycles: 1370959917 heartbeat IPC: 0.393599 cumulative IPC: 0.353142 (Simulation time: 0 hr 22 min 46 sec) 
Heartbeat CPU 0 instructions: 570000000 cycles: 1400519142 heartbeat IPC: 0.338304 cumulative IPC: 0.352813 (Simulation time: 0 hr 23 min 13 sec) 
Heartbeat CPU 0 instructions: 580000000 cycles: 1428485157 heartbeat IPC: 0.357577 cumulative IPC: 0.352911 (Simulation time: 0 hr 23 min 39 sec) 
Heartbeat CPU 0 instructions: 590000001 cycles: 1453212167 heartbeat IPC: 0.404416 cumulative IPC: 0.353831 (Simulation time: 0 hr 24 min 4 sec) 
Heartbeat CPU 0 instructions: 600000000 cycles: 1479253371 heartbeat IPC: 0.384007 cumulative IPC: 0.354387 (Simulation time: 0 hr 24 min 30 sec) 
Finished CPU 0 instructions: 500000000 cycles: 1410884984 cumulative IPC: 0.354387 (Simulation time: 0 hr 24 min 30 sec) 

CPU 0 Branch Prediction Accuracy: 86.4311% MPKI: 26.2662
Number of Branches: 96788573 Number of Mispredictions: 13133102
Number of LOAD Instructions: 164682285
Number of LOAD Instructions (ROI): 164682285
Number of STORE Instructions: 78194750
Number of STORE Instructions (ROI): 78194750
Total Destination Memory Operands: 83268534
Total Destination Memory Operands (ROI): 83268534
Total Source Memory Operands: 164712438
Total Source Memory Operands (ROI): 164712438
Number of DEPENDED LOADS: 7057229
Number of DEPENDED LOADS (ROI): 7057229
Number of SQ_ADDED: 83268522
Number of SQ_ADDED (ROI): 83268522
Number of LQ_ADDED: 236517963
Number of LQ_ADDED (ROI): 236517963
Number of Instructions read from trace: 600000066

ChampSim completed all CPUs

Region of Interest Statistics

CPU 0 cumulative IPC: 0.354387 instructions: 500000000 cycles: 1410884984
ITLB TOTAL     ACCESS:  100517344  HIT:  100312898  MISS:     204446
ITLB LOAD      ACCESS:  100517344  HIT:  100312898  MISS:     204446
ITLB RFO       ACCESS:          0  HIT:          0  MISS:          0
ITLB PREFETCH  ACCESS:          0  HIT:          0  MISS:          0
ITLB WRITEBACK ACCESS:          0  HIT:          0  MISS:          0
ITLB PREFETCH  REQUESTED:          0  ISSUED:          0  USEFUL:          0  USELESS:          0
ITLB TOTAL MSHR MERGED:     172424
ITLB LOAD MSHR MERGED:     172424
ITLB RFO MSHR MERGED:          0
ITLB PREFETCH MSHR MERGED:          0
ITLB WRITEBACK MSHR MERGED:          0
ITLB TOTAL ACCESSES:  100689768 HITS:  100312898 MISSES:     376870
ITLB LOAD ACCESSES:  100689768 HITS:  100312898 MISSES:     376870
ITLB RFO ACCESSES:          0 HITS:          0 MISSES:          0
ITLB PREFETCH ACCESSES:          0 HITS:          0 MISSES:          0
ITLB WRITEBACK ACCESSES:          0 HITS:          0 MISSES:          0
ITLB RQ ACCESS:  500000057
ITLB RQ TO_CACHE:  100689768
ITLB RQ MERGED:  399310289
ITLB RQ FORWARD:          0
ITLB WQ ACCESS:          0
ITLB WQ TO_CACHE:          0
ITLB WQ MERGED:          0
ITLB WQ FORWARD:          0
DTLB TOTAL     ACCESS:  165340148  HIT:  164705795  MISS:     634353
DTLB LOAD      ACCESS:  106294680  HIT:  105724732  MISS:     569948
DTLB RFO       ACCESS:   59045468  HIT:   58981063  MISS:      64405
DTLB PREFETCH  ACCESS:          0  HIT:          0  MISS:          0
DTLB WRITEBACK ACCESS:          0  HIT:          0  MISS:          0
DTLB PREFETCH  REQUESTED:          0  ISSUED:          0  USEFUL:          0  USELESS:          0
DTLB TOTAL MSHR MERGED:      99967
DTLB LOAD MSHR MERGED:      59425
DTLB RFO MSHR MERGED:      40542
DTLB PREFETCH MSHR MERGED:          0
DTLB WRITEBACK MSHR MERGED:          0
DTLB TOTAL ACCESSES:  165440115 HITS:  164705795 MISSES:     734320
DTLB LOAD ACCESSES:  106354105 HITS:  105724732 MISSES:     629373
DTLB RFO ACCESSES:   59086010 HITS:   58981063 MISSES:     104947
DTLB PREFETCH ACCESSES:          0 HITS:          0 MISSES:          0
DTLB WRITEBACK ACCESSES:          0 HITS:          0 MISSES:          0
DTLB RQ ACCESS:  200313670
DTLB RQ TO_CACHE:  165440115
DTLB RQ MERGED:   34873555
DTLB RQ FORWARD:          0
DTLB WQ ACCESS:          0
DTLB WQ TO_CACHE:          0
DTLB WQ MERGED:          0
DTLB WQ FORWARD:          0
L1D TOTAL     ACCESS:  281888279  HIT:  273978855  MISS:    7909424
L1D LOAD      ACCESS:  110432277  HIT:  107158457  MISS:    3273820
L1D RFO       ACCESS:   67129932  HIT:   66239803  MISS:     890129
L1D PREFETCH  ACCESS:  104326070  HIT:  100580595  MISS:    3745475
L1D WRITEBACK ACCESS:          0  HIT:          0  MISS:          0
L1D PREFETCH  REQUESTED:  110819288  ISSUED:  109119921  USEFUL:    1666059  USELESS:    2079380
L1D TOTAL MSHR MERGED:    2820472
L1D LOAD MSHR MERGED:     480350
L1D RFO MSHR MERGED:    1855586
L1D PREFETCH MSHR MERGED:     484536
L1D WRITEBACK MSHR MERGED:          0
L1D TOTAL ACCESSES:  284736154 HITS:  274006258 MISSES:   10729896
L1D LOAD ACCESSES:  110820703 HITS:  107159872 MISSES:    3660831
L1D RFO ACCESSES:   68974188 HITS:   66239803 MISSES:    2734385
L1D PREFETCH ACCESSES:  104941263 HITS:  100606583 MISSES:    4334680
L1D WRITEBACK ACCESSES:          0 HITS:          0 MISSES:          0
L1D RQ ACCESS:  130761067
L1D RQ TO_CACHE:  110819291
L1D RQ MERGED:   19940361
L1D RQ FORWARD:          0
L1D WQ ACCESS:   69552603
L1D WQ TO_CACHE:   68974189
L1D WQ MERGED:     578414
L1D WQ FORWARD:      27403
L1I TOTAL     ACCESS:  126564482  HIT:  122325929  MISS:    4238553
L1I LOAD      ACCESS:  126564482  HIT:  122325929  MISS:    4238553
L1I RFO       ACCESS:          0  HIT:          0  MISS:          0
L1I PREFETCH  ACCESS:          0  HIT:          0  MISS:          0
L1I WRITEBACK ACCESS:          0  HIT:          0  MISS:          0
L1I PREFETCH  REQUESTED:          0  ISSUED:          0  USEFUL:          0  USELESS:          0
L1I TOTAL MSHR MERGED:    1834775
L1I LOAD MSHR MERGED:    1834775
L1I RFO MSHR MERGED:          0
L1I PREFETCH MSHR MERGED:          0
L1I WRITEBACK MSHR MERGED:          0
L1I TOTAL ACCESSES:  128399260 HITS:  122325929 MISSES:    6073331
L1I LOAD ACCESSES:  128399260 HITS:  122325929 MISSES:    6073331
L1I RFO ACCESSES:          0 HITS:          0 MISSES:          0
L1I PREFETCH ACCESSES:          0 HITS:          0 MISSES:          0
L1I WRITEBACK ACCESSES:          0 HITS:          0 MISSES:          0
L1I RQ ACCESS:  500000057
L1I RQ TO_CACHE:  128399260
L1I RQ MERGED:  371600797
L1I RQ FORWARD:          0
L1I WQ ACCESS:          0
L1I WQ TO_CACHE:          0
L1I WQ MERGED:          0
L1I WQ FORWARD:          0
L2C TOTAL     ACCESS:   14905774  HIT:   11159243  MISS:    3746531
L2C LOAD      ACCESS:    7418828  HIT:    5098943  MISS:    2319885
L2C RFO       ACCESS:     878701  HIT:     409898  MISS:     468803
L2C PREFETCH  ACCESS:    4568995  HIT:    3628407  MISS:     940588
L2C WRITEBACK ACCESS:    2039250  HIT:    2021995  MISS:      17255
L2C PREFETCH  REQUESTED:     842779  ISSUED:     842779  USEFUL:     203476  USELESS:     736818
L2C TOTAL MSHR MERGED:       6638
L2C LOAD MSHR MERGED:        710
L2C RFO MSHR MERGED:          0
L2C PREFETCH MSHR MERGED:       5928
L2C WRITEBACK MSHR MERGED:          0
L2C TOTAL ACCESSES:   14913283 HITS:   11159694 MISSES:    3753589
L2C LOAD ACCESSES:    7419034 HITS:    5099149 MISSES:    2319885
L2C RFO ACCESSES:     878799 HITS:     409996 MISSES:     468803
L2C PREFETCH ACCESSES:    4576200 HITS:    3628554 MISSES:     947646
L2C WRITEBACK ACCESSES:    2039250 HITS:    2021995 MISSES:      17255
L2C RQ ACCESS:    8297836
L2C RQ TO_CACHE:    8297532
L2C RQ MERGED:          0
L2C RQ FORWARD:          0
L2C WQ ACCESS:    2039250
L2C WQ TO_CACHE:    2039250
L2C WQ MERGED:          0
L2C WQ FORWARD:        451
LLC TOTAL     ACCESS:    4609860  HIT:    4056931  MISS:     552929
LLC LOAD      ACCESS:    2319160  HIT:    2045800  MISS:     273360
LLC RFO       ACCESS:     468793  HIT:     422397  MISS:      46396
LLC PREFETCH  ACCESS:     941602  HIT:     726470  MISS:     215132
LLC WRITEBACK ACCESS:     880305  HIT:     862264  MISS:      18041
LLC PREFETCH  REQUESTED:          0  ISSUED:          0  USEFUL:      30566  USELESS:     185462
LLC TOTAL MSHR MERGED:         91
LLC LOAD MSHR MERGED:         29
LLC RFO MSHR MERGED:          0
LLC PREFETCH MSHR MERGED:         62
LLC WRITEBACK MSHR MERGED:          0
LLC TOTAL ACCESSES:    4609986 HITS:    4056966 MISSES:     553020
LLC LOAD ACCESSES:    2319175 HITS:    2045815 MISSES:     273360
LLC RFO ACCESSES:     468803 HITS:     422407 MISSES:      46396
LLC PREFETCH ACCESSES:     941703 HITS:     726480 MISSES:     215223
LLC WRITEBACK ACCESSES:     880305 HITS:     862264 MISSES:      18041
LLC 0 RQ ACCESS:    2787978
LLC 0 RQ TO_CACHE:    2787953
LLC 0 RQ MERGED:          0
LLC 0 RQ FORWARD:          0
LLC WQ ACCESS:     880305
LLC WQ TO_CACHE:     880305
LLC WQ MERGED:          0
LLC WQ FORWARD:         35
Major fault: 0 Minor fault: 12862
CPU 0 L1D next line prefetcher final stats
CPU 0 L2C PC-based stride prefetcher final stats
All Misses: 662719
All Hits: 4764147
SD Algo Stats - Switches: 0 SRR-Repls: 324534 BRR-Repls: 0

DRAM Statistics
 CHANNEL 0
 RQ ROW_BUFFER_HIT:     118616  ROW_BUFFER_MISS:     415812
 DBUS_CONGESTED:     311127
 WQ ROW_BUFFER_HIT:      10884  ROW_BUFFER_MISS:     143697  FULL:          0

 AVG_CONGESTED_CYCLE: 13
LOADS RETIRED: 136549171
INSTR RETIRED: 500000000
