
*** ChampSim Multicore Out-of-Order Simulator ***

Warmup Instructions: 100000000
Simulation Instructions: 500000000
Number of CPUs: 1
LLC sets: 2048
LLC ways: 16
Clean RRIP Policies: 1113110111131101 Dirty RRIP Policies: 1103110111031101 PSEL Width: 10 Track Set: 4294967295 PSEL Mask: 1 Demote Mask: 3144400031444DS Algo: 0Window size: 0
Off-chip DRAM Size: 4096 MB Channels: 1 Width: 64-bit Data Rate: 1600 MT/s

CPU 0 runs /mnt/beegfs/iconst01/spec2017/Gcc.trace.gz
NOT SORTED
TRACE STRING: /mnt/beegfs/iconst01/spec2017/Gcc.trace.gz
SORTED
TRACE STRING: /mnt/beegfs/iconst01/spec2017/Gcc.trace.gz
INITIAL
TRACE STRING: /mnt/beegfs/iconst01/spec2017/Gcc.trace.gz

champsim_seed used: 269

CPU 0 L1D next line prefetcher
CPU 0 L2C IP-based stride prefetcher
Initialize DRRIP state
Assign rand_sets[0]: 454  LLC: 2048
rand_sets[0]: 454
Assign rand_sets[1]: 1662  LLC: 2048
rand_sets[1]: 1662
Assign rand_sets[2]: 1921  LLC: 2048
rand_sets[2]: 1921
Assign rand_sets[3]: 1131  LLC: 2048
rand_sets[3]: 1131
Assign rand_sets[4]: 331  LLC: 2048
rand_sets[4]: 331
Assign rand_sets[5]: 1531  LLC: 2048
rand_sets[5]: 1531
Assign rand_sets[6]: 482  LLC: 2048
rand_sets[6]: 482
Assign rand_sets[7]: 1275  LLC: 2048
rand_sets[7]: 1275
Assign rand_sets[8]: 1876  LLC: 2048
rand_sets[8]: 1876
Assign rand_sets[9]: 2038  LLC: 2048
rand_sets[9]: 2038
Assign rand_sets[10]: 701  LLC: 2048
rand_sets[10]: 701
Assign rand_sets[11]: 479  LLC: 2048
rand_sets[11]: 479
Assign rand_sets[12]: 892  LLC: 2048
rand_sets[12]: 892
Assign rand_sets[13]: 1820  LLC: 2048
rand_sets[13]: 1820
Assign rand_sets[14]: 1505  LLC: 2048
rand_sets[14]: 1505
Assign rand_sets[15]: 1159  LLC: 2048
rand_sets[15]: 1159
Assign rand_sets[16]: 513  LLC: 2048
rand_sets[16]: 513
Assign rand_sets[17]: 703  LLC: 2048
rand_sets[17]: 703
Assign rand_sets[18]: 561  LLC: 2048
rand_sets[18]: 561
Assign rand_sets[19]: 990  LLC: 2048
rand_sets[19]: 990
Assign rand_sets[20]: 342  LLC: 2048
rand_sets[20]: 342
Assign rand_sets[21]: 882  LLC: 2048
rand_sets[21]: 882
Assign rand_sets[22]: 15  LLC: 2048
rand_sets[22]: 15
Assign rand_sets[23]: 71  LLC: 2048
rand_sets[23]: 71
Assign rand_sets[24]: 1127  LLC: 2048
rand_sets[24]: 1127
Assign rand_sets[25]: 1382  LLC: 2048
rand_sets[25]: 1382
Assign rand_sets[26]: 647  LLC: 2048
rand_sets[26]: 647
Assign rand_sets[27]: 857  LLC: 2048
rand_sets[27]: 857
Assign rand_sets[28]: 1450  LLC: 2048
rand_sets[28]: 1450
Assign rand_sets[29]: 1160  LLC: 2048
rand_sets[29]: 1160
Assign rand_sets[30]: 1852  LLC: 2048
rand_sets[30]: 1852
Assign rand_sets[31]: 1881  LLC: 2048
rand_sets[31]: 1881
Assign rand_sets[32]: 1770  LLC: 2048
rand_sets[32]: 1770
Assign rand_sets[33]: 1622  LLC: 2048
rand_sets[33]: 1622
Assign rand_sets[34]: 275  LLC: 2048
rand_sets[34]: 275
Assign rand_sets[35]: 635  LLC: 2048
rand_sets[35]: 635
Assign rand_sets[36]: 466  LLC: 2048
rand_sets[36]: 466
Assign rand_sets[37]: 1413  LLC: 2048
rand_sets[37]: 1413
Assign rand_sets[38]: 417  LLC: 2048
rand_sets[38]: 417
Assign rand_sets[39]: 472  LLC: 2048
rand_sets[39]: 472
Assign rand_sets[40]: 1340  LLC: 2048
rand_sets[40]: 1340
Assign rand_sets[41]: 852  LLC: 2048
rand_sets[41]: 852
Assign rand_sets[42]: 1365  LLC: 2048
rand_sets[42]: 1365
Assign rand_sets[43]: 47  LLC: 2048
rand_sets[43]: 47
Assign rand_sets[44]: 823  LLC: 2048
rand_sets[44]: 823
Assign rand_sets[45]: 686  LLC: 2048
rand_sets[45]: 686
Assign rand_sets[46]: 1637  LLC: 2048
rand_sets[46]: 1637
Assign rand_sets[47]: 1115  LLC: 2048
rand_sets[47]: 1115
Assign rand_sets[48]: 986  LLC: 2048
rand_sets[48]: 986
Assign rand_sets[49]: 258  LLC: 2048
rand_sets[49]: 258
Assign rand_sets[50]: 633  LLC: 2048
rand_sets[50]: 633
Assign rand_sets[51]: 920  LLC: 2048
rand_sets[51]: 920
Assign rand_sets[52]: 204  LLC: 2048
rand_sets[52]: 204
Assign rand_sets[53]: 227  LLC: 2048
rand_sets[53]: 227
Assign rand_sets[54]: 1818  LLC: 2048
rand_sets[54]: 1818
Assign rand_sets[55]: 886  LLC: 2048
rand_sets[55]: 886
Assign rand_sets[56]: 1422  LLC: 2048
rand_sets[56]: 1422
Assign rand_sets[57]: 607  LLC: 2048
rand_sets[57]: 607
Assign rand_sets[58]: 217  LLC: 2048
rand_sets[58]: 217
Assign rand_sets[59]: 1945  LLC: 2048
rand_sets[59]: 1945
Assign rand_sets[60]: 143  LLC: 2048
rand_sets[60]: 143
Assign rand_sets[61]: 1311  LLC: 2048
rand_sets[61]: 1311
Assign rand_sets[62]: 319  LLC: 2048
rand_sets[62]: 319
Assign rand_sets[63]: 1846  LLC: 2048
rand_sets[63]: 1846
 CLEAN-RRIP-POLICY-1: 1-1-1-3-1-1-0-1- CLEAN-RRIP-POLICY-2: 1-1-1-3-1-1-0-1-
 DIRTY-RRIP-POLICY-1: 1-1-0-3-1-1-0-1- DIRTY-RRIP-POLICY-2: 1-1-0-3-1-1-0-1-
 PSEL width: 10
Heartbeat CPU 0 instructions: 10000001 cycles: 7315978 heartbeat IPC: 1.36687 cumulative IPC: 1.36687 (Simulation time: 0 hr 0 min 15 sec) 
Heartbeat CPU 0 instructions: 20000000 cycles: 14307479 heartbeat IPC: 1.43031 cumulative IPC: 1.39787 (Simulation time: 0 hr 0 min 30 sec) 
Heartbeat CPU 0 instructions: 30000001 cycles: 21020280 heartbeat IPC: 1.48969 cumulative IPC: 1.42719 (Simulation time: 0 hr 0 min 46 sec) 
Heartbeat CPU 0 instructions: 40000000 cycles: 27481033 heartbeat IPC: 1.54781 cumulative IPC: 1.45555 (Simulation time: 0 hr 1 min 2 sec) 
Heartbeat CPU 0 instructions: 50000001 cycles: 33582652 heartbeat IPC: 1.63891 cumulative IPC: 1.48886 (Simulation time: 0 hr 1 min 17 sec) 
Heartbeat CPU 0 instructions: 60000000 cycles: 40063734 heartbeat IPC: 1.54295 cumulative IPC: 1.49761 (Simulation time: 0 hr 1 min 34 sec) 
Heartbeat CPU 0 instructions: 70000000 cycles: 47100963 heartbeat IPC: 1.42101 cumulative IPC: 1.48617 (Simulation time: 0 hr 1 min 49 sec) 
Heartbeat CPU 0 instructions: 80000000 cycles: 54190250 heartbeat IPC: 1.41058 cumulative IPC: 1.47628 (Simulation time: 0 hr 2 min 3 sec) 
Heartbeat CPU 0 instructions: 90000003 cycles: 61194343 heartbeat IPC: 1.42774 cumulative IPC: 1.47072 (Simulation time: 0 hr 2 min 18 sec) 
Heartbeat CPU 0 instructions: 100000000 cycles: 68361240 heartbeat IPC: 1.3953 cumulative IPC: 1.46282 (Simulation time: 0 hr 2 min 33 sec) 

Warmup complete CPU 0 instructions: 100000004 cycles: 68361241 (Simulation time: 0 hr 2 min 33 sec) 

Heartbeat CPU 0 instructions: 110000003 cycles: 95936538 heartbeat IPC: 0.362644 cumulative IPC: 0.362643 (Simulation time: 0 hr 3 min 2 sec) 
Heartbeat CPU 0 instructions: 120000000 cycles: 123361897 heartbeat IPC: 0.364626 cumulative IPC: 0.363632 (Simulation time: 0 hr 3 min 31 sec) 
Heartbeat CPU 0 instructions: 130000000 cycles: 148308727 heartbeat IPC: 0.400853 cumulative IPC: 0.375246 (Simulation time: 0 hr 4 min 0 sec) 
Heartbeat CPU 0 instructions: 140000000 cycles: 177619084 heartbeat IPC: 0.341176 cumulative IPC: 0.366106 (Simulation time: 0 hr 4 min 29 sec) 
Heartbeat CPU 0 instructions: 150000000 cycles: 207398579 heartbeat IPC: 0.335802 cumulative IPC: 0.359616 (Simulation time: 0 hr 4 min 58 sec) 
Heartbeat CPU 0 instructions: 160000000 cycles: 234771728 heartbeat IPC: 0.365322 cumulative IPC: 0.360554 (Simulation time: 0 hr 5 min 26 sec) 
Heartbeat CPU 0 instructions: 170000001 cycles: 262731225 heartbeat IPC: 0.35766 cumulative IPC: 0.360138 (Simulation time: 0 hr 5 min 57 sec) 
Heartbeat CPU 0 instructions: 180000000 cycles: 291104741 heartbeat IPC: 0.352441 cumulative IPC: 0.359158 (Simulation time: 0 hr 6 min 26 sec) 
Heartbeat CPU 0 instructions: 190000002 cycles: 319002098 heartbeat IPC: 0.358457 cumulative IPC: 0.35908 (Simulation time: 0 hr 6 min 55 sec) 
Heartbeat CPU 0 instructions: 200000000 cycles: 347287916 heartbeat IPC: 0.353534 cumulative IPC: 0.358517 (Simulation time: 0 hr 7 min 25 sec) 
Heartbeat CPU 0 instructions: 210000002 cycles: 375040448 heartbeat IPC: 0.360328 cumulative IPC: 0.358681 (Simulation time: 0 hr 7 min 54 sec) 
Heartbeat CPU 0 instructions: 220000000 cycles: 404028288 heartbeat IPC: 0.344972 cumulative IPC: 0.357497 (Simulation time: 0 hr 8 min 22 sec) 
Heartbeat CPU 0 instructions: 230000000 cycles: 431499101 heartbeat IPC: 0.364023 cumulative IPC: 0.357991 (Simulation time: 0 hr 8 min 51 sec) 
Heartbeat CPU 0 instructions: 240000000 cycles: 457421744 heartbeat IPC: 0.385763 cumulative IPC: 0.359841 (Simulation time: 0 hr 9 min 18 sec) 
Heartbeat CPU 0 instructions: 250000000 cycles: 487486470 heartbeat IPC: 0.332616 cumulative IPC: 0.357888 (Simulation time: 0 hr 9 min 49 sec) 
Heartbeat CPU 0 instructions: 260000000 cycles: 514544386 heartbeat IPC: 0.369578 cumulative IPC: 0.358597 (Simulation time: 0 hr 10 min 18 sec) 
Heartbeat CPU 0 instructions: 270000003 cycles: 542858243 heartbeat IPC: 0.353184 cumulative IPC: 0.358274 (Simulation time: 0 hr 10 min 48 sec) 
Heartbeat CPU 0 instructions: 280000000 cycles: 570908590 heartbeat IPC: 0.356502 cumulative IPC: 0.358175 (Simulation time: 0 hr 11 min 18 sec) 
Heartbeat CPU 0 instructions: 290000000 cycles: 599700128 heartbeat IPC: 0.347324 cumulative IPC: 0.357587 (Simulation time: 0 hr 11 min 48 sec) 
Heartbeat CPU 0 instructions: 300000000 cycles: 629391870 heartbeat IPC: 0.336794 cumulative IPC: 0.356487 (Simulation time: 0 hr 12 min 16 sec) 
Heartbeat CPU 0 instructions: 310000001 cycles: 658677337 heartbeat IPC: 0.341466 cumulative IPC: 0.355742 (Simulation time: 0 hr 12 min 45 sec) 
Heartbeat CPU 0 instructions: 320000000 cycles: 686768930 heartbeat IPC: 0.355978 cumulative IPC: 0.355752 (Simulation time: 0 hr 13 min 14 sec) 
Heartbeat CPU 0 instructions: 330000000 cycles: 715306978 heartbeat IPC: 0.350409 cumulative IPC: 0.355517 (Simulation time: 0 hr 13 min 43 sec) 
Heartbeat CPU 0 instructions: 340000000 cycles: 744502496 heartbeat IPC: 0.342518 cumulative IPC: 0.354955 (Simulation time: 0 hr 14 min 12 sec) 
Heartbeat CPU 0 instructions: 350000003 cycles: 771457588 heartbeat IPC: 0.370988 cumulative IPC: 0.35557 (Simulation time: 0 hr 14 min 40 sec) 
Heartbeat CPU 0 instructions: 360000000 cycles: 799485392 heartbeat IPC: 0.356788 cumulative IPC: 0.355617 (Simulation time: 0 hr 15 min 8 sec) 
Heartbeat CPU 0 instructions: 370000000 cycles: 827648510 heartbeat IPC: 0.355074 cumulative IPC: 0.355597 (Simulation time: 0 hr 15 min 36 sec) 
Heartbeat CPU 0 instructions: 380000000 cycles: 856135592 heartbeat IPC: 0.351036 cumulative IPC: 0.355432 (Simulation time: 0 hr 16 min 3 sec) 
Heartbeat CPU 0 instructions: 390000001 cycles: 883738723 heartbeat IPC: 0.362278 cumulative IPC: 0.355663 (Simulation time: 0 hr 16 min 31 sec) 
Heartbeat CPU 0 instructions: 400000000 cycles: 912360114 heartbeat IPC: 0.349389 cumulative IPC: 0.355451 (Simulation time: 0 hr 16 min 59 sec) 
Heartbeat CPU 0 instructions: 410000001 cycles: 939663316 heartbeat IPC: 0.366257 cumulative IPC: 0.355789 (Simulation time: 0 hr 17 min 26 sec) 
Heartbeat CPU 0 instructions: 420000000 cycles: 966977335 heartbeat IPC: 0.366112 cumulative IPC: 0.356103 (Simulation time: 0 hr 17 min 54 sec) 
Heartbeat CPU 0 instructions: 430000002 cycles: 994642533 heartbeat IPC: 0.361465 cumulative IPC: 0.356263 (Simulation time: 0 hr 18 min 22 sec) 
Heartbeat CPU 0 instructions: 440000000 cycles: 1024088207 heartbeat IPC: 0.339608 cumulative IPC: 0.35575 (Simulation time: 0 hr 18 min 50 sec) 
Heartbeat CPU 0 instructions: 450000002 cycles: 1053302865 heartbeat IPC: 0.342294 cumulative IPC: 0.355351 (Simulation time: 0 hr 19 min 18 sec) 
Heartbeat CPU 0 instructions: 460000000 cycles: 1080982993 heartbeat IPC: 0.36127 cumulative IPC: 0.355513 (Simulation time: 0 hr 19 min 45 sec) 
Heartbeat CPU 0 instructions: 470000000 cycles: 1108613571 heartbeat IPC: 0.361918 cumulative IPC: 0.355683 (Simulation time: 0 hr 20 min 13 sec) 
Heartbeat CPU 0 instructions: 480000000 cycles: 1136496934 heartbeat IPC: 0.358637 cumulative IPC: 0.35576 (Simulation time: 0 hr 20 min 41 sec) 
Heartbeat CPU 0 instructions: 490000000 cycles: 1164088940 heartbeat IPC: 0.362424 cumulative IPC: 0.355928 (Simulation time: 0 hr 21 min 8 sec) 
Heartbeat CPU 0 instructions: 500000000 cycles: 1192347293 heartbeat IPC: 0.353878 cumulative IPC: 0.355876 (Simulation time: 0 hr 21 min 36 sec) 
Heartbeat CPU 0 instructions: 510000000 cycles: 1227575764 heartbeat IPC: 0.283861 cumulative IPC: 0.353688 (Simulation time: 0 hr 22 min 8 sec) 
Heartbeat CPU 0 instructions: 520000000 cycles: 1255551880 heartbeat IPC: 0.357448 cumulative IPC: 0.353776 (Simulation time: 0 hr 22 min 37 sec) 
Heartbeat CPU 0 instructions: 530000001 cycles: 1284726954 heartbeat IPC: 0.342758 cumulative IPC: 0.353512 (Simulation time: 0 hr 23 min 5 sec) 
Heartbeat CPU 0 instructions: 540000000 cycles: 1312697769 heartbeat IPC: 0.357515 cumulative IPC: 0.353602 (Simulation time: 0 hr 23 min 34 sec) 
Heartbeat CPU 0 instructions: 550000001 cycles: 1341855924 heartbeat IPC: 0.342957 cumulative IPC: 0.353358 (Simulation time: 0 hr 24 min 4 sec) 
Heartbeat CPU 0 instructions: 560000000 cycles: 1367191133 heartbeat IPC: 0.394708 cumulative IPC: 0.354165 (Simulation time: 0 hr 24 min 33 sec) 
Heartbeat CPU 0 instructions: 570000000 cycles: 1396511772 heartbeat IPC: 0.341057 cumulative IPC: 0.353876 (Simulation time: 0 hr 25 min 2 sec) 
Heartbeat CPU 0 instructions: 580000000 cycles: 1424389403 heartbeat IPC: 0.358711 cumulative IPC: 0.353975 (Simulation time: 0 hr 25 min 31 sec) 
Heartbeat CPU 0 instructions: 590000001 cycles: 1449154954 heartbeat IPC: 0.403787 cumulative IPC: 0.354868 (Simulation time: 0 hr 25 min 58 sec) 
Heartbeat CPU 0 instructions: 600000000 cycles: 1475287442 heartbeat IPC: 0.382665 cumulative IPC: 0.355385 (Simulation time: 0 hr 26 min 26 sec) 
Finished CPU 0 instructions: 500000000 cycles: 1406926223 cumulative IPC: 0.355385 (Simulation time: 0 hr 26 min 26 sec) 

CPU 0 Branch Prediction Accuracy: 86.4311% MPKI: 26.2662
Number of Branches: 96788573 Number of Mispredictions: 13133102
Number of LOAD Instructions: 164682285
Number of LOAD Instructions (ROI): 164682285
Number of STORE Instructions: 78194750
Number of STORE Instructions (ROI): 78194750
Total Destination Memory Operands: 83268534
Total Destination Memory Operands (ROI): 83268534
Total Source Memory Operands: 164712438
Total Source Memory Operands (ROI): 164712438
Number of DEPENDED LOADS: 7061835
Number of DEPENDED LOADS (ROI): 7061835
Number of SQ_ADDED: 83268522
Number of SQ_ADDED (ROI): 83268522
Number of LQ_ADDED: 236708010
Number of LQ_ADDED (ROI): 236708010
Number of Instructions read from trace: 600000066

ChampSim completed all CPUs

Region of Interest Statistics

CPU 0 cumulative IPC: 0.355385 instructions: 500000000 cycles: 1406926223
ITLB TOTAL     ACCESS:  100508574  HIT:  100304128  MISS:     204446
ITLB LOAD      ACCESS:  100508574  HIT:  100304128  MISS:     204446
ITLB RFO       ACCESS:          0  HIT:          0  MISS:          0
ITLB PREFETCH  ACCESS:          0  HIT:          0  MISS:          0
ITLB WRITEBACK ACCESS:          0  HIT:          0  MISS:          0
ITLB PREFETCH  REQUESTED:          0  ISSUED:          0  USEFUL:          0  USELESS:          0
ITLB TOTAL MSHR MERGED:     172424
ITLB LOAD MSHR MERGED:     172424
ITLB RFO MSHR MERGED:          0
ITLB PREFETCH MSHR MERGED:          0
ITLB WRITEBACK MSHR MERGED:          0
ITLB TOTAL ACCESSES:  100680998 HITS:  100304128 MISSES:     376870
ITLB LOAD ACCESSES:  100680998 HITS:  100304128 MISSES:     376870
ITLB RFO ACCESSES:          0 HITS:          0 MISSES:          0
ITLB PREFETCH ACCESSES:          0 HITS:          0 MISSES:          0
ITLB WRITEBACK ACCESSES:          0 HITS:          0 MISSES:          0
ITLB RQ ACCESS:  500000057
ITLB RQ TO_CACHE:  100680998
ITLB RQ MERGED:  399319059
ITLB RQ FORWARD:          0
ITLB WQ ACCESS:          0
ITLB WQ TO_CACHE:          0
ITLB WQ MERGED:          0
ITLB WQ FORWARD:          0
DTLB TOTAL     ACCESS:  165333709  HIT:  164699363  MISS:     634346
DTLB LOAD      ACCESS:  106290163  HIT:  105720177  MISS:     569986
DTLB RFO       ACCESS:   59043546  HIT:   58979186  MISS:      64360
DTLB PREFETCH  ACCESS:          0  HIT:          0  MISS:          0
DTLB WRITEBACK ACCESS:          0  HIT:          0  MISS:          0
DTLB PREFETCH  REQUESTED:          0  ISSUED:          0  USEFUL:          0  USELESS:          0
DTLB TOTAL MSHR MERGED:     100002
DTLB LOAD MSHR MERGED:      59470
DTLB RFO MSHR MERGED:      40532
DTLB PREFETCH MSHR MERGED:          0
DTLB WRITEBACK MSHR MERGED:          0
DTLB TOTAL ACCESSES:  165433711 HITS:  164699363 MISSES:     734348
DTLB LOAD ACCESSES:  106349633 HITS:  105720177 MISSES:     629456
DTLB RFO ACCESSES:   59084078 HITS:   58979186 MISSES:     104892
DTLB PREFETCH ACCESSES:          0 HITS:          0 MISSES:          0
DTLB WRITEBACK ACCESSES:          0 HITS:          0 MISSES:          0
DTLB RQ ACCESS:  200309070
DTLB RQ TO_CACHE:  165433711
DTLB RQ MERGED:   34875359
DTLB RQ FORWARD:          0
DTLB WQ ACCESS:          0
DTLB WQ TO_CACHE:          0
DTLB WQ MERGED:          0
DTLB WQ FORWARD:          0
L1D TOTAL     ACCESS:  281808587  HIT:  273899309  MISS:    7909278
L1D LOAD      ACCESS:  110413217  HIT:  107134793  MISS:    3278424
L1D RFO       ACCESS:   67105024  HIT:   66213920  MISS:     891104
L1D PREFETCH  ACCESS:  104290346  HIT:  100550596  MISS:    3739750
L1D WRITEBACK ACCESS:          0  HIT:          0  MISS:          0
L1D PREFETCH  REQUESTED:  110814275  ISSUED:  109115022  USEFUL:    1660564  USELESS:    2079150
L1D TOTAL MSHR MERGED:    2889656
L1D LOAD MSHR MERGED:     498858
L1D RFO MSHR MERGED:    1881418
L1D PREFETCH MSHR MERGED:     509380
L1D WRITEBACK MSHR MERGED:          0
L1D TOTAL ACCESSES:  284725788 HITS:  273926854 MISSES:   10798934
L1D LOAD ACCESSES:  110815811 HITS:  107136329 MISSES:    3679482
L1D RFO ACCESSES:   68974124 HITS:   66213920 MISSES:    2760204
L1D PREFETCH ACCESSES:  104935853 HITS:  100576605 MISSES:    4359248
L1D WRITEBACK ACCESSES:          0 HITS:          0 MISSES:          0
L1D RQ ACCESS:  130756467
L1D RQ TO_CACHE:  110814278
L1D RQ MERGED:   19940653
L1D RQ FORWARD:          0
L1D WQ ACCESS:   69552603
L1D WQ TO_CACHE:   68974125
L1D WQ MERGED:     578478
L1D WQ FORWARD:      27545
L1I TOTAL     ACCESS:  126556446  HIT:  122317893  MISS:    4238553
L1I LOAD      ACCESS:  126556446  HIT:  122317893  MISS:    4238553
L1I RFO       ACCESS:          0  HIT:          0  MISS:          0
L1I PREFETCH  ACCESS:          0  HIT:          0  MISS:          0
L1I WRITEBACK ACCESS:          0  HIT:          0  MISS:          0
L1I PREFETCH  REQUESTED:          0  ISSUED:          0  USEFUL:          0  USELESS:          0
L1I TOTAL MSHR MERGED:    1834460
L1I LOAD MSHR MERGED:    1834460
L1I RFO MSHR MERGED:          0
L1I PREFETCH MSHR MERGED:          0
L1I WRITEBACK MSHR MERGED:          0
L1I TOTAL ACCESSES:  128390909 HITS:  122317893 MISSES:    6073016
L1I LOAD ACCESSES:  128390909 HITS:  122317893 MISSES:    6073016
L1I RFO ACCESSES:          0 HITS:          0 MISSES:          0
L1I PREFETCH ACCESSES:          0 HITS:          0 MISSES:          0
L1I WRITEBACK ACCESSES:          0 HITS:          0 MISSES:          0
L1I RQ ACCESS:  500000057
L1I RQ TO_CACHE:  128390909
L1I RQ MERGED:  371609148
L1I RQ FORWARD:          0
L1I WQ ACCESS:          0
L1I WQ TO_CACHE:          0
L1I WQ MERGED:          0
L1I WQ FORWARD:          0
L2C TOTAL     ACCESS:   14904660  HIT:   11158262  MISS:    3746398
L2C LOAD      ACCESS:    7418967  HIT:    5098802  MISS:    2320165
L2C RFO       ACCESS:     878688  HIT:     409902  MISS:     468786
L2C PREFETCH  ACCESS:    4567775  HIT:    3627587  MISS:     940188
L2C WRITEBACK ACCESS:    2039230  HIT:    2021971  MISS:      17259
L2C PREFETCH  REQUESTED:     842825  ISSUED:     842825  USEFUL:     203244  USELESS:     736650
L2C TOTAL MSHR MERGED:       7554
L2C LOAD MSHR MERGED:        910
L2C RFO MSHR MERGED:          0
L2C PREFETCH MSHR MERGED:       6644
L2C WRITEBACK MSHR MERGED:          0
L2C TOTAL ACCESSES:   14913141 HITS:   11158711 MISSES:    3754430
L2C LOAD ACCESSES:    7419177 HITS:    5099012 MISSES:    2320165
L2C RFO ACCESSES:     878786 HITS:     410000 MISSES:     468786
L2C PREFETCH ACCESSES:    4575948 HITS:    3627728 MISSES:     948220
L2C WRITEBACK ACCESSES:    2039230 HITS:    2021971 MISSES:      17259
L2C RQ ACCESS:    8297966
L2C RQ TO_CACHE:    8297658
L2C RQ MERGED:          0
L2C RQ FORWARD:          0
L2C WQ ACCESS:    2039230
L2C WQ TO_CACHE:    2039230
L2C WQ MERGED:          0
L2C WQ FORWARD:        449
LLC TOTAL     ACCESS:    4609722  HIT:    3973247  MISS:     636475
LLC LOAD      ACCESS:    2319240  HIT:    2104151  MISS:     215089
LLC RFO       ACCESS:     468775  HIT:     384642  MISS:      84133
LLC PREFETCH  ACCESS:     941442  HIT:     642432  MISS:     299010
LLC WRITEBACK ACCESS:     880265  HIT:     842022  MISS:      38243
LLC PREFETCH  REQUESTED:          0  ISSUED:          0  USEFUL:      16929  USELESS:     282902
LLC TOTAL MSHR MERGED:        116
LLC LOAD MSHR MERGED:         41
LLC RFO MSHR MERGED:          0
LLC PREFETCH MSHR MERGED:         75
LLC WRITEBACK MSHR MERGED:          0
LLC TOTAL ACCESSES:    4609874 HITS:    3973283 MISSES:     636591
LLC LOAD ACCESSES:    2319255 HITS:    2104166 MISSES:     215089
LLC RFO ACCESSES:     468786 HITS:     384653 MISSES:      84133
LLC PREFETCH ACCESSES:     941568 HITS:     642442 MISSES:     299126
LLC WRITEBACK ACCESSES:     880265 HITS:     842022 MISSES:      38243
LLC 0 RQ ACCESS:    2788041
LLC 0 RQ TO_CACHE:    2788015
LLC 0 RQ MERGED:          0
LLC 0 RQ FORWARD:          0
LLC WQ ACCESS:     880265
LLC WQ TO_CACHE:     880265
LLC WQ MERGED:          0
LLC WQ FORWARD:         36
Major fault: 0 Minor fault: 12862
CPU 0 L1D next line prefetcher final stats
CPU 0 L2C PC-based stride prefetcher final stats
All Misses: 748120
All Hits: 4678608
SD Algo Stats - Switches: 0 SRR-Repls: 251708 BRR-Repls: 0

DRAM Statistics
 CHANNEL 0
 RQ ROW_BUFFER_HIT:     117338  ROW_BUFFER_MISS:     479660
 DBUS_CONGESTED:     395434
 WQ ROW_BUFFER_HIT:      20768  ROW_BUFFER_MISS:     207407  FULL:          0

 AVG_CONGESTED_CYCLE: 13
LOADS RETIRED: 136549171
INSTR RETIRED: 500000000
