
*** ChampSim Multicore Out-of-Order Simulator ***

Warmup Instructions: 100000000
Simulation Instructions: 500000000
Number of CPUs: 1
LLC sets: 2048
LLC ways: 16
Clean RRIP Policies: 1223230112232301 Dirty RRIP Policies: 2213031122130311 PSEL Width: 10 Track Set: 4294967295 PSEL Mask: 1 Demote Mask: 3342011033420110DS Algo: 0Window size: 0
Off-chip DRAM Size: 4096 MB Channels: 1 Width: 64-bit Data Rate: 1600 MT/s

CPU 0 runs /mnt/beegfs/iconst01/spec2017/Cam4.trace.gz
NOT SORTED
TRACE STRING: /mnt/beegfs/iconst01/spec2017/Cam4.trace.gz
SORTED
TRACE STRING: /mnt/beegfs/iconst01/spec2017/Cam4.trace.gz
INITIAL
TRACE STRING: /mnt/beegfs/iconst01/spec2017/Cam4.trace.gz

champsim_seed used: 325

CPU 0 L1D next line prefetcher
CPU 0 L2C IP-based stride prefetcher
Initialize DRRIP state
Assign rand_sets[0]: 454  LLC: 2048
rand_sets[0]: 454
Assign rand_sets[1]: 1662  LLC: 2048
rand_sets[1]: 1662
Assign rand_sets[2]: 1921  LLC: 2048
rand_sets[2]: 1921
Assign rand_sets[3]: 1131  LLC: 2048
rand_sets[3]: 1131
Assign rand_sets[4]: 331  LLC: 2048
rand_sets[4]: 331
Assign rand_sets[5]: 1531  LLC: 2048
rand_sets[5]: 1531
Assign rand_sets[6]: 482  LLC: 2048
rand_sets[6]: 482
Assign rand_sets[7]: 1275  LLC: 2048
rand_sets[7]: 1275
Assign rand_sets[8]: 1876  LLC: 2048
rand_sets[8]: 1876
Assign rand_sets[9]: 2038  LLC: 2048
rand_sets[9]: 2038
Assign rand_sets[10]: 701  LLC: 2048
rand_sets[10]: 701
Assign rand_sets[11]: 479  LLC: 2048
rand_sets[11]: 479
Assign rand_sets[12]: 892  LLC: 2048
rand_sets[12]: 892
Assign rand_sets[13]: 1820  LLC: 2048
rand_sets[13]: 1820
Assign rand_sets[14]: 1505  LLC: 2048
rand_sets[14]: 1505
Assign rand_sets[15]: 1159  LLC: 2048
rand_sets[15]: 1159
Assign rand_sets[16]: 513  LLC: 2048
rand_sets[16]: 513
Assign rand_sets[17]: 703  LLC: 2048
rand_sets[17]: 703
Assign rand_sets[18]: 561  LLC: 2048
rand_sets[18]: 561
Assign rand_sets[19]: 990  LLC: 2048
rand_sets[19]: 990
Assign rand_sets[20]: 342  LLC: 2048
rand_sets[20]: 342
Assign rand_sets[21]: 882  LLC: 2048
rand_sets[21]: 882
Assign rand_sets[22]: 15  LLC: 2048
rand_sets[22]: 15
Assign rand_sets[23]: 71  LLC: 2048
rand_sets[23]: 71
Assign rand_sets[24]: 1127  LLC: 2048
rand_sets[24]: 1127
Assign rand_sets[25]: 1382  LLC: 2048
rand_sets[25]: 1382
Assign rand_sets[26]: 647  LLC: 2048
rand_sets[26]: 647
Assign rand_sets[27]: 857  LLC: 2048
rand_sets[27]: 857
Assign rand_sets[28]: 1450  LLC: 2048
rand_sets[28]: 1450
Assign rand_sets[29]: 1160  LLC: 2048
rand_sets[29]: 1160
Assign rand_sets[30]: 1852  LLC: 2048
rand_sets[30]: 1852
Assign rand_sets[31]: 1881  LLC: 2048
rand_sets[31]: 1881
Assign rand_sets[32]: 1770  LLC: 2048
rand_sets[32]: 1770
Assign rand_sets[33]: 1622  LLC: 2048
rand_sets[33]: 1622
Assign rand_sets[34]: 275  LLC: 2048
rand_sets[34]: 275
Assign rand_sets[35]: 635  LLC: 2048
rand_sets[35]: 635
Assign rand_sets[36]: 466  LLC: 2048
rand_sets[36]: 466
Assign rand_sets[37]: 1413  LLC: 2048
rand_sets[37]: 1413
Assign rand_sets[38]: 417  LLC: 2048
rand_sets[38]: 417
Assign rand_sets[39]: 472  LLC: 2048
rand_sets[39]: 472
Assign rand_sets[40]: 1340  LLC: 2048
rand_sets[40]: 1340
Assign rand_sets[41]: 852  LLC: 2048
rand_sets[41]: 852
Assign rand_sets[42]: 1365  LLC: 2048
rand_sets[42]: 1365
Assign rand_sets[43]: 47  LLC: 2048
rand_sets[43]: 47
Assign rand_sets[44]: 823  LLC: 2048
rand_sets[44]: 823
Assign rand_sets[45]: 686  LLC: 2048
rand_sets[45]: 686
Assign rand_sets[46]: 1637  LLC: 2048
rand_sets[46]: 1637
Assign rand_sets[47]: 1115  LLC: 2048
rand_sets[47]: 1115
Assign rand_sets[48]: 986  LLC: 2048
rand_sets[48]: 986
Assign rand_sets[49]: 258  LLC: 2048
rand_sets[49]: 258
Assign rand_sets[50]: 633  LLC: 2048
rand_sets[50]: 633
Assign rand_sets[51]: 920  LLC: 2048
rand_sets[51]: 920
Assign rand_sets[52]: 204  LLC: 2048
rand_sets[52]: 204
Assign rand_sets[53]: 227  LLC: 2048
rand_sets[53]: 227
Assign rand_sets[54]: 1818  LLC: 2048
rand_sets[54]: 1818
Assign rand_sets[55]: 886  LLC: 2048
rand_sets[55]: 886
Assign rand_sets[56]: 1422  LLC: 2048
rand_sets[56]: 1422
Assign rand_sets[57]: 607  LLC: 2048
rand_sets[57]: 607
Assign rand_sets[58]: 217  LLC: 2048
rand_sets[58]: 217
Assign rand_sets[59]: 1945  LLC: 2048
rand_sets[59]: 1945
Assign rand_sets[60]: 143  LLC: 2048
rand_sets[60]: 143
Assign rand_sets[61]: 1311  LLC: 2048
rand_sets[61]: 1311
Assign rand_sets[62]: 319  LLC: 2048
rand_sets[62]: 319
Assign rand_sets[63]: 1846  LLC: 2048
rand_sets[63]: 1846
 CLEAN-RRIP-POLICY-1: 1-2-2-3-2-3-0-1- CLEAN-RRIP-POLICY-2: 1-2-2-3-2-3-0-1-
 DIRTY-RRIP-POLICY-1: 2-2-1-3-0-3-1-1- DIRTY-RRIP-POLICY-2: 2-2-1-3-0-3-1-1-
 PSEL width: 10
Heartbeat CPU 0 instructions: 10000000 cycles: 4859184 heartbeat IPC: 2.05796 cumulative IPC: 2.05796 (Simulation time: 0 hr 0 min 17 sec) 
Heartbeat CPU 0 instructions: 20000000 cycles: 9790786 heartbeat IPC: 2.02774 cumulative IPC: 2.04274 (Simulation time: 0 hr 0 min 33 sec) 
Heartbeat CPU 0 instructions: 30000001 cycles: 14562990 heartbeat IPC: 2.09547 cumulative IPC: 2.06002 (Simulation time: 0 hr 0 min 48 sec) 
Heartbeat CPU 0 instructions: 40000000 cycles: 19399991 heartbeat IPC: 2.0674 cumulative IPC: 2.06186 (Simulation time: 0 hr 1 min 4 sec) 
Heartbeat CPU 0 instructions: 50000000 cycles: 24256509 heartbeat IPC: 2.05909 cumulative IPC: 2.0613 (Simulation time: 0 hr 1 min 21 sec) 
Heartbeat CPU 0 instructions: 60000000 cycles: 29181913 heartbeat IPC: 2.03029 cumulative IPC: 2.05607 (Simulation time: 0 hr 1 min 38 sec) 
Heartbeat CPU 0 instructions: 70000001 cycles: 33956827 heartbeat IPC: 2.09428 cumulative IPC: 2.06144 (Simulation time: 0 hr 1 min 52 sec) 
Heartbeat CPU 0 instructions: 80000000 cycles: 38793125 heartbeat IPC: 2.0677 cumulative IPC: 2.06222 (Simulation time: 0 hr 2 min 9 sec) 
Heartbeat CPU 0 instructions: 90000002 cycles: 43647192 heartbeat IPC: 2.06013 cumulative IPC: 2.06199 (Simulation time: 0 hr 2 min 26 sec) 
Heartbeat CPU 0 instructions: 100000000 cycles: 48566021 heartbeat IPC: 2.033 cumulative IPC: 2.05905 (Simulation time: 0 hr 2 min 43 sec) 

Warmup complete CPU 0 instructions: 100000001 cycles: 48566022 (Simulation time: 0 hr 2 min 43 sec) 

Heartbeat CPU 0 instructions: 110000000 cycles: 61607034 heartbeat IPC: 0.766812 cumulative IPC: 0.766812 (Simulation time: 0 hr 3 min 6 sec) 
Heartbeat CPU 0 instructions: 120000000 cycles: 75385813 heartbeat IPC: 0.725754 cumulative IPC: 0.745718 (Simulation time: 0 hr 3 min 30 sec) 
Heartbeat CPU 0 instructions: 130000000 cycles: 89153670 heartbeat IPC: 0.726329 cumulative IPC: 0.739141 (Simulation time: 0 hr 3 min 55 sec) 
Heartbeat CPU 0 instructions: 140000000 cycles: 103452312 heartbeat IPC: 0.699367 cumulative IPC: 0.728779 (Simulation time: 0 hr 4 min 20 sec) 
Heartbeat CPU 0 instructions: 150000003 cycles: 116570357 heartbeat IPC: 0.762309 cumulative IPC: 0.735247 (Simulation time: 0 hr 4 min 43 sec) 
Heartbeat CPU 0 instructions: 160000000 cycles: 130356063 heartbeat IPC: 0.725389 cumulative IPC: 0.733586 (Simulation time: 0 hr 5 min 8 sec) 
Heartbeat CPU 0 instructions: 170000001 cycles: 144163835 heartbeat IPC: 0.72423 cumulative IPC: 0.732234 (Simulation time: 0 hr 5 min 33 sec) 
Heartbeat CPU 0 instructions: 180000000 cycles: 158455984 heartbeat IPC: 0.699685 cumulative IPC: 0.728001 (Simulation time: 0 hr 5 min 58 sec) 
Heartbeat CPU 0 instructions: 190000003 cycles: 171553012 heartbeat IPC: 0.763532 cumulative IPC: 0.731785 (Simulation time: 0 hr 6 min 21 sec) 
Heartbeat CPU 0 instructions: 200000000 cycles: 185342042 heartbeat IPC: 0.725214 cumulative IPC: 0.731122 (Simulation time: 0 hr 6 min 46 sec) 
Heartbeat CPU 0 instructions: 210000002 cycles: 199157245 heartbeat IPC: 0.72384 cumulative IPC: 0.730454 (Simulation time: 0 hr 7 min 11 sec) 
Heartbeat CPU 0 instructions: 220000000 cycles: 213456169 heartbeat IPC: 0.699353 cumulative IPC: 0.727757 (Simulation time: 0 hr 7 min 36 sec) 
Heartbeat CPU 0 instructions: 230000001 cycles: 226506548 heartbeat IPC: 0.766261 cumulative IPC: 0.730581 (Simulation time: 0 hr 7 min 58 sec) 
Heartbeat CPU 0 instructions: 240000000 cycles: 240285415 heartbeat IPC: 0.725749 cumulative IPC: 0.730234 (Simulation time: 0 hr 8 min 23 sec) 
Heartbeat CPU 0 instructions: 250000001 cycles: 254049909 heartbeat IPC: 0.726507 cumulative IPC: 0.729984 (Simulation time: 0 hr 8 min 48 sec) 
Heartbeat CPU 0 instructions: 260000000 cycles: 268237993 heartbeat IPC: 0.704817 cumulative IPC: 0.728359 (Simulation time: 0 hr 9 min 13 sec) 
Heartbeat CPU 0 instructions: 270000003 cycles: 281423224 heartbeat IPC: 0.758425 cumulative IPC: 0.730061 (Simulation time: 0 hr 9 min 36 sec) 
Heartbeat CPU 0 instructions: 280000000 cycles: 295225367 heartbeat IPC: 0.724525 cumulative IPC: 0.729751 (Simulation time: 0 hr 10 min 1 sec) 
Heartbeat CPU 0 instructions: 290000001 cycles: 309030998 heartbeat IPC: 0.724342 cumulative IPC: 0.729465 (Simulation time: 0 hr 10 min 26 sec) 
Heartbeat CPU 0 instructions: 300000000 cycles: 323149000 heartbeat IPC: 0.708315 cumulative IPC: 0.728377 (Simulation time: 0 hr 10 min 51 sec) 
Heartbeat CPU 0 instructions: 310000000 cycles: 336372405 heartbeat IPC: 0.756235 cumulative IPC: 0.729657 (Simulation time: 0 hr 11 min 13 sec) 
Heartbeat CPU 0 instructions: 320000000 cycles: 350220989 heartbeat IPC: 0.722095 cumulative IPC: 0.72931 (Simulation time: 0 hr 11 min 38 sec) 
Heartbeat CPU 0 instructions: 330000000 cycles: 364052785 heartbeat IPC: 0.722972 cumulative IPC: 0.729032 (Simulation time: 0 hr 12 min 3 sec) 
Heartbeat CPU 0 instructions: 340000000 cycles: 378137317 heartbeat IPC: 0.709999 cumulative IPC: 0.728219 (Simulation time: 0 hr 12 min 28 sec) 
Heartbeat CPU 0 instructions: 350000000 cycles: 391401711 heartbeat IPC: 0.753898 cumulative IPC: 0.729212 (Simulation time: 0 hr 12 min 50 sec) 
Heartbeat CPU 0 instructions: 360000000 cycles: 405280625 heartbeat IPC: 0.720517 cumulative IPC: 0.728874 (Simulation time: 0 hr 13 min 14 sec) 
Heartbeat CPU 0 instructions: 370000003 cycles: 419110318 heartbeat IPC: 0.723082 cumulative IPC: 0.728658 (Simulation time: 0 hr 13 min 39 sec) 
Heartbeat CPU 0 instructions: 380000000 cycles: 433161188 heartbeat IPC: 0.711699 cumulative IPC: 0.728038 (Simulation time: 0 hr 14 min 4 sec) 
Heartbeat CPU 0 instructions: 390000003 cycles: 446428726 heartbeat IPC: 0.75372 cumulative IPC: 0.728895 (Simulation time: 0 hr 14 min 26 sec) 
Heartbeat CPU 0 instructions: 400000000 cycles: 460297061 heartbeat IPC: 0.721067 cumulative IPC: 0.728631 (Simulation time: 0 hr 14 min 50 sec) 
Heartbeat CPU 0 instructions: 410000000 cycles: 474089730 heartbeat IPC: 0.725023 cumulative IPC: 0.728514 (Simulation time: 0 hr 15 min 15 sec) 
Heartbeat CPU 0 instructions: 420000000 cycles: 488126175 heartbeat IPC: 0.712431 cumulative IPC: 0.728 (Simulation time: 0 hr 15 min 39 sec) 
Heartbeat CPU 0 instructions: 430000003 cycles: 501408846 heartbeat IPC: 0.752861 cumulative IPC: 0.72873 (Simulation time: 0 hr 16 min 1 sec) 
Heartbeat CPU 0 instructions: 440000000 cycles: 515276432 heartbeat IPC: 0.721106 cumulative IPC: 0.728503 (Simulation time: 0 hr 16 min 25 sec) 
Heartbeat CPU 0 instructions: 450000000 cycles: 529095884 heartbeat IPC: 0.723618 cumulative IPC: 0.728363 (Simulation time: 0 hr 16 min 49 sec) 
Heartbeat CPU 0 instructions: 460000000 cycles: 543114889 heartbeat IPC: 0.713317 cumulative IPC: 0.727936 (Simulation time: 0 hr 17 min 14 sec) 
Heartbeat CPU 0 instructions: 470000001 cycles: 556398466 heartbeat IPC: 0.752809 cumulative IPC: 0.728587 (Simulation time: 0 hr 17 min 36 sec) 
Heartbeat CPU 0 instructions: 480000000 cycles: 570237577 heartbeat IPC: 0.72259 cumulative IPC: 0.728428 (Simulation time: 0 hr 18 min 0 sec) 
Heartbeat CPU 0 instructions: 490000002 cycles: 584028755 heartbeat IPC: 0.725101 cumulative IPC: 0.728342 (Simulation time: 0 hr 18 min 24 sec) 
Heartbeat CPU 0 instructions: 500000000 cycles: 598048471 heartbeat IPC: 0.713281 cumulative IPC: 0.727958 (Simulation time: 0 hr 18 min 48 sec) 
Heartbeat CPU 0 instructions: 510000002 cycles: 611337417 heartbeat IPC: 0.752505 cumulative IPC: 0.728537 (Simulation time: 0 hr 19 min 10 sec) 
Heartbeat CPU 0 instructions: 520000000 cycles: 625168417 heartbeat IPC: 0.723013 cumulative IPC: 0.728405 (Simulation time: 0 hr 19 min 34 sec) 
Heartbeat CPU 0 instructions: 530000003 cycles: 638944397 heartbeat IPC: 0.725901 cumulative IPC: 0.728346 (Simulation time: 0 hr 19 min 58 sec) 
Heartbeat CPU 0 instructions: 540000000 cycles: 652987242 heartbeat IPC: 0.712106 cumulative IPC: 0.727969 (Simulation time: 0 hr 20 min 23 sec) 
Heartbeat CPU 0 instructions: 550000003 cycles: 666292405 heartbeat IPC: 0.751588 cumulative IPC: 0.728478 (Simulation time: 0 hr 20 min 44 sec) 
Heartbeat CPU 0 instructions: 560000000 cycles: 680105874 heartbeat IPC: 0.723931 cumulative IPC: 0.728378 (Simulation time: 0 hr 21 min 9 sec) 
Heartbeat CPU 0 instructions: 570000001 cycles: 693905952 heartbeat IPC: 0.724634 cumulative IPC: 0.728298 (Simulation time: 0 hr 21 min 33 sec) 
Heartbeat CPU 0 instructions: 580000000 cycles: 707969955 heartbeat IPC: 0.711035 cumulative IPC: 0.72793 (Simulation time: 0 hr 21 min 57 sec) 
Heartbeat CPU 0 instructions: 590000000 cycles: 721233999 heartbeat IPC: 0.753918 cumulative IPC: 0.728443 (Simulation time: 0 hr 22 min 19 sec) 
Heartbeat CPU 0 instructions: 600000000 cycles: 735050662 heartbeat IPC: 0.723764 cumulative IPC: 0.728348 (Simulation time: 0 hr 22 min 43 sec) 
Finished CPU 0 instructions: 500000001 cycles: 686484648 cumulative IPC: 0.728348 (Simulation time: 0 hr 22 min 43 sec) 

CPU 0 Branch Prediction Accuracy: 97.5275% MPKI: 2.1997
Number of Branches: 44482865 Number of Mispredictions: 1099852
Number of LOAD Instructions: 144955155
Number of LOAD Instructions (ROI): 144955155
Number of STORE Instructions: 55921098
Number of STORE Instructions (ROI): 55921098
Total Destination Memory Operands: 57111147
Total Destination Memory Operands (ROI): 57111147
Total Source Memory Operands: 144955155
Total Source Memory Operands (ROI): 144955155
Number of DEPENDED LOADS: 13454937
Number of DEPENDED LOADS (ROI): 13454937
Number of SQ_ADDED: 57111126
Number of SQ_ADDED (ROI): 57111126
Number of LQ_ADDED: 174480946
Number of LQ_ADDED (ROI): 174480946
Number of Instructions read from trace: 600000256

ChampSim completed all CPUs

Region of Interest Statistics

CPU 0 cumulative IPC: 0.728348 instructions: 500000001 cycles: 686484648
ITLB TOTAL     ACCESS:  136073622  HIT:  136071069  MISS:       2553
ITLB LOAD      ACCESS:  136073622  HIT:  136071069  MISS:       2553
ITLB RFO       ACCESS:          0  HIT:          0  MISS:          0
ITLB PREFETCH  ACCESS:          0  HIT:          0  MISS:          0
ITLB WRITEBACK ACCESS:          0  HIT:          0  MISS:          0
ITLB PREFETCH  REQUESTED:          0  ISSUED:          0  USEFUL:          0  USELESS:          0
ITLB TOTAL MSHR MERGED:       4389
ITLB LOAD MSHR MERGED:       4389
ITLB RFO MSHR MERGED:          0
ITLB PREFETCH MSHR MERGED:          0
ITLB WRITEBACK MSHR MERGED:          0
ITLB TOTAL ACCESSES:  136078011 HITS:  136071069 MISSES:       6942
ITLB LOAD ACCESSES:  136078011 HITS:  136071069 MISSES:       6942
ITLB RFO ACCESSES:          0 HITS:          0 MISSES:          0
ITLB PREFETCH ACCESSES:          0 HITS:          0 MISSES:          0
ITLB WRITEBACK ACCESSES:          0 HITS:          0 MISSES:          0
ITLB RQ ACCESS:  500000202
ITLB RQ TO_CACHE:  136078011
ITLB RQ MERGED:  363922191
ITLB RQ FORWARD:          0
ITLB WQ ACCESS:          0
ITLB WQ TO_CACHE:          0
ITLB WQ MERGED:          0
ITLB WQ FORWARD:          0
DTLB TOTAL     ACCESS:  111557020  HIT:  111420824  MISS:     136196
DTLB LOAD      ACCESS:   78954564  HIT:   78828937  MISS:     125627
DTLB RFO       ACCESS:   32602456  HIT:   32591887  MISS:      10569
DTLB PREFETCH  ACCESS:          0  HIT:          0  MISS:          0
DTLB WRITEBACK ACCESS:          0  HIT:          0  MISS:          0
DTLB PREFETCH  REQUESTED:          0  ISSUED:          0  USEFUL:          0  USELESS:          0
DTLB TOTAL MSHR MERGED:      64150
DTLB LOAD MSHR MERGED:      50899
DTLB RFO MSHR MERGED:      13251
DTLB PREFETCH MSHR MERGED:          0
DTLB WRITEBACK MSHR MERGED:          0
DTLB TOTAL ACCESSES:  111621170 HITS:  111420824 MISSES:     200346
DTLB LOAD ACCESSES:   79005463 HITS:   78828937 MISSES:     176526
DTLB RFO ACCESSES:   32615707 HITS:   32591887 MISSES:      23820
DTLB PREFETCH ACCESSES:          0 HITS:          0 MISSES:          0
DTLB WRITEBACK ACCESSES:          0 HITS:          0 MISSES:          0
DTLB RQ ACCESS:  157180474
DTLB RQ TO_CACHE:  111621170
DTLB RQ MERGED:   45559304
DTLB RQ FORWARD:          0
DTLB WQ ACCESS:          0
DTLB WQ TO_CACHE:          0
DTLB WQ MERGED:          0
DTLB WQ FORWARD:          0
L1D TOTAL     ACCESS:  198239250  HIT:  188398217  MISS:    9841033
L1D LOAD      ACCESS:   79945904  HIT:   75681195  MISS:    4264709
L1D RFO       ACCESS:   44547713  HIT:   43647732  MISS:     899981
L1D PREFETCH  ACCESS:   73745633  HIT:   69069290  MISS:    4676343
L1D WRITEBACK ACCESS:          0  HIT:          0  MISS:          0
L1D PREFETCH  REQUESTED:   80350459  ISSUED:   79894763  USEFUL:    1818030  USELESS:    2858222
L1D TOTAL MSHR MERGED:    2501210
L1D LOAD MSHR MERGED:     530442
L1D RFO MSHR MERGED:    1404962
L1D PREFETCH MSHR MERGED:     565806
L1D WRITEBACK MSHR MERGED:          0
L1D TOTAL ACCESSES:  200761419 HITS:  188419176 MISSES:   12342243
L1D LOAD ACCESSES:   80362834 HITS:   75693570 MISSES:    4669264
L1D RFO ACCESSES:   45950006 HITS:   43647732 MISSES:    2302274
L1D PREFETCH ACCESSES:   74448579 HITS:   69077874 MISSES:    5370705
L1D WRITEBACK ACCESSES:          0 HITS:          0 MISSES:          0
L1D RQ ACCESS:  109538504
L1D RQ TO_CACHE:   80350459
L1D RQ MERGED:   29175670
L1D RQ FORWARD:          0
L1D WQ ACCESS:   47641970
L1D WQ TO_CACHE:   45950006
L1D WQ MERGED:    1691964
L1D WQ FORWARD:      20959
L1I TOTAL     ACCESS:  161543677  HIT:  161279709  MISS:     263968
L1I LOAD      ACCESS:  161543677  HIT:  161279709  MISS:     263968
L1I RFO       ACCESS:          0  HIT:          0  MISS:          0
L1I PREFETCH  ACCESS:          0  HIT:          0  MISS:          0
L1I WRITEBACK ACCESS:          0  HIT:          0  MISS:          0
L1I PREFETCH  REQUESTED:          0  ISSUED:          0  USEFUL:          0  USELESS:          0
L1I TOTAL MSHR MERGED:     261101
L1I LOAD MSHR MERGED:     261101
L1I RFO MSHR MERGED:          0
L1I PREFETCH MSHR MERGED:          0
L1I WRITEBACK MSHR MERGED:          0
L1I TOTAL ACCESSES:  161804778 HITS:  161279709 MISSES:     525069
L1I LOAD ACCESSES:  161804778 HITS:  161279709 MISSES:     525069
L1I RFO ACCESSES:          0 HITS:          0 MISSES:          0
L1I PREFETCH ACCESSES:          0 HITS:          0 MISSES:          0
L1I WRITEBACK ACCESSES:          0 HITS:          0 MISSES:          0
L1I RQ ACCESS:  500000202
L1I RQ TO_CACHE:  161804778
L1I RQ MERGED:  338195424
L1I RQ FORWARD:          0
L1I WQ ACCESS:          0
L1I WQ TO_CACHE:          0
L1I WQ MERGED:          0
L1I WQ FORWARD:          0
L2C TOTAL     ACCESS:   11771010  HIT:   10381722  MISS:    1389288
L2C LOAD      ACCESS:    4402725  HIT:    3905905  MISS:     496820
L2C RFO       ACCESS:     897247  HIT:     536238  MISS:     361009
L2C PREFETCH  ACCESS:    5283505  HIT:    4754993  MISS:     528512
L2C WRITEBACK ACCESS:    1187533  HIT:    1184586  MISS:       2947
L2C PREFETCH  REQUESTED:     504000  ISSUED:     504000  USEFUL:     114693  USELESS:     414011
L2C TOTAL MSHR MERGED:       2195
L2C LOAD MSHR MERGED:        415
L2C RFO MSHR MERGED:          0
L2C PREFETCH MSHR MERGED:       1780
L2C WRITEBACK MSHR MERGED:          0
L2C TOTAL ACCESSES:   11776022 HITS:   10381939 MISSES:    1394083
L2C LOAD ACCESSES:    4402790 HITS:    3905970 MISSES:     496820
L2C RFO ACCESSES:     897312 HITS:     536303 MISSES:     361009
L2C PREFETCH ACCESSES:    5288387 HITS:    4755080 MISSES:     533307
L2C WRITEBACK ACCESSES:    1187533 HITS:    1184586 MISSES:       2947
L2C RQ ACCESS:    5300102
L2C RQ TO_CACHE:    5299972
L2C RQ MERGED:          0
L2C RQ FORWARD:          0
L2C WQ ACCESS:    1187533
L2C WQ TO_CACHE:    1187533
L2C WQ MERGED:          0
L2C WQ FORWARD:        217
LLC TOTAL     ACCESS:    1849535  HIT:    1165084  MISS:     684451
LLC LOAD      ACCESS:     496403  HIT:     201143  MISS:     295260
LLC RFO       ACCESS:     361004  HIT:     282333  MISS:      78671
LLC PREFETCH  ACCESS:     531400  HIT:     282142  MISS:     249258
LLC WRITEBACK ACCESS:     460728  HIT:     399466  MISS:      61262
LLC PREFETCH  REQUESTED:          0  ISSUED:          0  USEFUL:       4756  USELESS:     244618
LLC TOTAL MSHR MERGED:         93
LLC LOAD MSHR MERGED:         38
LLC RFO MSHR MERGED:          0
LLC PREFETCH MSHR MERGED:         55
LLC WRITEBACK MSHR MERGED:          0
LLC TOTAL ACCESSES:    1849655 HITS:    1165111 MISSES:     684544
LLC LOAD ACCESSES:     496405 HITS:     201145 MISSES:     295260
LLC RFO ACCESSES:     361009 HITS:     282338 MISSES:      78671
LLC PREFETCH ACCESSES:     531513 HITS:     282162 MISSES:     249351
LLC WRITEBACK ACCESSES:     460728 HITS:     399466 MISSES:      61262
LLC 0 RQ ACCESS:     857414
LLC 0 RQ TO_CACHE:     857407
LLC 0 RQ MERGED:          0
LLC 0 RQ FORWARD:          0
LLC WQ ACCESS:     460728
LLC WQ TO_CACHE:     460728
LLC WQ MERGED:          0
LLC WQ FORWARD:         27
Major fault: 0 Minor fault: 3073
CPU 0 L1D next line prefetcher final stats
CPU 0 L2C PC-based stride prefetcher final stats
All Misses: 846499
All Hits: 1329727
SD Algo Stats - Switches: 0 SRR-Repls: 333318 BRR-Repls: 0

DRAM Statistics
 CHANNEL 0
 RQ ROW_BUFFER_HIT:     397945  ROW_BUFFER_MISS:     224461
 DBUS_CONGESTED:     374018
 WQ ROW_BUFFER_HIT:      10153  ROW_BUFFER_MISS:      75832  FULL:          0

 AVG_CONGESTED_CYCLE: 13
LOADS RETIRED: 120673965
INSTR RETIRED: 500000000
