
*** ChampSim Multicore Out-of-Order Simulator ***

Warmup Instructions: 100000000
Simulation Instructions: 500000000
Number of CPUs: 1
LLC sets: 2048
LLC ways: 16
Clean RRIP Policies: 1213030012130300 Dirty RRIP Policies: 213130002131300 PSEL Width: 10 Track Set: 4294967295 PSEL Mask: 1 Demote Mask: 1340201013402010DS Algo: 0Window size: 0
Off-chip DRAM Size: 4096 MB Channels: 1 Width: 64-bit Data Rate: 1600 MT/s

CPU 0 runs /mnt/beegfs/iconst01/spec2017/Blender.trace.gz
NOT SORTED
TRACE STRING: /mnt/beegfs/iconst01/spec2017/Blender.trace.gz
SORTED
TRACE STRING: /mnt/beegfs/iconst01/spec2017/Blender.trace.gz
INITIAL
TRACE STRING: /mnt/beegfs/iconst01/spec2017/Blender.trace.gz

champsim_seed used: 700

CPU 0 L1D next line prefetcher
CPU 0 L2C IP-based stride prefetcher
Initialize DRRIP state
Assign rand_sets[0]: 454  LLC: 2048
rand_sets[0]: 454
Assign rand_sets[1]: 1662  LLC: 2048
rand_sets[1]: 1662
Assign rand_sets[2]: 1921  LLC: 2048
rand_sets[2]: 1921
Assign rand_sets[3]: 1131  LLC: 2048
rand_sets[3]: 1131
Assign rand_sets[4]: 331  LLC: 2048
rand_sets[4]: 331
Assign rand_sets[5]: 1531  LLC: 2048
rand_sets[5]: 1531
Assign rand_sets[6]: 482  LLC: 2048
rand_sets[6]: 482
Assign rand_sets[7]: 1275  LLC: 2048
rand_sets[7]: 1275
Assign rand_sets[8]: 1876  LLC: 2048
rand_sets[8]: 1876
Assign rand_sets[9]: 2038  LLC: 2048
rand_sets[9]: 2038
Assign rand_sets[10]: 701  LLC: 2048
rand_sets[10]: 701
Assign rand_sets[11]: 479  LLC: 2048
rand_sets[11]: 479
Assign rand_sets[12]: 892  LLC: 2048
rand_sets[12]: 892
Assign rand_sets[13]: 1820  LLC: 2048
rand_sets[13]: 1820
Assign rand_sets[14]: 1505  LLC: 2048
rand_sets[14]: 1505
Assign rand_sets[15]: 1159  LLC: 2048
rand_sets[15]: 1159
Assign rand_sets[16]: 513  LLC: 2048
rand_sets[16]: 513
Assign rand_sets[17]: 703  LLC: 2048
rand_sets[17]: 703
Assign rand_sets[18]: 561  LLC: 2048
rand_sets[18]: 561
Assign rand_sets[19]: 990  LLC: 2048
rand_sets[19]: 990
Assign rand_sets[20]: 342  LLC: 2048
rand_sets[20]: 342
Assign rand_sets[21]: 882  LLC: 2048
rand_sets[21]: 882
Assign rand_sets[22]: 15  LLC: 2048
rand_sets[22]: 15
Assign rand_sets[23]: 71  LLC: 2048
rand_sets[23]: 71
Assign rand_sets[24]: 1127  LLC: 2048
rand_sets[24]: 1127
Assign rand_sets[25]: 1382  LLC: 2048
rand_sets[25]: 1382
Assign rand_sets[26]: 647  LLC: 2048
rand_sets[26]: 647
Assign rand_sets[27]: 857  LLC: 2048
rand_sets[27]: 857
Assign rand_sets[28]: 1450  LLC: 2048
rand_sets[28]: 1450
Assign rand_sets[29]: 1160  LLC: 2048
rand_sets[29]: 1160
Assign rand_sets[30]: 1852  LLC: 2048
rand_sets[30]: 1852
Assign rand_sets[31]: 1881  LLC: 2048
rand_sets[31]: 1881
Assign rand_sets[32]: 1770  LLC: 2048
rand_sets[32]: 1770
Assign rand_sets[33]: 1622  LLC: 2048
rand_sets[33]: 1622
Assign rand_sets[34]: 275  LLC: 2048
rand_sets[34]: 275
Assign rand_sets[35]: 635  LLC: 2048
rand_sets[35]: 635
Assign rand_sets[36]: 466  LLC: 2048
rand_sets[36]: 466
Assign rand_sets[37]: 1413  LLC: 2048
rand_sets[37]: 1413
Assign rand_sets[38]: 417  LLC: 2048
rand_sets[38]: 417
Assign rand_sets[39]: 472  LLC: 2048
rand_sets[39]: 472
Assign rand_sets[40]: 1340  LLC: 2048
rand_sets[40]: 1340
Assign rand_sets[41]: 852  LLC: 2048
rand_sets[41]: 852
Assign rand_sets[42]: 1365  LLC: 2048
rand_sets[42]: 1365
Assign rand_sets[43]: 47  LLC: 2048
rand_sets[43]: 47
Assign rand_sets[44]: 823  LLC: 2048
rand_sets[44]: 823
Assign rand_sets[45]: 686  LLC: 2048
rand_sets[45]: 686
Assign rand_sets[46]: 1637  LLC: 2048
rand_sets[46]: 1637
Assign rand_sets[47]: 1115  LLC: 2048
rand_sets[47]: 1115
Assign rand_sets[48]: 986  LLC: 2048
rand_sets[48]: 986
Assign rand_sets[49]: 258  LLC: 2048
rand_sets[49]: 258
Assign rand_sets[50]: 633  LLC: 2048
rand_sets[50]: 633
Assign rand_sets[51]: 920  LLC: 2048
rand_sets[51]: 920
Assign rand_sets[52]: 204  LLC: 2048
rand_sets[52]: 204
Assign rand_sets[53]: 227  LLC: 2048
rand_sets[53]: 227
Assign rand_sets[54]: 1818  LLC: 2048
rand_sets[54]: 1818
Assign rand_sets[55]: 886  LLC: 2048
rand_sets[55]: 886
Assign rand_sets[56]: 1422  LLC: 2048
rand_sets[56]: 1422
Assign rand_sets[57]: 607  LLC: 2048
rand_sets[57]: 607
Assign rand_sets[58]: 217  LLC: 2048
rand_sets[58]: 217
Assign rand_sets[59]: 1945  LLC: 2048
rand_sets[59]: 1945
Assign rand_sets[60]: 143  LLC: 2048
rand_sets[60]: 143
Assign rand_sets[61]: 1311  LLC: 2048
rand_sets[61]: 1311
Assign rand_sets[62]: 319  LLC: 2048
rand_sets[62]: 319
Assign rand_sets[63]: 1846  LLC: 2048
rand_sets[63]: 1846
 CLEAN-RRIP-POLICY-1: 1-2-1-3-0-3-0-0- CLEAN-RRIP-POLICY-2: 1-2-1-3-0-3-0-0-
 DIRTY-RRIP-POLICY-1: 0-2-1-3-1-3-0-0- DIRTY-RRIP-POLICY-2: 0-2-1-3-1-3-0-0-
 PSEL width: 10
Heartbeat CPU 0 instructions: 10000002 cycles: 5480930 heartbeat IPC: 1.82451 cumulative IPC: 1.82451 (Simulation time: 0 hr 0 min 13 sec) 
Heartbeat CPU 0 instructions: 20000000 cycles: 10913520 heartbeat IPC: 1.84074 cumulative IPC: 1.83259 (Simulation time: 0 hr 0 min 26 sec) 
Heartbeat CPU 0 instructions: 30000000 cycles: 16447488 heartbeat IPC: 1.80702 cumulative IPC: 1.82399 (Simulation time: 0 hr 0 min 39 sec) 
Heartbeat CPU 0 instructions: 40000000 cycles: 21898367 heartbeat IPC: 1.83457 cumulative IPC: 1.82662 (Simulation time: 0 hr 0 min 53 sec) 
Heartbeat CPU 0 instructions: 50000000 cycles: 27400420 heartbeat IPC: 1.8175 cumulative IPC: 1.82479 (Simulation time: 0 hr 1 min 6 sec) 
Heartbeat CPU 0 instructions: 60000000 cycles: 32779370 heartbeat IPC: 1.8591 cumulative IPC: 1.83042 (Simulation time: 0 hr 1 min 20 sec) 
Heartbeat CPU 0 instructions: 70000001 cycles: 38335736 heartbeat IPC: 1.79974 cumulative IPC: 1.82597 (Simulation time: 0 hr 1 min 33 sec) 
Heartbeat CPU 0 instructions: 80000000 cycles: 43795942 heartbeat IPC: 1.83143 cumulative IPC: 1.82665 (Simulation time: 0 hr 1 min 46 sec) 
Heartbeat CPU 0 instructions: 90000000 cycles: 49242787 heartbeat IPC: 1.83593 cumulative IPC: 1.82768 (Simulation time: 0 hr 2 min 0 sec) 
Heartbeat CPU 0 instructions: 100000000 cycles: 54787962 heartbeat IPC: 1.80337 cumulative IPC: 1.82522 (Simulation time: 0 hr 2 min 14 sec) 

Warmup complete CPU 0 instructions: 100000002 cycles: 54787963 (Simulation time: 0 hr 2 min 14 sec) 

Heartbeat CPU 0 instructions: 110000001 cycles: 69210914 heartbeat IPC: 0.693339 cumulative IPC: 0.693339 (Simulation time: 0 hr 2 min 33 sec) 
Heartbeat CPU 0 instructions: 120000000 cycles: 84247507 heartbeat IPC: 0.665044 cumulative IPC: 0.678897 (Simulation time: 0 hr 2 min 53 sec) 
Heartbeat CPU 0 instructions: 130000000 cycles: 98775782 heartbeat IPC: 0.688313 cumulative IPC: 0.682007 (Simulation time: 0 hr 3 min 13 sec) 
Heartbeat CPU 0 instructions: 140000000 cycles: 113133313 heartbeat IPC: 0.696499 cumulative IPC: 0.685573 (Simulation time: 0 hr 3 min 32 sec) 
Heartbeat CPU 0 instructions: 150000000 cycles: 127887606 heartbeat IPC: 0.677769 cumulative IPC: 0.683998 (Simulation time: 0 hr 3 min 52 sec) 
Heartbeat CPU 0 instructions: 160000000 cycles: 143053934 heartbeat IPC: 0.659355 cumulative IPC: 0.679764 (Simulation time: 0 hr 4 min 12 sec) 
Heartbeat CPU 0 instructions: 170000001 cycles: 157946224 heartbeat IPC: 0.671488 cumulative IPC: 0.678569 (Simulation time: 0 hr 4 min 31 sec) 
Heartbeat CPU 0 instructions: 180000000 cycles: 172920872 heartbeat IPC: 0.667795 cumulative IPC: 0.677203 (Simulation time: 0 hr 4 min 50 sec) 
Heartbeat CPU 0 instructions: 190000002 cycles: 187426724 heartbeat IPC: 0.689377 cumulative IPC: 0.678535 (Simulation time: 0 hr 5 min 10 sec) 
Heartbeat CPU 0 instructions: 200000000 cycles: 201806281 heartbeat IPC: 0.695432 cumulative IPC: 0.680187 (Simulation time: 0 hr 5 min 30 sec) 
Heartbeat CPU 0 instructions: 210000003 cycles: 216450607 heartbeat IPC: 0.682859 cumulative IPC: 0.680429 (Simulation time: 0 hr 5 min 50 sec) 
Heartbeat CPU 0 instructions: 220000000 cycles: 231179021 heartbeat IPC: 0.67896 cumulative IPC: 0.680307 (Simulation time: 0 hr 6 min 10 sec) 
Heartbeat CPU 0 instructions: 230000001 cycles: 246330718 heartbeat IPC: 0.659992 cumulative IPC: 0.6787 (Simulation time: 0 hr 6 min 30 sec) 
Heartbeat CPU 0 instructions: 240000000 cycles: 261275033 heartbeat IPC: 0.669151 cumulative IPC: 0.678009 (Simulation time: 0 hr 6 min 49 sec) 
Heartbeat CPU 0 instructions: 250000003 cycles: 276132129 heartbeat IPC: 0.673079 cumulative IPC: 0.677678 (Simulation time: 0 hr 7 min 8 sec) 
Heartbeat CPU 0 instructions: 260000000 cycles: 291665802 heartbeat IPC: 0.643763 cumulative IPC: 0.675454 (Simulation time: 0 hr 7 min 28 sec) 
Heartbeat CPU 0 instructions: 270000003 cycles: 306276524 heartbeat IPC: 0.684429 cumulative IPC: 0.675975 (Simulation time: 0 hr 7 min 48 sec) 
Heartbeat CPU 0 instructions: 280000000 cycles: 320814790 heartbeat IPC: 0.68784 cumulative IPC: 0.676623 (Simulation time: 0 hr 8 min 8 sec) 
Heartbeat CPU 0 instructions: 290000002 cycles: 335301378 heartbeat IPC: 0.690294 cumulative IPC: 0.677329 (Simulation time: 0 hr 8 min 28 sec) 
Heartbeat CPU 0 instructions: 300000000 cycles: 350730015 heartbeat IPC: 0.648145 cumulative IPC: 0.675808 (Simulation time: 0 hr 8 min 48 sec) 
Heartbeat CPU 0 instructions: 310000000 cycles: 365744264 heartbeat IPC: 0.666034 cumulative IPC: 0.675336 (Simulation time: 0 hr 9 min 7 sec) 
Heartbeat CPU 0 instructions: 320000000 cycles: 380583557 heartbeat IPC: 0.673887 cumulative IPC: 0.67527 (Simulation time: 0 hr 9 min 27 sec) 
Heartbeat CPU 0 instructions: 330000000 cycles: 396405906 heartbeat IPC: 0.632017 cumulative IPC: 0.673267 (Simulation time: 0 hr 9 min 47 sec) 
Heartbeat CPU 0 instructions: 340000000 cycles: 411063824 heartbeat IPC: 0.682225 cumulative IPC: 0.673635 (Simulation time: 0 hr 10 min 6 sec) 
Heartbeat CPU 0 instructions: 350000000 cycles: 425736741 heartbeat IPC: 0.681528 cumulative IPC: 0.673948 (Simulation time: 0 hr 10 min 26 sec) 
Heartbeat CPU 0 instructions: 360000000 cycles: 440430655 heartbeat IPC: 0.680554 cumulative IPC: 0.674199 (Simulation time: 0 hr 10 min 45 sec) 
Heartbeat CPU 0 instructions: 370000002 cycles: 455887779 heartbeat IPC: 0.646951 cumulative IPC: 0.673149 (Simulation time: 0 hr 11 min 5 sec) 
Heartbeat CPU 0 instructions: 380000000 cycles: 470773578 heartbeat IPC: 0.671781 cumulative IPC: 0.6731 (Simulation time: 0 hr 11 min 25 sec) 
Heartbeat CPU 0 instructions: 390000003 cycles: 485767267 heartbeat IPC: 0.666947 cumulative IPC: 0.672886 (Simulation time: 0 hr 11 min 44 sec) 
Heartbeat CPU 0 instructions: 400000000 cycles: 501666281 heartbeat IPC: 0.62897 cumulative IPC: 0.671324 (Simulation time: 0 hr 12 min 4 sec) 
Heartbeat CPU 0 instructions: 410000001 cycles: 516735337 heartbeat IPC: 0.663612 cumulative IPC: 0.671072 (Simulation time: 0 hr 12 min 24 sec) 
Heartbeat CPU 0 instructions: 420000000 cycles: 531489351 heartbeat IPC: 0.677782 cumulative IPC: 0.67128 (Simulation time: 0 hr 12 min 43 sec) 
Heartbeat CPU 0 instructions: 430000000 cycles: 546941898 heartbeat IPC: 0.647143 cumulative IPC: 0.670522 (Simulation time: 0 hr 13 min 3 sec) 
Heartbeat CPU 0 instructions: 440000000 cycles: 561772589 heartbeat IPC: 0.674277 cumulative IPC: 0.670632 (Simulation time: 0 hr 13 min 22 sec) 
Heartbeat CPU 0 instructions: 450000000 cycles: 576794676 heartbeat IPC: 0.665686 cumulative IPC: 0.670489 (Simulation time: 0 hr 13 min 41 sec) 
Heartbeat CPU 0 instructions: 460000000 cycles: 592562059 heartbeat IPC: 0.634221 cumulative IPC: 0.669426 (Simulation time: 0 hr 14 min 0 sec) 
Heartbeat CPU 0 instructions: 470000000 cycles: 607675425 heartbeat IPC: 0.661666 cumulative IPC: 0.669214 (Simulation time: 0 hr 14 min 19 sec) 
Heartbeat CPU 0 instructions: 480000000 cycles: 622571736 heartbeat IPC: 0.671307 cumulative IPC: 0.669269 (Simulation time: 0 hr 14 min 38 sec) 
Heartbeat CPU 0 instructions: 490000002 cycles: 637868785 heartbeat IPC: 0.653721 cumulative IPC: 0.668861 (Simulation time: 0 hr 14 min 58 sec) 
Heartbeat CPU 0 instructions: 500000000 cycles: 652769178 heartbeat IPC: 0.671123 cumulative IPC: 0.668917 (Simulation time: 0 hr 15 min 17 sec) 
Heartbeat CPU 0 instructions: 510000001 cycles: 667917753 heartbeat IPC: 0.660128 cumulative IPC: 0.6687 (Simulation time: 0 hr 15 min 36 sec) 
Heartbeat CPU 0 instructions: 520000000 cycles: 683423072 heartbeat IPC: 0.64494 cumulative IPC: 0.668114 (Simulation time: 0 hr 15 min 56 sec) 
Heartbeat CPU 0 instructions: 530000001 cycles: 698883025 heartbeat IPC: 0.646833 cumulative IPC: 0.667603 (Simulation time: 0 hr 16 min 15 sec) 
Heartbeat CPU 0 instructions: 540000000 cycles: 713505064 heartbeat IPC: 0.683899 cumulative IPC: 0.667965 (Simulation time: 0 hr 16 min 34 sec) 
Heartbeat CPU 0 instructions: 550000001 cycles: 728787946 heartbeat IPC: 0.654327 cumulative IPC: 0.667656 (Simulation time: 0 hr 16 min 53 sec) 
Heartbeat CPU 0 instructions: 560000000 cycles: 743616434 heartbeat IPC: 0.674378 cumulative IPC: 0.6678 (Simulation time: 0 hr 17 min 11 sec) 
Heartbeat CPU 0 instructions: 570000002 cycles: 758811792 heartbeat IPC: 0.658096 cumulative IPC: 0.667591 (Simulation time: 0 hr 17 min 30 sec) 
Heartbeat CPU 0 instructions: 580000000 cycles: 773852311 heartbeat IPC: 0.664871 cumulative IPC: 0.667534 (Simulation time: 0 hr 17 min 49 sec) 
Heartbeat CPU 0 instructions: 590000001 cycles: 788880939 heartbeat IPC: 0.665397 cumulative IPC: 0.66749 (Simulation time: 0 hr 18 min 7 sec) 
Heartbeat CPU 0 instructions: 600000000 cycles: 803559132 heartbeat IPC: 0.681283 cumulative IPC: 0.667761 (Simulation time: 0 hr 18 min 26 sec) 
Finished CPU 0 instructions: 500000000 cycles: 748771177 cumulative IPC: 0.667761 (Simulation time: 0 hr 18 min 26 sec) 

CPU 0 Branch Prediction Accuracy: 93.7783% MPKI: 10.0718
Number of Branches: 80940586 Number of Mispredictions: 5035908
Number of LOAD Instructions: 184238101
Number of LOAD Instructions (ROI): 184238101
Number of STORE Instructions: 33143298
Number of STORE Instructions (ROI): 33143298
Total Destination Memory Operands: 33324321
Total Destination Memory Operands (ROI): 33324321
Total Source Memory Operands: 184238101
Total Source Memory Operands (ROI): 184238101
Number of DEPENDED LOADS: 4461331
Number of DEPENDED LOADS (ROI): 4461331
Number of SQ_ADDED: 33324292
Number of SQ_ADDED (ROI): 33324292
Number of LQ_ADDED: 184869437
Number of LQ_ADDED (ROI): 184869437
Number of Instructions read from trace: 600000256

ChampSim completed all CPUs

Region of Interest Statistics

CPU 0 cumulative IPC: 0.667761 instructions: 500000000 cycles: 748771177
ITLB TOTAL     ACCESS:   77746904  HIT:   77746904  MISS:          0
ITLB LOAD      ACCESS:   77746904  HIT:   77746904  MISS:          0
ITLB RFO       ACCESS:          0  HIT:          0  MISS:          0
ITLB PREFETCH  ACCESS:          0  HIT:          0  MISS:          0
ITLB WRITEBACK ACCESS:          0  HIT:          0  MISS:          0
ITLB PREFETCH  REQUESTED:          0  ISSUED:          0  USEFUL:          0  USELESS:          0
ITLB TOTAL MSHR MERGED:          0
ITLB LOAD MSHR MERGED:          0
ITLB RFO MSHR MERGED:          0
ITLB PREFETCH MSHR MERGED:          0
ITLB WRITEBACK MSHR MERGED:          0
ITLB TOTAL ACCESSES:   77746904 HITS:   77746904 MISSES:          0
ITLB LOAD ACCESSES:   77746904 HITS:   77746904 MISSES:          0
ITLB RFO ACCESSES:          0 HITS:          0 MISSES:          0
ITLB PREFETCH ACCESSES:          0 HITS:          0 MISSES:          0
ITLB WRITEBACK ACCESSES:          0 HITS:          0 MISSES:          0
ITLB RQ ACCESS:  500000245
ITLB RQ TO_CACHE:   77746904
ITLB RQ MERGED:  422253341
ITLB RQ FORWARD:          0
ITLB WQ ACCESS:          0
ITLB WQ TO_CACHE:          0
ITLB WQ MERGED:          0
ITLB WQ FORWARD:          0
DTLB TOTAL     ACCESS:   88437248  HIT:   87300400  MISS:    1136848
DTLB LOAD      ACCESS:   66310493  HIT:   65177885  MISS:    1132608
DTLB RFO       ACCESS:   22126755  HIT:   22122515  MISS:       4240
DTLB PREFETCH  ACCESS:          0  HIT:          0  MISS:          0
DTLB WRITEBACK ACCESS:          0  HIT:          0  MISS:          0
DTLB PREFETCH  REQUESTED:          0  ISSUED:          0  USEFUL:          0  USELESS:          0
DTLB TOTAL MSHR MERGED:     135519
DTLB LOAD MSHR MERGED:     133702
DTLB RFO MSHR MERGED:       1817
DTLB PREFETCH MSHR MERGED:          0
DTLB WRITEBACK MSHR MERGED:          0
DTLB TOTAL ACCESSES:   88572767 HITS:   87300400 MISSES:    1272367
DTLB LOAD ACCESSES:   66444195 HITS:   65177885 MISSES:    1266310
DTLB RFO ACCESSES:   22128572 HITS:   22122515 MISSES:       6057
DTLB PREFETCH ACCESSES:          0 HITS:          0 MISSES:          0
DTLB WRITEBACK ACCESSES:          0 HITS:          0 MISSES:          0
DTLB RQ ACCESS:  177579407
DTLB RQ TO_CACHE:   88572767
DTLB RQ MERGED:   89006640
DTLB RQ FORWARD:          0
DTLB WQ ACCESS:          0
DTLB WQ TO_CACHE:          0
DTLB WQ MERGED:          0
DTLB WQ FORWARD:          0
L1D TOTAL     ACCESS:  142061681  HIT:  136502640  MISS:    5559041
L1D LOAD      ACCESS:   61384184  HIT:   58271274  MISS:    3112910
L1D RFO       ACCESS:   27669076  HIT:   27587271  MISS:      81805
L1D PREFETCH  ACCESS:   53008421  HIT:   50644095  MISS:    2364326
L1D WRITEBACK ACCESS:          0  HIT:          0  MISS:          0
L1D PREFETCH  REQUESTED:   61671026  ISSUED:   60752860  USEFUL:     657453  USELESS:    1706878
L1D TOTAL MSHR MERGED:    1219182
L1D LOAD MSHR MERGED:     394117
L1D RFO MSHR MERGED:     164005
L1D PREFETCH MSHR MERGED:     661060
L1D WRITEBACK MSHR MERGED:          0
L1D TOTAL ACCESSES:  143378477 HITS:  136600254 MISSES:    6778223
L1D LOAD ACCESSES:   61671036 HITS:   58271284 MISSES:    3399752
L1D RFO ACCESSES:   27829289 HITS:   27587271 MISSES:     242018
L1D PREFETCH ACCESSES:   53878152 HITS:   50741699 MISSES:    3136453
L1D WRITEBACK ACCESSES:          0 HITS:          0 MISSES:          0
L1D RQ ACCESS:  149746441
L1D RQ TO_CACHE:   61671026
L1D RQ MERGED:   88075405
L1D RQ FORWARD:          0
L1D WQ ACCESS:   27832966
L1D WQ TO_CACHE:   27829289
L1D WQ MERGED:       3677
L1D WQ FORWARD:      97614
L1I TOTAL     ACCESS:   96224225  HIT:   96064967  MISS:     159258
L1I LOAD      ACCESS:   96224225  HIT:   96064967  MISS:     159258
L1I RFO       ACCESS:          0  HIT:          0  MISS:          0
L1I PREFETCH  ACCESS:          0  HIT:          0  MISS:          0
L1I WRITEBACK ACCESS:          0  HIT:          0  MISS:          0
L1I PREFETCH  REQUESTED:          0  ISSUED:          0  USEFUL:          0  USELESS:          0
L1I TOTAL MSHR MERGED:     130264
L1I LOAD MSHR MERGED:     130264
L1I RFO MSHR MERGED:          0
L1I PREFETCH MSHR MERGED:          0
L1I WRITEBACK MSHR MERGED:          0
L1I TOTAL ACCESSES:   96354489 HITS:   96064967 MISSES:     289522
L1I LOAD ACCESSES:   96354489 HITS:   96064967 MISSES:     289522
L1I RFO ACCESSES:          0 HITS:          0 MISSES:          0
L1I PREFETCH ACCESSES:          0 HITS:          0 MISSES:          0
L1I WRITEBACK ACCESSES:          0 HITS:          0 MISSES:          0
L1I RQ ACCESS:  500000245
L1I RQ TO_CACHE:   96354489
L1I RQ MERGED:  403645756
L1I RQ FORWARD:          0
L1I WQ ACCESS:          0
L1I WQ TO_CACHE:          0
L1I WQ MERGED:          0
L1I WQ FORWARD:          0
L2C TOTAL     ACCESS:    5910768  HIT:    3062108  MISS:    2848660
L2C LOAD      ACCESS:    3164883  HIT:    1582917  MISS:    1581966
L2C RFO       ACCESS:      77938  HIT:      45084  MISS:      32854
L2C PREFETCH  ACCESS:    2524422  HIT:    1296165  MISS:    1228257
L2C WRITEBACK ACCESS:     143525  HIT:     137942  MISS:       5583
L2C PREFETCH  REQUESTED:      52724  ISSUED:      52724  USEFUL:      18571  USELESS:    1209726
L2C TOTAL MSHR MERGED:       2765
L2C LOAD MSHR MERGED:       1036
L2C RFO MSHR MERGED:          0
L2C PREFETCH MSHR MERGED:       1729
L2C WRITEBACK MSHR MERGED:          0
L2C TOTAL ACCESSES:    5913623 HITS:    3062193 MISSES:    2851430
L2C LOAD ACCESSES:    3164893 HITS:    1582927 MISSES:    1581966
L2C RFO ACCESSES:      78013 HITS:      45159 MISSES:      32854
L2C PREFETCH ACCESSES:    2527192 HITS:    1296165 MISSES:    1231027
L2C WRITEBACK ACCESSES:     143525 HITS:     137942 MISSES:       5583
L2C RQ ACCESS:    3242906
L2C RQ TO_CACHE:    3242821
L2C RQ MERGED:          0
L2C RQ FORWARD:          0
L2C WQ ACCESS:     143525
L2C WQ TO_CACHE:     143525
L2C WQ MERGED:          0
L2C WQ FORWARD:         85
LLC TOTAL     ACCESS:    2892617  HIT:    1728498  MISS:    1164119
LLC LOAD      ACCESS:    1580930  HIT:    1120328  MISS:     460602
LLC RFO       ACCESS:      32844  HIT:      32640  MISS:        204
LLC PREFETCH  ACCESS:    1229298  HIT:     526454  MISS:     702844
LLC WRITEBACK ACCESS:      49545  HIT:      49076  MISS:        469
LLC PREFETCH  REQUESTED:          0  ISSUED:          0  USEFUL:       2905  USELESS:     699811
LLC TOTAL MSHR MERGED:          0
LLC LOAD MSHR MERGED:          0
LLC RFO MSHR MERGED:          0
LLC PREFETCH MSHR MERGED:          0
LLC WRITEBACK MSHR MERGED:          0
LLC TOTAL ACCESSES:    2892627 HITS:    1728508 MISSES:    1164119
LLC LOAD ACCESSES:    1580930 HITS:    1120328 MISSES:     460602
LLC RFO ACCESSES:      32854 HITS:      32650 MISSES:        204
LLC PREFETCH ACCESSES:    1229298 HITS:     526454 MISSES:     702844
LLC WRITEBACK ACCESSES:      49545 HITS:      49076 MISSES:        469
LLC 0 RQ ACCESS:    1613784
LLC 0 RQ TO_CACHE:    1613774
LLC 0 RQ MERGED:          0
LLC 0 RQ FORWARD:          0
LLC WQ ACCESS:      49545
LLC WQ TO_CACHE:      49545
LLC WQ MERGED:          0
LLC WQ FORWARD:         10
Major fault: 0 Minor fault: 8460
CPU 0 L1D next line prefetcher final stats
CPU 0 L2C PC-based stride prefetcher final stats
All Misses: 1411961
All Hits: 2017252
SD Algo Stats - Switches: 0 SRR-Repls: 533983 BRR-Repls: 0

DRAM Statistics
 CHANNEL 0
 RQ ROW_BUFFER_HIT:     400237  ROW_BUFFER_MISS:     763373
 DBUS_CONGESTED:     344905
 WQ ROW_BUFFER_HIT:         56  ROW_BUFFER_MISS:        669  FULL:          0

 AVG_CONGESTED_CYCLE: 12
LOADS RETIRED: 153532848
INSTR RETIRED: 500000000
