
*** ChampSim Multicore Out-of-Order Simulator ***

Warmup Instructions: 100000000
Simulation Instructions: 500000000
Number of CPUs: 1
LLC sets: 2048
LLC ways: 16
Clean RRIP Policies: 1013030010130300 Dirty RRIP Policies: 2013030020130300 PSEL Width: 10 Track Set: 4294967295 PSEL Mask: 1 Demote Mask: 4340021443400214DS Algo: 0Window size: 0
Off-chip DRAM Size: 4096 MB Channels: 1 Width: 64-bit Data Rate: 1600 MT/s

CPU 0 runs /mnt/beegfs/iconst01/spec2017/Parest.trace.gz
NOT SORTED
TRACE STRING: /mnt/beegfs/iconst01/spec2017/Parest.trace.gz
SORTED
TRACE STRING: /mnt/beegfs/iconst01/spec2017/Parest.trace.gz
INITIAL
TRACE STRING: /mnt/beegfs/iconst01/spec2017/Parest.trace.gz

champsim_seed used: 623

CPU 0 L1D next line prefetcher
CPU 0 L2C IP-based stride prefetcher
Initialize DRRIP state
Assign rand_sets[0]: 454  LLC: 2048
rand_sets[0]: 454
Assign rand_sets[1]: 1662  LLC: 2048
rand_sets[1]: 1662
Assign rand_sets[2]: 1921  LLC: 2048
rand_sets[2]: 1921
Assign rand_sets[3]: 1131  LLC: 2048
rand_sets[3]: 1131
Assign rand_sets[4]: 331  LLC: 2048
rand_sets[4]: 331
Assign rand_sets[5]: 1531  LLC: 2048
rand_sets[5]: 1531
Assign rand_sets[6]: 482  LLC: 2048
rand_sets[6]: 482
Assign rand_sets[7]: 1275  LLC: 2048
rand_sets[7]: 1275
Assign rand_sets[8]: 1876  LLC: 2048
rand_sets[8]: 1876
Assign rand_sets[9]: 2038  LLC: 2048
rand_sets[9]: 2038
Assign rand_sets[10]: 701  LLC: 2048
rand_sets[10]: 701
Assign rand_sets[11]: 479  LLC: 2048
rand_sets[11]: 479
Assign rand_sets[12]: 892  LLC: 2048
rand_sets[12]: 892
Assign rand_sets[13]: 1820  LLC: 2048
rand_sets[13]: 1820
Assign rand_sets[14]: 1505  LLC: 2048
rand_sets[14]: 1505
Assign rand_sets[15]: 1159  LLC: 2048
rand_sets[15]: 1159
Assign rand_sets[16]: 513  LLC: 2048
rand_sets[16]: 513
Assign rand_sets[17]: 703  LLC: 2048
rand_sets[17]: 703
Assign rand_sets[18]: 561  LLC: 2048
rand_sets[18]: 561
Assign rand_sets[19]: 990  LLC: 2048
rand_sets[19]: 990
Assign rand_sets[20]: 342  LLC: 2048
rand_sets[20]: 342
Assign rand_sets[21]: 882  LLC: 2048
rand_sets[21]: 882
Assign rand_sets[22]: 15  LLC: 2048
rand_sets[22]: 15
Assign rand_sets[23]: 71  LLC: 2048
rand_sets[23]: 71
Assign rand_sets[24]: 1127  LLC: 2048
rand_sets[24]: 1127
Assign rand_sets[25]: 1382  LLC: 2048
rand_sets[25]: 1382
Assign rand_sets[26]: 647  LLC: 2048
rand_sets[26]: 647
Assign rand_sets[27]: 857  LLC: 2048
rand_sets[27]: 857
Assign rand_sets[28]: 1450  LLC: 2048
rand_sets[28]: 1450
Assign rand_sets[29]: 1160  LLC: 2048
rand_sets[29]: 1160
Assign rand_sets[30]: 1852  LLC: 2048
rand_sets[30]: 1852
Assign rand_sets[31]: 1881  LLC: 2048
rand_sets[31]: 1881
Assign rand_sets[32]: 1770  LLC: 2048
rand_sets[32]: 1770
Assign rand_sets[33]: 1622  LLC: 2048
rand_sets[33]: 1622
Assign rand_sets[34]: 275  LLC: 2048
rand_sets[34]: 275
Assign rand_sets[35]: 635  LLC: 2048
rand_sets[35]: 635
Assign rand_sets[36]: 466  LLC: 2048
rand_sets[36]: 466
Assign rand_sets[37]: 1413  LLC: 2048
rand_sets[37]: 1413
Assign rand_sets[38]: 417  LLC: 2048
rand_sets[38]: 417
Assign rand_sets[39]: 472  LLC: 2048
rand_sets[39]: 472
Assign rand_sets[40]: 1340  LLC: 2048
rand_sets[40]: 1340
Assign rand_sets[41]: 852  LLC: 2048
rand_sets[41]: 852
Assign rand_sets[42]: 1365  LLC: 2048
rand_sets[42]: 1365
Assign rand_sets[43]: 47  LLC: 2048
rand_sets[43]: 47
Assign rand_sets[44]: 823  LLC: 2048
rand_sets[44]: 823
Assign rand_sets[45]: 686  LLC: 2048
rand_sets[45]: 686
Assign rand_sets[46]: 1637  LLC: 2048
rand_sets[46]: 1637
Assign rand_sets[47]: 1115  LLC: 2048
rand_sets[47]: 1115
Assign rand_sets[48]: 986  LLC: 2048
rand_sets[48]: 986
Assign rand_sets[49]: 258  LLC: 2048
rand_sets[49]: 258
Assign rand_sets[50]: 633  LLC: 2048
rand_sets[50]: 633
Assign rand_sets[51]: 920  LLC: 2048
rand_sets[51]: 920
Assign rand_sets[52]: 204  LLC: 2048
rand_sets[52]: 204
Assign rand_sets[53]: 227  LLC: 2048
rand_sets[53]: 227
Assign rand_sets[54]: 1818  LLC: 2048
rand_sets[54]: 1818
Assign rand_sets[55]: 886  LLC: 2048
rand_sets[55]: 886
Assign rand_sets[56]: 1422  LLC: 2048
rand_sets[56]: 1422
Assign rand_sets[57]: 607  LLC: 2048
rand_sets[57]: 607
Assign rand_sets[58]: 217  LLC: 2048
rand_sets[58]: 217
Assign rand_sets[59]: 1945  LLC: 2048
rand_sets[59]: 1945
Assign rand_sets[60]: 143  LLC: 2048
rand_sets[60]: 143
Assign rand_sets[61]: 1311  LLC: 2048
rand_sets[61]: 1311
Assign rand_sets[62]: 319  LLC: 2048
rand_sets[62]: 319
Assign rand_sets[63]: 1846  LLC: 2048
rand_sets[63]: 1846
 CLEAN-RRIP-POLICY-1: 1-0-1-3-0-3-0-0- CLEAN-RRIP-POLICY-2: 1-0-1-3-0-3-0-0-
 DIRTY-RRIP-POLICY-1: 2-0-1-3-0-3-0-0- DIRTY-RRIP-POLICY-2: 2-0-1-3-0-3-0-0-
 PSEL width: 10
Heartbeat CPU 0 instructions: 10000001 cycles: 4387124 heartbeat IPC: 2.2794 cumulative IPC: 2.2794 (Simulation time: 0 hr 0 min 15 sec) 
Heartbeat CPU 0 instructions: 20000000 cycles: 8781255 heartbeat IPC: 2.27576 cumulative IPC: 2.27758 (Simulation time: 0 hr 0 min 29 sec) 
Heartbeat CPU 0 instructions: 30000003 cycles: 13213198 heartbeat IPC: 2.25635 cumulative IPC: 2.27046 (Simulation time: 0 hr 0 min 44 sec) 
Heartbeat CPU 0 instructions: 40000000 cycles: 17643803 heartbeat IPC: 2.25703 cumulative IPC: 2.26708 (Simulation time: 0 hr 0 min 59 sec) 
Heartbeat CPU 0 instructions: 50000000 cycles: 22051994 heartbeat IPC: 2.2685 cumulative IPC: 2.26737 (Simulation time: 0 hr 1 min 13 sec) 
Heartbeat CPU 0 instructions: 60000000 cycles: 26457665 heartbeat IPC: 2.2698 cumulative IPC: 2.26777 (Simulation time: 0 hr 1 min 28 sec) 
Heartbeat CPU 0 instructions: 70000000 cycles: 30858477 heartbeat IPC: 2.27231 cumulative IPC: 2.26842 (Simulation time: 0 hr 1 min 42 sec) 
Heartbeat CPU 0 instructions: 80000000 cycles: 35254044 heartbeat IPC: 2.27502 cumulative IPC: 2.26924 (Simulation time: 0 hr 1 min 57 sec) 
Heartbeat CPU 0 instructions: 90000000 cycles: 39648303 heartbeat IPC: 2.2757 cumulative IPC: 2.26996 (Simulation time: 0 hr 2 min 12 sec) 
Heartbeat CPU 0 instructions: 100000000 cycles: 44045624 heartbeat IPC: 2.27411 cumulative IPC: 2.27037 (Simulation time: 0 hr 2 min 27 sec) 

Warmup complete CPU 0 instructions: 100000002 cycles: 44045634 (Simulation time: 0 hr 2 min 27 sec) 

Heartbeat CPU 0 instructions: 110000000 cycles: 54421634 heartbeat IPC: 0.963762 cumulative IPC: 0.963762 (Simulation time: 0 hr 2 min 46 sec) 
Heartbeat CPU 0 instructions: 120000000 cycles: 64020153 heartbeat IPC: 1.04183 cumulative IPC: 1.00128 (Simulation time: 0 hr 3 min 5 sec) 
Heartbeat CPU 0 instructions: 130000000 cycles: 73538757 heartbeat IPC: 1.05057 cumulative IPC: 1.01719 (Simulation time: 0 hr 3 min 24 sec) 
Heartbeat CPU 0 instructions: 140000000 cycles: 83269376 heartbeat IPC: 1.02768 cumulative IPC: 1.01979 (Simulation time: 0 hr 3 min 43 sec) 
Heartbeat CPU 0 instructions: 150000002 cycles: 94262871 heartbeat IPC: 0.909629 cumulative IPC: 0.995674 (Simulation time: 0 hr 4 min 3 sec) 
Heartbeat CPU 0 instructions: 160000000 cycles: 104397037 heartbeat IPC: 0.986761 cumulative IPC: 0.994177 (Simulation time: 0 hr 4 min 22 sec) 
Heartbeat CPU 0 instructions: 170000003 cycles: 114425087 heartbeat IPC: 0.997203 cumulative IPC: 0.994608 (Simulation time: 0 hr 4 min 40 sec) 
Heartbeat CPU 0 instructions: 180000000 cycles: 124421780 heartbeat IPC: 1.00033 cumulative IPC: 0.99532 (Simulation time: 0 hr 4 min 59 sec) 
Heartbeat CPU 0 instructions: 190000002 cycles: 134542721 heartbeat IPC: 0.988051 cumulative IPC: 0.994507 (Simulation time: 0 hr 5 min 18 sec) 
Heartbeat CPU 0 instructions: 200000000 cycles: 144244555 heartbeat IPC: 1.03073 cumulative IPC: 0.998015 (Simulation time: 0 hr 5 min 37 sec) 
Heartbeat CPU 0 instructions: 210000000 cycles: 154270112 heartbeat IPC: 0.997451 cumulative IPC: 0.997963 (Simulation time: 0 hr 5 min 56 sec) 
Heartbeat CPU 0 instructions: 220000000 cycles: 163814033 heartbeat IPC: 1.04779 cumulative IPC: 1.00193 (Simulation time: 0 hr 6 min 15 sec) 
Heartbeat CPU 0 instructions: 230000001 cycles: 176219348 heartbeat IPC: 0.806106 cumulative IPC: 0.983554 (Simulation time: 0 hr 6 min 36 sec) 
Heartbeat CPU 0 instructions: 240000000 cycles: 187496807 heartbeat IPC: 0.886724 cumulative IPC: 0.975942 (Simulation time: 0 hr 6 min 56 sec) 
Heartbeat CPU 0 instructions: 250000002 cycles: 198028784 heartbeat IPC: 0.94949 cumulative IPC: 0.974133 (Simulation time: 0 hr 7 min 15 sec) 
Heartbeat CPU 0 instructions: 260000000 cycles: 208246659 heartbeat IPC: 0.978677 cumulative IPC: 0.974415 (Simulation time: 0 hr 7 min 34 sec) 
Heartbeat CPU 0 instructions: 270000001 cycles: 218257627 heartbeat IPC: 0.998905 cumulative IPC: 0.975823 (Simulation time: 0 hr 7 min 53 sec) 
Heartbeat CPU 0 instructions: 280000000 cycles: 228477114 heartbeat IPC: 0.978523 cumulative IPC: 0.975972 (Simulation time: 0 hr 8 min 12 sec) 
Heartbeat CPU 0 instructions: 290000002 cycles: 238114626 heartbeat IPC: 1.03761 cumulative IPC: 0.979033 (Simulation time: 0 hr 8 min 31 sec) 
Heartbeat CPU 0 instructions: 300000000 cycles: 248124341 heartbeat IPC: 0.999029 cumulative IPC: 0.980014 (Simulation time: 0 hr 8 min 50 sec) 
Heartbeat CPU 0 instructions: 310000000 cycles: 257682967 heartbeat IPC: 1.04618 cumulative IPC: 0.982974 (Simulation time: 0 hr 9 min 9 sec) 
Heartbeat CPU 0 instructions: 320000000 cycles: 267264186 heartbeat IPC: 1.04371 cumulative IPC: 0.985581 (Simulation time: 0 hr 9 min 28 sec) 
Heartbeat CPU 0 instructions: 330000003 cycles: 276948127 heartbeat IPC: 1.03264 cumulative IPC: 0.987538 (Simulation time: 0 hr 9 min 47 sec) 
Heartbeat CPU 0 instructions: 340000000 cycles: 287137728 heartbeat IPC: 0.981392 cumulative IPC: 0.98728 (Simulation time: 0 hr 10 min 6 sec) 
Heartbeat CPU 0 instructions: 350000000 cycles: 297418123 heartbeat IPC: 0.972725 cumulative IPC: 0.98669 (Simulation time: 0 hr 10 min 25 sec) 
Heartbeat CPU 0 instructions: 360000000 cycles: 307322776 heartbeat IPC: 1.00963 cumulative IPC: 0.987552 (Simulation time: 0 hr 10 min 44 sec) 
Heartbeat CPU 0 instructions: 370000000 cycles: 317101899 heartbeat IPC: 1.02259 cumulative IPC: 0.988807 (Simulation time: 0 hr 11 min 3 sec) 
Heartbeat CPU 0 instructions: 380000000 cycles: 326850627 heartbeat IPC: 1.02577 cumulative IPC: 0.990082 (Simulation time: 0 hr 11 min 22 sec) 
Heartbeat CPU 0 instructions: 390000002 cycles: 336455065 heartbeat IPC: 1.04119 cumulative IPC: 0.99176 (Simulation time: 0 hr 11 min 41 sec) 
Heartbeat CPU 0 instructions: 400000000 cycles: 346384369 heartbeat IPC: 1.00712 cumulative IPC: 0.992265 (Simulation time: 0 hr 11 min 59 sec) 
Heartbeat CPU 0 instructions: 410000000 cycles: 355903134 heartbeat IPC: 1.05056 cumulative IPC: 0.994044 (Simulation time: 0 hr 12 min 18 sec) 
Heartbeat CPU 0 instructions: 420000000 cycles: 367114924 heartbeat IPC: 0.891918 cumulative IPC: 0.9905 (Simulation time: 0 hr 12 min 38 sec) 
Heartbeat CPU 0 instructions: 430000000 cycles: 378756478 heartbeat IPC: 0.858992 cumulative IPC: 0.985926 (Simulation time: 0 hr 12 min 58 sec) 
Heartbeat CPU 0 instructions: 440000000 cycles: 389338354 heartbeat IPC: 0.945012 cumulative IPC: 0.984672 (Simulation time: 0 hr 13 min 17 sec) 
Heartbeat CPU 0 instructions: 450000000 cycles: 399740906 heartbeat IPC: 0.961303 cumulative IPC: 0.983988 (Simulation time: 0 hr 13 min 35 sec) 
Heartbeat CPU 0 instructions: 460000000 cycles: 410026816 heartbeat IPC: 0.972204 cumulative IPC: 0.983657 (Simulation time: 0 hr 13 min 54 sec) 
Heartbeat CPU 0 instructions: 470000001 cycles: 420302885 heartbeat IPC: 0.973135 cumulative IPC: 0.98337 (Simulation time: 0 hr 14 min 13 sec) 
Heartbeat CPU 0 instructions: 480000000 cycles: 430055026 heartbeat IPC: 1.02542 cumulative IPC: 0.984432 (Simulation time: 0 hr 14 min 32 sec) 
Heartbeat CPU 0 instructions: 490000000 cycles: 440184538 heartbeat IPC: 0.987214 cumulative IPC: 0.984503 (Simulation time: 0 hr 14 min 51 sec) 
Heartbeat CPU 0 instructions: 500000000 cycles: 450011166 heartbeat IPC: 1.01764 cumulative IPC: 0.985305 (Simulation time: 0 hr 15 min 9 sec) 
Heartbeat CPU 0 instructions: 510000000 cycles: 459607278 heartbeat IPC: 1.04209 cumulative IPC: 0.986617 (Simulation time: 0 hr 15 min 28 sec) 
Heartbeat CPU 0 instructions: 520000000 cycles: 469366735 heartbeat IPC: 1.02465 cumulative IPC: 0.987489 (Simulation time: 0 hr 15 min 47 sec) 
Heartbeat CPU 0 instructions: 530000001 cycles: 479805271 heartbeat IPC: 0.957989 cumulative IPC: 0.986783 (Simulation time: 0 hr 16 min 6 sec) 
Heartbeat CPU 0 instructions: 540000000 cycles: 490252281 heartbeat IPC: 0.957212 cumulative IPC: 0.98609 (Simulation time: 0 hr 16 min 24 sec) 
Heartbeat CPU 0 instructions: 550000003 cycles: 500378918 heartbeat IPC: 0.987495 cumulative IPC: 0.986121 (Simulation time: 0 hr 16 min 42 sec) 
Heartbeat CPU 0 instructions: 560000000 cycles: 510350555 heartbeat IPC: 1.00284 cumulative IPC: 0.986479 (Simulation time: 0 hr 17 min 1 sec) 
Heartbeat CPU 0 instructions: 570000002 cycles: 520282513 heartbeat IPC: 1.00685 cumulative IPC: 0.986904 (Simulation time: 0 hr 17 min 19 sec) 
Heartbeat CPU 0 instructions: 580000000 cycles: 530089679 heartbeat IPC: 1.01966 cumulative IPC: 0.987565 (Simulation time: 0 hr 17 min 37 sec) 
Heartbeat CPU 0 instructions: 590000001 cycles: 540142247 heartbeat IPC: 0.994771 cumulative IPC: 0.987711 (Simulation time: 0 hr 17 min 56 sec) 
Heartbeat CPU 0 instructions: 600000000 cycles: 549880571 heartbeat IPC: 1.02687 cumulative IPC: 0.988465 (Simulation time: 0 hr 18 min 14 sec) 
Finished CPU 0 instructions: 500000000 cycles: 505834951 cumulative IPC: 0.988465 (Simulation time: 0 hr 18 min 14 sec) 

CPU 0 Branch Prediction Accuracy: 97.8526% MPKI: 2.66709
Number of Branches: 62099103 Number of Mispredictions: 1333545
Number of LOAD Instructions: 210576465
Number of LOAD Instructions (ROI): 210576465
Number of STORE Instructions: 16915507
Number of STORE Instructions (ROI): 16915507
Total Destination Memory Operands: 16918869
Total Destination Memory Operands (ROI): 16918869
Total Source Memory Operands: 210576465
Total Source Memory Operands (ROI): 210576465
Number of DEPENDED LOADS: 340378
Number of DEPENDED LOADS (ROI): 340378
Number of SQ_ADDED: 16918826
Number of SQ_ADDED (ROI): 16918826
Number of LQ_ADDED: 210608985
Number of LQ_ADDED (ROI): 210608985
Number of Instructions read from trace: 600000257

ChampSim completed all CPUs

Region of Interest Statistics

CPU 0 cumulative IPC: 0.988465 instructions: 500000000 cycles: 505834951
ITLB TOTAL     ACCESS:   76312698  HIT:   76312660  MISS:         38
ITLB LOAD      ACCESS:   76312698  HIT:   76312660  MISS:         38
ITLB RFO       ACCESS:          0  HIT:          0  MISS:          0
ITLB PREFETCH  ACCESS:          0  HIT:          0  MISS:          0
ITLB WRITEBACK ACCESS:          0  HIT:          0  MISS:          0
ITLB PREFETCH  REQUESTED:          0  ISSUED:          0  USEFUL:          0  USELESS:          0
ITLB TOTAL MSHR MERGED:         37
ITLB LOAD MSHR MERGED:         37
ITLB RFO MSHR MERGED:          0
ITLB PREFETCH MSHR MERGED:          0
ITLB WRITEBACK MSHR MERGED:          0
ITLB TOTAL ACCESSES:   76312735 HITS:   76312660 MISSES:         75
ITLB LOAD ACCESSES:   76312735 HITS:   76312660 MISSES:         75
ITLB RFO ACCESSES:          0 HITS:          0 MISSES:          0
ITLB PREFETCH ACCESSES:          0 HITS:          0 MISSES:          0
ITLB WRITEBACK ACCESSES:          0 HITS:          0 MISSES:          0
ITLB RQ ACCESS:  500000188
ITLB RQ TO_CACHE:   76312736
ITLB RQ MERGED:  423687452
ITLB RQ FORWARD:          0
ITLB WQ ACCESS:          0
ITLB WQ TO_CACHE:          0
ITLB WQ MERGED:          0
ITLB WQ FORWARD:          0
DTLB TOTAL     ACCESS:  136843693  HIT:  136640899  MISS:     202794
DTLB LOAD      ACCESS:  128781857  HIT:  128581784  MISS:     200073
DTLB RFO       ACCESS:    8061836  HIT:    8059115  MISS:       2721
DTLB PREFETCH  ACCESS:          0  HIT:          0  MISS:          0
DTLB WRITEBACK ACCESS:          0  HIT:          0  MISS:          0
DTLB PREFETCH  REQUESTED:          0  ISSUED:          0  USEFUL:          0  USELESS:          0
DTLB TOTAL MSHR MERGED:     446141
DTLB LOAD MSHR MERGED:     442370
DTLB RFO MSHR MERGED:       3771
DTLB PREFETCH MSHR MERGED:          0
DTLB WRITEBACK MSHR MERGED:          0
DTLB TOTAL ACCESSES:  137289834 HITS:  136640899 MISSES:     648935
DTLB LOAD ACCESSES:  129224227 HITS:  128581784 MISSES:     642443
DTLB RFO ACCESSES:    8065607 HITS:    8059115 MISSES:       6492
DTLB PREFETCH ACCESSES:          0 HITS:          0 MISSES:          0
DTLB WRITEBACK ACCESSES:          0 HITS:          0 MISSES:          0
DTLB RQ ACCESS:  189424193
DTLB RQ TO_CACHE:  137289834
DTLB RQ MERGED:   52134359
DTLB RQ FORWARD:          0
DTLB WQ ACCESS:          0
DTLB WQ TO_CACHE:          0
DTLB WQ MERGED:          0
DTLB WQ FORWARD:          0
L1D TOTAL     ACCESS:  125564282  HIT:  108007427  MISS:   17556855
L1D LOAD      ACCESS:   72369798  HIT:   62097495  MISS:   10272303
L1D RFO       ACCESS:   14015086  HIT:   13862254  MISS:     152832
L1D PREFETCH  ACCESS:   39179398  HIT:   32047678  MISS:    7131720
L1D WRITEBACK ACCESS:          0  HIT:          0  MISS:          0
L1D PREFETCH  REQUESTED:   85621321  ISSUED:   84298489  USEFUL:    5872507  USELESS:    1259224
L1D TOTAL MSHR MERGED:   31609126
L1D LOAD MSHR MERGED:   18427438
L1D RFO MSHR MERGED:     264997
L1D PREFETCH MSHR MERGED:   12916691
L1D WRITEBACK MSHR MERGED:          0
L1D TOTAL ACCESSES:  157173940 HITS:  108007960 MISSES:   49165980
L1D LOAD ACCESSES:   85621337 HITS:   62097511 MISSES:   23523826
L1D RFO ACCESSES:   14280058 HITS:   13862254 MISSES:     417804
L1D PREFETCH ACCESSES:   57272545 HITS:   32048195 MISSES:   25224350
L1D WRITEBACK ACCESSES:          0 HITS:          0 MISSES:          0
L1D RQ ACCESS:  175135171
L1D RQ TO_CACHE:   85621321
L1D RQ MERGED:   89513834
L1D RQ FORWARD:          0
L1D WQ ACCESS:   14289037
L1D WQ TO_CACHE:   14280058
L1D WQ MERGED:       8979
L1D WQ FORWARD:        533
L1I TOTAL     ACCESS:   93339572  HIT:   93337776  MISS:       1796
L1I LOAD      ACCESS:   93339572  HIT:   93337776  MISS:       1796
L1I RFO       ACCESS:          0  HIT:          0  MISS:          0
L1I PREFETCH  ACCESS:          0  HIT:          0  MISS:          0
L1I WRITEBACK ACCESS:          0  HIT:          0  MISS:          0
L1I PREFETCH  REQUESTED:          0  ISSUED:          0  USEFUL:          0  USELESS:          0
L1I TOTAL MSHR MERGED:       2352
L1I LOAD MSHR MERGED:       2352
L1I RFO MSHR MERGED:          0
L1I PREFETCH MSHR MERGED:          0
L1I WRITEBACK MSHR MERGED:          0
L1I TOTAL ACCESSES:   93341924 HITS:   93337776 MISSES:       4148
L1I LOAD ACCESSES:   93341924 HITS:   93337776 MISSES:       4148
L1I RFO ACCESSES:          0 HITS:          0 MISSES:          0
L1I PREFETCH ACCESSES:          0 HITS:          0 MISSES:          0
L1I WRITEBACK ACCESSES:          0 HITS:          0 MISSES:          0
L1I RQ ACCESS:  500000187
L1I RQ TO_CACHE:   93341924
L1I RQ MERGED:  406658263
L1I RQ FORWARD:          0
L1I WQ ACCESS:          0
L1I WQ TO_CACHE:          0
L1I WQ MERGED:          0
L1I WQ FORWARD:          0
L2C TOTAL     ACCESS:   20893729  HIT:    8664676  MISS:   12229053
L2C LOAD      ACCESS:    5098162  HIT:    2139849  MISS:    2958313
L2C RFO       ACCESS:     152807  HIT:       6505  MISS:     146302
L2C PREFETCH  ACCESS:   13870004  HIT:    4745676  MISS:    9124328
L2C WRITEBACK ACCESS:    1772756  HIT:    1772646  MISS:        110
L2C PREFETCH  REQUESTED:    1795863  ISSUED:    1795863  USEFUL:    1067818  USELESS:    8058129
L2C TOTAL MSHR MERGED:      93238
L2C LOAD MSHR MERGED:      21701
L2C RFO MSHR MERGED:          0
L2C PREFETCH MSHR MERGED:      71537
L2C WRITEBACK MSHR MERGED:          0
L2C TOTAL ACCESSES:   21009663 HITS:    8664711 MISSES:   12344952
L2C LOAD ACCESSES:    5098184 HITS:    2139871 MISSES:    2958313
L2C RFO ACCESSES:     152807 HITS:       6505 MISSES:     146302
L2C PREFETCH ACCESSES:   13985916 HITS:    4745689 MISSES:    9240227
L2C WRITEBACK ACCESSES:    1772756 HITS:    1772646 MISSES:        110
L2C RQ ACCESS:    5250991
L2C RQ TO_CACHE:    5250969
L2C RQ MERGED:          0
L2C RQ FORWARD:          0
L2C WQ ACCESS:    1772756
L2C WQ TO_CACHE:    1772756
L2C WQ MERGED:          0
L2C WQ FORWARD:         35
LLC TOTAL     ACCESS:   12532110  HIT:    6246151  MISS:    6285959
LLC LOAD      ACCESS:    2936595  HIT:    2311690  MISS:     624905
LLC RFO       ACCESS:     146302  HIT:      72028  MISS:      74274
LLC PREFETCH  ACCESS:    9163225  HIT:    3644651  MISS:    5518574
LLC WRITEBACK ACCESS:     285988  HIT:     217782  MISS:      68206
LLC PREFETCH  REQUESTED:          0  ISSUED:          0  USEFUL:      16276  USELESS:    5501974
LLC TOTAL MSHR MERGED:       1518
LLC LOAD MSHR MERGED:        319
LLC RFO MSHR MERGED:          0
LLC PREFETCH MSHR MERGED:       1199
LLC WRITEBACK MSHR MERGED:          0
LLC TOTAL ACCESSES:   12533662 HITS:    6246185 MISSES:    6287477
LLC LOAD ACCESSES:    2936612 HITS:    2311707 MISSES:     624905
LLC RFO ACCESSES:     146302 HITS:      72028 MISSES:      74274
LLC PREFETCH ACCESSES:    9164760 HITS:    3644668 MISSES:    5520092
LLC WRITEBACK ACCESSES:     285988 HITS:     217782 MISSES:      68206
LLC 0 RQ ACCESS:    3082914
LLC 0 RQ TO_CACHE:    3082897
LLC 0 RQ MERGED:          0
LLC 0 RQ FORWARD:          0
LLC WQ ACCESS:     285988
LLC WQ TO_CACHE:     285988
LLC WQ MERGED:          0
LLC WQ FORWARD:         34
Major fault: 0 Minor fault: 6524
CPU 0 L1D next line prefetcher final stats
CPU 0 L2C PC-based stride prefetcher final stats
All Misses: 8088827
All Hits: 6968296
SD Algo Stats - Switches: 0 SRR-Repls: 654339 BRR-Repls: 0

DRAM Statistics
 CHANNEL 0
 RQ ROW_BUFFER_HIT:    5350069  ROW_BUFFER_MISS:     858711
 DBUS_CONGESTED:    2195182
 WQ ROW_BUFFER_HIT:       9855  ROW_BUFFER_MISS:      98565  FULL:          0

 AVG_CONGESTED_CYCLE: 12
LOADS RETIRED: 175418235
INSTR RETIRED: 500000000
