
*** ChampSim Multicore Out-of-Order Simulator ***

Warmup Instructions: 100000000
Simulation Instructions: 500000000
Number of CPUs: 1
LLC sets: 2048
LLC ways: 16
Clean RRIP Policies: 2213230222132302 Dirty RRIP Policies: 1223030212230302 PSEL Width: 10 Track Set: 4294967295 PSEL Mask: 1 Demote Mask: 1040100010401000DS Algo: 0Window size: 0
Off-chip DRAM Size: 4096 MB Channels: 1 Width: 64-bit Data Rate: 1600 MT/s

CPU 0 runs /mnt/beegfs/iconst01/spec2017/Blender.trace.gz
NOT SORTED
TRACE STRING: /mnt/beegfs/iconst01/spec2017/Blender.trace.gz
SORTED
TRACE STRING: /mnt/beegfs/iconst01/spec2017/Blender.trace.gz
INITIAL
TRACE STRING: /mnt/beegfs/iconst01/spec2017/Blender.trace.gz

champsim_seed used: 700

CPU 0 L1D next line prefetcher
CPU 0 L2C IP-based stride prefetcher
Initialize DRRIP state
Assign rand_sets[0]: 454  LLC: 2048
rand_sets[0]: 454
Assign rand_sets[1]: 1662  LLC: 2048
rand_sets[1]: 1662
Assign rand_sets[2]: 1921  LLC: 2048
rand_sets[2]: 1921
Assign rand_sets[3]: 1131  LLC: 2048
rand_sets[3]: 1131
Assign rand_sets[4]: 331  LLC: 2048
rand_sets[4]: 331
Assign rand_sets[5]: 1531  LLC: 2048
rand_sets[5]: 1531
Assign rand_sets[6]: 482  LLC: 2048
rand_sets[6]: 482
Assign rand_sets[7]: 1275  LLC: 2048
rand_sets[7]: 1275
Assign rand_sets[8]: 1876  LLC: 2048
rand_sets[8]: 1876
Assign rand_sets[9]: 2038  LLC: 2048
rand_sets[9]: 2038
Assign rand_sets[10]: 701  LLC: 2048
rand_sets[10]: 701
Assign rand_sets[11]: 479  LLC: 2048
rand_sets[11]: 479
Assign rand_sets[12]: 892  LLC: 2048
rand_sets[12]: 892
Assign rand_sets[13]: 1820  LLC: 2048
rand_sets[13]: 1820
Assign rand_sets[14]: 1505  LLC: 2048
rand_sets[14]: 1505
Assign rand_sets[15]: 1159  LLC: 2048
rand_sets[15]: 1159
Assign rand_sets[16]: 513  LLC: 2048
rand_sets[16]: 513
Assign rand_sets[17]: 703  LLC: 2048
rand_sets[17]: 703
Assign rand_sets[18]: 561  LLC: 2048
rand_sets[18]: 561
Assign rand_sets[19]: 990  LLC: 2048
rand_sets[19]: 990
Assign rand_sets[20]: 342  LLC: 2048
rand_sets[20]: 342
Assign rand_sets[21]: 882  LLC: 2048
rand_sets[21]: 882
Assign rand_sets[22]: 15  LLC: 2048
rand_sets[22]: 15
Assign rand_sets[23]: 71  LLC: 2048
rand_sets[23]: 71
Assign rand_sets[24]: 1127  LLC: 2048
rand_sets[24]: 1127
Assign rand_sets[25]: 1382  LLC: 2048
rand_sets[25]: 1382
Assign rand_sets[26]: 647  LLC: 2048
rand_sets[26]: 647
Assign rand_sets[27]: 857  LLC: 2048
rand_sets[27]: 857
Assign rand_sets[28]: 1450  LLC: 2048
rand_sets[28]: 1450
Assign rand_sets[29]: 1160  LLC: 2048
rand_sets[29]: 1160
Assign rand_sets[30]: 1852  LLC: 2048
rand_sets[30]: 1852
Assign rand_sets[31]: 1881  LLC: 2048
rand_sets[31]: 1881
Assign rand_sets[32]: 1770  LLC: 2048
rand_sets[32]: 1770
Assign rand_sets[33]: 1622  LLC: 2048
rand_sets[33]: 1622
Assign rand_sets[34]: 275  LLC: 2048
rand_sets[34]: 275
Assign rand_sets[35]: 635  LLC: 2048
rand_sets[35]: 635
Assign rand_sets[36]: 466  LLC: 2048
rand_sets[36]: 466
Assign rand_sets[37]: 1413  LLC: 2048
rand_sets[37]: 1413
Assign rand_sets[38]: 417  LLC: 2048
rand_sets[38]: 417
Assign rand_sets[39]: 472  LLC: 2048
rand_sets[39]: 472
Assign rand_sets[40]: 1340  LLC: 2048
rand_sets[40]: 1340
Assign rand_sets[41]: 852  LLC: 2048
rand_sets[41]: 852
Assign rand_sets[42]: 1365  LLC: 2048
rand_sets[42]: 1365
Assign rand_sets[43]: 47  LLC: 2048
rand_sets[43]: 47
Assign rand_sets[44]: 823  LLC: 2048
rand_sets[44]: 823
Assign rand_sets[45]: 686  LLC: 2048
rand_sets[45]: 686
Assign rand_sets[46]: 1637  LLC: 2048
rand_sets[46]: 1637
Assign rand_sets[47]: 1115  LLC: 2048
rand_sets[47]: 1115
Assign rand_sets[48]: 986  LLC: 2048
rand_sets[48]: 986
Assign rand_sets[49]: 258  LLC: 2048
rand_sets[49]: 258
Assign rand_sets[50]: 633  LLC: 2048
rand_sets[50]: 633
Assign rand_sets[51]: 920  LLC: 2048
rand_sets[51]: 920
Assign rand_sets[52]: 204  LLC: 2048
rand_sets[52]: 204
Assign rand_sets[53]: 227  LLC: 2048
rand_sets[53]: 227
Assign rand_sets[54]: 1818  LLC: 2048
rand_sets[54]: 1818
Assign rand_sets[55]: 886  LLC: 2048
rand_sets[55]: 886
Assign rand_sets[56]: 1422  LLC: 2048
rand_sets[56]: 1422
Assign rand_sets[57]: 607  LLC: 2048
rand_sets[57]: 607
Assign rand_sets[58]: 217  LLC: 2048
rand_sets[58]: 217
Assign rand_sets[59]: 1945  LLC: 2048
rand_sets[59]: 1945
Assign rand_sets[60]: 143  LLC: 2048
rand_sets[60]: 143
Assign rand_sets[61]: 1311  LLC: 2048
rand_sets[61]: 1311
Assign rand_sets[62]: 319  LLC: 2048
rand_sets[62]: 319
Assign rand_sets[63]: 1846  LLC: 2048
rand_sets[63]: 1846
 CLEAN-RRIP-POLICY-1: 2-2-1-3-2-3-0-2- CLEAN-RRIP-POLICY-2: 2-2-1-3-2-3-0-2-
 DIRTY-RRIP-POLICY-1: 1-2-2-3-0-3-0-2- DIRTY-RRIP-POLICY-2: 1-2-2-3-0-3-0-2-
 PSEL width: 10
Heartbeat CPU 0 instructions: 10000002 cycles: 5480930 heartbeat IPC: 1.82451 cumulative IPC: 1.82451 (Simulation time: 0 hr 0 min 15 sec) 
Heartbeat CPU 0 instructions: 20000000 cycles: 10913520 heartbeat IPC: 1.84074 cumulative IPC: 1.83259 (Simulation time: 0 hr 0 min 30 sec) 
Heartbeat CPU 0 instructions: 30000000 cycles: 16447385 heartbeat IPC: 1.80706 cumulative IPC: 1.824 (Simulation time: 0 hr 0 min 45 sec) 
Heartbeat CPU 0 instructions: 40000000 cycles: 21898184 heartbeat IPC: 1.83459 cumulative IPC: 1.82664 (Simulation time: 0 hr 1 min 0 sec) 
Heartbeat CPU 0 instructions: 50000000 cycles: 27400084 heartbeat IPC: 1.81755 cumulative IPC: 1.82481 (Simulation time: 0 hr 1 min 15 sec) 
Heartbeat CPU 0 instructions: 60000000 cycles: 32778881 heartbeat IPC: 1.85915 cumulative IPC: 1.83045 (Simulation time: 0 hr 1 min 30 sec) 
Heartbeat CPU 0 instructions: 70000001 cycles: 38335140 heartbeat IPC: 1.79977 cumulative IPC: 1.826 (Simulation time: 0 hr 1 min 45 sec) 
Heartbeat CPU 0 instructions: 80000000 cycles: 43795285 heartbeat IPC: 1.83145 cumulative IPC: 1.82668 (Simulation time: 0 hr 1 min 59 sec) 
Heartbeat CPU 0 instructions: 90000000 cycles: 49241889 heartbeat IPC: 1.83601 cumulative IPC: 1.82771 (Simulation time: 0 hr 2 min 15 sec) 
Heartbeat CPU 0 instructions: 100000000 cycles: 54786904 heartbeat IPC: 1.80342 cumulative IPC: 1.82525 (Simulation time: 0 hr 2 min 29 sec) 

Warmup complete CPU 0 instructions: 100000002 cycles: 54786905 (Simulation time: 0 hr 2 min 29 sec) 

Heartbeat CPU 0 instructions: 110000001 cycles: 69145433 heartbeat IPC: 0.69645 cumulative IPC: 0.69645 (Simulation time: 0 hr 2 min 50 sec) 
Heartbeat CPU 0 instructions: 120000000 cycles: 84103540 heartbeat IPC: 0.668534 cumulative IPC: 0.682206 (Simulation time: 0 hr 3 min 12 sec) 
Heartbeat CPU 0 instructions: 130000000 cycles: 98571216 heartbeat IPC: 0.691196 cumulative IPC: 0.685177 (Simulation time: 0 hr 3 min 34 sec) 
Heartbeat CPU 0 instructions: 140000000 cycles: 112894245 heartbeat IPC: 0.698176 cumulative IPC: 0.688381 (Simulation time: 0 hr 3 min 55 sec) 
Heartbeat CPU 0 instructions: 150000000 cycles: 127558482 heartbeat IPC: 0.681931 cumulative IPC: 0.687081 (Simulation time: 0 hr 4 min 16 sec) 
Heartbeat CPU 0 instructions: 160000000 cycles: 142611951 heartbeat IPC: 0.664299 cumulative IPC: 0.683176 (Simulation time: 0 hr 4 min 38 sec) 
Heartbeat CPU 0 instructions: 170000001 cycles: 157439732 heartbeat IPC: 0.67441 cumulative IPC: 0.68191 (Simulation time: 0 hr 4 min 59 sec) 
Heartbeat CPU 0 instructions: 180000000 cycles: 172312143 heartbeat IPC: 0.672386 cumulative IPC: 0.680705 (Simulation time: 0 hr 5 min 20 sec) 
Heartbeat CPU 0 instructions: 190000002 cycles: 186749622 heartbeat IPC: 0.692642 cumulative IPC: 0.682011 (Simulation time: 0 hr 5 min 41 sec) 
Heartbeat CPU 0 instructions: 200000000 cycles: 201090232 heartbeat IPC: 0.69732 cumulative IPC: 0.683511 (Simulation time: 0 hr 6 min 3 sec) 
Heartbeat CPU 0 instructions: 210000003 cycles: 215677782 heartbeat IPC: 0.685516 cumulative IPC: 0.683693 (Simulation time: 0 hr 6 min 24 sec) 
Heartbeat CPU 0 instructions: 220000000 cycles: 230330791 heartbeat IPC: 0.682453 cumulative IPC: 0.68359 (Simulation time: 0 hr 6 min 46 sec) 
Heartbeat CPU 0 instructions: 230000001 cycles: 245388667 heartbeat IPC: 0.664104 cumulative IPC: 0.68205 (Simulation time: 0 hr 7 min 8 sec) 
Heartbeat CPU 0 instructions: 240000000 cycles: 260266725 heartbeat IPC: 0.672131 cumulative IPC: 0.681332 (Simulation time: 0 hr 7 min 29 sec) 
Heartbeat CPU 0 instructions: 250000003 cycles: 275046948 heartbeat IPC: 0.67658 cumulative IPC: 0.681013 (Simulation time: 0 hr 7 min 50 sec) 
Heartbeat CPU 0 instructions: 260000000 cycles: 290483667 heartbeat IPC: 0.647806 cumulative IPC: 0.678838 (Simulation time: 0 hr 8 min 12 sec) 
Heartbeat CPU 0 instructions: 270000003 cycles: 305058681 heartbeat IPC: 0.686106 cumulative IPC: 0.679262 (Simulation time: 0 hr 8 min 33 sec) 
Heartbeat CPU 0 instructions: 280000000 cycles: 319485812 heartbeat IPC: 0.693138 cumulative IPC: 0.680018 (Simulation time: 0 hr 8 min 54 sec) 
Heartbeat CPU 0 instructions: 290000002 cycles: 333893067 heartbeat IPC: 0.694095 cumulative IPC: 0.680745 (Simulation time: 0 hr 9 min 16 sec) 
Heartbeat CPU 0 instructions: 300000000 cycles: 349245405 heartbeat IPC: 0.651366 cumulative IPC: 0.679213 (Simulation time: 0 hr 9 min 38 sec) 
Heartbeat CPU 0 instructions: 310000000 cycles: 364173116 heartbeat IPC: 0.669895 cumulative IPC: 0.678763 (Simulation time: 0 hr 9 min 59 sec) 
Heartbeat CPU 0 instructions: 320000000 cycles: 378942088 heartbeat IPC: 0.677095 cumulative IPC: 0.678687 (Simulation time: 0 hr 10 min 20 sec) 
Heartbeat CPU 0 instructions: 330000000 cycles: 394645256 heartbeat IPC: 0.636814 cumulative IPC: 0.676753 (Simulation time: 0 hr 10 min 42 sec) 
Heartbeat CPU 0 instructions: 340000000 cycles: 409249420 heartbeat IPC: 0.684736 cumulative IPC: 0.677081 (Simulation time: 0 hr 11 min 3 sec) 
Heartbeat CPU 0 instructions: 350000000 cycles: 423823834 heartbeat IPC: 0.686134 cumulative IPC: 0.677439 (Simulation time: 0 hr 11 min 24 sec) 
Heartbeat CPU 0 instructions: 360000000 cycles: 438442431 heartbeat IPC: 0.68406 cumulative IPC: 0.677691 (Simulation time: 0 hr 11 min 45 sec) 
Heartbeat CPU 0 instructions: 370000002 cycles: 453814523 heartbeat IPC: 0.65053 cumulative IPC: 0.676645 (Simulation time: 0 hr 12 min 7 sec) 
Heartbeat CPU 0 instructions: 380000000 cycles: 468613206 heartbeat IPC: 0.675736 cumulative IPC: 0.676612 (Simulation time: 0 hr 12 min 29 sec) 
Heartbeat CPU 0 instructions: 390000003 cycles: 483516051 heartbeat IPC: 0.671013 cumulative IPC: 0.676418 (Simulation time: 0 hr 12 min 50 sec) 
Heartbeat CPU 0 instructions: 400000000 cycles: 499296910 heartbeat IPC: 0.633679 cumulative IPC: 0.6749 (Simulation time: 0 hr 13 min 11 sec) 
Heartbeat CPU 0 instructions: 410000001 cycles: 514272745 heartbeat IPC: 0.667742 cumulative IPC: 0.674667 (Simulation time: 0 hr 13 min 33 sec) 
Heartbeat CPU 0 instructions: 420000000 cycles: 528980738 heartbeat IPC: 0.679902 cumulative IPC: 0.67483 (Simulation time: 0 hr 13 min 54 sec) 
Heartbeat CPU 0 instructions: 430000000 cycles: 544341607 heartbeat IPC: 0.651005 cumulative IPC: 0.674082 (Simulation time: 0 hr 14 min 16 sec) 
Heartbeat CPU 0 instructions: 440000000 cycles: 559120779 heartbeat IPC: 0.676628 cumulative IPC: 0.674157 (Simulation time: 0 hr 14 min 37 sec) 
Heartbeat CPU 0 instructions: 450000000 cycles: 574039013 heartbeat IPC: 0.670321 cumulative IPC: 0.674046 (Simulation time: 0 hr 14 min 58 sec) 
Heartbeat CPU 0 instructions: 460000000 cycles: 589734465 heartbeat IPC: 0.637127 cumulative IPC: 0.672963 (Simulation time: 0 hr 15 min 20 sec) 
Heartbeat CPU 0 instructions: 470000000 cycles: 604763169 heartbeat IPC: 0.665393 cumulative IPC: 0.672756 (Simulation time: 0 hr 15 min 41 sec) 
Heartbeat CPU 0 instructions: 480000000 cycles: 619610036 heartbeat IPC: 0.673543 cumulative IPC: 0.672777 (Simulation time: 0 hr 16 min 2 sec) 
Heartbeat CPU 0 instructions: 490000002 cycles: 634838171 heartbeat IPC: 0.656679 cumulative IPC: 0.672354 (Simulation time: 0 hr 16 min 24 sec) 
Heartbeat CPU 0 instructions: 500000000 cycles: 649676354 heartbeat IPC: 0.673937 cumulative IPC: 0.672394 (Simulation time: 0 hr 16 min 45 sec) 
Heartbeat CPU 0 instructions: 510000001 cycles: 664733979 heartbeat IPC: 0.664115 cumulative IPC: 0.672189 (Simulation time: 0 hr 17 min 6 sec) 
Heartbeat CPU 0 instructions: 520000000 cycles: 680144133 heartbeat IPC: 0.648923 cumulative IPC: 0.671616 (Simulation time: 0 hr 17 min 28 sec) 
Heartbeat CPU 0 instructions: 530000001 cycles: 695519314 heartbeat IPC: 0.650399 cumulative IPC: 0.671107 (Simulation time: 0 hr 17 min 49 sec) 
Heartbeat CPU 0 instructions: 540000000 cycles: 710067834 heartbeat IPC: 0.687355 cumulative IPC: 0.671468 (Simulation time: 0 hr 18 min 11 sec) 
Heartbeat CPU 0 instructions: 550000001 cycles: 725277518 heartbeat IPC: 0.657476 cumulative IPC: 0.67115 (Simulation time: 0 hr 18 min 32 sec) 
Heartbeat CPU 0 instructions: 560000000 cycles: 740047610 heartbeat IPC: 0.677044 cumulative IPC: 0.671277 (Simulation time: 0 hr 18 min 54 sec) 
Heartbeat CPU 0 instructions: 570000002 cycles: 755141901 heartbeat IPC: 0.662502 cumulative IPC: 0.671088 (Simulation time: 0 hr 19 min 15 sec) 
Heartbeat CPU 0 instructions: 580000000 cycles: 770110616 heartbeat IPC: 0.66806 cumulative IPC: 0.671025 (Simulation time: 0 hr 19 min 36 sec) 
Heartbeat CPU 0 instructions: 590000001 cycles: 785064848 heartbeat IPC: 0.668707 cumulative IPC: 0.670977 (Simulation time: 0 hr 19 min 58 sec) 
Heartbeat CPU 0 instructions: 600000000 cycles: 799683913 heartbeat IPC: 0.684038 cumulative IPC: 0.671234 (Simulation time: 0 hr 20 min 19 sec) 
Finished CPU 0 instructions: 500000000 cycles: 744897016 cumulative IPC: 0.671234 (Simulation time: 0 hr 20 min 19 sec) 

CPU 0 Branch Prediction Accuracy: 93.7783% MPKI: 10.0718
Number of Branches: 80940586 Number of Mispredictions: 5035908
Number of LOAD Instructions: 184238101
Number of LOAD Instructions (ROI): 184238101
Number of STORE Instructions: 33143298
Number of STORE Instructions (ROI): 33143298
Total Destination Memory Operands: 33324321
Total Destination Memory Operands (ROI): 33324321
Total Source Memory Operands: 184238101
Total Source Memory Operands (ROI): 184238101
Number of DEPENDED LOADS: 4461265
Number of DEPENDED LOADS (ROI): 4461265
Number of SQ_ADDED: 33324292
Number of SQ_ADDED (ROI): 33324292
Number of LQ_ADDED: 184865668
Number of LQ_ADDED (ROI): 184865668
Number of Instructions read from trace: 600000256

ChampSim completed all CPUs

Region of Interest Statistics

CPU 0 cumulative IPC: 0.671234 instructions: 500000000 cycles: 744897016
ITLB TOTAL     ACCESS:   77745145  HIT:   77745145  MISS:          0
ITLB LOAD      ACCESS:   77745145  HIT:   77745145  MISS:          0
ITLB RFO       ACCESS:          0  HIT:          0  MISS:          0
ITLB PREFETCH  ACCESS:          0  HIT:          0  MISS:          0
ITLB WRITEBACK ACCESS:          0  HIT:          0  MISS:          0
ITLB PREFETCH  REQUESTED:          0  ISSUED:          0  USEFUL:          0  USELESS:          0
ITLB TOTAL MSHR MERGED:          0
ITLB LOAD MSHR MERGED:          0
ITLB RFO MSHR MERGED:          0
ITLB PREFETCH MSHR MERGED:          0
ITLB WRITEBACK MSHR MERGED:          0
ITLB TOTAL ACCESSES:   77745145 HITS:   77745145 MISSES:          0
ITLB LOAD ACCESSES:   77745145 HITS:   77745145 MISSES:          0
ITLB RFO ACCESSES:          0 HITS:          0 MISSES:          0
ITLB PREFETCH ACCESSES:          0 HITS:          0 MISSES:          0
ITLB WRITEBACK ACCESSES:          0 HITS:          0 MISSES:          0
ITLB RQ ACCESS:  500000245
ITLB RQ TO_CACHE:   77745145
ITLB RQ MERGED:  422255100
ITLB RQ FORWARD:          0
ITLB WQ ACCESS:          0
ITLB WQ TO_CACHE:          0
ITLB WQ MERGED:          0
ITLB WQ FORWARD:          0
DTLB TOTAL     ACCESS:   88436455  HIT:   87299605  MISS:    1136850
DTLB LOAD      ACCESS:   66309845  HIT:   65177235  MISS:    1132610
DTLB RFO       ACCESS:   22126610  HIT:   22122370  MISS:       4240
DTLB PREFETCH  ACCESS:          0  HIT:          0  MISS:          0
DTLB WRITEBACK ACCESS:          0  HIT:          0  MISS:          0
DTLB PREFETCH  REQUESTED:          0  ISSUED:          0  USEFUL:          0  USELESS:          0
DTLB TOTAL MSHR MERGED:     135522
DTLB LOAD MSHR MERGED:     133705
DTLB RFO MSHR MERGED:       1817
DTLB PREFETCH MSHR MERGED:          0
DTLB WRITEBACK MSHR MERGED:          0
DTLB TOTAL ACCESSES:   88571977 HITS:   87299605 MISSES:    1272372
DTLB LOAD ACCESSES:   66443550 HITS:   65177235 MISSES:    1266315
DTLB RFO ACCESSES:   22128427 HITS:   22122370 MISSES:       6057
DTLB PREFETCH ACCESSES:          0 HITS:          0 MISSES:          0
DTLB WRITEBACK ACCESSES:          0 HITS:          0 MISSES:          0
DTLB RQ ACCESS:  177579445
DTLB RQ TO_CACHE:   88571977
DTLB RQ MERGED:   89007468
DTLB RQ FORWARD:          0
DTLB WQ ACCESS:          0
DTLB WQ TO_CACHE:          0
DTLB WQ MERGED:          0
DTLB WQ FORWARD:          0
L1D TOTAL     ACCESS:  142099061  HIT:  136540005  MISS:    5559056
L1D LOAD      ACCESS:   61384087  HIT:   58280153  MISS:    3103934
L1D RFO       ACCESS:   27669049  HIT:   27587241  MISS:      81808
L1D PREFETCH  ACCESS:   53045925  HIT:   50672611  MISS:    2373314
L1D WRITEBACK ACCESS:          0  HIT:          0  MISS:          0
L1D PREFETCH  REQUESTED:   61669776  ISSUED:   60751617  USEFUL:     666427  USELESS:    1706892
L1D TOTAL MSHR MERGED:    1179690
L1D LOAD MSHR MERGED:     383983
L1D RFO MSHR MERGED:     164031
L1D PREFETCH MSHR MERGED:     631676
L1D WRITEBACK MSHR MERGED:          0
L1D TOTAL ACCESSES:  143376366 HITS:  136637620 MISSES:    6738746
L1D LOAD ACCESSES:   61669786 HITS:   58280163 MISSES:    3389623
L1D RFO ACCESSES:   27829288 HITS:   27587241 MISSES:     242047
L1D PREFETCH ACCESSES:   53877292 HITS:   50770216 MISSES:    3107076
L1D WRITEBACK ACCESSES:          0 HITS:          0 MISSES:          0
L1D RQ ACCESS:  149746479
L1D RQ TO_CACHE:   61669776
L1D RQ MERGED:   88076693
L1D RQ FORWARD:          0
L1D WQ ACCESS:   27832966
L1D WQ TO_CACHE:   27829288
L1D WQ MERGED:       3678
L1D WQ FORWARD:      97615
L1I TOTAL     ACCESS:   96222425  HIT:   96063157  MISS:     159268
L1I LOAD      ACCESS:   96222425  HIT:   96063157  MISS:     159268
L1I RFO       ACCESS:          0  HIT:          0  MISS:          0
L1I PREFETCH  ACCESS:          0  HIT:          0  MISS:          0
L1I WRITEBACK ACCESS:          0  HIT:          0  MISS:          0
L1I PREFETCH  REQUESTED:          0  ISSUED:          0  USEFUL:          0  USELESS:          0
L1I TOTAL MSHR MERGED:     130260
L1I LOAD MSHR MERGED:     130260
L1I RFO MSHR MERGED:          0
L1I PREFETCH MSHR MERGED:          0
L1I WRITEBACK MSHR MERGED:          0
L1I TOTAL ACCESSES:   96352685 HITS:   96063157 MISSES:     289528
L1I LOAD ACCESSES:   96352685 HITS:   96063157 MISSES:     289528
L1I RFO ACCESSES:          0 HITS:          0 MISSES:          0
L1I PREFETCH ACCESSES:          0 HITS:          0 MISSES:          0
L1I WRITEBACK ACCESSES:          0 HITS:          0 MISSES:          0
L1I RQ ACCESS:  500000245
L1I RQ TO_CACHE:   96352685
L1I RQ MERGED:  403647560
L1I RQ FORWARD:          0
L1I WQ ACCESS:          0
L1I WQ TO_CACHE:          0
L1I WQ MERGED:          0
L1I WQ FORWARD:          0
L2C TOTAL     ACCESS:    5911342  HIT:    3062664  MISS:    2848678
L2C LOAD      ACCESS:    3164898  HIT:    1583132  MISS:    1581766
L2C RFO       ACCESS:      77943  HIT:      45089  MISS:      32854
L2C PREFETCH  ACCESS:    2524972  HIT:    1296497  MISS:    1228475
L2C WRITEBACK ACCESS:     143529  HIT:     137946  MISS:       5583
L2C PREFETCH  REQUESTED:      52724  ISSUED:      52724  USEFUL:      18788  USELESS:    1209727
L2C TOTAL MSHR MERGED:       2221
L2C LOAD MSHR MERGED:        821
L2C RFO MSHR MERGED:          0
L2C PREFETCH MSHR MERGED:       1400
L2C WRITEBACK MSHR MERGED:          0
L2C TOTAL ACCESSES:    5913651 HITS:    3062747 MISSES:    2850904
L2C LOAD ACCESSES:    3164908 HITS:    1583142 MISSES:    1581766
L2C RFO ACCESSES:      78016 HITS:      45162 MISSES:      32854
L2C PREFETCH ACCESSES:    2527198 HITS:    1296497 MISSES:    1230701
L2C WRITEBACK ACCESSES:     143529 HITS:     137946 MISSES:       5583
L2C RQ ACCESS:    3242924
L2C RQ TO_CACHE:    3242841
L2C RQ MERGED:          0
L2C RQ FORWARD:          0
L2C WQ ACCESS:     143529
L2C WQ TO_CACHE:     143529
L2C WQ MERGED:          0
L2C WQ FORWARD:         83
LLC TOTAL     ACCESS:    2892635  HIT:    1889378  MISS:    1003257
LLC LOAD      ACCESS:    1580945  HIT:    1150430  MISS:     430515
LLC RFO       ACCESS:      32844  HIT:      32655  MISS:        189
LLC PREFETCH  ACCESS:    1229301  HIT:     657060  MISS:     572241
LLC WRITEBACK ACCESS:      49545  HIT:      49233  MISS:        312
LLC PREFETCH  REQUESTED:          0  ISSUED:          0  USEFUL:       3121  USELESS:     569043
LLC TOTAL MSHR MERGED:          0
LLC LOAD MSHR MERGED:          0
LLC RFO MSHR MERGED:          0
LLC PREFETCH MSHR MERGED:          0
LLC WRITEBACK MSHR MERGED:          0
LLC TOTAL ACCESSES:    2892645 HITS:    1889388 MISSES:    1003257
LLC LOAD ACCESSES:    1580945 HITS:    1150430 MISSES:     430515
LLC RFO ACCESSES:      32854 HITS:      32665 MISSES:        189
LLC PREFETCH ACCESSES:    1229301 HITS:     657060 MISSES:     572241
LLC WRITEBACK ACCESSES:      49545 HITS:      49233 MISSES:        312
LLC 0 RQ ACCESS:    1613799
LLC 0 RQ TO_CACHE:    1613789
LLC 0 RQ MERGED:          0
LLC 0 RQ FORWARD:          0
LLC WQ ACCESS:      49545
LLC WQ TO_CACHE:      49545
LLC WQ MERGED:          0
LLC WQ FORWARD:         10
Major fault: 0 Minor fault: 8460
CPU 0 L1D next line prefetcher final stats
CPU 0 L2C PC-based stride prefetcher final stats
All Misses: 1226143
All Hits: 2203087
SD Algo Stats - Switches: 0 SRR-Repls: 500516 BRR-Repls: 0

DRAM Statistics
 CHANNEL 0
 RQ ROW_BUFFER_HIT:     337049  ROW_BUFFER_MISS:     665857
 DBUS_CONGESTED:     316135
 WQ ROW_BUFFER_HIT:         53  ROW_BUFFER_MISS:        552  FULL:          0

 AVG_CONGESTED_CYCLE: 12
LOADS RETIRED: 153532848
INSTR RETIRED: 500000000
