
*** ChampSim Multicore Out-of-Order Simulator ***

Warmup Instructions: 100000000
Simulation Instructions: 500000000
Number of CPUs: 1
LLC sets: 2048
LLC ways: 16
Clean RRIP Policies: 2213230122132301 Dirty RRIP Policies: 2203130122031301 PSEL Width: 10 Track Set: 4294967295 PSEL Mask: 1 Demote Mask: 3044100030441000DS Algo: 0Window size: 0
Off-chip DRAM Size: 4096 MB Channels: 1 Width: 64-bit Data Rate: 1600 MT/s

CPU 0 runs /mnt/beegfs/iconst01/spec2017/Fotonik3d.trace.gz
NOT SORTED
TRACE STRING: /mnt/beegfs/iconst01/spec2017/Fotonik3d.trace.gz
SORTED
TRACE STRING: /mnt/beegfs/iconst01/spec2017/Fotonik3d.trace.gz
INITIAL
TRACE STRING: /mnt/beegfs/iconst01/spec2017/Fotonik3d.trace.gz

champsim_seed used: 881

CPU 0 L1D next line prefetcher
CPU 0 L2C IP-based stride prefetcher
Initialize DRRIP state
Assign rand_sets[0]: 454  LLC: 2048
rand_sets[0]: 454
Assign rand_sets[1]: 1662  LLC: 2048
rand_sets[1]: 1662
Assign rand_sets[2]: 1921  LLC: 2048
rand_sets[2]: 1921
Assign rand_sets[3]: 1131  LLC: 2048
rand_sets[3]: 1131
Assign rand_sets[4]: 331  LLC: 2048
rand_sets[4]: 331
Assign rand_sets[5]: 1531  LLC: 2048
rand_sets[5]: 1531
Assign rand_sets[6]: 482  LLC: 2048
rand_sets[6]: 482
Assign rand_sets[7]: 1275  LLC: 2048
rand_sets[7]: 1275
Assign rand_sets[8]: 1876  LLC: 2048
rand_sets[8]: 1876
Assign rand_sets[9]: 2038  LLC: 2048
rand_sets[9]: 2038
Assign rand_sets[10]: 701  LLC: 2048
rand_sets[10]: 701
Assign rand_sets[11]: 479  LLC: 2048
rand_sets[11]: 479
Assign rand_sets[12]: 892  LLC: 2048
rand_sets[12]: 892
Assign rand_sets[13]: 1820  LLC: 2048
rand_sets[13]: 1820
Assign rand_sets[14]: 1505  LLC: 2048
rand_sets[14]: 1505
Assign rand_sets[15]: 1159  LLC: 2048
rand_sets[15]: 1159
Assign rand_sets[16]: 513  LLC: 2048
rand_sets[16]: 513
Assign rand_sets[17]: 703  LLC: 2048
rand_sets[17]: 703
Assign rand_sets[18]: 561  LLC: 2048
rand_sets[18]: 561
Assign rand_sets[19]: 990  LLC: 2048
rand_sets[19]: 990
Assign rand_sets[20]: 342  LLC: 2048
rand_sets[20]: 342
Assign rand_sets[21]: 882  LLC: 2048
rand_sets[21]: 882
Assign rand_sets[22]: 15  LLC: 2048
rand_sets[22]: 15
Assign rand_sets[23]: 71  LLC: 2048
rand_sets[23]: 71
Assign rand_sets[24]: 1127  LLC: 2048
rand_sets[24]: 1127
Assign rand_sets[25]: 1382  LLC: 2048
rand_sets[25]: 1382
Assign rand_sets[26]: 647  LLC: 2048
rand_sets[26]: 647
Assign rand_sets[27]: 857  LLC: 2048
rand_sets[27]: 857
Assign rand_sets[28]: 1450  LLC: 2048
rand_sets[28]: 1450
Assign rand_sets[29]: 1160  LLC: 2048
rand_sets[29]: 1160
Assign rand_sets[30]: 1852  LLC: 2048
rand_sets[30]: 1852
Assign rand_sets[31]: 1881  LLC: 2048
rand_sets[31]: 1881
Assign rand_sets[32]: 1770  LLC: 2048
rand_sets[32]: 1770
Assign rand_sets[33]: 1622  LLC: 2048
rand_sets[33]: 1622
Assign rand_sets[34]: 275  LLC: 2048
rand_sets[34]: 275
Assign rand_sets[35]: 635  LLC: 2048
rand_sets[35]: 635
Assign rand_sets[36]: 466  LLC: 2048
rand_sets[36]: 466
Assign rand_sets[37]: 1413  LLC: 2048
rand_sets[37]: 1413
Assign rand_sets[38]: 417  LLC: 2048
rand_sets[38]: 417
Assign rand_sets[39]: 472  LLC: 2048
rand_sets[39]: 472
Assign rand_sets[40]: 1340  LLC: 2048
rand_sets[40]: 1340
Assign rand_sets[41]: 852  LLC: 2048
rand_sets[41]: 852
Assign rand_sets[42]: 1365  LLC: 2048
rand_sets[42]: 1365
Assign rand_sets[43]: 47  LLC: 2048
rand_sets[43]: 47
Assign rand_sets[44]: 823  LLC: 2048
rand_sets[44]: 823
Assign rand_sets[45]: 686  LLC: 2048
rand_sets[45]: 686
Assign rand_sets[46]: 1637  LLC: 2048
rand_sets[46]: 1637
Assign rand_sets[47]: 1115  LLC: 2048
rand_sets[47]: 1115
Assign rand_sets[48]: 986  LLC: 2048
rand_sets[48]: 986
Assign rand_sets[49]: 258  LLC: 2048
rand_sets[49]: 258
Assign rand_sets[50]: 633  LLC: 2048
rand_sets[50]: 633
Assign rand_sets[51]: 920  LLC: 2048
rand_sets[51]: 920
Assign rand_sets[52]: 204  LLC: 2048
rand_sets[52]: 204
Assign rand_sets[53]: 227  LLC: 2048
rand_sets[53]: 227
Assign rand_sets[54]: 1818  LLC: 2048
rand_sets[54]: 1818
Assign rand_sets[55]: 886  LLC: 2048
rand_sets[55]: 886
Assign rand_sets[56]: 1422  LLC: 2048
rand_sets[56]: 1422
Assign rand_sets[57]: 607  LLC: 2048
rand_sets[57]: 607
Assign rand_sets[58]: 217  LLC: 2048
rand_sets[58]: 217
Assign rand_sets[59]: 1945  LLC: 2048
rand_sets[59]: 1945
Assign rand_sets[60]: 143  LLC: 2048
rand_sets[60]: 143
Assign rand_sets[61]: 1311  LLC: 2048
rand_sets[61]: 1311
Assign rand_sets[62]: 319  LLC: 2048
rand_sets[62]: 319
Assign rand_sets[63]: 1846  LLC: 2048
rand_sets[63]: 1846
 CLEAN-RRIP-POLICY-1: 2-2-1-3-2-3-0-1- CLEAN-RRIP-POLICY-2: 2-2-1-3-2-3-0-1-
 DIRTY-RRIP-POLICY-1: 2-2-0-3-1-3-0-1- DIRTY-RRIP-POLICY-2: 2-2-0-3-1-3-0-1-
 PSEL width: 10
Heartbeat CPU 0 instructions: 10000002 cycles: 7306716 heartbeat IPC: 1.3686 cumulative IPC: 1.3686 (Simulation time: 0 hr 0 min 24 sec) 
Heartbeat CPU 0 instructions: 20000000 cycles: 14613526 heartbeat IPC: 1.36859 cumulative IPC: 1.3686 (Simulation time: 0 hr 0 min 48 sec) 
Heartbeat CPU 0 instructions: 30000001 cycles: 21920193 heartbeat IPC: 1.36861 cumulative IPC: 1.3686 (Simulation time: 0 hr 1 min 12 sec) 
Heartbeat CPU 0 instructions: 40000000 cycles: 29226746 heartbeat IPC: 1.36863 cumulative IPC: 1.36861 (Simulation time: 0 hr 1 min 36 sec) 
Heartbeat CPU 0 instructions: 50000001 cycles: 36533294 heartbeat IPC: 1.36864 cumulative IPC: 1.36861 (Simulation time: 0 hr 2 min 0 sec) 
Heartbeat CPU 0 instructions: 60000000 cycles: 43840086 heartbeat IPC: 1.36859 cumulative IPC: 1.36861 (Simulation time: 0 hr 2 min 25 sec) 
Heartbeat CPU 0 instructions: 70000002 cycles: 51146683 heartbeat IPC: 1.36863 cumulative IPC: 1.36861 (Simulation time: 0 hr 2 min 49 sec) 
Heartbeat CPU 0 instructions: 80000000 cycles: 58453277 heartbeat IPC: 1.36863 cumulative IPC: 1.36861 (Simulation time: 0 hr 3 min 13 sec) 
Heartbeat CPU 0 instructions: 90000003 cycles: 65763654 heartbeat IPC: 1.36792 cumulative IPC: 1.36854 (Simulation time: 0 hr 3 min 38 sec) 
Heartbeat CPU 0 instructions: 100000000 cycles: 73074078 heartbeat IPC: 1.36791 cumulative IPC: 1.36847 (Simulation time: 0 hr 4 min 2 sec) 

Warmup complete CPU 0 instructions: 100000002 cycles: 73074090 (Simulation time: 0 hr 4 min 2 sec) 

Heartbeat CPU 0 instructions: 110000001 cycles: 85482475 heartbeat IPC: 0.805906 cumulative IPC: 0.805907 (Simulation time: 0 hr 4 min 31 sec) 
Heartbeat CPU 0 instructions: 120000000 cycles: 97819733 heartbeat IPC: 0.810553 cumulative IPC: 0.808223 (Simulation time: 0 hr 5 min 0 sec) 
Heartbeat CPU 0 instructions: 130000000 cycles: 110196928 heartbeat IPC: 0.807938 cumulative IPC: 0.808128 (Simulation time: 0 hr 5 min 29 sec) 
Heartbeat CPU 0 instructions: 140000000 cycles: 122563353 heartbeat IPC: 0.808641 cumulative IPC: 0.808256 (Simulation time: 0 hr 5 min 58 sec) 
Heartbeat CPU 0 instructions: 150000000 cycles: 134891093 heartbeat IPC: 0.811179 cumulative IPC: 0.808839 (Simulation time: 0 hr 6 min 27 sec) 
Heartbeat CPU 0 instructions: 160000000 cycles: 147246797 heartbeat IPC: 0.809343 cumulative IPC: 0.808923 (Simulation time: 0 hr 6 min 56 sec) 
Heartbeat CPU 0 instructions: 170000001 cycles: 159606012 heartbeat IPC: 0.809113 cumulative IPC: 0.80895 (Simulation time: 0 hr 7 min 25 sec) 
Heartbeat CPU 0 instructions: 180000000 cycles: 171966763 heartbeat IPC: 0.809012 cumulative IPC: 0.808958 (Simulation time: 0 hr 7 min 54 sec) 
Heartbeat CPU 0 instructions: 190000000 cycles: 184353251 heartbeat IPC: 0.807331 cumulative IPC: 0.808777 (Simulation time: 0 hr 8 min 23 sec) 
Heartbeat CPU 0 instructions: 200000000 cycles: 196698876 heartbeat IPC: 0.810004 cumulative IPC: 0.808899 (Simulation time: 0 hr 8 min 52 sec) 
Heartbeat CPU 0 instructions: 210000002 cycles: 209093276 heartbeat IPC: 0.806816 cumulative IPC: 0.808709 (Simulation time: 0 hr 9 min 21 sec) 
Heartbeat CPU 0 instructions: 220000000 cycles: 221492458 heartbeat IPC: 0.806505 cumulative IPC: 0.808525 (Simulation time: 0 hr 9 min 50 sec) 
Heartbeat CPU 0 instructions: 230000002 cycles: 233848894 heartbeat IPC: 0.809295 cumulative IPC: 0.808584 (Simulation time: 0 hr 10 min 19 sec) 
Heartbeat CPU 0 instructions: 240000000 cycles: 246951382 heartbeat IPC: 0.763214 cumulative IPC: 0.805166 (Simulation time: 0 hr 10 min 48 sec) 
Heartbeat CPU 0 instructions: 250000001 cycles: 264259205 heartbeat IPC: 0.577773 cumulative IPC: 0.78458 (Simulation time: 0 hr 11 min 20 sec) 
Heartbeat CPU 0 instructions: 260000000 cycles: 281466454 heartbeat IPC: 0.58115 cumulative IPC: 0.767782 (Simulation time: 0 hr 11 min 52 sec) 
Heartbeat CPU 0 instructions: 270000000 cycles: 298757078 heartbeat IPC: 0.578348 cumulative IPC: 0.753269 (Simulation time: 0 hr 12 min 23 sec) 
Heartbeat CPU 0 instructions: 280000000 cycles: 315985662 heartbeat IPC: 0.580431 cumulative IPC: 0.74101 (Simulation time: 0 hr 12 min 54 sec) 
Heartbeat CPU 0 instructions: 290000000 cycles: 344421587 heartbeat IPC: 0.351668 cumulative IPC: 0.700209 (Simulation time: 0 hr 13 min 33 sec) 
Heartbeat CPU 0 instructions: 300000000 cycles: 381424865 heartbeat IPC: 0.270246 cumulative IPC: 0.648612 (Simulation time: 0 hr 14 min 17 sec) 
Heartbeat CPU 0 instructions: 310000000 cycles: 398058227 heartbeat IPC: 0.601201 cumulative IPC: 0.646185 (Simulation time: 0 hr 14 min 48 sec) 
Heartbeat CPU 0 instructions: 320000000 cycles: 414658351 heartbeat IPC: 0.602405 cumulative IPC: 0.644058 (Simulation time: 0 hr 15 min 18 sec) 
Heartbeat CPU 0 instructions: 330000003 cycles: 431322356 heartbeat IPC: 0.600096 cumulative IPC: 0.642013 (Simulation time: 0 hr 15 min 48 sec) 
Heartbeat CPU 0 instructions: 340000000 cycles: 447917800 heartbeat IPC: 0.602575 cumulative IPC: 0.640267 (Simulation time: 0 hr 16 min 19 sec) 
Heartbeat CPU 0 instructions: 350000001 cycles: 462779708 heartbeat IPC: 0.672861 cumulative IPC: 0.64151 (Simulation time: 0 hr 16 min 47 sec) 
Heartbeat CPU 0 instructions: 360000000 cycles: 474640163 heartbeat IPC: 0.843138 cumulative IPC: 0.647465 (Simulation time: 0 hr 17 min 13 sec) 
Heartbeat CPU 0 instructions: 370000002 cycles: 486321108 heartbeat IPC: 0.856095 cumulative IPC: 0.653362 (Simulation time: 0 hr 17 min 39 sec) 
Heartbeat CPU 0 instructions: 380000000 cycles: 498169958 heartbeat IPC: 0.843964 cumulative IPC: 0.658675 (Simulation time: 0 hr 18 min 6 sec) 
Heartbeat CPU 0 instructions: 390000003 cycles: 511454113 heartbeat IPC: 0.752777 cumulative IPC: 0.661527 (Simulation time: 0 hr 18 min 33 sec) 
Heartbeat CPU 0 instructions: 400000000 cycles: 523696926 heartbeat IPC: 0.816805 cumulative IPC: 0.665745 (Simulation time: 0 hr 18 min 59 sec) 
Heartbeat CPU 0 instructions: 410000003 cycles: 535641152 heartbeat IPC: 0.837225 cumulative IPC: 0.670173 (Simulation time: 0 hr 19 min 26 sec) 
Heartbeat CPU 0 instructions: 420000000 cycles: 548453941 heartbeat IPC: 0.78047 cumulative IPC: 0.673146 (Simulation time: 0 hr 19 min 53 sec) 
Heartbeat CPU 0 instructions: 430000003 cycles: 566844189 heartbeat IPC: 0.543767 cumulative IPC: 0.668327 (Simulation time: 0 hr 20 min 17 sec) 
Heartbeat CPU 0 instructions: 440000000 cycles: 585310214 heartbeat IPC: 0.541535 cumulative IPC: 0.663756 (Simulation time: 0 hr 20 min 41 sec) 
Heartbeat CPU 0 instructions: 450000003 cycles: 603806701 heartbeat IPC: 0.540643 cumulative IPC: 0.659466 (Simulation time: 0 hr 21 min 5 sec) 
Heartbeat CPU 0 instructions: 460000000 cycles: 622271328 heartbeat IPC: 0.541576 cumulative IPC: 0.655502 (Simulation time: 0 hr 21 min 29 sec) 
Heartbeat CPU 0 instructions: 470000003 cycles: 640740161 heartbeat IPC: 0.541453 cumulative IPC: 0.651792 (Simulation time: 0 hr 21 min 53 sec) 
Heartbeat CPU 0 instructions: 480000000 cycles: 659212841 heartbeat IPC: 0.54134 cumulative IPC: 0.648311 (Simulation time: 0 hr 22 min 18 sec) 
Heartbeat CPU 0 instructions: 490000003 cycles: 677711434 heartbeat IPC: 0.540582 cumulative IPC: 0.645015 (Simulation time: 0 hr 22 min 42 sec) 
Heartbeat CPU 0 instructions: 500000000 cycles: 696157690 heartbeat IPC: 0.542115 cumulative IPC: 0.641968 (Simulation time: 0 hr 23 min 6 sec) 
Heartbeat CPU 0 instructions: 510000003 cycles: 714630622 heartbeat IPC: 0.541333 cumulative IPC: 0.639071 (Simulation time: 0 hr 23 min 30 sec) 
Heartbeat CPU 0 instructions: 520000000 cycles: 733083210 heartbeat IPC: 0.541929 cumulative IPC: 0.636355 (Simulation time: 0 hr 23 min 54 sec) 
Heartbeat CPU 0 instructions: 530000001 cycles: 751569675 heartbeat IPC: 0.540936 cumulative IPC: 0.633755 (Simulation time: 0 hr 24 min 18 sec) 
Heartbeat CPU 0 instructions: 540000000 cycles: 769976240 heartbeat IPC: 0.543284 cumulative IPC: 0.631366 (Simulation time: 0 hr 24 min 42 sec) 
Heartbeat CPU 0 instructions: 550000001 cycles: 788382708 heartbeat IPC: 0.543287 cumulative IPC: 0.629099 (Simulation time: 0 hr 25 min 7 sec) 
Heartbeat CPU 0 instructions: 560000000 cycles: 806810822 heartbeat IPC: 0.542649 cumulative IPC: 0.626928 (Simulation time: 0 hr 25 min 31 sec) 
Heartbeat CPU 0 instructions: 570000001 cycles: 825205163 heartbeat IPC: 0.543646 cumulative IPC: 0.624891 (Simulation time: 0 hr 25 min 55 sec) 
Heartbeat CPU 0 instructions: 580000000 cycles: 843564338 heartbeat IPC: 0.544687 cumulative IPC: 0.62298 (Simulation time: 0 hr 26 min 19 sec) 
Heartbeat CPU 0 instructions: 590000001 cycles: 861975719 heartbeat IPC: 0.543142 cumulative IPC: 0.621117 (Simulation time: 0 hr 26 min 43 sec) 
Heartbeat CPU 0 instructions: 600000000 cycles: 880399695 heartbeat IPC: 0.542771 cumulative IPC: 0.619329 (Simulation time: 0 hr 27 min 7 sec) 
Finished CPU 0 instructions: 500000002 cycles: 807325619 cumulative IPC: 0.619329 (Simulation time: 0 hr 27 min 7 sec) 

CPU 0 Branch Prediction Accuracy: 99.5931% MPKI: 0.08288
Number of Branches: 10184133 Number of Mispredictions: 41440
Number of LOAD Instructions: 261155957
Number of LOAD Instructions (ROI): 261155957
Number of STORE Instructions: 57884062
Number of STORE Instructions (ROI): 57884062
Total Destination Memory Operands: 83293336
Total Destination Memory Operands (ROI): 83293336
Total Source Memory Operands: 261155957
Total Source Memory Operands (ROI): 261155957
Number of DEPENDED LOADS: 22254727
Number of DEPENDED LOADS (ROI): 22254727
Number of SQ_ADDED: 83293300
Number of SQ_ADDED (ROI): 83293300
Number of LQ_ADDED: 1763155777
Number of LQ_ADDED (ROI): 1763155777
Number of Instructions read from trace: 600000257

ChampSim completed all CPUs

Region of Interest Statistics

CPU 0 cumulative IPC: 0.619329 instructions: 500000002 cycles: 807325619
ITLB TOTAL     ACCESS:   94645013  HIT:   94644975  MISS:         38
ITLB LOAD      ACCESS:   94645013  HIT:   94644975  MISS:         38
ITLB RFO       ACCESS:          0  HIT:          0  MISS:          0
ITLB PREFETCH  ACCESS:          0  HIT:          0  MISS:          0
ITLB WRITEBACK ACCESS:          0  HIT:          0  MISS:          0
ITLB PREFETCH  REQUESTED:          0  ISSUED:          0  USEFUL:          0  USELESS:          0
ITLB TOTAL MSHR MERGED:         93
ITLB LOAD MSHR MERGED:         93
ITLB RFO MSHR MERGED:          0
ITLB PREFETCH MSHR MERGED:          0
ITLB WRITEBACK MSHR MERGED:          0
ITLB TOTAL ACCESSES:   94645106 HITS:   94644975 MISSES:        131
ITLB LOAD ACCESSES:   94645106 HITS:   94644975 MISSES:        131
ITLB RFO ACCESSES:          0 HITS:          0 MISSES:          0
ITLB PREFETCH ACCESSES:          0 HITS:          0 MISSES:          0
ITLB WRITEBACK ACCESSES:          0 HITS:          0 MISSES:          0
ITLB RQ ACCESS:  500000001
ITLB RQ TO_CACHE:   94645107
ITLB RQ MERGED:  405354894
ITLB RQ FORWARD:          0
ITLB WQ ACCESS:          0
ITLB WQ TO_CACHE:          0
ITLB WQ MERGED:          0
ITLB WQ FORWARD:          0
DTLB TOTAL     ACCESS:  149178006  HIT:  148581045  MISS:     596961
DTLB LOAD      ACCESS:  107304637  HIT:  106707687  MISS:     596950
DTLB RFO       ACCESS:   41873369  HIT:   41873358  MISS:         11
DTLB PREFETCH  ACCESS:          0  HIT:          0  MISS:          0
DTLB WRITEBACK ACCESS:          0  HIT:          0  MISS:          0
DTLB PREFETCH  REQUESTED:          0  ISSUED:          0  USEFUL:          0  USELESS:          0
DTLB TOTAL MSHR MERGED:     134253
DTLB LOAD MSHR MERGED:     134253
DTLB RFO MSHR MERGED:          0
DTLB PREFETCH MSHR MERGED:          0
DTLB WRITEBACK MSHR MERGED:          0
DTLB TOTAL ACCESSES:  149312259 HITS:  148581045 MISSES:     731214
DTLB LOAD ACCESSES:  107438890 HITS:  106707687 MISSES:     731203
DTLB RFO ACCESSES:   41873369 HITS:   41873358 MISSES:         11
DTLB PREFETCH ACCESSES:          0 HITS:          0 MISSES:          0
DTLB WRITEBACK ACCESSES:          0 HITS:          0 MISSES:          0
DTLB RQ ACCESS:  259761167
DTLB RQ TO_CACHE:  149312259
DTLB RQ MERGED:  110448908
DTLB RQ FORWARD:          0
DTLB WQ ACCESS:          0
DTLB WQ TO_CACHE:          0
DTLB WQ MERGED:          0
DTLB WQ FORWARD:          0
L1D TOTAL     ACCESS:  261056047  HIT:  245657292  MISS:   15398755
L1D LOAD      ACCESS:  118072253  HIT:  112569396  MISS:    5502857
L1D RFO       ACCESS:   68946816  HIT:   68932409  MISS:      14407
L1D PREFETCH  ACCESS:   74036978  HIT:   64155487  MISS:    9881491
L1D WRITEBACK ACCESS:          0  HIT:          0  MISS:          0
L1D PREFETCH  REQUESTED:  120660478  ISSUED:  119089722  USEFUL:    8009766  USELESS:    1871747
L1D TOTAL MSHR MERGED:   16519951
L1D LOAD MSHR MERGED:    5001532
L1D RFO MSHR MERGED:      21754
L1D PREFETCH MSHR MERGED:   11496665
L1D WRITEBACK MSHR MERGED:          0
L1D TOTAL ACCESSES:  277686307 HITS:  245767601 MISSES:   31918706
L1D LOAD ACCESSES:  120668004 HITS:  112576922 MISSES:    8091082
L1D RFO ACCESSES:   68968570 HITS:   68932409 MISSES:      36161
L1D PREFETCH ACCESSES:   88049733 HITS:   64258270 MISSES:   23791463
L1D WRITEBACK ACCESSES:          0 HITS:          0 MISSES:          0
L1D RQ ACCESS:  190686851
L1D RQ TO_CACHE:  120660478
L1D RQ MERGED:   70018847
L1D RQ FORWARD:          0
L1D WQ ACCESS:   69074336
L1D WQ TO_CACHE:   68968572
L1D WQ MERGED:     105764
L1D WQ FORWARD:     110309
L1I TOTAL     ACCESS:  121559154  HIT:  121558081  MISS:       1073
L1I LOAD      ACCESS:  121559154  HIT:  121558081  MISS:       1073
L1I RFO       ACCESS:          0  HIT:          0  MISS:          0
L1I PREFETCH  ACCESS:          0  HIT:          0  MISS:          0
L1I WRITEBACK ACCESS:          0  HIT:          0  MISS:          0
L1I PREFETCH  REQUESTED:          0  ISSUED:          0  USEFUL:          0  USELESS:          0
L1I TOTAL MSHR MERGED:       1114
L1I LOAD MSHR MERGED:       1114
L1I RFO MSHR MERGED:          0
L1I PREFETCH MSHR MERGED:          0
L1I WRITEBACK MSHR MERGED:          0
L1I TOTAL ACCESSES:  121560268 HITS:  121558081 MISSES:       2187
L1I LOAD ACCESSES:  121560268 HITS:  121558081 MISSES:       2187
L1I RFO ACCESSES:          0 HITS:          0 MISSES:          0
L1I PREFETCH ACCESSES:          0 HITS:          0 MISSES:          0
L1I WRITEBACK ACCESSES:          0 HITS:          0 MISSES:          0
L1I RQ ACCESS:  500000000
L1I RQ TO_CACHE:  121560268
L1I RQ MERGED:  378439732
L1I RQ FORWARD:          0
L1I WQ ACCESS:          0
L1I WQ TO_CACHE:          0
L1I WQ MERGED:          0
L1I WQ FORWARD:          0
L2C TOTAL     ACCESS:   22471823  HIT:    9152009  MISS:   13319814
L2C LOAD      ACCESS:    3090588  HIT:     417299  MISS:    2673289
L2C RFO       ACCESS:      14407  HIT:      13991  MISS:        416
L2C PREFETCH  ACCESS:   12736881  HIT:    2092565  MISS:   10644316
L2C WRITEBACK ACCESS:    6629947  HIT:    6628154  MISS:       1793
L2C PREFETCH  REQUESTED:     694741  ISSUED:     694741  USEFUL:     186843  USELESS:   10458272
L2C TOTAL MSHR MERGED:      71775
L2C LOAD MSHR MERGED:      22522
L2C RFO MSHR MERGED:          0
L2C PREFETCH MSHR MERGED:      49253
L2C WRITEBACK MSHR MERGED:          0
L2C TOTAL ACCESSES:   22684402 HITS:    9152061 MISSES:   13532341
L2C LOAD ACCESSES:    3090623 HITS:     417334 MISSES:    2673289
L2C RFO ACCESSES:      14407 HITS:      13991 MISSES:        416
L2C PREFETCH ACCESSES:   12949425 HITS:    2092582 MISSES:   10856843
L2C WRITEBACK ACCESSES:    6629947 HITS:    6628154 MISSES:       1793
L2C RQ ACCESS:    3105030
L2C RQ TO_CACHE:    3104995
L2C RQ MERGED:          0
L2C RQ FORWARD:          0
L2C WQ ACCESS:    6629947
L2C WQ TO_CACHE:    6629947
L2C WQ MERGED:          0
L2C WQ FORWARD:         52
LLC TOTAL     ACCESS:   20027359  HIT:    1935880  MISS:   18091479
LLC LOAD      ACCESS:    2650766  HIT:     441440  MISS:    2209326
LLC RFO       ACCESS:        416  HIT:         22  MISS:        394
LLC PREFETCH  ACCESS:   10784940  HIT:     115427  MISS:   10669513
LLC WRITEBACK ACCESS:    6591237  HIT:    1378991  MISS:    5212246
LLC PREFETCH  REQUESTED:          0  ISSUED:          0  USEFUL:      45451  USELESS:   10625210
LLC TOTAL MSHR MERGED:      21244
LLC LOAD MSHR MERGED:       9812
LLC RFO MSHR MERGED:          0
LLC PREFETCH MSHR MERGED:      11432
LLC WRITEBACK MSHR MERGED:          0
LLC TOTAL ACCESSES:   20048606 HITS:    1935882 MISSES:   18112724
LLC LOAD ACCESSES:    2650767 HITS:     441441 MISSES:    2209326
LLC RFO ACCESSES:        416 HITS:         22 MISSES:        394
LLC PREFETCH ACCESSES:   10806186 HITS:     115428 MISSES:   10690758
LLC WRITEBACK ACCESSES:    6591237 HITS:    1378991 MISSES:    5212246
LLC 0 RQ ACCESS:    2651183
LLC 0 RQ TO_CACHE:    2651182
LLC 0 RQ MERGED:          0
LLC 0 RQ FORWARD:          0
LLC WQ ACCESS:    6591238
LLC WQ TO_CACHE:    6591238
LLC WQ MERGED:          0
LLC WQ FORWARD:          2
Major fault: 0 Minor fault: 183991
CPU 0 L1D next line prefetcher final stats
CPU 0 L2C PC-based stride prefetcher final stats
All Misses: 20949993
All Hits: 2008412
SD Algo Stats - Switches: 0 SRR-Repls: 2257427 BRR-Repls: 0

DRAM Statistics
 CHANNEL 0
 RQ ROW_BUFFER_HIT:    7163612  ROW_BUFFER_MISS:    5715621
 DBUS_CONGESTED:   11484251
 WQ ROW_BUFFER_HIT:    1369967  ROW_BUFFER_MISS:    5214121  FULL:          0

 AVG_CONGESTED_CYCLE: 13
LOADS RETIRED: 204440772
INSTR RETIRED: 500000000
