
*** ChampSim Multicore Out-of-Order Simulator ***

Warmup Instructions: 100000000
Simulation Instructions: 150000000
Number of CPUs: 1
LLC sets: 2048
LLC ways: 16
Clean RRIP Policies: 3333323233333232 Dirty RRIP Policies: 3333323233333232 PSEL Width: 10 Track Set: 4294967295 PSEL Mask: 1 Demote Mask: 4044404440444044DS Algo: 0Window size: 0
Off-chip DRAM Size: 4096 MB Channels: 1 Width: 64-bit Data Rate: 1600 MT/s

CPU 0 runs /mnt/beegfs/pchatz06/selected_traces/502.gcc_r.train.input1.region_2.w_0.0483_0.0522.trace.gz
NOT SORTED
TRACE STRING: /mnt/beegfs/pchatz06/selected_traces/502.gcc_r.train.input1.region_2.w_0.0483_0.0522.trace.gz
SORTED
TRACE STRING: /mnt/beegfs/pchatz06/selected_traces/502.gcc_r.train.input1.region_2.w_0.0483_0.0522.trace.gz
INITIAL
TRACE STRING: /mnt/beegfs/pchatz06/selected_traces/502.gcc_r.train.input1.region_2.w_0.0483_0.0522.trace.gz

champsim_seed used: 201

CPU 0 L1D next line prefetcher
CPU 0 L2C IP-based stride prefetcher
Initialize DRRIP state
Assign rand_sets[0]: 454  LLC: 2048
rand_sets[0]: 454
Assign rand_sets[1]: 1662  LLC: 2048
rand_sets[1]: 1662
Assign rand_sets[2]: 1921  LLC: 2048
rand_sets[2]: 1921
Assign rand_sets[3]: 1131  LLC: 2048
rand_sets[3]: 1131
Assign rand_sets[4]: 331  LLC: 2048
rand_sets[4]: 331
Assign rand_sets[5]: 1531  LLC: 2048
rand_sets[5]: 1531
Assign rand_sets[6]: 482  LLC: 2048
rand_sets[6]: 482
Assign rand_sets[7]: 1275  LLC: 2048
rand_sets[7]: 1275
Assign rand_sets[8]: 1876  LLC: 2048
rand_sets[8]: 1876
Assign rand_sets[9]: 2038  LLC: 2048
rand_sets[9]: 2038
Assign rand_sets[10]: 701  LLC: 2048
rand_sets[10]: 701
Assign rand_sets[11]: 479  LLC: 2048
rand_sets[11]: 479
Assign rand_sets[12]: 892  LLC: 2048
rand_sets[12]: 892
Assign rand_sets[13]: 1820  LLC: 2048
rand_sets[13]: 1820
Assign rand_sets[14]: 1505  LLC: 2048
rand_sets[14]: 1505
Assign rand_sets[15]: 1159  LLC: 2048
rand_sets[15]: 1159
Assign rand_sets[16]: 513  LLC: 2048
rand_sets[16]: 513
Assign rand_sets[17]: 703  LLC: 2048
rand_sets[17]: 703
Assign rand_sets[18]: 561  LLC: 2048
rand_sets[18]: 561
Assign rand_sets[19]: 990  LLC: 2048
rand_sets[19]: 990
Assign rand_sets[20]: 342  LLC: 2048
rand_sets[20]: 342
Assign rand_sets[21]: 882  LLC: 2048
rand_sets[21]: 882
Assign rand_sets[22]: 15  LLC: 2048
rand_sets[22]: 15
Assign rand_sets[23]: 71  LLC: 2048
rand_sets[23]: 71
Assign rand_sets[24]: 1127  LLC: 2048
rand_sets[24]: 1127
Assign rand_sets[25]: 1382  LLC: 2048
rand_sets[25]: 1382
Assign rand_sets[26]: 647  LLC: 2048
rand_sets[26]: 647
Assign rand_sets[27]: 857  LLC: 2048
rand_sets[27]: 857
Assign rand_sets[28]: 1450  LLC: 2048
rand_sets[28]: 1450
Assign rand_sets[29]: 1160  LLC: 2048
rand_sets[29]: 1160
Assign rand_sets[30]: 1852  LLC: 2048
rand_sets[30]: 1852
Assign rand_sets[31]: 1881  LLC: 2048
rand_sets[31]: 1881
Assign rand_sets[32]: 1770  LLC: 2048
rand_sets[32]: 1770
Assign rand_sets[33]: 1622  LLC: 2048
rand_sets[33]: 1622
Assign rand_sets[34]: 275  LLC: 2048
rand_sets[34]: 275
Assign rand_sets[35]: 635  LLC: 2048
rand_sets[35]: 635
Assign rand_sets[36]: 466  LLC: 2048
rand_sets[36]: 466
Assign rand_sets[37]: 1413  LLC: 2048
rand_sets[37]: 1413
Assign rand_sets[38]: 417  LLC: 2048
rand_sets[38]: 417
Assign rand_sets[39]: 472  LLC: 2048
rand_sets[39]: 472
Assign rand_sets[40]: 1340  LLC: 2048
rand_sets[40]: 1340
Assign rand_sets[41]: 852  LLC: 2048
rand_sets[41]: 852
Assign rand_sets[42]: 1365  LLC: 2048
rand_sets[42]: 1365
Assign rand_sets[43]: 47  LLC: 2048
rand_sets[43]: 47
Assign rand_sets[44]: 823  LLC: 2048
rand_sets[44]: 823
Assign rand_sets[45]: 686  LLC: 2048
rand_sets[45]: 686
Assign rand_sets[46]: 1637  LLC: 2048
rand_sets[46]: 1637
Assign rand_sets[47]: 1115  LLC: 2048
rand_sets[47]: 1115
Assign rand_sets[48]: 986  LLC: 2048
rand_sets[48]: 986
Assign rand_sets[49]: 258  LLC: 2048
rand_sets[49]: 258
Assign rand_sets[50]: 633  LLC: 2048
rand_sets[50]: 633
Assign rand_sets[51]: 920  LLC: 2048
rand_sets[51]: 920
Assign rand_sets[52]: 204  LLC: 2048
rand_sets[52]: 204
Assign rand_sets[53]: 227  LLC: 2048
rand_sets[53]: 227
Assign rand_sets[54]: 1818  LLC: 2048
rand_sets[54]: 1818
Assign rand_sets[55]: 886  LLC: 2048
rand_sets[55]: 886
Assign rand_sets[56]: 1422  LLC: 2048
rand_sets[56]: 1422
Assign rand_sets[57]: 607  LLC: 2048
rand_sets[57]: 607
Assign rand_sets[58]: 217  LLC: 2048
rand_sets[58]: 217
Assign rand_sets[59]: 1945  LLC: 2048
rand_sets[59]: 1945
Assign rand_sets[60]: 143  LLC: 2048
rand_sets[60]: 143
Assign rand_sets[61]: 1311  LLC: 2048
rand_sets[61]: 1311
Assign rand_sets[62]: 319  LLC: 2048
rand_sets[62]: 319
Assign rand_sets[63]: 1846  LLC: 2048
rand_sets[63]: 1846
 CLEAN-RRIP-POLICY-1: 3-3-3-3-3-2-3-2- CLEAN-RRIP-POLICY-2: 3-3-3-3-3-2-3-2-
 DIRTY-RRIP-POLICY-1: 3-3-3-3-3-2-3-2- DIRTY-RRIP-POLICY-2: 3-3-3-3-3-2-3-2-
 PSEL width: 10
Heartbeat CPU 0 instructions: 10000000 cycles: 7401439 heartbeat IPC: 1.35109 cumulative IPC: 1.35109 (Simulation time: 0 hr 0 min 18 sec) 
Heartbeat CPU 0 instructions: 20000000 cycles: 14925045 heartbeat IPC: 1.32915 cumulative IPC: 1.34003 (Simulation time: 0 hr 0 min 36 sec) 
Heartbeat CPU 0 instructions: 30000000 cycles: 21868286 heartbeat IPC: 1.44025 cumulative IPC: 1.37185 (Simulation time: 0 hr 0 min 55 sec) 
Heartbeat CPU 0 instructions: 40000000 cycles: 28692316 heartbeat IPC: 1.46541 cumulative IPC: 1.3941 (Simulation time: 0 hr 1 min 13 sec) 
Heartbeat CPU 0 instructions: 50000000 cycles: 35531123 heartbeat IPC: 1.46224 cumulative IPC: 1.40722 (Simulation time: 0 hr 1 min 30 sec) 
Heartbeat CPU 0 instructions: 60000000 cycles: 42554446 heartbeat IPC: 1.42383 cumulative IPC: 1.40996 (Simulation time: 0 hr 1 min 48 sec) 
Heartbeat CPU 0 instructions: 70000000 cycles: 49183876 heartbeat IPC: 1.50843 cumulative IPC: 1.42323 (Simulation time: 0 hr 2 min 5 sec) 
Heartbeat CPU 0 instructions: 80000000 cycles: 55899366 heartbeat IPC: 1.48909 cumulative IPC: 1.43114 (Simulation time: 0 hr 2 min 22 sec) 
Heartbeat CPU 0 instructions: 90000000 cycles: 63001442 heartbeat IPC: 1.40804 cumulative IPC: 1.42854 (Simulation time: 0 hr 2 min 41 sec) 
Heartbeat CPU 0 instructions: 100000000 cycles: 71580878 heartbeat IPC: 1.16558 cumulative IPC: 1.39702 (Simulation time: 0 hr 3 min 2 sec) 

Warmup complete CPU 0 instructions: 100000002 cycles: 71580879 (Simulation time: 0 hr 3 min 2 sec) 

Heartbeat CPU 0 instructions: 110000000 cycles: 112468117 heartbeat IPC: 0.244575 cumulative IPC: 0.244575 (Simulation time: 0 hr 3 min 45 sec) 
Heartbeat CPU 0 instructions: 120000000 cycles: 153451774 heartbeat IPC: 0.244 cumulative IPC: 0.244287 (Simulation time: 0 hr 4 min 28 sec) 
Heartbeat CPU 0 instructions: 130000000 cycles: 194084565 heartbeat IPC: 0.246107 cumulative IPC: 0.244891 (Simulation time: 0 hr 5 min 12 sec) 
Heartbeat CPU 0 instructions: 140000000 cycles: 234705290 heartbeat IPC: 0.24618 cumulative IPC: 0.245212 (Simulation time: 0 hr 5 min 55 sec) 
Heartbeat CPU 0 instructions: 150000002 cycles: 275433374 heartbeat IPC: 0.245531 cumulative IPC: 0.245275 (Simulation time: 0 hr 6 min 38 sec) 
Heartbeat CPU 0 instructions: 160000000 cycles: 315414444 heartbeat IPC: 0.250118 cumulative IPC: 0.246069 (Simulation time: 0 hr 7 min 25 sec) 
Heartbeat CPU 0 instructions: 170000000 cycles: 355300888 heartbeat IPC: 0.250712 cumulative IPC: 0.246722 (Simulation time: 0 hr 8 min 11 sec) 
Heartbeat CPU 0 instructions: 180000000 cycles: 395599485 heartbeat IPC: 0.248148 cumulative IPC: 0.246899 (Simulation time: 0 hr 8 min 58 sec) 
Heartbeat CPU 0 instructions: 190000000 cycles: 435946752 heartbeat IPC: 0.247848 cumulative IPC: 0.247004 (Simulation time: 0 hr 9 min 44 sec) 
Heartbeat CPU 0 instructions: 200000000 cycles: 471717642 heartbeat IPC: 0.279557 cumulative IPC: 0.249915 (Simulation time: 0 hr 10 min 25 sec) 
Heartbeat CPU 0 instructions: 210000000 cycles: 505524697 heartbeat IPC: 0.295796 cumulative IPC: 0.253489 (Simulation time: 0 hr 10 min 59 sec) 
Heartbeat CPU 0 instructions: 220000000 cycles: 537018023 heartbeat IPC: 0.317528 cumulative IPC: 0.257822 (Simulation time: 0 hr 11 min 33 sec) 
Heartbeat CPU 0 instructions: 230000000 cycles: 568033769 heartbeat IPC: 0.322417 cumulative IPC: 0.261858 (Simulation time: 0 hr 12 min 5 sec) 
Heartbeat CPU 0 instructions: 240000000 cycles: 599946571 heartbeat IPC: 0.313354 cumulative IPC: 0.264968 (Simulation time: 0 hr 12 min 39 sec) 
Heartbeat CPU 0 instructions: 250000000 cycles: 630063205 heartbeat IPC: 0.332042 cumulative IPC: 0.268585 (Simulation time: 0 hr 13 min 12 sec) 
Finished CPU 0 instructions: 150000001 cycles: 558482328 cumulative IPC: 0.268585 (Simulation time: 0 hr 13 min 12 sec) 

CPU 0 Branch Prediction Accuracy: 97.2196% MPKI: 4.7479
Number of Branches: 25614599 Number of Mispredictions: 712185
Number of LOAD Instructions: 79644726
Number of LOAD Instructions (ROI): 79644726
Number of STORE Instructions: 39098312
Number of STORE Instructions (ROI): 39098312
Total Destination Memory Operands: 40298061
Total Destination Memory Operands (ROI): 40298061
Total Source Memory Operands: 79644726
Total Source Memory Operands (ROI): 79644726
Number of DEPENDED LOADS: 2626208
Number of DEPENDED LOADS (ROI): 2626208
Number of SQ_ADDED: 40298061
Number of SQ_ADDED (ROI): 40298061
Number of LQ_ADDED: 94126294
Number of LQ_ADDED (ROI): 94126294
Number of Instructions read from trace: 250000009

ChampSim completed all CPUs

Region of Interest Statistics

CPU 0 cumulative IPC: 0.268585 instructions: 150000001 cycles: 558482328
ITLB TOTAL     ACCESS:   46447597  HIT:   46446970  MISS:        627
ITLB LOAD      ACCESS:   46447597  HIT:   46446970  MISS:        627
ITLB RFO       ACCESS:          0  HIT:          0  MISS:          0
ITLB PREFETCH  ACCESS:          0  HIT:          0  MISS:          0
ITLB WRITEBACK ACCESS:          0  HIT:          0  MISS:          0
ITLB PREFETCH  REQUESTED:          0  ISSUED:          0  USEFUL:          0  USELESS:          0
ITLB TOTAL MSHR MERGED:        788
ITLB LOAD MSHR MERGED:        788
ITLB RFO MSHR MERGED:          0
ITLB PREFETCH MSHR MERGED:          0
ITLB WRITEBACK MSHR MERGED:          0
ITLB TOTAL ACCESSES:   46448385 HITS:   46446970 MISSES:       1415
ITLB LOAD ACCESSES:   46448385 HITS:   46446970 MISSES:       1415
ITLB RFO ACCESSES:          0 HITS:          0 MISSES:          0
ITLB PREFETCH ACCESSES:          0 HITS:          0 MISSES:          0
ITLB WRITEBACK ACCESSES:          0 HITS:          0 MISSES:          0
ITLB RQ ACCESS:  149999943
ITLB RQ TO_CACHE:   46448385
ITLB RQ MERGED:  103551558
ITLB RQ FORWARD:          0
ITLB WQ ACCESS:          0
ITLB WQ TO_CACHE:          0
ITLB WQ MERGED:          0
ITLB WQ FORWARD:          0
DTLB TOTAL     ACCESS:   63664663  HIT:   63452648  MISS:     212015
DTLB LOAD      ACCESS:   40023338  HIT:   39817550  MISS:     205788
DTLB RFO       ACCESS:   23641325  HIT:   23635098  MISS:       6227
DTLB PREFETCH  ACCESS:          0  HIT:          0  MISS:          0
DTLB WRITEBACK ACCESS:          0  HIT:          0  MISS:          0
DTLB PREFETCH  REQUESTED:          0  ISSUED:          0  USEFUL:          0  USELESS:          0
DTLB TOTAL MSHR MERGED:      63528
DTLB LOAD MSHR MERGED:      61353
DTLB RFO MSHR MERGED:       2175
DTLB PREFETCH MSHR MERGED:          0
DTLB WRITEBACK MSHR MERGED:          0
DTLB TOTAL ACCESSES:   63728191 HITS:   63452648 MISSES:     275543
DTLB LOAD ACCESSES:   40084691 HITS:   39817550 MISSES:     267141
DTLB RFO ACCESSES:   23643500 HITS:   23635098 MISSES:       8402
DTLB PREFETCH ACCESSES:          0 HITS:          0 MISSES:          0
DTLB WRITEBACK ACCESSES:          0 HITS:          0 MISSES:          0
DTLB RQ ACCESS:   72006847
DTLB RQ TO_CACHE:   63728190
DTLB RQ MERGED:    8278657
DTLB RQ FORWARD:          0
DTLB WQ ACCESS:          0
DTLB WQ TO_CACHE:          0
DTLB WQ MERGED:          0
DTLB WQ FORWARD:          0
L1D TOTAL     ACCESS:  100046224  HIT:   97735984  MISS:    2310240
L1D LOAD      ACCESS:   38595949  HIT:   37364898  MISS:    1231051
L1D RFO       ACCESS:   24719405  HIT:   24656655  MISS:      62750
L1D PREFETCH  ACCESS:   36730870  HIT:   35714431  MISS:    1016439
L1D WRITEBACK ACCESS:          0  HIT:          0  MISS:          0
L1D PREFETCH  REQUESTED:   38734043  ISSUED:   38539137  USEFUL:     334986  USELESS:     681460
L1D TOTAL MSHR MERGED:     509393
L1D LOAD MSHR MERGED:     169025
L1D RFO MSHR MERGED:     106274
L1D PREFETCH MSHR MERGED:     234094
L1D WRITEBACK MSHR MERGED:          0
L1D TOTAL ACCESSES:  100560037 HITS:   97740404 MISSES:    2819633
L1D LOAD ACCESSES:   38734251 HITS:   37365106 MISSES:    1369145
L1D RFO ACCESSES:   24820800 HITS:   24656655 MISSES:     164145
L1D PREFETCH ACCESSES:   37004986 HITS:   35718643 MISSES:    1286343
L1D WRITEBACK ACCESSES:          0 HITS:          0 MISSES:          0
L1D RQ ACCESS:   47105768
L1D RQ TO_CACHE:   38734043
L1D RQ MERGED:    8371517
L1D RQ FORWARD:          0
L1D WQ ACCESS:   24901082
L1D WQ TO_CACHE:   24820800
L1D WQ MERGED:      80282
L1D WQ FORWARD:       4420
L1I TOTAL     ACCESS:   53356063  HIT:   53234296  MISS:     121767
L1I LOAD      ACCESS:   53356063  HIT:   53234296  MISS:     121767
L1I RFO       ACCESS:          0  HIT:          0  MISS:          0
L1I PREFETCH  ACCESS:          0  HIT:          0  MISS:          0
L1I WRITEBACK ACCESS:          0  HIT:          0  MISS:          0
L1I PREFETCH  REQUESTED:          0  ISSUED:          0  USEFUL:          0  USELESS:          0
L1I TOTAL MSHR MERGED:      63646
L1I LOAD MSHR MERGED:      63646
L1I RFO MSHR MERGED:          0
L1I PREFETCH MSHR MERGED:          0
L1I WRITEBACK MSHR MERGED:          0
L1I TOTAL ACCESSES:   53419709 HITS:   53234296 MISSES:     185413
L1I LOAD ACCESSES:   53419709 HITS:   53234296 MISSES:     185413
L1I RFO ACCESSES:          0 HITS:          0 MISSES:          0
L1I PREFETCH ACCESSES:          0 HITS:          0 MISSES:          0
L1I WRITEBACK ACCESSES:          0 HITS:          0 MISSES:          0
L1I RQ ACCESS:  149999949
L1I RQ TO_CACHE:   53419709
L1I RQ MERGED:   96580240
L1I RQ FORWARD:          0
L1I WQ ACCESS:          0
L1I WQ TO_CACHE:          0
L1I WQ MERGED:          0
L1I WQ FORWARD:          0
L2C TOTAL     ACCESS:    2829789  HIT:    1831778  MISS:     998011
L2C LOAD      ACCESS:    1321875  HIT:     893586  MISS:     428289
L2C RFO       ACCESS:      57871  HIT:      21072  MISS:      36799
L2C PREFETCH  ACCESS:    1238920  HIT:     707054  MISS:     531866
L2C WRITEBACK ACCESS:     211123  HIT:     210066  MISS:       1057
L2C PREFETCH  REQUESTED:     195809  ISSUED:     195809  USEFUL:     101481  USELESS:     430785
L2C TOTAL MSHR MERGED:       3396
L2C LOAD MSHR MERGED:        676
L2C RFO MSHR MERGED:          0
L2C PREFETCH MSHR MERGED:       2720
L2C WRITEBACK MSHR MERGED:          0
L2C TOTAL ACCESSES:    2833750 HITS:    1831792 MISSES:    1001958
L2C LOAD ACCESSES:    1321887 HITS:     893598 MISSES:     428289
L2C RFO ACCESSES:      57871 HITS:      21072 MISSES:      36799
L2C PREFETCH ACCESSES:    1242869 HITS:     707056 MISSES:     535813
L2C WRITEBACK ACCESSES:     211123 HITS:     210066 MISSES:       1057
L2C RQ ACCESS:    1379758
L2C RQ TO_CACHE:    1379746
L2C RQ MERGED:          0
L2C RQ FORWARD:          0
L2C WQ ACCESS:     211123
L2C WQ TO_CACHE:     211123
L2C WQ MERGED:          0
L2C WQ FORWARD:         14
LLC TOTAL     ACCESS:    1129321  HIT:     737268  MISS:     392053
LLC LOAD      ACCESS:     427612  HIT:     303240  MISS:     124372
LLC RFO       ACCESS:      36798  HIT:      19038  MISS:      17760
LLC PREFETCH  ACCESS:     532864  HIT:     297679  MISS:     235185
LLC WRITEBACK ACCESS:     132047  HIT:     117311  MISS:      14736
LLC PREFETCH  REQUESTED:          0  ISSUED:          0  USEFUL:       6668  USELESS:     227765
LLC TOTAL MSHR MERGED:        201
LLC LOAD MSHR MERGED:         51
LLC RFO MSHR MERGED:          0
LLC PREFETCH MSHR MERGED:        150
LLC WRITEBACK MSHR MERGED:          0
LLC TOTAL ACCESSES:    1129525 HITS:     737271 MISSES:     392254
LLC LOAD ACCESSES:     427613 HITS:     303241 MISSES:     124372
LLC RFO ACCESSES:      36799 HITS:      19039 MISSES:      17760
LLC PREFETCH ACCESSES:     533066 HITS:     297680 MISSES:     235386
LLC WRITEBACK ACCESSES:     132047 HITS:     117311 MISSES:      14736
LLC 0 RQ ACCESS:     464412
LLC 0 RQ TO_CACHE:     464410
LLC 0 RQ MERGED:          0
LLC 0 RQ FORWARD:          0
LLC WQ ACCESS:     132047
LLC WQ TO_CACHE:     132047
LLC WQ MERGED:          0
LLC WQ FORWARD:          3
Major fault: 0 Minor fault: 5466
CPU 0 L1D next line prefetcher final stats
CPU 0 L2C PC-based stride prefetcher final stats
All Misses: 1048992
All Hits: 1489348
SD Algo Stats - Switches: 0 SRR-Repls: 287969 BRR-Repls: 0

DRAM Statistics
 CHANNEL 0
 RQ ROW_BUFFER_HIT:     158815  ROW_BUFFER_MISS:     218064
 DBUS_CONGESTED:     152540
 WQ ROW_BUFFER_HIT:       4466  ROW_BUFFER_MISS:      49987  FULL:          0

 AVG_CONGESTED_CYCLE: 13
LOADS RETIRED: 48210015
INSTR RETIRED: 150000000
