
*** ChampSim Multicore Out-of-Order Simulator ***

Warmup Instructions: 100000000
Simulation Instructions: 150000000
Number of CPUs: 1
LLC sets: 2048
LLC ways: 16
Clean RRIP Policies: 3333323233333232 Dirty RRIP Policies: 3333323233333232 PSEL Width: 10 Track Set: 4294967295 PSEL Mask: 1 Demote Mask: 4044404440444044DS Algo: 0Window size: 0
Off-chip DRAM Size: 4096 MB Channels: 1 Width: 64-bit Data Rate: 1600 MT/s

CPU 0 runs /mnt/beegfs/pchatz06/selected_traces/502.gcc_r.train.input2.region_4.w_0.0218_0.0242.trace.gz
NOT SORTED
TRACE STRING: /mnt/beegfs/pchatz06/selected_traces/502.gcc_r.train.input2.region_4.w_0.0218_0.0242.trace.gz
SORTED
TRACE STRING: /mnt/beegfs/pchatz06/selected_traces/502.gcc_r.train.input2.region_4.w_0.0218_0.0242.trace.gz
INITIAL
TRACE STRING: /mnt/beegfs/pchatz06/selected_traces/502.gcc_r.train.input2.region_4.w_0.0218_0.0242.trace.gz

champsim_seed used: 200

CPU 0 L1D next line prefetcher
CPU 0 L2C IP-based stride prefetcher
Initialize DRRIP state
Assign rand_sets[0]: 454  LLC: 2048
rand_sets[0]: 454
Assign rand_sets[1]: 1662  LLC: 2048
rand_sets[1]: 1662
Assign rand_sets[2]: 1921  LLC: 2048
rand_sets[2]: 1921
Assign rand_sets[3]: 1131  LLC: 2048
rand_sets[3]: 1131
Assign rand_sets[4]: 331  LLC: 2048
rand_sets[4]: 331
Assign rand_sets[5]: 1531  LLC: 2048
rand_sets[5]: 1531
Assign rand_sets[6]: 482  LLC: 2048
rand_sets[6]: 482
Assign rand_sets[7]: 1275  LLC: 2048
rand_sets[7]: 1275
Assign rand_sets[8]: 1876  LLC: 2048
rand_sets[8]: 1876
Assign rand_sets[9]: 2038  LLC: 2048
rand_sets[9]: 2038
Assign rand_sets[10]: 701  LLC: 2048
rand_sets[10]: 701
Assign rand_sets[11]: 479  LLC: 2048
rand_sets[11]: 479
Assign rand_sets[12]: 892  LLC: 2048
rand_sets[12]: 892
Assign rand_sets[13]: 1820  LLC: 2048
rand_sets[13]: 1820
Assign rand_sets[14]: 1505  LLC: 2048
rand_sets[14]: 1505
Assign rand_sets[15]: 1159  LLC: 2048
rand_sets[15]: 1159
Assign rand_sets[16]: 513  LLC: 2048
rand_sets[16]: 513
Assign rand_sets[17]: 703  LLC: 2048
rand_sets[17]: 703
Assign rand_sets[18]: 561  LLC: 2048
rand_sets[18]: 561
Assign rand_sets[19]: 990  LLC: 2048
rand_sets[19]: 990
Assign rand_sets[20]: 342  LLC: 2048
rand_sets[20]: 342
Assign rand_sets[21]: 882  LLC: 2048
rand_sets[21]: 882
Assign rand_sets[22]: 15  LLC: 2048
rand_sets[22]: 15
Assign rand_sets[23]: 71  LLC: 2048
rand_sets[23]: 71
Assign rand_sets[24]: 1127  LLC: 2048
rand_sets[24]: 1127
Assign rand_sets[25]: 1382  LLC: 2048
rand_sets[25]: 1382
Assign rand_sets[26]: 647  LLC: 2048
rand_sets[26]: 647
Assign rand_sets[27]: 857  LLC: 2048
rand_sets[27]: 857
Assign rand_sets[28]: 1450  LLC: 2048
rand_sets[28]: 1450
Assign rand_sets[29]: 1160  LLC: 2048
rand_sets[29]: 1160
Assign rand_sets[30]: 1852  LLC: 2048
rand_sets[30]: 1852
Assign rand_sets[31]: 1881  LLC: 2048
rand_sets[31]: 1881
Assign rand_sets[32]: 1770  LLC: 2048
rand_sets[32]: 1770
Assign rand_sets[33]: 1622  LLC: 2048
rand_sets[33]: 1622
Assign rand_sets[34]: 275  LLC: 2048
rand_sets[34]: 275
Assign rand_sets[35]: 635  LLC: 2048
rand_sets[35]: 635
Assign rand_sets[36]: 466  LLC: 2048
rand_sets[36]: 466
Assign rand_sets[37]: 1413  LLC: 2048
rand_sets[37]: 1413
Assign rand_sets[38]: 417  LLC: 2048
rand_sets[38]: 417
Assign rand_sets[39]: 472  LLC: 2048
rand_sets[39]: 472
Assign rand_sets[40]: 1340  LLC: 2048
rand_sets[40]: 1340
Assign rand_sets[41]: 852  LLC: 2048
rand_sets[41]: 852
Assign rand_sets[42]: 1365  LLC: 2048
rand_sets[42]: 1365
Assign rand_sets[43]: 47  LLC: 2048
rand_sets[43]: 47
Assign rand_sets[44]: 823  LLC: 2048
rand_sets[44]: 823
Assign rand_sets[45]: 686  LLC: 2048
rand_sets[45]: 686
Assign rand_sets[46]: 1637  LLC: 2048
rand_sets[46]: 1637
Assign rand_sets[47]: 1115  LLC: 2048
rand_sets[47]: 1115
Assign rand_sets[48]: 986  LLC: 2048
rand_sets[48]: 986
Assign rand_sets[49]: 258  LLC: 2048
rand_sets[49]: 258
Assign rand_sets[50]: 633  LLC: 2048
rand_sets[50]: 633
Assign rand_sets[51]: 920  LLC: 2048
rand_sets[51]: 920
Assign rand_sets[52]: 204  LLC: 2048
rand_sets[52]: 204
Assign rand_sets[53]: 227  LLC: 2048
rand_sets[53]: 227
Assign rand_sets[54]: 1818  LLC: 2048
rand_sets[54]: 1818
Assign rand_sets[55]: 886  LLC: 2048
rand_sets[55]: 886
Assign rand_sets[56]: 1422  LLC: 2048
rand_sets[56]: 1422
Assign rand_sets[57]: 607  LLC: 2048
rand_sets[57]: 607
Assign rand_sets[58]: 217  LLC: 2048
rand_sets[58]: 217
Assign rand_sets[59]: 1945  LLC: 2048
rand_sets[59]: 1945
Assign rand_sets[60]: 143  LLC: 2048
rand_sets[60]: 143
Assign rand_sets[61]: 1311  LLC: 2048
rand_sets[61]: 1311
Assign rand_sets[62]: 319  LLC: 2048
rand_sets[62]: 319
Assign rand_sets[63]: 1846  LLC: 2048
rand_sets[63]: 1846
 CLEAN-RRIP-POLICY-1: 3-3-3-3-3-2-3-2- CLEAN-RRIP-POLICY-2: 3-3-3-3-3-2-3-2-
 DIRTY-RRIP-POLICY-1: 3-3-3-3-3-2-3-2- DIRTY-RRIP-POLICY-2: 3-3-3-3-3-2-3-2-
 PSEL width: 10
Heartbeat CPU 0 instructions: 10000003 cycles: 6407479 heartbeat IPC: 1.56068 cumulative IPC: 1.56068 (Simulation time: 0 hr 0 min 16 sec) 
Heartbeat CPU 0 instructions: 20000000 cycles: 12919479 heartbeat IPC: 1.53563 cumulative IPC: 1.54805 (Simulation time: 0 hr 0 min 33 sec) 
Heartbeat CPU 0 instructions: 30000003 cycles: 19424679 heartbeat IPC: 1.53723 cumulative IPC: 1.54443 (Simulation time: 0 hr 0 min 50 sec) 
Heartbeat CPU 0 instructions: 40000000 cycles: 25934862 heartbeat IPC: 1.53605 cumulative IPC: 1.54233 (Simulation time: 0 hr 1 min 6 sec) 
Heartbeat CPU 0 instructions: 50000000 cycles: 32304092 heartbeat IPC: 1.57005 cumulative IPC: 1.54779 (Simulation time: 0 hr 1 min 20 sec) 
Heartbeat CPU 0 instructions: 60000000 cycles: 38338538 heartbeat IPC: 1.65715 cumulative IPC: 1.565 (Simulation time: 0 hr 1 min 32 sec) 
Heartbeat CPU 0 instructions: 70000000 cycles: 44237820 heartbeat IPC: 1.69512 cumulative IPC: 1.58236 (Simulation time: 0 hr 1 min 44 sec) 
Heartbeat CPU 0 instructions: 80000000 cycles: 50449923 heartbeat IPC: 1.60976 cumulative IPC: 1.58573 (Simulation time: 0 hr 1 min 57 sec) 
Heartbeat CPU 0 instructions: 90000003 cycles: 56721393 heartbeat IPC: 1.59452 cumulative IPC: 1.5867 (Simulation time: 0 hr 2 min 10 sec) 
Heartbeat CPU 0 instructions: 100000000 cycles: 63383840 heartbeat IPC: 1.50095 cumulative IPC: 1.57769 (Simulation time: 0 hr 2 min 25 sec) 

Warmup complete CPU 0 instructions: 100000001 cycles: 63383843 (Simulation time: 0 hr 2 min 25 sec) 

Heartbeat CPU 0 instructions: 110000000 cycles: 83524243 heartbeat IPC: 0.496514 cumulative IPC: 0.496514 (Simulation time: 0 hr 2 min 47 sec) 
Heartbeat CPU 0 instructions: 120000000 cycles: 103180755 heartbeat IPC: 0.508737 cumulative IPC: 0.502552 (Simulation time: 0 hr 3 min 9 sec) 
Heartbeat CPU 0 instructions: 130000000 cycles: 121518450 heartbeat IPC: 0.545325 cumulative IPC: 0.516044 (Simulation time: 0 hr 3 min 29 sec) 
Heartbeat CPU 0 instructions: 140000000 cycles: 139673240 heartbeat IPC: 0.550819 cumulative IPC: 0.524319 (Simulation time: 0 hr 3 min 50 sec) 
Heartbeat CPU 0 instructions: 150000000 cycles: 165898274 heartbeat IPC: 0.381315 cumulative IPC: 0.487736 (Simulation time: 0 hr 4 min 17 sec) 
Heartbeat CPU 0 instructions: 160000000 cycles: 191389847 heartbeat IPC: 0.392287 cumulative IPC: 0.468728 (Simulation time: 0 hr 4 min 46 sec) 
Heartbeat CPU 0 instructions: 170000000 cycles: 216374045 heartbeat IPC: 0.400253 cumulative IPC: 0.457546 (Simulation time: 0 hr 5 min 14 sec) 
Heartbeat CPU 0 instructions: 180000000 cycles: 242907843 heartbeat IPC: 0.376878 cumulative IPC: 0.445623 (Simulation time: 0 hr 5 min 41 sec) 
Heartbeat CPU 0 instructions: 190000002 cycles: 270413000 heartbeat IPC: 0.363568 cumulative IPC: 0.434721 (Simulation time: 0 hr 6 min 10 sec) 
Heartbeat CPU 0 instructions: 200000000 cycles: 295156321 heartbeat IPC: 0.404149 cumulative IPC: 0.431458 (Simulation time: 0 hr 6 min 38 sec) 
Heartbeat CPU 0 instructions: 210000002 cycles: 322204750 heartbeat IPC: 0.369707 cumulative IPC: 0.425004 (Simulation time: 0 hr 7 min 8 sec) 
Heartbeat CPU 0 instructions: 220000000 cycles: 352034954 heartbeat IPC: 0.335231 cumulative IPC: 0.415727 (Simulation time: 0 hr 7 min 36 sec) 
Heartbeat CPU 0 instructions: 230000000 cycles: 381287057 heartbeat IPC: 0.341856 cumulative IPC: 0.408929 (Simulation time: 0 hr 8 min 4 sec) 
Heartbeat CPU 0 instructions: 240000000 cycles: 409522711 heartbeat IPC: 0.354162 cumulative IPC: 0.404462 (Simulation time: 0 hr 8 min 32 sec) 
*** Reached end of trace for Core: 0 Repeating trace: /mnt/beegfs/pchatz06/selected_traces/502.gcc_r.train.input2.region_4.w_0.0218_0.0242.trace.gz
Heartbeat CPU 0 instructions: 250000000 cycles: 439728951 heartbeat IPC: 0.331057 cumulative IPC: 0.39857 (Simulation time: 0 hr 9 min 1 sec) 
Finished CPU 0 instructions: 150000000 cycles: 376345110 cumulative IPC: 0.39857 (Simulation time: 0 hr 9 min 1 sec) 

CPU 0 Branch Prediction Accuracy: 93.1604% MPKI: 13.4135
Number of Branches: 29417263 Number of Mispredictions: 2012026
Number of LOAD Instructions: 61598547
Number of LOAD Instructions (ROI): 61598547
Number of STORE Instructions: 30748935
Number of STORE Instructions (ROI): 30748935
Total Destination Memory Operands: 32498999
Total Destination Memory Operands (ROI): 32498999
Total Source Memory Operands: 61598547
Total Source Memory Operands (ROI): 61598547
Number of DEPENDED LOADS: 1818084
Number of DEPENDED LOADS (ROI): 1818084
Number of SQ_ADDED: 32498997
Number of SQ_ADDED (ROI): 32498997
Number of LQ_ADDED: 83421429
Number of LQ_ADDED (ROI): 83421429
Number of Instructions read from trace: 250000009

ChampSim completed all CPUs

Region of Interest Statistics

CPU 0 cumulative IPC: 0.39857 instructions: 150000000 cycles: 376345110
ITLB TOTAL     ACCESS:   31330409  HIT:   31301597  MISS:      28812
ITLB LOAD      ACCESS:   31330409  HIT:   31301597  MISS:      28812
ITLB RFO       ACCESS:          0  HIT:          0  MISS:          0
ITLB PREFETCH  ACCESS:          0  HIT:          0  MISS:          0
ITLB WRITEBACK ACCESS:          0  HIT:          0  MISS:          0
ITLB PREFETCH  REQUESTED:          0  ISSUED:          0  USEFUL:          0  USELESS:          0
ITLB TOTAL MSHR MERGED:      35529
ITLB LOAD MSHR MERGED:      35529
ITLB RFO MSHR MERGED:          0
ITLB PREFETCH MSHR MERGED:          0
ITLB WRITEBACK MSHR MERGED:          0
ITLB TOTAL ACCESSES:   31365938 HITS:   31301597 MISSES:      64341
ITLB LOAD ACCESSES:   31365938 HITS:   31301597 MISSES:      64341
ITLB RFO ACCESSES:          0 HITS:          0 MISSES:          0
ITLB PREFETCH ACCESSES:          0 HITS:          0 MISSES:          0
ITLB WRITEBACK ACCESSES:          0 HITS:          0 MISSES:          0
ITLB RQ ACCESS:  149999932
ITLB RQ TO_CACHE:   31365938
ITLB RQ MERGED:  118633994
ITLB RQ FORWARD:          0
ITLB WQ ACCESS:          0
ITLB WQ TO_CACHE:          0
ITLB WQ MERGED:          0
ITLB WQ FORWARD:          0
DTLB TOTAL     ACCESS:   44413943  HIT:   44151355  MISS:     262588
DTLB LOAD      ACCESS:   27915505  HIT:   27672028  MISS:     243477
DTLB RFO       ACCESS:   16498438  HIT:   16479327  MISS:      19111
DTLB PREFETCH  ACCESS:          0  HIT:          0  MISS:          0
DTLB WRITEBACK ACCESS:          0  HIT:          0  MISS:          0
DTLB PREFETCH  REQUESTED:          0  ISSUED:          0  USEFUL:          0  USELESS:          0
DTLB TOTAL MSHR MERGED:      43440
DTLB LOAD MSHR MERGED:      36889
DTLB RFO MSHR MERGED:       6551
DTLB PREFETCH MSHR MERGED:          0
DTLB WRITEBACK MSHR MERGED:          0
DTLB TOTAL ACCESSES:   44457383 HITS:   44151355 MISSES:     306028
DTLB LOAD ACCESSES:   27952394 HITS:   27672028 MISSES:     280366
DTLB RFO ACCESSES:   16504989 HITS:   16479327 MISSES:      25662
DTLB PREFETCH ACCESSES:          0 HITS:          0 MISSES:          0
DTLB WRITEBACK ACCESSES:          0 HITS:          0 MISSES:          0
DTLB RQ ACCESS:   55186611
DTLB RQ TO_CACHE:   44457383
DTLB RQ MERGED:   10729228
DTLB RQ FORWARD:          0
DTLB WQ ACCESS:          0
DTLB WQ TO_CACHE:          0
DTLB WQ MERGED:          0
DTLB WQ FORWARD:          0
L1D TOTAL     ACCESS:   75900166  HIT:   73068262  MISS:    2831904
L1D LOAD      ACCESS:   29224268  HIT:   27929567  MISS:    1294701
L1D RFO       ACCESS:   18889435  HIT:   18736360  MISS:     153075
L1D PREFETCH  ACCESS:   27786463  HIT:   26402335  MISS:    1384128
L1D WRITEBACK ACCESS:          0  HIT:          0  MISS:          0
L1D PREFETCH  REQUESTED:   29311470  ISSUED:   28932390  USEFUL:     526869  USELESS:     857259
L1D TOTAL MSHR MERGED:     728150
L1D LOAD MSHR MERGED:     141069
L1D RFO MSHR MERGED:     288066
L1D PREFETCH MSHR MERGED:     299015
L1D WRITEBACK MSHR MERGED:          0
L1D TOTAL ACCESSES:   76632595 HITS:   73072542 MISSES:    3560053
L1D LOAD ACCESSES:   29311645 HITS:   27929742 MISSES:    1381903
L1D RFO ACCESSES:   19170844 HITS:   18736360 MISSES:     434484
L1D PREFETCH ACCESSES:   28150106 HITS:   26406440 MISSES:    1743666
L1D WRITEBACK ACCESSES:          0 HITS:          0 MISSES:          0
L1D RQ ACCESS:   35896144
L1D RQ TO_CACHE:   29311470
L1D RQ MERGED:    6584499
L1D RQ FORWARD:          0
L1D WQ ACCESS:   19290472
L1D WQ TO_CACHE:   19170845
L1D WQ MERGED:     119627
L1D WQ FORWARD:       4280
L1I TOTAL     ACCESS:   38532173  HIT:   37812702  MISS:     719471
L1I LOAD      ACCESS:   38532173  HIT:   37812702  MISS:     719471
L1I RFO       ACCESS:          0  HIT:          0  MISS:          0
L1I PREFETCH  ACCESS:          0  HIT:          0  MISS:          0
L1I WRITEBACK ACCESS:          0  HIT:          0  MISS:          0
L1I PREFETCH  REQUESTED:          0  ISSUED:          0  USEFUL:          0  USELESS:          0
L1I TOTAL MSHR MERGED:     386532
L1I LOAD MSHR MERGED:     386532
L1I RFO MSHR MERGED:          0
L1I PREFETCH MSHR MERGED:          0
L1I WRITEBACK MSHR MERGED:          0
L1I TOTAL ACCESSES:   38918707 HITS:   37812702 MISSES:    1106005
L1I LOAD ACCESSES:   38918707 HITS:   37812702 MISSES:    1106005
L1I RFO ACCESSES:          0 HITS:          0 MISSES:          0
L1I PREFETCH ACCESSES:          0 HITS:          0 MISSES:          0
L1I WRITEBACK ACCESSES:          0 HITS:          0 MISSES:          0
L1I RQ ACCESS:  149999932
L1I RQ TO_CACHE:   38918707
L1I RQ MERGED:  111081225
L1I RQ FORWARD:          0
L1I WQ ACCESS:          0
L1I WQ TO_CACHE:          0
L1I WQ MERGED:          0
L1I WQ FORWARD:          0
L2C TOTAL     ACCESS:    4180549  HIT:    2766231  MISS:    1414318
L2C LOAD      ACCESS:    1960266  HIT:    1343670  MISS:     616596
L2C RFO       ACCESS:     146398  HIT:      87859  MISS:      58539
L2C PREFETCH  ACCESS:    1583719  HIT:     847118  MISS:     736601
L2C WRITEBACK ACCESS:     490166  HIT:     487584  MISS:       2582
L2C PREFETCH  REQUESTED:     152300  ISSUED:     152300  USEFUL:     118586  USELESS:     617680
L2C TOTAL MSHR MERGED:       5258
L2C LOAD MSHR MERGED:        914
L2C RFO MSHR MERGED:          1
L2C PREFETCH MSHR MERGED:       4343
L2C WRITEBACK MSHR MERGED:          0
L2C TOTAL ACCESSES:    4186800 HITS:    2766310 MISSES:    1420490
L2C LOAD ACCESSES:    1960307 HITS:    1343709 MISSES:     616598
L2C RFO ACCESSES:     146418 HITS:      87879 MISSES:      58539
L2C PREFETCH ACCESSES:    1589909 HITS:     847138 MISSES:     742771
L2C WRITEBACK ACCESSES:     490166 HITS:     487584 MISSES:       2582
L2C RQ ACCESS:    2106725
L2C RQ TO_CACHE:    2106666
L2C RQ MERGED:          0
L2C RQ FORWARD:          0
L2C WQ ACCESS:     490166
L2C WQ TO_CACHE:     490166
L2C WQ MERGED:          0
L2C WQ FORWARD:         79
LLC TOTAL     ACCESS:    1674923  HIT:    1333087  MISS:     341836
LLC LOAD      ACCESS:     615679  HIT:     523582  MISS:      92097
LLC RFO       ACCESS:      58538  HIT:      29661  MISS:      28877
LLC PREFETCH  ACCESS:     738256  HIT:     540974  MISS:     197282
LLC WRITEBACK ACCESS:     262450  HIT:     238870  MISS:      23580
LLC PREFETCH  REQUESTED:          0  ISSUED:          0  USEFUL:      12437  USELESS:     184113
LLC TOTAL MSHR MERGED:        146
LLC LOAD MSHR MERGED:         33
LLC RFO MSHR MERGED:          0
LLC PREFETCH MSHR MERGED:        113
LLC WRITEBACK MSHR MERGED:          0
LLC TOTAL ACCESSES:    1675077 HITS:    1333093 MISSES:     341984
LLC LOAD ACCESSES:     615684 HITS:     523585 MISSES:      92099
LLC RFO ACCESSES:      58538 HITS:      29661 MISSES:      28877
LLC PREFETCH ACCESSES:     738405 HITS:     540977 MISSES:     197428
LLC WRITEBACK ACCESSES:     262450 HITS:     238870 MISSES:      23580
LLC 0 RQ ACCESS:     674222
LLC 0 RQ TO_CACHE:     674219
LLC 0 RQ MERGED:          0
LLC 0 RQ FORWARD:          0
LLC WQ ACCESS:     262450
LLC WQ TO_CACHE:     262450
LLC WQ MERGED:          0
LLC WQ FORWARD:          6
Major fault: 0 Minor fault: 4798
CPU 0 L1D next line prefetcher final stats
CPU 0 L2C PC-based stride prefetcher final stats
All Misses: 690235
All Hits: 2069813
SD Algo Stats - Switches: 0 SRR-Repls: 165962 BRR-Repls: 0

DRAM Statistics
 CHANNEL 0
 RQ ROW_BUFFER_HIT:      98386  ROW_BUFFER_MISS:     219526
 DBUS_CONGESTED:     159593
 WQ ROW_BUFFER_HIT:       8201  ROW_BUFFER_MISS:      87774  FULL:          0

 AVG_CONGESTED_CYCLE: 13
LOADS RETIRED: 37031829
INSTR RETIRED: 150000000
