
*** ChampSim Multicore Out-of-Order Simulator ***

Warmup Instructions: 100000000
Simulation Instructions: 150000000
Number of CPUs: 1
LLC sets: 2048
LLC ways: 16
Clean RRIP Policies: 3333323233333232 Dirty RRIP Policies: 3333323233333232 PSEL Width: 10 Track Set: 4294967295 PSEL Mask: 1 Demote Mask: 4044404440444044DS Algo: 0Window size: 0
Off-chip DRAM Size: 4096 MB Channels: 1 Width: 64-bit Data Rate: 1600 MT/s

CPU 0 runs /mnt/beegfs/pchatz06/selected_traces/502.gcc_r.refrate.input5.region_1.w_0.1846_0.2004.trace.gz
NOT SORTED
TRACE STRING: /mnt/beegfs/pchatz06/selected_traces/502.gcc_r.refrate.input5.region_1.w_0.1846_0.2004.trace.gz
SORTED
TRACE STRING: /mnt/beegfs/pchatz06/selected_traces/502.gcc_r.refrate.input5.region_1.w_0.1846_0.2004.trace.gz
INITIAL
TRACE STRING: /mnt/beegfs/pchatz06/selected_traces/502.gcc_r.refrate.input5.region_1.w_0.1846_0.2004.trace.gz

champsim_seed used: 198

CPU 0 L1D next line prefetcher
CPU 0 L2C IP-based stride prefetcher
Initialize DRRIP state
Assign rand_sets[0]: 454  LLC: 2048
rand_sets[0]: 454
Assign rand_sets[1]: 1662  LLC: 2048
rand_sets[1]: 1662
Assign rand_sets[2]: 1921  LLC: 2048
rand_sets[2]: 1921
Assign rand_sets[3]: 1131  LLC: 2048
rand_sets[3]: 1131
Assign rand_sets[4]: 331  LLC: 2048
rand_sets[4]: 331
Assign rand_sets[5]: 1531  LLC: 2048
rand_sets[5]: 1531
Assign rand_sets[6]: 482  LLC: 2048
rand_sets[6]: 482
Assign rand_sets[7]: 1275  LLC: 2048
rand_sets[7]: 1275
Assign rand_sets[8]: 1876  LLC: 2048
rand_sets[8]: 1876
Assign rand_sets[9]: 2038  LLC: 2048
rand_sets[9]: 2038
Assign rand_sets[10]: 701  LLC: 2048
rand_sets[10]: 701
Assign rand_sets[11]: 479  LLC: 2048
rand_sets[11]: 479
Assign rand_sets[12]: 892  LLC: 2048
rand_sets[12]: 892
Assign rand_sets[13]: 1820  LLC: 2048
rand_sets[13]: 1820
Assign rand_sets[14]: 1505  LLC: 2048
rand_sets[14]: 1505
Assign rand_sets[15]: 1159  LLC: 2048
rand_sets[15]: 1159
Assign rand_sets[16]: 513  LLC: 2048
rand_sets[16]: 513
Assign rand_sets[17]: 703  LLC: 2048
rand_sets[17]: 703
Assign rand_sets[18]: 561  LLC: 2048
rand_sets[18]: 561
Assign rand_sets[19]: 990  LLC: 2048
rand_sets[19]: 990
Assign rand_sets[20]: 342  LLC: 2048
rand_sets[20]: 342
Assign rand_sets[21]: 882  LLC: 2048
rand_sets[21]: 882
Assign rand_sets[22]: 15  LLC: 2048
rand_sets[22]: 15
Assign rand_sets[23]: 71  LLC: 2048
rand_sets[23]: 71
Assign rand_sets[24]: 1127  LLC: 2048
rand_sets[24]: 1127
Assign rand_sets[25]: 1382  LLC: 2048
rand_sets[25]: 1382
Assign rand_sets[26]: 647  LLC: 2048
rand_sets[26]: 647
Assign rand_sets[27]: 857  LLC: 2048
rand_sets[27]: 857
Assign rand_sets[28]: 1450  LLC: 2048
rand_sets[28]: 1450
Assign rand_sets[29]: 1160  LLC: 2048
rand_sets[29]: 1160
Assign rand_sets[30]: 1852  LLC: 2048
rand_sets[30]: 1852
Assign rand_sets[31]: 1881  LLC: 2048
rand_sets[31]: 1881
Assign rand_sets[32]: 1770  LLC: 2048
rand_sets[32]: 1770
Assign rand_sets[33]: 1622  LLC: 2048
rand_sets[33]: 1622
Assign rand_sets[34]: 275  LLC: 2048
rand_sets[34]: 275
Assign rand_sets[35]: 635  LLC: 2048
rand_sets[35]: 635
Assign rand_sets[36]: 466  LLC: 2048
rand_sets[36]: 466
Assign rand_sets[37]: 1413  LLC: 2048
rand_sets[37]: 1413
Assign rand_sets[38]: 417  LLC: 2048
rand_sets[38]: 417
Assign rand_sets[39]: 472  LLC: 2048
rand_sets[39]: 472
Assign rand_sets[40]: 1340  LLC: 2048
rand_sets[40]: 1340
Assign rand_sets[41]: 852  LLC: 2048
rand_sets[41]: 852
Assign rand_sets[42]: 1365  LLC: 2048
rand_sets[42]: 1365
Assign rand_sets[43]: 47  LLC: 2048
rand_sets[43]: 47
Assign rand_sets[44]: 823  LLC: 2048
rand_sets[44]: 823
Assign rand_sets[45]: 686  LLC: 2048
rand_sets[45]: 686
Assign rand_sets[46]: 1637  LLC: 2048
rand_sets[46]: 1637
Assign rand_sets[47]: 1115  LLC: 2048
rand_sets[47]: 1115
Assign rand_sets[48]: 986  LLC: 2048
rand_sets[48]: 986
Assign rand_sets[49]: 258  LLC: 2048
rand_sets[49]: 258
Assign rand_sets[50]: 633  LLC: 2048
rand_sets[50]: 633
Assign rand_sets[51]: 920  LLC: 2048
rand_sets[51]: 920
Assign rand_sets[52]: 204  LLC: 2048
rand_sets[52]: 204
Assign rand_sets[53]: 227  LLC: 2048
rand_sets[53]: 227
Assign rand_sets[54]: 1818  LLC: 2048
rand_sets[54]: 1818
Assign rand_sets[55]: 886  LLC: 2048
rand_sets[55]: 886
Assign rand_sets[56]: 1422  LLC: 2048
rand_sets[56]: 1422
Assign rand_sets[57]: 607  LLC: 2048
rand_sets[57]: 607
Assign rand_sets[58]: 217  LLC: 2048
rand_sets[58]: 217
Assign rand_sets[59]: 1945  LLC: 2048
rand_sets[59]: 1945
Assign rand_sets[60]: 143  LLC: 2048
rand_sets[60]: 143
Assign rand_sets[61]: 1311  LLC: 2048
rand_sets[61]: 1311
Assign rand_sets[62]: 319  LLC: 2048
rand_sets[62]: 319
Assign rand_sets[63]: 1846  LLC: 2048
rand_sets[63]: 1846
 CLEAN-RRIP-POLICY-1: 3-3-3-3-3-2-3-2- CLEAN-RRIP-POLICY-2: 3-3-3-3-3-2-3-2-
 DIRTY-RRIP-POLICY-1: 3-3-3-3-3-2-3-2- DIRTY-RRIP-POLICY-2: 3-3-3-3-3-2-3-2-
 PSEL width: 10
Heartbeat CPU 0 instructions: 10000000 cycles: 9924431 heartbeat IPC: 1.00761 cumulative IPC: 1.00761 (Simulation time: 0 hr 0 min 24 sec) 
Heartbeat CPU 0 instructions: 20000000 cycles: 19882207 heartbeat IPC: 1.00424 cumulative IPC: 1.00592 (Simulation time: 0 hr 0 min 49 sec) 
Heartbeat CPU 0 instructions: 30000002 cycles: 29871775 heartbeat IPC: 1.00104 cumulative IPC: 1.00429 (Simulation time: 0 hr 1 min 13 sec) 
Heartbeat CPU 0 instructions: 40000000 cycles: 38308760 heartbeat IPC: 1.18526 cumulative IPC: 1.04415 (Simulation time: 0 hr 1 min 37 sec) 
Heartbeat CPU 0 instructions: 50000000 cycles: 48436845 heartbeat IPC: 0.987354 cumulative IPC: 1.03227 (Simulation time: 0 hr 2 min 2 sec) 
Heartbeat CPU 0 instructions: 60000000 cycles: 58573010 heartbeat IPC: 0.986566 cumulative IPC: 1.02436 (Simulation time: 0 hr 2 min 27 sec) 
Heartbeat CPU 0 instructions: 70000000 cycles: 68002014 heartbeat IPC: 1.06056 cumulative IPC: 1.02938 (Simulation time: 0 hr 2 min 52 sec) 
Heartbeat CPU 0 instructions: 80000000 cycles: 76890188 heartbeat IPC: 1.12509 cumulative IPC: 1.04044 (Simulation time: 0 hr 3 min 16 sec) 
Heartbeat CPU 0 instructions: 90000001 cycles: 86480292 heartbeat IPC: 1.04274 cumulative IPC: 1.0407 (Simulation time: 0 hr 3 min 40 sec) 
Heartbeat CPU 0 instructions: 100000000 cycles: 96378475 heartbeat IPC: 1.01029 cumulative IPC: 1.03758 (Simulation time: 0 hr 4 min 5 sec) 

Warmup complete CPU 0 instructions: 100000001 cycles: 96378476 (Simulation time: 0 hr 4 min 5 sec) 

Heartbeat CPU 0 instructions: 110000003 cycles: 128080270 heartbeat IPC: 0.31544 cumulative IPC: 0.31544 (Simulation time: 0 hr 4 min 48 sec) 
Heartbeat CPU 0 instructions: 120000000 cycles: 159109810 heartbeat IPC: 0.322273 cumulative IPC: 0.31882 (Simulation time: 0 hr 5 min 30 sec) 
Heartbeat CPU 0 instructions: 130000000 cycles: 191473129 heartbeat IPC: 0.308992 cumulative IPC: 0.315475 (Simulation time: 0 hr 6 min 14 sec) 
Heartbeat CPU 0 instructions: 140000000 cycles: 223187125 heartbeat IPC: 0.315318 cumulative IPC: 0.315436 (Simulation time: 0 hr 6 min 57 sec) 
Heartbeat CPU 0 instructions: 150000001 cycles: 255268819 heartbeat IPC: 0.311704 cumulative IPC: 0.314682 (Simulation time: 0 hr 7 min 42 sec) 
Heartbeat CPU 0 instructions: 160000000 cycles: 286988627 heartbeat IPC: 0.31526 cumulative IPC: 0.314779 (Simulation time: 0 hr 8 min 25 sec) 
Heartbeat CPU 0 instructions: 170000000 cycles: 318182998 heartbeat IPC: 0.320571 cumulative IPC: 0.315593 (Simulation time: 0 hr 9 min 9 sec) 
Heartbeat CPU 0 instructions: 180000000 cycles: 350496646 heartbeat IPC: 0.309467 cumulative IPC: 0.314814 (Simulation time: 0 hr 9 min 53 sec) 
Heartbeat CPU 0 instructions: 190000000 cycles: 382661812 heartbeat IPC: 0.310895 cumulative IPC: 0.314374 (Simulation time: 0 hr 10 min 36 sec) 
Heartbeat CPU 0 instructions: 200000000 cycles: 415204257 heartbeat IPC: 0.307291 cumulative IPC: 0.313651 (Simulation time: 0 hr 11 min 20 sec) 
Heartbeat CPU 0 instructions: 210000003 cycles: 447338703 heartbeat IPC: 0.311193 cumulative IPC: 0.313426 (Simulation time: 0 hr 12 min 1 sec) 
Heartbeat CPU 0 instructions: 220000000 cycles: 479783270 heartbeat IPC: 0.308218 cumulative IPC: 0.312985 (Simulation time: 0 hr 12 min 43 sec) 
Heartbeat CPU 0 instructions: 230000000 cycles: 511476152 heartbeat IPC: 0.315528 cumulative IPC: 0.313179 (Simulation time: 0 hr 13 min 23 sec) 
Heartbeat CPU 0 instructions: 240000000 cycles: 543350180 heartbeat IPC: 0.313735 cumulative IPC: 0.313219 (Simulation time: 0 hr 14 min 2 sec) 
*** Reached end of trace for Core: 0 Repeating trace: /mnt/beegfs/pchatz06/selected_traces/502.gcc_r.refrate.input5.region_1.w_0.1846_0.2004.trace.gz
Heartbeat CPU 0 instructions: 250000000 cycles: 574828477 heartbeat IPC: 0.317679 cumulative IPC: 0.313512 (Simulation time: 0 hr 14 min 41 sec) 
Finished CPU 0 instructions: 150000000 cycles: 478450002 cumulative IPC: 0.313512 (Simulation time: 0 hr 14 min 41 sec) 

CPU 0 Branch Prediction Accuracy: 95.3446% MPKI: 6.62327
Number of Branches: 21340641 Number of Mispredictions: 993490
Number of LOAD Instructions: 44912077
Number of LOAD Instructions (ROI): 44912077
Number of STORE Instructions: 97203444
Number of STORE Instructions (ROI): 97203444
Total Destination Memory Operands: 98299742
Total Destination Memory Operands (ROI): 98299742
Total Source Memory Operands: 44912221
Total Source Memory Operands (ROI): 44912221
Number of DEPENDED LOADS: 998233
Number of DEPENDED LOADS (ROI): 998233
Number of SQ_ADDED: 98299646
Number of SQ_ADDED (ROI): 98299646
Number of LQ_ADDED: 52730552
Number of LQ_ADDED (ROI): 52730552
Number of Instructions read from trace: 250000256

ChampSim completed all CPUs

Region of Interest Statistics

CPU 0 cumulative IPC: 0.313512 instructions: 150000000 cycles: 478450002
ITLB TOTAL     ACCESS:   38311967  HIT:   38258349  MISS:      53618
ITLB LOAD      ACCESS:   38311967  HIT:   38258349  MISS:      53618
ITLB RFO       ACCESS:          0  HIT:          0  MISS:          0
ITLB PREFETCH  ACCESS:          0  HIT:          0  MISS:          0
ITLB WRITEBACK ACCESS:          0  HIT:          0  MISS:          0
ITLB PREFETCH  REQUESTED:          0  ISSUED:          0  USEFUL:          0  USELESS:          0
ITLB TOTAL MSHR MERGED:      67552
ITLB LOAD MSHR MERGED:      67552
ITLB RFO MSHR MERGED:          0
ITLB PREFETCH MSHR MERGED:          0
ITLB WRITEBACK MSHR MERGED:          0
ITLB TOTAL ACCESSES:   38379519 HITS:   38258349 MISSES:     121170
ITLB LOAD ACCESSES:   38379519 HITS:   38258349 MISSES:     121170
ITLB RFO ACCESSES:          0 HITS:          0 MISSES:          0
ITLB PREFETCH ACCESSES:          0 HITS:          0 MISSES:          0
ITLB WRITEBACK ACCESSES:          0 HITS:          0 MISSES:          0
ITLB RQ ACCESS:  150000144
ITLB RQ TO_CACHE:   38379520
ITLB RQ MERGED:  111620624
ITLB RQ FORWARD:          0
ITLB WQ ACCESS:          0
ITLB WQ TO_CACHE:          0
ITLB WQ MERGED:          0
ITLB WQ FORWARD:          0
DTLB TOTAL     ACCESS:   49924579  HIT:   49467960  MISS:     456619
DTLB LOAD      ACCESS:   16112085  HIT:   15847406  MISS:     264679
DTLB RFO       ACCESS:   33812494  HIT:   33620554  MISS:     191940
DTLB PREFETCH  ACCESS:          0  HIT:          0  MISS:          0
DTLB WRITEBACK ACCESS:          0  HIT:          0  MISS:          0
DTLB PREFETCH  REQUESTED:          0  ISSUED:          0  USEFUL:          0  USELESS:          0
DTLB TOTAL MSHR MERGED:     473402
DTLB LOAD MSHR MERGED:      20528
DTLB RFO MSHR MERGED:     452874
DTLB PREFETCH MSHR MERGED:          0
DTLB WRITEBACK MSHR MERGED:          0
DTLB TOTAL ACCESSES:   50397981 HITS:   49467960 MISSES:     930021
DTLB LOAD ACCESSES:   16132613 HITS:   15847406 MISSES:     285207
DTLB RFO ACCESSES:   34265368 HITS:   33620554 MISSES:     644814
DTLB PREFETCH ACCESSES:          0 HITS:          0 MISSES:          0
DTLB WRITEBACK ACCESSES:          0 HITS:          0 MISSES:          0
DTLB RQ ACCESS:   84785645
DTLB RQ TO_CACHE:   50397981
DTLB RQ MERGED:   34387664
DTLB RQ FORWARD:          0
DTLB WQ ACCESS:          0
DTLB WQ TO_CACHE:          0
DTLB WQ MERGED:          0
DTLB WQ FORWARD:          0
L1D TOTAL     ACCESS:   56459982  HIT:   42534945  MISS:   13925037
L1D LOAD      ACCESS:   17158677  HIT:   15245888  MISS:    1912789
L1D RFO       ACCESS:   24184185  HIT:   12991221  MISS:   11192964
L1D PREFETCH  ACCESS:   15117120  HIT:   14297836  MISS:     819284
L1D WRITEBACK ACCESS:          0  HIT:          0  MISS:          0
L1D PREFETCH  REQUESTED:   17194885  ISSUED:   17064227  USEFUL:     376082  USELESS:     443355
L1D TOTAL MSHR MERGED:   36510462
L1D LOAD MSHR MERGED:     356531
L1D RFO MSHR MERGED:   35208621
L1D PREFETCH MSHR MERGED:     945310
L1D WRITEBACK MSHR MERGED:          0
L1D TOTAL ACCESSES:   92973396 HITS:   42537894 MISSES:   50435502
L1D LOAD ACCESSES:   17195235 HITS:   15246238 MISSES:    1948997
L1D RFO ACCESSES:   59391291 HITS:   12991221 MISSES:   46400070
L1D PREFETCH ACCESSES:   16386870 HITS:   14300435 MISSES:    2086435
L1D WRITEBACK ACCESSES:          0 HITS:          0 MISSES:          0
L1D RQ ACCESS:   25345638
L1D RQ TO_CACHE:   17194885
L1D RQ MERGED:    8150403
L1D RQ FORWARD:          0
L1D WQ ACCESS:   59439968
L1D WQ TO_CACHE:   59391293
L1D WQ MERGED:      48675
L1D WQ FORWARD:       2949
L1I TOTAL     ACCESS:   51866073  HIT:   50539436  MISS:    1326637
L1I LOAD      ACCESS:   51866073  HIT:   50539436  MISS:    1326637
L1I RFO       ACCESS:          0  HIT:          0  MISS:          0
L1I PREFETCH  ACCESS:          0  HIT:          0  MISS:          0
L1I WRITEBACK ACCESS:          0  HIT:          0  MISS:          0
L1I PREFETCH  REQUESTED:          0  ISSUED:          0  USEFUL:          0  USELESS:          0
L1I TOTAL MSHR MERGED:     831332
L1I LOAD MSHR MERGED:     831332
L1I RFO MSHR MERGED:          0
L1I PREFETCH MSHR MERGED:          0
L1I WRITEBACK MSHR MERGED:          0
L1I TOTAL ACCESSES:   52697405 HITS:   50539436 MISSES:    2157969
L1I LOAD ACCESSES:   52697405 HITS:   50539436 MISSES:    2157969
L1I RFO ACCESSES:          0 HITS:          0 MISSES:          0
L1I PREFETCH ACCESSES:          0 HITS:          0 MISSES:          0
L1I WRITEBACK ACCESSES:          0 HITS:          0 MISSES:          0
L1I RQ ACCESS:  150000147
L1I RQ TO_CACHE:   52697406
L1I RQ MERGED:   97302741
L1I RQ FORWARD:          0
L1I WQ ACCESS:          0
L1I WQ TO_CACHE:          0
L1I WQ MERGED:          0
L1I WQ FORWARD:          0
L2C TOTAL     ACCESS:   28513230  HIT:   14487999  MISS:   14025231
L2C LOAD      ACCESS:    2919052  HIT:    1542654  MISS:    1376398
L2C RFO       ACCESS:   11191406  HIT:      33730  MISS:   11157676
L2C PREFETCH  ACCESS:    2379298  HIT:     889924  MISS:    1489374
L2C WRITEBACK ACCESS:   12023474  HIT:   12021691  MISS:       1783
L2C PREFETCH  REQUESTED:    2191183  ISSUED:    2191183  USEFUL:     643617  USELESS:     845656
L2C TOTAL MSHR MERGED:     378470
L2C LOAD MSHR MERGED:     100778
L2C RFO MSHR MERGED:          0
L2C PREFETCH MSHR MERGED:     277692
L2C WRITEBACK MSHR MERGED:          0
L2C TOTAL ACCESSES:   28944901 HITS:   14488105 MISSES:   14456796
L2C LOAD ACCESSES:    2919103 HITS:    1542705 MISSES:    1376398
L2C RFO ACCESSES:   11191449 HITS:      33770 MISSES:   11157679
L2C PREFETCH ACCESSES:    2810875 HITS:     889939 MISSES:    1920936
L2C WRITEBACK ACCESSES:   12023474 HITS:   12021691 MISSES:       1783
L2C RQ ACCESS:   14110552
L2C RQ TO_CACHE:   14110461
L2C RQ MERGED:          0
L2C RQ FORWARD:          0
L2C WQ ACCESS:   12023474
L2C WQ TO_CACHE:   12023474
L2C WQ MERGED:          0
L2C WQ FORWARD:        106
LLC TOTAL     ACCESS:   25953117  HIT:   14596981  MISS:   11356136
LLC LOAD      ACCESS:    1275620  HIT:     886581  MISS:     389039
LLC RFO       ACCESS:   11157676  HIT:    6099811  MISS:    5057865
LLC PREFETCH  ACCESS:    1631987  HIT:    1078050  MISS:     553937
LLC WRITEBACK ACCESS:   11887834  HIT:    6532539  MISS:    5355295
LLC PREFETCH  REQUESTED:          0  ISSUED:          0  USEFUL:       6408  USELESS:     547161
LLC TOTAL MSHR MERGED:       6529
LLC LOAD MSHR MERGED:        691
LLC RFO MSHR MERGED:          0
LLC PREFETCH MSHR MERGED:       5838
LLC WRITEBACK MSHR MERGED:          0
LLC TOTAL ACCESSES:   25959647 HITS:   14596981 MISSES:   11362666
LLC LOAD ACCESSES:    1275620 HITS:     886581 MISSES:     389039
LLC RFO ACCESSES:   11157677 HITS:    6099811 MISSES:    5057866
LLC PREFETCH ACCESSES:    1638516 HITS:    1078050 MISSES:     560466
LLC WRITEBACK ACCESSES:   11887834 HITS:    6532539 MISSES:    5355295
LLC 0 RQ ACCESS:   12433299
LLC 0 RQ TO_CACHE:   12433299
LLC 0 RQ MERGED:          0
LLC 0 RQ FORWARD:          0
LLC WQ ACCESS:   11887834
LLC WQ TO_CACHE:   11887834
LLC WQ MERGED:          0
LLC WQ FORWARD:          0
Major fault: 0 Minor fault: 4359
CPU 0 L1D next line prefetcher final stats
CPU 0 L2C PC-based stride prefetcher final stats
All Misses: 17918968
All Hits: 24671656
SD Algo Stats - Switches: 0 SRR-Repls: 642535 BRR-Repls: 0

DRAM Statistics
 CHANNEL 0
 RQ ROW_BUFFER_HIT:    4036922  ROW_BUFFER_MISS:    1963803
 DBUS_CONGESTED:    9150623
 WQ ROW_BUFFER_HIT:    3026632  ROW_BUFFER_MISS:    2410034  FULL:     187814

 AVG_CONGESTED_CYCLE: 14
LOADS RETIRED: 25942871
INSTR RETIRED: 150000000
