
*** ChampSim Multicore Out-of-Order Simulator ***

Warmup Instructions: 100000000
Simulation Instructions: 150000000
Number of CPUs: 1
LLC sets: 2048
LLC ways: 16
Clean RRIP Policies: 3333323233333232 Dirty RRIP Policies: 3333323233333232 PSEL Width: 10 Track Set: 4294967295 PSEL Mask: 1 Demote Mask: 4044404440444044DS Algo: 0Window size: 0
Off-chip DRAM Size: 4096 MB Channels: 1 Width: 64-bit Data Rate: 1600 MT/s

CPU 0 runs /mnt/beegfs/pchatz06/selected_traces/502.gcc_r.train.input3.region_1.w_0.1142_0.1211.trace.gz
NOT SORTED
TRACE STRING: /mnt/beegfs/pchatz06/selected_traces/502.gcc_r.train.input3.region_1.w_0.1142_0.1211.trace.gz
SORTED
TRACE STRING: /mnt/beegfs/pchatz06/selected_traces/502.gcc_r.train.input3.region_1.w_0.1142_0.1211.trace.gz
INITIAL
TRACE STRING: /mnt/beegfs/pchatz06/selected_traces/502.gcc_r.train.input3.region_1.w_0.1142_0.1211.trace.gz

champsim_seed used: 197

CPU 0 L1D next line prefetcher
CPU 0 L2C IP-based stride prefetcher
Initialize DRRIP state
Assign rand_sets[0]: 454  LLC: 2048
rand_sets[0]: 454
Assign rand_sets[1]: 1662  LLC: 2048
rand_sets[1]: 1662
Assign rand_sets[2]: 1921  LLC: 2048
rand_sets[2]: 1921
Assign rand_sets[3]: 1131  LLC: 2048
rand_sets[3]: 1131
Assign rand_sets[4]: 331  LLC: 2048
rand_sets[4]: 331
Assign rand_sets[5]: 1531  LLC: 2048
rand_sets[5]: 1531
Assign rand_sets[6]: 482  LLC: 2048
rand_sets[6]: 482
Assign rand_sets[7]: 1275  LLC: 2048
rand_sets[7]: 1275
Assign rand_sets[8]: 1876  LLC: 2048
rand_sets[8]: 1876
Assign rand_sets[9]: 2038  LLC: 2048
rand_sets[9]: 2038
Assign rand_sets[10]: 701  LLC: 2048
rand_sets[10]: 701
Assign rand_sets[11]: 479  LLC: 2048
rand_sets[11]: 479
Assign rand_sets[12]: 892  LLC: 2048
rand_sets[12]: 892
Assign rand_sets[13]: 1820  LLC: 2048
rand_sets[13]: 1820
Assign rand_sets[14]: 1505  LLC: 2048
rand_sets[14]: 1505
Assign rand_sets[15]: 1159  LLC: 2048
rand_sets[15]: 1159
Assign rand_sets[16]: 513  LLC: 2048
rand_sets[16]: 513
Assign rand_sets[17]: 703  LLC: 2048
rand_sets[17]: 703
Assign rand_sets[18]: 561  LLC: 2048
rand_sets[18]: 561
Assign rand_sets[19]: 990  LLC: 2048
rand_sets[19]: 990
Assign rand_sets[20]: 342  LLC: 2048
rand_sets[20]: 342
Assign rand_sets[21]: 882  LLC: 2048
rand_sets[21]: 882
Assign rand_sets[22]: 15  LLC: 2048
rand_sets[22]: 15
Assign rand_sets[23]: 71  LLC: 2048
rand_sets[23]: 71
Assign rand_sets[24]: 1127  LLC: 2048
rand_sets[24]: 1127
Assign rand_sets[25]: 1382  LLC: 2048
rand_sets[25]: 1382
Assign rand_sets[26]: 647  LLC: 2048
rand_sets[26]: 647
Assign rand_sets[27]: 857  LLC: 2048
rand_sets[27]: 857
Assign rand_sets[28]: 1450  LLC: 2048
rand_sets[28]: 1450
Assign rand_sets[29]: 1160  LLC: 2048
rand_sets[29]: 1160
Assign rand_sets[30]: 1852  LLC: 2048
rand_sets[30]: 1852
Assign rand_sets[31]: 1881  LLC: 2048
rand_sets[31]: 1881
Assign rand_sets[32]: 1770  LLC: 2048
rand_sets[32]: 1770
Assign rand_sets[33]: 1622  LLC: 2048
rand_sets[33]: 1622
Assign rand_sets[34]: 275  LLC: 2048
rand_sets[34]: 275
Assign rand_sets[35]: 635  LLC: 2048
rand_sets[35]: 635
Assign rand_sets[36]: 466  LLC: 2048
rand_sets[36]: 466
Assign rand_sets[37]: 1413  LLC: 2048
rand_sets[37]: 1413
Assign rand_sets[38]: 417  LLC: 2048
rand_sets[38]: 417
Assign rand_sets[39]: 472  LLC: 2048
rand_sets[39]: 472
Assign rand_sets[40]: 1340  LLC: 2048
rand_sets[40]: 1340
Assign rand_sets[41]: 852  LLC: 2048
rand_sets[41]: 852
Assign rand_sets[42]: 1365  LLC: 2048
rand_sets[42]: 1365
Assign rand_sets[43]: 47  LLC: 2048
rand_sets[43]: 47
Assign rand_sets[44]: 823  LLC: 2048
rand_sets[44]: 823
Assign rand_sets[45]: 686  LLC: 2048
rand_sets[45]: 686
Assign rand_sets[46]: 1637  LLC: 2048
rand_sets[46]: 1637
Assign rand_sets[47]: 1115  LLC: 2048
rand_sets[47]: 1115
Assign rand_sets[48]: 986  LLC: 2048
rand_sets[48]: 986
Assign rand_sets[49]: 258  LLC: 2048
rand_sets[49]: 258
Assign rand_sets[50]: 633  LLC: 2048
rand_sets[50]: 633
Assign rand_sets[51]: 920  LLC: 2048
rand_sets[51]: 920
Assign rand_sets[52]: 204  LLC: 2048
rand_sets[52]: 204
Assign rand_sets[53]: 227  LLC: 2048
rand_sets[53]: 227
Assign rand_sets[54]: 1818  LLC: 2048
rand_sets[54]: 1818
Assign rand_sets[55]: 886  LLC: 2048
rand_sets[55]: 886
Assign rand_sets[56]: 1422  LLC: 2048
rand_sets[56]: 1422
Assign rand_sets[57]: 607  LLC: 2048
rand_sets[57]: 607
Assign rand_sets[58]: 217  LLC: 2048
rand_sets[58]: 217
Assign rand_sets[59]: 1945  LLC: 2048
rand_sets[59]: 1945
Assign rand_sets[60]: 143  LLC: 2048
rand_sets[60]: 143
Assign rand_sets[61]: 1311  LLC: 2048
rand_sets[61]: 1311
Assign rand_sets[62]: 319  LLC: 2048
rand_sets[62]: 319
Assign rand_sets[63]: 1846  LLC: 2048
rand_sets[63]: 1846
 CLEAN-RRIP-POLICY-1: 3-3-3-3-3-2-3-2- CLEAN-RRIP-POLICY-2: 3-3-3-3-3-2-3-2-
 DIRTY-RRIP-POLICY-1: 3-3-3-3-3-2-3-2- DIRTY-RRIP-POLICY-2: 3-3-3-3-3-2-3-2-
 PSEL width: 10
Heartbeat CPU 0 instructions: 10000002 cycles: 5663299 heartbeat IPC: 1.76576 cumulative IPC: 1.76576 (Simulation time: 0 hr 0 min 16 sec) 
Heartbeat CPU 0 instructions: 20000000 cycles: 11897768 heartbeat IPC: 1.60399 cumulative IPC: 1.68099 (Simulation time: 0 hr 0 min 32 sec) 
Heartbeat CPU 0 instructions: 30000000 cycles: 18696481 heartbeat IPC: 1.47087 cumulative IPC: 1.60458 (Simulation time: 0 hr 0 min 49 sec) 
Heartbeat CPU 0 instructions: 40000000 cycles: 24336426 heartbeat IPC: 1.77307 cumulative IPC: 1.64363 (Simulation time: 0 hr 1 min 4 sec) 
Heartbeat CPU 0 instructions: 50000000 cycles: 30597974 heartbeat IPC: 1.59705 cumulative IPC: 1.6341 (Simulation time: 0 hr 1 min 20 sec) 
Heartbeat CPU 0 instructions: 60000000 cycles: 36781107 heartbeat IPC: 1.6173 cumulative IPC: 1.63127 (Simulation time: 0 hr 1 min 37 sec) 
Heartbeat CPU 0 instructions: 70000001 cycles: 43076492 heartbeat IPC: 1.58847 cumulative IPC: 1.62502 (Simulation time: 0 hr 1 min 53 sec) 
Heartbeat CPU 0 instructions: 80000000 cycles: 49210116 heartbeat IPC: 1.63036 cumulative IPC: 1.62568 (Simulation time: 0 hr 2 min 10 sec) 
Heartbeat CPU 0 instructions: 90000003 cycles: 55667095 heartbeat IPC: 1.54871 cumulative IPC: 1.61675 (Simulation time: 0 hr 2 min 27 sec) 
Heartbeat CPU 0 instructions: 100000000 cycles: 61719799 heartbeat IPC: 1.65215 cumulative IPC: 1.62023 (Simulation time: 0 hr 2 min 44 sec) 

Warmup complete CPU 0 instructions: 100000001 cycles: 61719802 (Simulation time: 0 hr 2 min 44 sec) 

Heartbeat CPU 0 instructions: 110000000 cycles: 81756668 heartbeat IPC: 0.49908 cumulative IPC: 0.49908 (Simulation time: 0 hr 3 min 8 sec) 
Heartbeat CPU 0 instructions: 120000000 cycles: 100978407 heartbeat IPC: 0.520244 cumulative IPC: 0.509442 (Simulation time: 0 hr 3 min 32 sec) 
Heartbeat CPU 0 instructions: 130000001 cycles: 123709273 heartbeat IPC: 0.43993 cumulative IPC: 0.483953 (Simulation time: 0 hr 3 min 59 sec) 
Heartbeat CPU 0 instructions: 140000000 cycles: 146070572 heartbeat IPC: 0.447201 cumulative IPC: 0.47421 (Simulation time: 0 hr 4 min 27 sec) 
Heartbeat CPU 0 instructions: 150000003 cycles: 173154103 heartbeat IPC: 0.369228 cumulative IPC: 0.448695 (Simulation time: 0 hr 4 min 58 sec) 
Heartbeat CPU 0 instructions: 160000000 cycles: 197866373 heartbeat IPC: 0.404657 cumulative IPC: 0.440702 (Simulation time: 0 hr 5 min 27 sec) 
Heartbeat CPU 0 instructions: 170000001 cycles: 223586480 heartbeat IPC: 0.388801 cumulative IPC: 0.432455 (Simulation time: 0 hr 5 min 57 sec) 
Heartbeat CPU 0 instructions: 180000000 cycles: 248817095 heartbeat IPC: 0.396344 cumulative IPC: 0.427585 (Simulation time: 0 hr 6 min 27 sec) 
Heartbeat CPU 0 instructions: 190000000 cycles: 276253179 heartbeat IPC: 0.364484 cumulative IPC: 0.419515 (Simulation time: 0 hr 6 min 59 sec) 
Heartbeat CPU 0 instructions: 200000000 cycles: 306664524 heartbeat IPC: 0.328825 cumulative IPC: 0.408255 (Simulation time: 0 hr 7 min 33 sec) 
Heartbeat CPU 0 instructions: 210000001 cycles: 336550003 heartbeat IPC: 0.334611 cumulative IPC: 0.400247 (Simulation time: 0 hr 8 min 7 sec) 
Heartbeat CPU 0 instructions: 220000000 cycles: 369897084 heartbeat IPC: 0.299876 cumulative IPC: 0.389386 (Simulation time: 0 hr 8 min 42 sec) 
Heartbeat CPU 0 instructions: 230000000 cycles: 399831675 heartbeat IPC: 0.334062 cumulative IPC: 0.384488 (Simulation time: 0 hr 9 min 16 sec) 
Heartbeat CPU 0 instructions: 240000000 cycles: 428190461 heartbeat IPC: 0.352624 cumulative IPC: 0.382022 (Simulation time: 0 hr 9 min 49 sec) 
*** Reached end of trace for Core: 0 Repeating trace: /mnt/beegfs/pchatz06/selected_traces/502.gcc_r.train.input3.region_1.w_0.1142_0.1211.trace.gz
Heartbeat CPU 0 instructions: 250000001 cycles: 459046380 heartbeat IPC: 0.324087 cumulative IPC: 0.377523 (Simulation time: 0 hr 10 min 24 sec) 
Finished CPU 0 instructions: 150000000 cycles: 397326578 cumulative IPC: 0.377523 (Simulation time: 0 hr 10 min 24 sec) 

CPU 0 Branch Prediction Accuracy: 96.8378% MPKI: 5.84174
Number of Branches: 27710677 Number of Mispredictions: 876261
Number of LOAD Instructions: 69089703
Number of LOAD Instructions (ROI): 69089703
Number of STORE Instructions: 32139800
Number of STORE Instructions (ROI): 32139800
Total Destination Memory Operands: 34170936
Total Destination Memory Operands (ROI): 34170936
Total Source Memory Operands: 69110251
Total Source Memory Operands (ROI): 69110251
Number of DEPENDED LOADS: 2854348
Number of DEPENDED LOADS (ROI): 2854348
Number of SQ_ADDED: 34170933
Number of SQ_ADDED (ROI): 34170933
Number of LQ_ADDED: 96225851
Number of LQ_ADDED (ROI): 96225851
Number of Instructions read from trace: 250000012

ChampSim completed all CPUs

Region of Interest Statistics

CPU 0 cumulative IPC: 0.377523 instructions: 150000000 cycles: 397326578
ITLB TOTAL     ACCESS:   39860392  HIT:   39832043  MISS:      28349
ITLB LOAD      ACCESS:   39860392  HIT:   39832043  MISS:      28349
ITLB RFO       ACCESS:          0  HIT:          0  MISS:          0
ITLB PREFETCH  ACCESS:          0  HIT:          0  MISS:          0
ITLB WRITEBACK ACCESS:          0  HIT:          0  MISS:          0
ITLB PREFETCH  REQUESTED:          0  ISSUED:          0  USEFUL:          0  USELESS:          0
ITLB TOTAL MSHR MERGED:      33729
ITLB LOAD MSHR MERGED:      33729
ITLB RFO MSHR MERGED:          0
ITLB PREFETCH MSHR MERGED:          0
ITLB WRITEBACK MSHR MERGED:          0
ITLB TOTAL ACCESSES:   39894121 HITS:   39832043 MISSES:      62078
ITLB LOAD ACCESSES:   39894121 HITS:   39832043 MISSES:      62078
ITLB RFO ACCESSES:          0 HITS:          0 MISSES:          0
ITLB PREFETCH ACCESSES:          0 HITS:          0 MISSES:          0
ITLB WRITEBACK ACCESSES:          0 HITS:          0 MISSES:          0
ITLB RQ ACCESS:  149999943
ITLB RQ TO_CACHE:   39894121
ITLB RQ MERGED:  110105822
ITLB RQ FORWARD:          0
ITLB WQ ACCESS:          0
ITLB WQ TO_CACHE:          0
ITLB WQ MERGED:          0
ITLB WQ FORWARD:          0
DTLB TOTAL     ACCESS:   49112965  HIT:   48910558  MISS:     202407
DTLB LOAD      ACCESS:   30955943  HIT:   30768168  MISS:     187775
DTLB RFO       ACCESS:   18157022  HIT:   18142390  MISS:      14632
DTLB PREFETCH  ACCESS:          0  HIT:          0  MISS:          0
DTLB WRITEBACK ACCESS:          0  HIT:          0  MISS:          0
DTLB PREFETCH  REQUESTED:          0  ISSUED:          0  USEFUL:          0  USELESS:          0
DTLB TOTAL MSHR MERGED:      30223
DTLB LOAD MSHR MERGED:      25605
DTLB RFO MSHR MERGED:       4618
DTLB PREFETCH MSHR MERGED:          0
DTLB WRITEBACK MSHR MERGED:          0
DTLB TOTAL ACCESSES:   49143188 HITS:   48910558 MISSES:     232630
DTLB LOAD ACCESSES:   30981548 HITS:   30768168 MISSES:     213380
DTLB RFO ACCESSES:   18161640 HITS:   18142390 MISSES:      19250
DTLB PREFETCH ACCESSES:          0 HITS:          0 MISSES:          0
DTLB WRITEBACK ACCESSES:          0 HITS:          0 MISSES:          0
DTLB RQ ACCESS:   60566245
DTLB RQ TO_CACHE:   49143188
DTLB RQ MERGED:   11423057
DTLB RQ FORWARD:          0
DTLB WQ ACCESS:          0
DTLB WQ TO_CACHE:          0
DTLB WQ MERGED:          0
DTLB WQ FORWARD:          0
L1D TOTAL     ACCESS:   83077698  HIT:   80004263  MISS:    3073435
L1D LOAD      ACCESS:   32070379  HIT:   30734990  MISS:    1335389
L1D RFO       ACCESS:   20356317  HIT:   20191835  MISS:     164482
L1D PREFETCH  ACCESS:   30651002  HIT:   29077438  MISS:    1573564
L1D WRITEBACK ACCESS:          0  HIT:          0  MISS:          0
L1D PREFETCH  REQUESTED:   32173230  ISSUED:   31928333  USEFUL:     869270  USELESS:     704273
L1D TOTAL MSHR MERGED:    1000808
L1D LOAD MSHR MERGED:     190608
L1D RFO MSHR MERGED:     344029
L1D PREFETCH MSHR MERGED:     466171
L1D WRITEBACK MSHR MERGED:          0
L1D TOTAL ACCESSES:   84098336 HITS:   80024090 MISSES:    4074246
L1D LOAD ACCESSES:   32173362 HITS:   30735122 MISSES:    1438240
L1D RFO ACCESSES:   20686610 HITS:   20191835 MISSES:     494775
L1D PREFETCH ACCESSES:   31238364 HITS:   29097133 MISSES:    2141231
L1D WRITEBACK ACCESSES:          0 HITS:          0 MISSES:          0
L1D RQ ACCESS:   39673103
L1D RQ TO_CACHE:   32173230
L1D RQ MERGED:    7499741
L1D RQ FORWARD:          0
L1D WQ ACCESS:   20893144
L1D WQ TO_CACHE:   20686611
L1D WQ MERGED:     206533
L1D WQ FORWARD:      19827
L1I TOTAL     ACCESS:   47057888  HIT:   46484410  MISS:     573478
L1I LOAD      ACCESS:   47057888  HIT:   46484410  MISS:     573478
L1I RFO       ACCESS:          0  HIT:          0  MISS:          0
L1I PREFETCH  ACCESS:          0  HIT:          0  MISS:          0
L1I WRITEBACK ACCESS:          0  HIT:          0  MISS:          0
L1I PREFETCH  REQUESTED:          0  ISSUED:          0  USEFUL:          0  USELESS:          0
L1I TOTAL MSHR MERGED:     342200
L1I LOAD MSHR MERGED:     342200
L1I RFO MSHR MERGED:          0
L1I PREFETCH MSHR MERGED:          0
L1I WRITEBACK MSHR MERGED:          0
L1I TOTAL ACCESSES:   47400088 HITS:   46484410 MISSES:     915678
L1I LOAD ACCESSES:   47400088 HITS:   46484410 MISSES:     915678
L1I RFO ACCESSES:          0 HITS:          0 MISSES:          0
L1I PREFETCH ACCESSES:          0 HITS:          0 MISSES:          0
L1I WRITEBACK ACCESSES:          0 HITS:          0 MISSES:          0
L1I RQ ACCESS:  149999950
L1I RQ TO_CACHE:   47400088
L1I RQ MERGED:  102599862
L1I RQ FORWARD:          0
L1I WQ ACCESS:          0
L1I WQ TO_CACHE:          0
L1I WQ MERGED:          0
L1I WQ FORWARD:          0
L2C TOTAL     ACCESS:    4577006  HIT:    2358705  MISS:    2218301
L2C LOAD      ACCESS:    1821082  HIT:    1033680  MISS:     787402
L2C RFO       ACCESS:     150723  HIT:      61281  MISS:      89442
L2C PREFETCH  ACCESS:    2008506  HIT:     670037  MISS:    1338469
L2C WRITEBACK ACCESS:     596695  HIT:     593707  MISS:       2988
L2C PREFETCH  REQUESTED:     355709  ISSUED:     355709  USEFUL:     181386  USELESS:    1157243
L2C TOTAL MSHR MERGED:      10918
L2C LOAD MSHR MERGED:       1992
L2C RFO MSHR MERGED:          3
L2C PREFETCH MSHR MERGED:       8923
L2C WRITEBACK MSHR MERGED:          0
L2C TOTAL ACCESSES:    4589335 HITS:    2358778 MISSES:    2230557
L2C LOAD ACCESSES:    1821110 HITS:    1033707 MISSES:     787403
L2C RFO ACCESSES:     150746 HITS:      61304 MISSES:      89442
L2C PREFETCH ACCESSES:    2020784 HITS:     670060 MISSES:    1350724
L2C WRITEBACK ACCESSES:     596695 HITS:     593707 MISSES:       2988
L2C RQ ACCESS:    1971856
L2C RQ TO_CACHE:    1971806
L2C RQ MERGED:          0
L2C RQ FORWARD:          0
L2C WQ ACCESS:     596695
L2C WQ TO_CACHE:     596695
L2C WQ MERGED:          0
L2C WQ FORWARD:         73
LLC TOTAL     ACCESS:    2664174  HIT:    2070229  MISS:     593945
LLC LOAD      ACCESS:     785405  HIT:     653432  MISS:     131973
LLC RFO       ACCESS:      89436  HIT:      41560  MISS:      47876
LLC PREFETCH  ACCESS:    1341587  HIT:     985225  MISS:     356362
LLC WRITEBACK ACCESS:     447746  HIT:     390012  MISS:      57734
LLC PREFETCH  REQUESTED:          0  ISSUED:          0  USEFUL:      24188  USELESS:     331164
LLC TOTAL MSHR MERGED:        147
LLC LOAD MSHR MERGED:         50
LLC RFO MSHR MERGED:          0
LLC PREFETCH MSHR MERGED:         97
LLC WRITEBACK MSHR MERGED:          0
LLC TOTAL ACCESSES:    2664337 HITS:    2070241 MISSES:     594096
LLC LOAD ACCESSES:     785412 HITS:     653437 MISSES:     131975
LLC RFO ACCESSES:      89439 HITS:      41563 MISSES:      47876
LLC PREFETCH ACCESSES:    1341740 HITS:     985229 MISSES:     356511
LLC WRITEBACK ACCESSES:     447746 HITS:     390012 MISSES:      57734
LLC 0 RQ ACCESS:     874850
LLC 0 RQ TO_CACHE:     874842
LLC 0 RQ MERGED:          0
LLC 0 RQ FORWARD:          0
LLC WQ ACCESS:     447746
LLC WQ TO_CACHE:     447746
LLC WQ MERGED:          0
LLC WQ FORWARD:         12
Major fault: 0 Minor fault: 6015
CPU 0 L1D next line prefetcher final stats
CPU 0 L2C PC-based stride prefetcher final stats
All Misses: 1089129
All Hits: 3723861
SD Algo Stats - Switches: 0 SRR-Repls: 225767 BRR-Repls: 0

DRAM Statistics
 CHANNEL 0
 RQ ROW_BUFFER_HIT:     220247  ROW_BUFFER_MISS:     315337
 DBUS_CONGESTED:     259548
 WQ ROW_BUFFER_HIT:      16789  ROW_BUFFER_MISS:     144216  FULL:          0

 AVG_CONGESTED_CYCLE: 13
LOADS RETIRED: 41411250
INSTR RETIRED: 150000000
