
*** ChampSim Multicore Out-of-Order Simulator ***

Warmup Instructions: 100000000
Simulation Instructions: 150000000
Number of CPUs: 1
LLC sets: 2048
LLC ways: 16
Clean RRIP Policies: 3333323233333232 Dirty RRIP Policies: 3333323233333232 PSEL Width: 10 Track Set: 4294967295 PSEL Mask: 1 Demote Mask: 4044404440444044DS Algo: 0Window size: 0
Off-chip DRAM Size: 4096 MB Channels: 1 Width: 64-bit Data Rate: 1600 MT/s

CPU 0 runs /mnt/beegfs/pchatz06/selected_traces/505.mcf_r.refrate.input1.region_11.w_0.2377_0.2593.trace.gz
NOT SORTED
TRACE STRING: /mnt/beegfs/pchatz06/selected_traces/505.mcf_r.refrate.input1.region_11.w_0.2377_0.2593.trace.gz
SORTED
TRACE STRING: /mnt/beegfs/pchatz06/selected_traces/505.mcf_r.refrate.input1.region_11.w_0.2377_0.2593.trace.gz
INITIAL
TRACE STRING: /mnt/beegfs/pchatz06/selected_traces/505.mcf_r.refrate.input1.region_11.w_0.2377_0.2593.trace.gz

champsim_seed used: 211

CPU 0 L1D next line prefetcher
CPU 0 L2C IP-based stride prefetcher
Initialize DRRIP state
Assign rand_sets[0]: 454  LLC: 2048
rand_sets[0]: 454
Assign rand_sets[1]: 1662  LLC: 2048
rand_sets[1]: 1662
Assign rand_sets[2]: 1921  LLC: 2048
rand_sets[2]: 1921
Assign rand_sets[3]: 1131  LLC: 2048
rand_sets[3]: 1131
Assign rand_sets[4]: 331  LLC: 2048
rand_sets[4]: 331
Assign rand_sets[5]: 1531  LLC: 2048
rand_sets[5]: 1531
Assign rand_sets[6]: 482  LLC: 2048
rand_sets[6]: 482
Assign rand_sets[7]: 1275  LLC: 2048
rand_sets[7]: 1275
Assign rand_sets[8]: 1876  LLC: 2048
rand_sets[8]: 1876
Assign rand_sets[9]: 2038  LLC: 2048
rand_sets[9]: 2038
Assign rand_sets[10]: 701  LLC: 2048
rand_sets[10]: 701
Assign rand_sets[11]: 479  LLC: 2048
rand_sets[11]: 479
Assign rand_sets[12]: 892  LLC: 2048
rand_sets[12]: 892
Assign rand_sets[13]: 1820  LLC: 2048
rand_sets[13]: 1820
Assign rand_sets[14]: 1505  LLC: 2048
rand_sets[14]: 1505
Assign rand_sets[15]: 1159  LLC: 2048
rand_sets[15]: 1159
Assign rand_sets[16]: 513  LLC: 2048
rand_sets[16]: 513
Assign rand_sets[17]: 703  LLC: 2048
rand_sets[17]: 703
Assign rand_sets[18]: 561  LLC: 2048
rand_sets[18]: 561
Assign rand_sets[19]: 990  LLC: 2048
rand_sets[19]: 990
Assign rand_sets[20]: 342  LLC: 2048
rand_sets[20]: 342
Assign rand_sets[21]: 882  LLC: 2048
rand_sets[21]: 882
Assign rand_sets[22]: 15  LLC: 2048
rand_sets[22]: 15
Assign rand_sets[23]: 71  LLC: 2048
rand_sets[23]: 71
Assign rand_sets[24]: 1127  LLC: 2048
rand_sets[24]: 1127
Assign rand_sets[25]: 1382  LLC: 2048
rand_sets[25]: 1382
Assign rand_sets[26]: 647  LLC: 2048
rand_sets[26]: 647
Assign rand_sets[27]: 857  LLC: 2048
rand_sets[27]: 857
Assign rand_sets[28]: 1450  LLC: 2048
rand_sets[28]: 1450
Assign rand_sets[29]: 1160  LLC: 2048
rand_sets[29]: 1160
Assign rand_sets[30]: 1852  LLC: 2048
rand_sets[30]: 1852
Assign rand_sets[31]: 1881  LLC: 2048
rand_sets[31]: 1881
Assign rand_sets[32]: 1770  LLC: 2048
rand_sets[32]: 1770
Assign rand_sets[33]: 1622  LLC: 2048
rand_sets[33]: 1622
Assign rand_sets[34]: 275  LLC: 2048
rand_sets[34]: 275
Assign rand_sets[35]: 635  LLC: 2048
rand_sets[35]: 635
Assign rand_sets[36]: 466  LLC: 2048
rand_sets[36]: 466
Assign rand_sets[37]: 1413  LLC: 2048
rand_sets[37]: 1413
Assign rand_sets[38]: 417  LLC: 2048
rand_sets[38]: 417
Assign rand_sets[39]: 472  LLC: 2048
rand_sets[39]: 472
Assign rand_sets[40]: 1340  LLC: 2048
rand_sets[40]: 1340
Assign rand_sets[41]: 852  LLC: 2048
rand_sets[41]: 852
Assign rand_sets[42]: 1365  LLC: 2048
rand_sets[42]: 1365
Assign rand_sets[43]: 47  LLC: 2048
rand_sets[43]: 47
Assign rand_sets[44]: 823  LLC: 2048
rand_sets[44]: 823
Assign rand_sets[45]: 686  LLC: 2048
rand_sets[45]: 686
Assign rand_sets[46]: 1637  LLC: 2048
rand_sets[46]: 1637
Assign rand_sets[47]: 1115  LLC: 2048
rand_sets[47]: 1115
Assign rand_sets[48]: 986  LLC: 2048
rand_sets[48]: 986
Assign rand_sets[49]: 258  LLC: 2048
rand_sets[49]: 258
Assign rand_sets[50]: 633  LLC: 2048
rand_sets[50]: 633
Assign rand_sets[51]: 920  LLC: 2048
rand_sets[51]: 920
Assign rand_sets[52]: 204  LLC: 2048
rand_sets[52]: 204
Assign rand_sets[53]: 227  LLC: 2048
rand_sets[53]: 227
Assign rand_sets[54]: 1818  LLC: 2048
rand_sets[54]: 1818
Assign rand_sets[55]: 886  LLC: 2048
rand_sets[55]: 886
Assign rand_sets[56]: 1422  LLC: 2048
rand_sets[56]: 1422
Assign rand_sets[57]: 607  LLC: 2048
rand_sets[57]: 607
Assign rand_sets[58]: 217  LLC: 2048
rand_sets[58]: 217
Assign rand_sets[59]: 1945  LLC: 2048
rand_sets[59]: 1945
Assign rand_sets[60]: 143  LLC: 2048
rand_sets[60]: 143
Assign rand_sets[61]: 1311  LLC: 2048
rand_sets[61]: 1311
Assign rand_sets[62]: 319  LLC: 2048
rand_sets[62]: 319
Assign rand_sets[63]: 1846  LLC: 2048
rand_sets[63]: 1846
 CLEAN-RRIP-POLICY-1: 3-3-3-3-3-2-3-2- CLEAN-RRIP-POLICY-2: 3-3-3-3-3-2-3-2-
 DIRTY-RRIP-POLICY-1: 3-3-3-3-3-2-3-2- DIRTY-RRIP-POLICY-2: 3-3-3-3-3-2-3-2-
 PSEL width: 10
Heartbeat CPU 0 instructions: 10000002 cycles: 6500630 heartbeat IPC: 1.53831 cumulative IPC: 1.53831 (Simulation time: 0 hr 0 min 12 sec) 
Heartbeat CPU 0 instructions: 20000000 cycles: 12981925 heartbeat IPC: 1.5429 cumulative IPC: 1.5406 (Simulation time: 0 hr 0 min 25 sec) 
Heartbeat CPU 0 instructions: 30000003 cycles: 19456432 heartbeat IPC: 1.54452 cumulative IPC: 1.54191 (Simulation time: 0 hr 0 min 38 sec) 
Heartbeat CPU 0 instructions: 40000000 cycles: 25937110 heartbeat IPC: 1.54305 cumulative IPC: 1.54219 (Simulation time: 0 hr 0 min 50 sec) 
Heartbeat CPU 0 instructions: 50000000 cycles: 32442182 heartbeat IPC: 1.53726 cumulative IPC: 1.5412 (Simulation time: 0 hr 1 min 3 sec) 
Heartbeat CPU 0 instructions: 60000000 cycles: 38925366 heartbeat IPC: 1.54245 cumulative IPC: 1.54141 (Simulation time: 0 hr 1 min 16 sec) 
Heartbeat CPU 0 instructions: 70000001 cycles: 45425531 heartbeat IPC: 1.53842 cumulative IPC: 1.54098 (Simulation time: 0 hr 1 min 28 sec) 
Heartbeat CPU 0 instructions: 80000000 cycles: 51923086 heartbeat IPC: 1.53904 cumulative IPC: 1.54074 (Simulation time: 0 hr 1 min 41 sec) 
Heartbeat CPU 0 instructions: 90000000 cycles: 58418477 heartbeat IPC: 1.53955 cumulative IPC: 1.54061 (Simulation time: 0 hr 1 min 53 sec) 
Heartbeat CPU 0 instructions: 100000000 cycles: 64911818 heartbeat IPC: 1.54004 cumulative IPC: 1.54055 (Simulation time: 0 hr 2 min 6 sec) 

Warmup complete CPU 0 instructions: 100000002 cycles: 64911825 (Simulation time: 0 hr 2 min 6 sec) 

Heartbeat CPU 0 instructions: 110000000 cycles: 92428872 heartbeat IPC: 0.363411 cumulative IPC: 0.363411 (Simulation time: 0 hr 2 min 31 sec) 
Heartbeat CPU 0 instructions: 120000000 cycles: 120184731 heartbeat IPC: 0.360284 cumulative IPC: 0.361841 (Simulation time: 0 hr 2 min 55 sec) 
Heartbeat CPU 0 instructions: 130000001 cycles: 147740390 heartbeat IPC: 0.362902 cumulative IPC: 0.362194 (Simulation time: 0 hr 3 min 19 sec) 
Heartbeat CPU 0 instructions: 140000000 cycles: 176262185 heartbeat IPC: 0.350609 cumulative IPC: 0.359226 (Simulation time: 0 hr 3 min 44 sec) 
Heartbeat CPU 0 instructions: 150000002 cycles: 205366176 heartbeat IPC: 0.343596 cumulative IPC: 0.355988 (Simulation time: 0 hr 4 min 10 sec) 
Heartbeat CPU 0 instructions: 160000000 cycles: 234382993 heartbeat IPC: 0.344628 cumulative IPC: 0.354043 (Simulation time: 0 hr 4 min 35 sec) 
Heartbeat CPU 0 instructions: 170000000 cycles: 263714051 heartbeat IPC: 0.340936 cumulative IPC: 0.352109 (Simulation time: 0 hr 5 min 1 sec) 
Heartbeat CPU 0 instructions: 180000000 cycles: 296451775 heartbeat IPC: 0.305458 cumulative IPC: 0.345513 (Simulation time: 0 hr 5 min 29 sec) 
Heartbeat CPU 0 instructions: 190000000 cycles: 326026260 heartbeat IPC: 0.338129 cumulative IPC: 0.344676 (Simulation time: 0 hr 5 min 56 sec) 
Heartbeat CPU 0 instructions: 200000000 cycles: 355533890 heartbeat IPC: 0.338895 cumulative IPC: 0.344089 (Simulation time: 0 hr 6 min 24 sec) 
Heartbeat CPU 0 instructions: 210000003 cycles: 385346209 heartbeat IPC: 0.335432 cumulative IPC: 0.343284 (Simulation time: 0 hr 6 min 51 sec) 
Heartbeat CPU 0 instructions: 220000000 cycles: 415097104 heartbeat IPC: 0.336124 cumulative IPC: 0.342676 (Simulation time: 0 hr 7 min 18 sec) 
Heartbeat CPU 0 instructions: 230000001 cycles: 443708300 heartbeat IPC: 0.349514 cumulative IPC: 0.343192 (Simulation time: 0 hr 7 min 44 sec) 
Heartbeat CPU 0 instructions: 240000000 cycles: 472770969 heartbeat IPC: 0.344084 cumulative IPC: 0.343256 (Simulation time: 0 hr 8 min 9 sec) 
*** Reached end of trace for Core: 0 Repeating trace: /mnt/beegfs/pchatz06/selected_traces/505.mcf_r.refrate.input1.region_11.w_0.2377_0.2593.trace.gz
Heartbeat CPU 0 instructions: 250000000 cycles: 501511953 heartbeat IPC: 0.347935 cumulative IPC: 0.343564 (Simulation time: 0 hr 8 min 34 sec) 
Finished CPU 0 instructions: 150000002 cycles: 436600129 cumulative IPC: 0.343564 (Simulation time: 0 hr 8 min 34 sec) 

CPU 0 Branch Prediction Accuracy: 89.4385% MPKI: 22.9285
Number of Branches: 32564394 Number of Mispredictions: 3439274
Number of LOAD Instructions: 84898477
Number of LOAD Instructions (ROI): 84898477
Number of STORE Instructions: 23278150
Number of STORE Instructions (ROI): 23278150
Total Destination Memory Operands: 24632942
Total Destination Memory Operands (ROI): 24632942
Total Source Memory Operands: 84898477
Total Source Memory Operands (ROI): 84898477
Number of DEPENDED LOADS: 6857990
Number of DEPENDED LOADS (ROI): 6857990
Number of SQ_ADDED: 24632936
Number of SQ_ADDED (ROI): 24632936
Number of LQ_ADDED: 85344119
Number of LQ_ADDED (ROI): 85344119
Number of Instructions read from trace: 250000083

ChampSim completed all CPUs

Region of Interest Statistics

CPU 0 cumulative IPC: 0.343564 instructions: 150000002 cycles: 436600129
ITLB TOTAL     ACCESS:   25471012  HIT:   25471012  MISS:          0
ITLB LOAD      ACCESS:   25471012  HIT:   25471012  MISS:          0
ITLB RFO       ACCESS:          0  HIT:          0  MISS:          0
ITLB PREFETCH  ACCESS:          0  HIT:          0  MISS:          0
ITLB WRITEBACK ACCESS:          0  HIT:          0  MISS:          0
ITLB PREFETCH  REQUESTED:          0  ISSUED:          0  USEFUL:          0  USELESS:          0
ITLB TOTAL MSHR MERGED:          0
ITLB LOAD MSHR MERGED:          0
ITLB RFO MSHR MERGED:          0
ITLB PREFETCH MSHR MERGED:          0
ITLB WRITEBACK MSHR MERGED:          0
ITLB TOTAL ACCESSES:   25471012 HITS:   25471012 MISSES:          0
ITLB LOAD ACCESSES:   25471012 HITS:   25471012 MISSES:          0
ITLB RFO ACCESSES:          0 HITS:          0 MISSES:          0
ITLB PREFETCH ACCESSES:          0 HITS:          0 MISSES:          0
ITLB WRITEBACK ACCESSES:          0 HITS:          0 MISSES:          0
ITLB RQ ACCESS:  150000013
ITLB RQ TO_CACHE:   25471012
ITLB RQ MERGED:  124529001
ITLB RQ FORWARD:          0
ITLB WQ ACCESS:          0
ITLB WQ TO_CACHE:          0
ITLB WQ MERGED:          0
ITLB WQ FORWARD:          0
DTLB TOTAL     ACCESS:   45719568  HIT:   43196316  MISS:    2523252
DTLB LOAD      ACCESS:   34441200  HIT:   32165755  MISS:    2275445
DTLB RFO       ACCESS:   11278368  HIT:   11030561  MISS:     247807
DTLB PREFETCH  ACCESS:          0  HIT:          0  MISS:          0
DTLB WRITEBACK ACCESS:          0  HIT:          0  MISS:          0
DTLB PREFETCH  REQUESTED:          0  ISSUED:          0  USEFUL:          0  USELESS:          0
DTLB TOTAL MSHR MERGED:     183653
DTLB LOAD MSHR MERGED:      75804
DTLB RFO MSHR MERGED:     107849
DTLB PREFETCH MSHR MERGED:          0
DTLB WRITEBACK MSHR MERGED:          0
DTLB TOTAL ACCESSES:   45903221 HITS:   43196316 MISSES:    2706905
DTLB LOAD ACCESSES:   34517004 HITS:   32165755 MISSES:    2351249
DTLB RFO ACCESSES:   11386217 HITS:   11030561 MISSES:     355656
DTLB PREFETCH ACCESSES:          0 HITS:          0 MISSES:          0
DTLB WRITEBACK ACCESSES:          0 HITS:          0 MISSES:          0
DTLB RQ ACCESS:   61536012
DTLB RQ TO_CACHE:   45903222
DTLB RQ MERGED:   15632790
DTLB RQ FORWARD:          0
DTLB WQ ACCESS:          0
DTLB WQ TO_CACHE:          0
DTLB WQ MERGED:          0
DTLB WQ FORWARD:          0
L1D TOTAL     ACCESS:   82707054  HIT:   69855654  MISS:   12851400
L1D LOAD      ACCESS:   37248978  HIT:   30624794  MISS:    6624184
L1D RFO       ACCESS:   12532562  HIT:   11855560  MISS:     677002
L1D PREFETCH  ACCESS:   32925514  HIT:   27375300  MISS:    5550214
L1D WRITEBACK ACCESS:          0  HIT:          0  MISS:          0
L1D PREFETCH  REQUESTED:   37497705  ISSUED:   37098653  USEFUL:     828667  USELESS:    4721508
L1D TOTAL MSHR MERGED:    2858243
L1D LOAD MSHR MERGED:     520218
L1D RFO MSHR MERGED:    1133224
L1D PREFETCH MSHR MERGED:    1204801
L1D WRITEBACK MSHR MERGED:          0
L1D TOTAL ACCESSES:   85588877 HITS:   69879234 MISSES:   15709643
L1D LOAD ACCESSES:   37497707 HITS:   30624796 MISSES:    6872911
L1D RFO ACCESSES:   13665609 HITS:   11855560 MISSES:    1810049
L1D PREFETCH ACCESSES:   34425561 HITS:   27398878 MISSES:    7026683
L1D WRITEBACK ACCESSES:          0 HITS:          0 MISSES:          0
L1D RQ ACCESS:   47057107
L1D RQ TO_CACHE:   37497705
L1D RQ MERGED:    9559400
L1D RQ FORWARD:          0
L1D WQ ACCESS:   14478905
L1D WQ TO_CACHE:   13665610
L1D WQ MERGED:     813295
L1D WQ FORWARD:      23580
L1I TOTAL     ACCESS:   35297289  HIT:   35297289  MISS:          0
L1I LOAD      ACCESS:   35297289  HIT:   35297289  MISS:          0
L1I RFO       ACCESS:          0  HIT:          0  MISS:          0
L1I PREFETCH  ACCESS:          0  HIT:          0  MISS:          0
L1I WRITEBACK ACCESS:          0  HIT:          0  MISS:          0
L1I PREFETCH  REQUESTED:          0  ISSUED:          0  USEFUL:          0  USELESS:          0
L1I TOTAL MSHR MERGED:          0
L1I LOAD MSHR MERGED:          0
L1I RFO MSHR MERGED:          0
L1I PREFETCH MSHR MERGED:          0
L1I WRITEBACK MSHR MERGED:          0
L1I TOTAL ACCESSES:   35297289 HITS:   35297289 MISSES:          0
L1I LOAD ACCESSES:   35297289 HITS:   35297289 MISSES:          0
L1I RFO ACCESSES:          0 HITS:          0 MISSES:          0
L1I PREFETCH ACCESSES:          0 HITS:          0 MISSES:          0
L1I WRITEBACK ACCESSES:          0 HITS:          0 MISSES:          0
L1I RQ ACCESS:  150000013
L1I RQ TO_CACHE:   35297289
L1I RQ MERGED:  114702724
L1I RQ FORWARD:          0
L1I WQ ACCESS:          0
L1I WQ TO_CACHE:          0
L1I WQ MERGED:          0
L1I WQ FORWARD:          0
L2C TOTAL     ACCESS:   14330391  HIT:    6454158  MISS:    7876233
L2C LOAD      ACCESS:    6352680  HIT:    2689191  MISS:    3663489
L2C RFO       ACCESS:     676815  HIT:     148140  MISS:     528675
L2C PREFETCH  ACCESS:    6255420  HIT:    2572548  MISS:    3682872
L2C WRITEBACK ACCESS:    1045476  HIT:    1044279  MISS:       1197
L2C PREFETCH  REQUESTED:    1023228  ISSUED:    1023228  USEFUL:     418902  USELESS:    3264667
L2C TOTAL MSHR MERGED:     254494
L2C LOAD MSHR MERGED:      48392
L2C RFO MSHR MERGED:          0
L2C PREFETCH MSHR MERGED:     206102
L2C WRITEBACK MSHR MERGED:          0
L2C TOTAL ACCESSES:   14644661 HITS:    6454191 MISSES:    8190470
L2C LOAD ACCESSES:    6352693 HITS:    2689203 MISSES:    3663490
L2C RFO ACCESSES:     676825 HITS:     148150 MISSES:     528675
L2C PREFETCH ACCESSES:    6569667 HITS:    2572559 MISSES:    3997108
L2C WRITEBACK ACCESSES:    1045476 HITS:    1044279 MISSES:       1197
L2C RQ ACCESS:    7029518
L2C RQ TO_CACHE:    7029496
L2C RQ MERGED:          0
L2C RQ FORWARD:          0
L2C WQ ACCESS:    1045476
L2C WQ TO_CACHE:    1045476
L2C WQ MERGED:          0
L2C WQ FORWARD:         33
LLC TOTAL     ACCESS:    8653999  HIT:    5998376  MISS:    2655623
LLC LOAD      ACCESS:    3615092  HIT:    2558431  MISS:    1056661
LLC RFO       ACCESS:     528661  HIT:     527275  MISS:       1386
LLC PREFETCH  ACCESS:    3761971  HIT:    2169599  MISS:    1592372
LLC WRITEBACK ACCESS:     748275  HIT:     743071  MISS:       5204
LLC PREFETCH  REQUESTED:          0  ISSUED:          0  USEFUL:      64936  USELESS:    1530848
LLC TOTAL MSHR MERGED:      24952
LLC LOAD MSHR MERGED:       6445
LLC RFO MSHR MERGED:          0
LLC PREFETCH MSHR MERGED:      18507
LLC WRITEBACK MSHR MERGED:          0
LLC TOTAL ACCESSES:    8678974 HITS:    5998397 MISSES:    2680577
LLC LOAD ACCESSES:    3615098 HITS:    2558436 MISSES:    1056662
LLC RFO ACCESSES:     528675 HITS:     527289 MISSES:       1386
LLC PREFETCH ACCESSES:    3786926 HITS:    2169601 MISSES:    1617325
LLC WRITEBACK ACCESSES:     748275 HITS:     743071 MISSES:       5204
LLC 0 RQ ACCESS:    4143773
LLC 0 RQ TO_CACHE:    4143754
LLC 0 RQ MERGED:          0
LLC 0 RQ FORWARD:          0
LLC WQ ACCESS:     748275
LLC WQ TO_CACHE:     748275
LLC WQ MERGED:          0
LLC WQ FORWARD:         21
Major fault: 0 Minor fault: 37645
CPU 0 L1D next line prefetcher final stats
CPU 0 L2C PC-based stride prefetcher final stats
All Misses: 4007096
All Hits: 8607699
SD Algo Stats - Switches: 0 SRR-Repls: 1274438 BRR-Repls: 0

DRAM Statistics
 CHANNEL 0
 RQ ROW_BUFFER_HIT:    1721247  ROW_BUFFER_MISS:     928067
 DBUS_CONGESTED:    1321009
 WQ ROW_BUFFER_HIT:       1685  ROW_BUFFER_MISS:      26767  FULL:          0

 AVG_CONGESTED_CYCLE: 13
LOADS RETIRED: 51112829
INSTR RETIRED: 150000000
