
*** ChampSim Multicore Out-of-Order Simulator ***

Warmup Instructions: 100000000
Simulation Instructions: 150000000
Number of CPUs: 1
LLC sets: 2048
LLC ways: 16
Clean RRIP Policies: 3333323233333232 Dirty RRIP Policies: 3333323233333232 PSEL Width: 10 Track Set: 4294967295 PSEL Mask: 1 Demote Mask: 4044404440444044DS Algo: 0Window size: 0
Off-chip DRAM Size: 4096 MB Channels: 1 Width: 64-bit Data Rate: 1600 MT/s

CPU 0 runs /mnt/beegfs/pchatz06/selected_traces/507.cactuBSSN_r.train.input1.region_6.w_0.0431_0.047.trace.gz
NOT SORTED
TRACE STRING: /mnt/beegfs/pchatz06/selected_traces/507.cactuBSSN_r.train.input1.region_6.w_0.0431_0.047.trace.gz
SORTED
TRACE STRING: /mnt/beegfs/pchatz06/selected_traces/507.cactuBSSN_r.train.input1.region_6.w_0.0431_0.047.trace.gz
INITIAL
TRACE STRING: /mnt/beegfs/pchatz06/selected_traces/507.cactuBSSN_r.train.input1.region_6.w_0.0431_0.047.trace.gz

champsim_seed used: 155

CPU 0 L1D next line prefetcher
CPU 0 L2C IP-based stride prefetcher
Initialize DRRIP state
Assign rand_sets[0]: 454  LLC: 2048
rand_sets[0]: 454
Assign rand_sets[1]: 1662  LLC: 2048
rand_sets[1]: 1662
Assign rand_sets[2]: 1921  LLC: 2048
rand_sets[2]: 1921
Assign rand_sets[3]: 1131  LLC: 2048
rand_sets[3]: 1131
Assign rand_sets[4]: 331  LLC: 2048
rand_sets[4]: 331
Assign rand_sets[5]: 1531  LLC: 2048
rand_sets[5]: 1531
Assign rand_sets[6]: 482  LLC: 2048
rand_sets[6]: 482
Assign rand_sets[7]: 1275  LLC: 2048
rand_sets[7]: 1275
Assign rand_sets[8]: 1876  LLC: 2048
rand_sets[8]: 1876
Assign rand_sets[9]: 2038  LLC: 2048
rand_sets[9]: 2038
Assign rand_sets[10]: 701  LLC: 2048
rand_sets[10]: 701
Assign rand_sets[11]: 479  LLC: 2048
rand_sets[11]: 479
Assign rand_sets[12]: 892  LLC: 2048
rand_sets[12]: 892
Assign rand_sets[13]: 1820  LLC: 2048
rand_sets[13]: 1820
Assign rand_sets[14]: 1505  LLC: 2048
rand_sets[14]: 1505
Assign rand_sets[15]: 1159  LLC: 2048
rand_sets[15]: 1159
Assign rand_sets[16]: 513  LLC: 2048
rand_sets[16]: 513
Assign rand_sets[17]: 703  LLC: 2048
rand_sets[17]: 703
Assign rand_sets[18]: 561  LLC: 2048
rand_sets[18]: 561
Assign rand_sets[19]: 990  LLC: 2048
rand_sets[19]: 990
Assign rand_sets[20]: 342  LLC: 2048
rand_sets[20]: 342
Assign rand_sets[21]: 882  LLC: 2048
rand_sets[21]: 882
Assign rand_sets[22]: 15  LLC: 2048
rand_sets[22]: 15
Assign rand_sets[23]: 71  LLC: 2048
rand_sets[23]: 71
Assign rand_sets[24]: 1127  LLC: 2048
rand_sets[24]: 1127
Assign rand_sets[25]: 1382  LLC: 2048
rand_sets[25]: 1382
Assign rand_sets[26]: 647  LLC: 2048
rand_sets[26]: 647
Assign rand_sets[27]: 857  LLC: 2048
rand_sets[27]: 857
Assign rand_sets[28]: 1450  LLC: 2048
rand_sets[28]: 1450
Assign rand_sets[29]: 1160  LLC: 2048
rand_sets[29]: 1160
Assign rand_sets[30]: 1852  LLC: 2048
rand_sets[30]: 1852
Assign rand_sets[31]: 1881  LLC: 2048
rand_sets[31]: 1881
Assign rand_sets[32]: 1770  LLC: 2048
rand_sets[32]: 1770
Assign rand_sets[33]: 1622  LLC: 2048
rand_sets[33]: 1622
Assign rand_sets[34]: 275  LLC: 2048
rand_sets[34]: 275
Assign rand_sets[35]: 635  LLC: 2048
rand_sets[35]: 635
Assign rand_sets[36]: 466  LLC: 2048
rand_sets[36]: 466
Assign rand_sets[37]: 1413  LLC: 2048
rand_sets[37]: 1413
Assign rand_sets[38]: 417  LLC: 2048
rand_sets[38]: 417
Assign rand_sets[39]: 472  LLC: 2048
rand_sets[39]: 472
Assign rand_sets[40]: 1340  LLC: 2048
rand_sets[40]: 1340
Assign rand_sets[41]: 852  LLC: 2048
rand_sets[41]: 852
Assign rand_sets[42]: 1365  LLC: 2048
rand_sets[42]: 1365
Assign rand_sets[43]: 47  LLC: 2048
rand_sets[43]: 47
Assign rand_sets[44]: 823  LLC: 2048
rand_sets[44]: 823
Assign rand_sets[45]: 686  LLC: 2048
rand_sets[45]: 686
Assign rand_sets[46]: 1637  LLC: 2048
rand_sets[46]: 1637
Assign rand_sets[47]: 1115  LLC: 2048
rand_sets[47]: 1115
Assign rand_sets[48]: 986  LLC: 2048
rand_sets[48]: 986
Assign rand_sets[49]: 258  LLC: 2048
rand_sets[49]: 258
Assign rand_sets[50]: 633  LLC: 2048
rand_sets[50]: 633
Assign rand_sets[51]: 920  LLC: 2048
rand_sets[51]: 920
Assign rand_sets[52]: 204  LLC: 2048
rand_sets[52]: 204
Assign rand_sets[53]: 227  LLC: 2048
rand_sets[53]: 227
Assign rand_sets[54]: 1818  LLC: 2048
rand_sets[54]: 1818
Assign rand_sets[55]: 886  LLC: 2048
rand_sets[55]: 886
Assign rand_sets[56]: 1422  LLC: 2048
rand_sets[56]: 1422
Assign rand_sets[57]: 607  LLC: 2048
rand_sets[57]: 607
Assign rand_sets[58]: 217  LLC: 2048
rand_sets[58]: 217
Assign rand_sets[59]: 1945  LLC: 2048
rand_sets[59]: 1945
Assign rand_sets[60]: 143  LLC: 2048
rand_sets[60]: 143
Assign rand_sets[61]: 1311  LLC: 2048
rand_sets[61]: 1311
Assign rand_sets[62]: 319  LLC: 2048
rand_sets[62]: 319
Assign rand_sets[63]: 1846  LLC: 2048
rand_sets[63]: 1846
 CLEAN-RRIP-POLICY-1: 3-3-3-3-3-2-3-2- CLEAN-RRIP-POLICY-2: 3-3-3-3-3-2-3-2-
 DIRTY-RRIP-POLICY-1: 3-3-3-3-3-2-3-2- DIRTY-RRIP-POLICY-2: 3-3-3-3-3-2-3-2-
 PSEL width: 10
Heartbeat CPU 0 instructions: 10000002 cycles: 6575835 heartbeat IPC: 1.52072 cumulative IPC: 1.52072 (Simulation time: 0 hr 0 min 25 sec) 
Heartbeat CPU 0 instructions: 20000000 cycles: 13153344 heartbeat IPC: 1.52033 cumulative IPC: 1.52053 (Simulation time: 0 hr 0 min 49 sec) 
Heartbeat CPU 0 instructions: 30000000 cycles: 19443113 heartbeat IPC: 1.58988 cumulative IPC: 1.54296 (Simulation time: 0 hr 1 min 14 sec) 
Heartbeat CPU 0 instructions: 40000000 cycles: 23811748 heartbeat IPC: 2.28904 cumulative IPC: 1.67984 (Simulation time: 0 hr 1 min 35 sec) 
Heartbeat CPU 0 instructions: 50000002 cycles: 28181249 heartbeat IPC: 2.28859 cumulative IPC: 1.77423 (Simulation time: 0 hr 1 min 57 sec) 
Heartbeat CPU 0 instructions: 60000000 cycles: 32549442 heartbeat IPC: 2.28928 cumulative IPC: 1.84335 (Simulation time: 0 hr 2 min 19 sec) 
Heartbeat CPU 0 instructions: 70000001 cycles: 36918608 heartbeat IPC: 2.28877 cumulative IPC: 1.89606 (Simulation time: 0 hr 2 min 41 sec) 
Heartbeat CPU 0 instructions: 80000000 cycles: 41287587 heartbeat IPC: 2.28886 cumulative IPC: 1.93763 (Simulation time: 0 hr 3 min 2 sec) 
Heartbeat CPU 0 instructions: 90000000 cycles: 45656823 heartbeat IPC: 2.28873 cumulative IPC: 1.97123 (Simulation time: 0 hr 3 min 24 sec) 
Heartbeat CPU 0 instructions: 100000000 cycles: 50025322 heartbeat IPC: 2.28912 cumulative IPC: 1.99899 (Simulation time: 0 hr 3 min 46 sec) 

Warmup complete CPU 0 instructions: 100000003 cycles: 50025323 (Simulation time: 0 hr 3 min 46 sec) 

Heartbeat CPU 0 instructions: 110000002 cycles: 57785643 heartbeat IPC: 1.28861 cumulative IPC: 1.28861 (Simulation time: 0 hr 4 min 12 sec) 
Heartbeat CPU 0 instructions: 120000000 cycles: 65451773 heartbeat IPC: 1.30444 cumulative IPC: 1.29647 (Simulation time: 0 hr 4 min 38 sec) 
Heartbeat CPU 0 instructions: 130000002 cycles: 73104201 heartbeat IPC: 1.30678 cumulative IPC: 1.29989 (Simulation time: 0 hr 5 min 4 sec) 
Heartbeat CPU 0 instructions: 140000000 cycles: 80788644 heartbeat IPC: 1.30133 cumulative IPC: 1.30025 (Simulation time: 0 hr 5 min 30 sec) 
Heartbeat CPU 0 instructions: 150000000 cycles: 88446679 heartbeat IPC: 1.30582 cumulative IPC: 1.30136 (Simulation time: 0 hr 5 min 56 sec) 
Heartbeat CPU 0 instructions: 160000000 cycles: 96137789 heartbeat IPC: 1.3002 cumulative IPC: 1.30117 (Simulation time: 0 hr 6 min 22 sec) 
Heartbeat CPU 0 instructions: 170000000 cycles: 103925362 heartbeat IPC: 1.2841 cumulative IPC: 1.2987 (Simulation time: 0 hr 6 min 48 sec) 
Heartbeat CPU 0 instructions: 180000000 cycles: 111794873 heartbeat IPC: 1.27073 cumulative IPC: 1.29514 (Simulation time: 0 hr 7 min 14 sec) 
Heartbeat CPU 0 instructions: 190000002 cycles: 119623560 heartbeat IPC: 1.27735 cumulative IPC: 1.29314 (Simulation time: 0 hr 7 min 39 sec) 
Heartbeat CPU 0 instructions: 200000000 cycles: 134540399 heartbeat IPC: 0.670383 cumulative IPC: 1.18322 (Simulation time: 0 hr 8 min 6 sec) 
Heartbeat CPU 0 instructions: 210000001 cycles: 152819784 heartbeat IPC: 0.547064 cumulative IPC: 1.0701 (Simulation time: 0 hr 8 min 35 sec) 
Heartbeat CPU 0 instructions: 220000000 cycles: 165372464 heartbeat IPC: 0.796643 cumulative IPC: 1.04034 (Simulation time: 0 hr 9 min 1 sec) 
Heartbeat CPU 0 instructions: 230000001 cycles: 181062536 heartbeat IPC: 0.637346 cumulative IPC: 0.992085 (Simulation time: 0 hr 9 min 31 sec) 
Heartbeat CPU 0 instructions: 240000000 cycles: 196956956 heartbeat IPC: 0.629152 cumulative IPC: 0.952824 (Simulation time: 0 hr 10 min 2 sec) 
*** Reached end of trace for Core: 0 Repeating trace: /mnt/beegfs/pchatz06/selected_traces/507.cactuBSSN_r.train.input1.region_6.w_0.0431_0.047.trace.gz
Heartbeat CPU 0 instructions: 250000000 cycles: 209346150 heartbeat IPC: 0.807155 cumulative IPC: 0.941496 (Simulation time: 0 hr 10 min 31 sec) 
Finished CPU 0 instructions: 150000001 cycles: 159320828 cumulative IPC: 0.941496 (Simulation time: 0 hr 10 min 31 sec) 

CPU 0 Branch Prediction Accuracy: 99.7353% MPKI: 0.0652
Number of Branches: 3694784 Number of Mispredictions: 9780
Number of LOAD Instructions: 86006810
Number of LOAD Instructions (ROI): 86006810
Number of STORE Instructions: 23549521
Number of STORE Instructions (ROI): 23549521
Total Destination Memory Operands: 23635044
Total Destination Memory Operands (ROI): 23635044
Total Source Memory Operands: 86007134
Total Source Memory Operands (ROI): 86007134
Number of DEPENDED LOADS: 1407087
Number of DEPENDED LOADS (ROI): 1407087
Number of SQ_ADDED: 23635027
Number of SQ_ADDED (ROI): 23635027
Number of LQ_ADDED: 87775154
Number of LQ_ADDED (ROI): 87775154
Number of Instructions read from trace: 250000256

ChampSim completed all CPUs

Region of Interest Statistics

CPU 0 cumulative IPC: 0.941496 instructions: 150000001 cycles: 159320828
ITLB TOTAL     ACCESS:   31273659  HIT:   31273588  MISS:         71
ITLB LOAD      ACCESS:   31273659  HIT:   31273588  MISS:         71
ITLB RFO       ACCESS:          0  HIT:          0  MISS:          0
ITLB PREFETCH  ACCESS:          0  HIT:          0  MISS:          0
ITLB WRITEBACK ACCESS:          0  HIT:          0  MISS:          0
ITLB PREFETCH  REQUESTED:          0  ISSUED:          0  USEFUL:          0  USELESS:          0
ITLB TOTAL MSHR MERGED:         75
ITLB LOAD MSHR MERGED:         75
ITLB RFO MSHR MERGED:          0
ITLB PREFETCH MSHR MERGED:          0
ITLB WRITEBACK MSHR MERGED:          0
ITLB TOTAL ACCESSES:   31273734 HITS:   31273588 MISSES:        146
ITLB LOAD ACCESSES:   31273734 HITS:   31273588 MISSES:        146
ITLB RFO ACCESSES:          0 HITS:          0 MISSES:          0
ITLB PREFETCH ACCESSES:          0 HITS:          0 MISSES:          0
ITLB WRITEBACK ACCESSES:          0 HITS:          0 MISSES:          0
ITLB RQ ACCESS:  150000000
ITLB RQ TO_CACHE:   31273735
ITLB RQ MERGED:  118726265
ITLB RQ FORWARD:          0
ITLB WQ ACCESS:          0
ITLB WQ TO_CACHE:          0
ITLB WQ MERGED:          0
ITLB WQ FORWARD:          0
DTLB TOTAL     ACCESS:   40242437  HIT:   34338381  MISS:    5904056
DTLB LOAD      ACCESS:   28763313  HIT:   23535352  MISS:    5227961
DTLB RFO       ACCESS:   11479124  HIT:   10803029  MISS:     676095
DTLB PREFETCH  ACCESS:          0  HIT:          0  MISS:          0
DTLB WRITEBACK ACCESS:          0  HIT:          0  MISS:          0
DTLB PREFETCH  REQUESTED:          0  ISSUED:          0  USEFUL:          0  USELESS:          0
DTLB TOTAL MSHR MERGED:     927099
DTLB LOAD MSHR MERGED:     927070
DTLB RFO MSHR MERGED:         29
DTLB PREFETCH MSHR MERGED:          0
DTLB WRITEBACK MSHR MERGED:          0
DTLB TOTAL ACCESSES:   41169536 HITS:   34338381 MISSES:    6831155
DTLB LOAD ACCESSES:   29690383 HITS:   23535352 MISSES:    6155031
DTLB RFO ACCESSES:   11479153 HITS:   10803029 MISSES:     676124
DTLB PREFETCH ACCESSES:          0 HITS:          0 MISSES:          0
DTLB WRITEBACK ACCESSES:          0 HITS:          0 MISSES:          0
DTLB RQ ACCESS:   64174761
DTLB RQ TO_CACHE:   41169537
DTLB RQ MERGED:   23005224
DTLB RQ FORWARD:          0
DTLB WQ ACCESS:          0
DTLB WQ TO_CACHE:          0
DTLB WQ MERGED:          0
DTLB WQ FORWARD:          0
L1D TOTAL     ACCESS:   69432794  HIT:   41448112  MISS:   27984682
L1D LOAD      ACCESS:   30703738  HIT:   17218871  MISS:   13484867
L1D RFO       ACCESS:   15354928  HIT:   13146354  MISS:    2208574
L1D PREFETCH  ACCESS:   23374128  HIT:   11082887  MISS:   12291241
L1D WRITEBACK ACCESS:          0  HIT:          0  MISS:          0
L1D PREFETCH  REQUESTED:   31420306  ISSUED:   30765376  USEFUL:     317726  USELESS:   11973507
L1D TOTAL MSHR MERGED:    1785118
L1D LOAD MSHR MERGED:     979917
L1D RFO MSHR MERGED:     179813
L1D PREFETCH MSHR MERGED:     625388
L1D WRITEBACK MSHR MERGED:          0
L1D TOTAL ACCESSES:   71230218 HITS:   41460410 MISSES:   29769808
L1D LOAD ACCESSES:   31420533 HITS:   17219098 MISSES:   14201435
L1D RFO ACCESSES:   15532610 HITS:   13146354 MISSES:    2386256
L1D PREFETCH ACCESSES:   24277075 HITS:   11094958 MISSES:   13182117
L1D WRITEBACK ACCESSES:          0 HITS:          0 MISSES:          0
L1D RQ ACCESS:   48547854
L1D RQ TO_CACHE:   31420310
L1D RQ MERGED:   17127317
L1D RQ FORWARD:          0
L1D WQ ACCESS:   15626907
L1D WQ TO_CACHE:   15532610
L1D WQ MERGED:      94297
L1D WQ FORWARD:      12298
L1I TOTAL     ACCESS:   38869770  HIT:   38867868  MISS:       1902
L1I LOAD      ACCESS:   38869770  HIT:   38867868  MISS:       1902
L1I RFO       ACCESS:          0  HIT:          0  MISS:          0
L1I PREFETCH  ACCESS:          0  HIT:          0  MISS:          0
L1I WRITEBACK ACCESS:          0  HIT:          0  MISS:          0
L1I PREFETCH  REQUESTED:          0  ISSUED:          0  USEFUL:          0  USELESS:          0
L1I TOTAL MSHR MERGED:       3458
L1I LOAD MSHR MERGED:       3458
L1I RFO MSHR MERGED:          0
L1I PREFETCH MSHR MERGED:          0
L1I WRITEBACK MSHR MERGED:          0
L1I TOTAL ACCESSES:   38873232 HITS:   38867868 MISSES:       5364
L1I LOAD ACCESSES:   38873232 HITS:   38867868 MISSES:       5364
L1I RFO ACCESSES:          0 HITS:          0 MISSES:          0
L1I PREFETCH ACCESSES:          0 HITS:          0 MISSES:          0
L1I WRITEBACK ACCESSES:          0 HITS:          0 MISSES:          0
L1I RQ ACCESS:  149999993
L1I RQ TO_CACHE:   38873234
L1I RQ MERGED:  111126759
L1I RQ FORWARD:          0
L1I WQ ACCESS:          0
L1I WQ TO_CACHE:          0
L1I WQ MERGED:          0
L1I WQ FORWARD:          0
L2C TOTAL     ACCESS:   35164062  HIT:   33268153  MISS:    1895909
L2C LOAD      ACCESS:   13218882  HIT:   13082471  MISS:     136411
L2C RFO       ACCESS:    2172215  HIT:    2007357  MISS:     164858
L2C PREFETCH  ACCESS:   16836981  HIT:   15242876  MISS:    1594105
L2C WRITEBACK ACCESS:    2935984  HIT:    2935449  MISS:        535
L2C PREFETCH  REQUESTED:    5835349  ISSUED:    5338144  USEFUL:    1184518  USELESS:     409592
L2C TOTAL MSHR MERGED:      13583
L2C LOAD MSHR MERGED:         76
L2C RFO MSHR MERGED:          2
L2C PREFETCH MSHR MERGED:      13505
L2C WRITEBACK MSHR MERGED:          0
L2C TOTAL ACCESSES:   35533586 HITS:   33307261 MISSES:    2226325
L2C LOAD ACCESSES:   13223424 HITS:   13087004 MISSES:     136420
L2C RFO ACCESSES:    2206443 HITS:    2041585 MISSES:     164858
L2C PREFETCH ACCESSES:   17167735 HITS:   15243223 MISSES:    1924512
L2C WRITEBACK ACCESSES:    2935984 HITS:    2935449 MISSES:        535
L2C RQ ACCESS:   15429867
L2C RQ TO_CACHE:   15391106
L2C RQ MERGED:          0
L2C RQ FORWARD:          0
L2C WQ ACCESS:    2935984
L2C WQ TO_CACHE:    2935984
L2C WQ MERGED:          0
L2C WQ FORWARD:      39108
LLC TOTAL     ACCESS:    2783472  HIT:     909184  MISS:    1874288
LLC LOAD      ACCESS:     136333  HIT:      31809  MISS:     104524
LLC RFO       ACCESS:     164525  HIT:       6819  MISS:     157706
LLC PREFETCH  ACCESS:    1905401  HIT:     619911  MISS:    1285490
LLC WRITEBACK ACCESS:     577213  HIT:     250645  MISS:     326568
LLC PREFETCH  REQUESTED:          0  ISSUED:          0  USEFUL:       6621  USELESS:    1289531
LLC TOTAL MSHR MERGED:       4757
LLC LOAD MSHR MERGED:          1
LLC RFO MSHR MERGED:          0
LLC PREFETCH MSHR MERGED:       4756
LLC WRITEBACK MSHR MERGED:          0
LLC TOTAL ACCESSES:    2788576 HITS:     909522 MISSES:    1879054
LLC LOAD ACCESSES:     136342 HITS:      31811 MISSES:     104531
LLC RFO ACCESSES:     164856 HITS:       7150 MISSES:     157706
LLC PREFETCH ACCESSES:    1910165 HITS:     619916 MISSES:    1290249
LLC WRITEBACK ACCESSES:     577213 HITS:     250645 MISSES:     326568
LLC 0 RQ ACCESS:     301200
LLC 0 RQ TO_CACHE:     300867
LLC 0 RQ MERGED:          0
LLC 0 RQ FORWARD:          0
LLC WQ ACCESS:     577213
LLC WQ TO_CACHE:     577213
LLC WQ MERGED:          0
LLC WQ FORWARD:        338
Major fault: 0 Minor fault: 10477
CPU 0 L1D next line prefetcher final stats
CPU 0 L2C PC-based stride prefetcher final stats
All Misses: 2624915
All Hits: 1117802
SD Algo Stats - Switches: 0 SRR-Repls: 122791 BRR-Repls: 0

DRAM Statistics
 CHANNEL 0
 RQ ROW_BUFFER_HIT:     921789  ROW_BUFFER_MISS:     625919
 DBUS_CONGESTED:    1355468
 WQ ROW_BUFFER_HIT:     179661  ROW_BUFFER_MISS:     388306  FULL:          0

 AVG_CONGESTED_CYCLE: 13
LOADS RETIRED: 49323551
INSTR RETIRED: 150000000
