
*** ChampSim Multicore Out-of-Order Simulator ***

Warmup Instructions: 100000000
Simulation Instructions: 150000000
Number of CPUs: 1
LLC sets: 2048
LLC ways: 16
Clean RRIP Policies: 3333323233333232 Dirty RRIP Policies: 3333323233333232 PSEL Width: 10 Track Set: 4294967295 PSEL Mask: 1 Demote Mask: 4044404440444044DS Algo: 0Window size: 0
Off-chip DRAM Size: 4096 MB Channels: 1 Width: 64-bit Data Rate: 1600 MT/s

CPU 0 runs /mnt/beegfs/pchatz06/selected_traces/510.parest_r.refrate.input1.region_2.w_0.0834_0.0894.trace.gz
NOT SORTED
TRACE STRING: /mnt/beegfs/pchatz06/selected_traces/510.parest_r.refrate.input1.region_2.w_0.0834_0.0894.trace.gz
SORTED
TRACE STRING: /mnt/beegfs/pchatz06/selected_traces/510.parest_r.refrate.input1.region_2.w_0.0834_0.0894.trace.gz
INITIAL
TRACE STRING: /mnt/beegfs/pchatz06/selected_traces/510.parest_r.refrate.input1.region_2.w_0.0834_0.0894.trace.gz

champsim_seed used: 213

CPU 0 L1D next line prefetcher
CPU 0 L2C IP-based stride prefetcher
Initialize DRRIP state
Assign rand_sets[0]: 454  LLC: 2048
rand_sets[0]: 454
Assign rand_sets[1]: 1662  LLC: 2048
rand_sets[1]: 1662
Assign rand_sets[2]: 1921  LLC: 2048
rand_sets[2]: 1921
Assign rand_sets[3]: 1131  LLC: 2048
rand_sets[3]: 1131
Assign rand_sets[4]: 331  LLC: 2048
rand_sets[4]: 331
Assign rand_sets[5]: 1531  LLC: 2048
rand_sets[5]: 1531
Assign rand_sets[6]: 482  LLC: 2048
rand_sets[6]: 482
Assign rand_sets[7]: 1275  LLC: 2048
rand_sets[7]: 1275
Assign rand_sets[8]: 1876  LLC: 2048
rand_sets[8]: 1876
Assign rand_sets[9]: 2038  LLC: 2048
rand_sets[9]: 2038
Assign rand_sets[10]: 701  LLC: 2048
rand_sets[10]: 701
Assign rand_sets[11]: 479  LLC: 2048
rand_sets[11]: 479
Assign rand_sets[12]: 892  LLC: 2048
rand_sets[12]: 892
Assign rand_sets[13]: 1820  LLC: 2048
rand_sets[13]: 1820
Assign rand_sets[14]: 1505  LLC: 2048
rand_sets[14]: 1505
Assign rand_sets[15]: 1159  LLC: 2048
rand_sets[15]: 1159
Assign rand_sets[16]: 513  LLC: 2048
rand_sets[16]: 513
Assign rand_sets[17]: 703  LLC: 2048
rand_sets[17]: 703
Assign rand_sets[18]: 561  LLC: 2048
rand_sets[18]: 561
Assign rand_sets[19]: 990  LLC: 2048
rand_sets[19]: 990
Assign rand_sets[20]: 342  LLC: 2048
rand_sets[20]: 342
Assign rand_sets[21]: 882  LLC: 2048
rand_sets[21]: 882
Assign rand_sets[22]: 15  LLC: 2048
rand_sets[22]: 15
Assign rand_sets[23]: 71  LLC: 2048
rand_sets[23]: 71
Assign rand_sets[24]: 1127  LLC: 2048
rand_sets[24]: 1127
Assign rand_sets[25]: 1382  LLC: 2048
rand_sets[25]: 1382
Assign rand_sets[26]: 647  LLC: 2048
rand_sets[26]: 647
Assign rand_sets[27]: 857  LLC: 2048
rand_sets[27]: 857
Assign rand_sets[28]: 1450  LLC: 2048
rand_sets[28]: 1450
Assign rand_sets[29]: 1160  LLC: 2048
rand_sets[29]: 1160
Assign rand_sets[30]: 1852  LLC: 2048
rand_sets[30]: 1852
Assign rand_sets[31]: 1881  LLC: 2048
rand_sets[31]: 1881
Assign rand_sets[32]: 1770  LLC: 2048
rand_sets[32]: 1770
Assign rand_sets[33]: 1622  LLC: 2048
rand_sets[33]: 1622
Assign rand_sets[34]: 275  LLC: 2048
rand_sets[34]: 275
Assign rand_sets[35]: 635  LLC: 2048
rand_sets[35]: 635
Assign rand_sets[36]: 466  LLC: 2048
rand_sets[36]: 466
Assign rand_sets[37]: 1413  LLC: 2048
rand_sets[37]: 1413
Assign rand_sets[38]: 417  LLC: 2048
rand_sets[38]: 417
Assign rand_sets[39]: 472  LLC: 2048
rand_sets[39]: 472
Assign rand_sets[40]: 1340  LLC: 2048
rand_sets[40]: 1340
Assign rand_sets[41]: 852  LLC: 2048
rand_sets[41]: 852
Assign rand_sets[42]: 1365  LLC: 2048
rand_sets[42]: 1365
Assign rand_sets[43]: 47  LLC: 2048
rand_sets[43]: 47
Assign rand_sets[44]: 823  LLC: 2048
rand_sets[44]: 823
Assign rand_sets[45]: 686  LLC: 2048
rand_sets[45]: 686
Assign rand_sets[46]: 1637  LLC: 2048
rand_sets[46]: 1637
Assign rand_sets[47]: 1115  LLC: 2048
rand_sets[47]: 1115
Assign rand_sets[48]: 986  LLC: 2048
rand_sets[48]: 986
Assign rand_sets[49]: 258  LLC: 2048
rand_sets[49]: 258
Assign rand_sets[50]: 633  LLC: 2048
rand_sets[50]: 633
Assign rand_sets[51]: 920  LLC: 2048
rand_sets[51]: 920
Assign rand_sets[52]: 204  LLC: 2048
rand_sets[52]: 204
Assign rand_sets[53]: 227  LLC: 2048
rand_sets[53]: 227
Assign rand_sets[54]: 1818  LLC: 2048
rand_sets[54]: 1818
Assign rand_sets[55]: 886  LLC: 2048
rand_sets[55]: 886
Assign rand_sets[56]: 1422  LLC: 2048
rand_sets[56]: 1422
Assign rand_sets[57]: 607  LLC: 2048
rand_sets[57]: 607
Assign rand_sets[58]: 217  LLC: 2048
rand_sets[58]: 217
Assign rand_sets[59]: 1945  LLC: 2048
rand_sets[59]: 1945
Assign rand_sets[60]: 143  LLC: 2048
rand_sets[60]: 143
Assign rand_sets[61]: 1311  LLC: 2048
rand_sets[61]: 1311
Assign rand_sets[62]: 319  LLC: 2048
rand_sets[62]: 319
Assign rand_sets[63]: 1846  LLC: 2048
rand_sets[63]: 1846
 CLEAN-RRIP-POLICY-1: 3-3-3-3-3-2-3-2- CLEAN-RRIP-POLICY-2: 3-3-3-3-3-2-3-2-
 DIRTY-RRIP-POLICY-1: 3-3-3-3-3-2-3-2- DIRTY-RRIP-POLICY-2: 3-3-3-3-3-2-3-2-
 PSEL width: 10
Heartbeat CPU 0 instructions: 10000001 cycles: 4566867 heartbeat IPC: 2.18969 cumulative IPC: 2.18969 (Simulation time: 0 hr 0 min 14 sec) 
Heartbeat CPU 0 instructions: 20000000 cycles: 9019305 heartbeat IPC: 2.24596 cumulative IPC: 2.21747 (Simulation time: 0 hr 0 min 29 sec) 
Heartbeat CPU 0 instructions: 30000002 cycles: 13472191 heartbeat IPC: 2.24573 cumulative IPC: 2.22681 (Simulation time: 0 hr 0 min 44 sec) 
Heartbeat CPU 0 instructions: 40000000 cycles: 17923023 heartbeat IPC: 2.24677 cumulative IPC: 2.23177 (Simulation time: 0 hr 1 min 0 sec) 
Heartbeat CPU 0 instructions: 50000003 cycles: 22374269 heartbeat IPC: 2.24656 cumulative IPC: 2.23471 (Simulation time: 0 hr 1 min 15 sec) 
Heartbeat CPU 0 instructions: 60000000 cycles: 26825084 heartbeat IPC: 2.24678 cumulative IPC: 2.23671 (Simulation time: 0 hr 1 min 30 sec) 
Heartbeat CPU 0 instructions: 70000000 cycles: 31276356 heartbeat IPC: 2.24655 cumulative IPC: 2.23811 (Simulation time: 0 hr 1 min 45 sec) 
Heartbeat CPU 0 instructions: 80000000 cycles: 35726906 heartbeat IPC: 2.24691 cumulative IPC: 2.23921 (Simulation time: 0 hr 2 min 1 sec) 
Heartbeat CPU 0 instructions: 90000002 cycles: 40178514 heartbeat IPC: 2.24638 cumulative IPC: 2.24 (Simulation time: 0 hr 2 min 16 sec) 
Heartbeat CPU 0 instructions: 100000000 cycles: 44629123 heartbeat IPC: 2.24688 cumulative IPC: 2.24069 (Simulation time: 0 hr 2 min 31 sec) 

Warmup complete CPU 0 instructions: 100000001 cycles: 44629125 (Simulation time: 0 hr 2 min 31 sec) 

Heartbeat CPU 0 instructions: 110000002 cycles: 56496984 heartbeat IPC: 0.842612 cumulative IPC: 0.842612 (Simulation time: 0 hr 2 min 52 sec) 
Heartbeat CPU 0 instructions: 120000000 cycles: 68361745 heartbeat IPC: 0.842832 cumulative IPC: 0.842722 (Simulation time: 0 hr 3 min 13 sec) 
Heartbeat CPU 0 instructions: 130000002 cycles: 80142306 heartbeat IPC: 0.848856 cumulative IPC: 0.844757 (Simulation time: 0 hr 3 min 34 sec) 
Heartbeat CPU 0 instructions: 140000000 cycles: 91835228 heartbeat IPC: 0.855218 cumulative IPC: 0.847348 (Simulation time: 0 hr 3 min 55 sec) 
Heartbeat CPU 0 instructions: 150000000 cycles: 103667655 heartbeat IPC: 0.845135 cumulative IPC: 0.846905 (Simulation time: 0 hr 4 min 16 sec) 
Heartbeat CPU 0 instructions: 160000000 cycles: 115526359 heartbeat IPC: 0.843262 cumulative IPC: 0.846295 (Simulation time: 0 hr 4 min 37 sec) 
Heartbeat CPU 0 instructions: 170000000 cycles: 127382906 heartbeat IPC: 0.843416 cumulative IPC: 0.845883 (Simulation time: 0 hr 4 min 58 sec) 
Heartbeat CPU 0 instructions: 180000000 cycles: 139227515 heartbeat IPC: 0.844266 cumulative IPC: 0.84568 (Simulation time: 0 hr 5 min 19 sec) 
Heartbeat CPU 0 instructions: 190000002 cycles: 151039798 heartbeat IPC: 0.846577 cumulative IPC: 0.84578 (Simulation time: 0 hr 5 min 40 sec) 
Heartbeat CPU 0 instructions: 200000000 cycles: 162874524 heartbeat IPC: 0.844971 cumulative IPC: 0.845699 (Simulation time: 0 hr 6 min 0 sec) 
Heartbeat CPU 0 instructions: 210000001 cycles: 174686373 heartbeat IPC: 0.846608 cumulative IPC: 0.845781 (Simulation time: 0 hr 6 min 21 sec) 
Heartbeat CPU 0 instructions: 220000000 cycles: 186488897 heartbeat IPC: 0.847276 cumulative IPC: 0.845906 (Simulation time: 0 hr 6 min 42 sec) 
Heartbeat CPU 0 instructions: 230000002 cycles: 198275798 heartbeat IPC: 0.8484 cumulative IPC: 0.846097 (Simulation time: 0 hr 7 min 3 sec) 
Heartbeat CPU 0 instructions: 240000000 cycles: 210028022 heartbeat IPC: 0.850903 cumulative IPC: 0.846439 (Simulation time: 0 hr 7 min 24 sec) 
*** Reached end of trace for Core: 0 Repeating trace: /mnt/beegfs/pchatz06/selected_traces/510.parest_r.refrate.input1.region_2.w_0.0834_0.0894.trace.gz
Heartbeat CPU 0 instructions: 250000001 cycles: 221873630 heartbeat IPC: 0.844195 cumulative IPC: 0.846289 (Simulation time: 0 hr 7 min 44 sec) 
Finished CPU 0 instructions: 150000000 cycles: 177244505 cumulative IPC: 0.846289 (Simulation time: 0 hr 7 min 44 sec) 

CPU 0 Branch Prediction Accuracy: 98.5001% MPKI: 1.86195
Number of Branches: 18621271 Number of Mispredictions: 279293
Number of LOAD Instructions: 91411852
Number of LOAD Instructions (ROI): 91411852
Number of STORE Instructions: 1805486
Number of STORE Instructions (ROI): 1805486
Total Destination Memory Operands: 1826151
Total Destination Memory Operands (ROI): 1826151
Total Source Memory Operands: 91411852
Total Source Memory Operands (ROI): 91411852
Number of DEPENDED LOADS: 135166
Number of DEPENDED LOADS (ROI): 135166
Number of SQ_ADDED: 1826151
Number of SQ_ADDED (ROI): 1826151
Number of LQ_ADDED: 91445205
Number of LQ_ADDED (ROI): 91445205
Number of Instructions read from trace: 250000022

ChampSim completed all CPUs

Region of Interest Statistics

CPU 0 cumulative IPC: 0.846289 instructions: 150000000 cycles: 177244505
ITLB TOTAL     ACCESS:   23558749  HIT:   23558748  MISS:          1
ITLB LOAD      ACCESS:   23558749  HIT:   23558748  MISS:          1
ITLB RFO       ACCESS:          0  HIT:          0  MISS:          0
ITLB PREFETCH  ACCESS:          0  HIT:          0  MISS:          0
ITLB WRITEBACK ACCESS:          0  HIT:          0  MISS:          0
ITLB PREFETCH  REQUESTED:          0  ISSUED:          0  USEFUL:          0  USELESS:          0
ITLB TOTAL MSHR MERGED:          1
ITLB LOAD MSHR MERGED:          1
ITLB RFO MSHR MERGED:          0
ITLB PREFETCH MSHR MERGED:          0
ITLB WRITEBACK MSHR MERGED:          0
ITLB TOTAL ACCESSES:   23558750 HITS:   23558748 MISSES:          2
ITLB LOAD ACCESSES:   23558750 HITS:   23558748 MISSES:          2
ITLB RFO ACCESSES:          0 HITS:          0 MISSES:          0
ITLB PREFETCH ACCESSES:          0 HITS:          0 MISSES:          0
ITLB WRITEBACK ACCESSES:          0 HITS:          0 MISSES:          0
ITLB RQ ACCESS:  150000016
ITLB RQ TO_CACHE:   23558750
ITLB RQ MERGED:  126441266
ITLB RQ FORWARD:          0
ITLB WQ ACCESS:          0
ITLB WQ TO_CACHE:          0
ITLB WQ MERGED:          0
ITLB WQ FORWARD:          0
DTLB TOTAL     ACCESS:   36825585  HIT:   36731802  MISS:      93783
DTLB LOAD      ACCESS:   36166341  HIT:   36072921  MISS:      93420
DTLB RFO       ACCESS:     659244  HIT:     658881  MISS:        363
DTLB PREFETCH  ACCESS:          0  HIT:          0  MISS:          0
DTLB WRITEBACK ACCESS:          0  HIT:          0  MISS:          0
DTLB PREFETCH  REQUESTED:          0  ISSUED:          0  USEFUL:          0  USELESS:          0
DTLB TOTAL MSHR MERGED:     156532
DTLB LOAD MSHR MERGED:     156532
DTLB RFO MSHR MERGED:          0
DTLB PREFETCH MSHR MERGED:          0
DTLB WRITEBACK MSHR MERGED:          0
DTLB TOTAL ACCESSES:   36982117 HITS:   36731802 MISSES:     250315
DTLB LOAD ACCESSES:   36322873 HITS:   36072921 MISSES:     249952
DTLB RFO ACCESSES:     659244 HITS:     658881 MISSES:        363
DTLB PREFETCH ACCESSES:          0 HITS:          0 MISSES:          0
DTLB WRITEBACK ACCESSES:          0 HITS:          0 MISSES:          0
DTLB RQ ACCESS:   56040996
DTLB RQ TO_CACHE:   36982117
DTLB RQ MERGED:   19058879
DTLB RQ FORWARD:          0
DTLB WQ ACCESS:          0
DTLB WQ TO_CACHE:          0
DTLB WQ MERGED:          0
DTLB WQ FORWARD:          0
L1D TOTAL     ACCESS:   35306288  HIT:   30325752  MISS:    4980536
L1D LOAD      ACCESS:   21907225  HIT:   18811436  MISS:    3095789
L1D RFO       ACCESS:     910578  HIT:     898373  MISS:      12205
L1D PREFETCH  ACCESS:   12488485  HIT:   10615943  MISS:    1872542
L1D WRITEBACK ACCESS:          0  HIT:          0  MISS:          0
L1D PREFETCH  REQUESTED:   25880081  ISSUED:   25475523  USEFUL:    1317424  USELESS:     555139
L1D TOTAL MSHR MERGED:    9957192
L1D LOAD MSHR MERGED:    5700046
L1D RFO MSHR MERGED:         57
L1D PREFETCH MSHR MERGED:    4257089
L1D WRITEBACK MSHR MERGED:          0
L1D TOTAL ACCESSES:   45263712 HITS:   30325984 MISSES:   14937728
L1D LOAD ACCESSES:   25880081 HITS:   18811436 MISSES:    7068645
L1D RFO ACCESSES:     910635 HITS:     898373 MISSES:      12262
L1D PREFETCH ACCESSES:   18472996 HITS:   10616175 MISSES:    7856821
L1D WRITEBACK ACCESSES:          0 HITS:          0 MISSES:          0
L1D RQ ACCESS:   55122184
L1D RQ TO_CACHE:   25880081
L1D RQ MERGED:   29242103
L1D RQ FORWARD:          0
L1D WQ ACCESS:     918813
L1D WQ TO_CACHE:     910635
L1D WQ MERGED:       8178
L1D WQ FORWARD:        232
L1I TOTAL     ACCESS:   28579155  HIT:   28579154  MISS:          1
L1I LOAD      ACCESS:   28579155  HIT:   28579154  MISS:          1
L1I RFO       ACCESS:          0  HIT:          0  MISS:          0
L1I PREFETCH  ACCESS:          0  HIT:          0  MISS:          0
L1I WRITEBACK ACCESS:          0  HIT:          0  MISS:          0
L1I PREFETCH  REQUESTED:          0  ISSUED:          0  USEFUL:          0  USELESS:          0
L1I TOTAL MSHR MERGED:          1
L1I LOAD MSHR MERGED:          1
L1I RFO MSHR MERGED:          0
L1I PREFETCH MSHR MERGED:          0
L1I WRITEBACK MSHR MERGED:          0
L1I TOTAL ACCESSES:   28579156 HITS:   28579154 MISSES:          2
L1I LOAD ACCESSES:   28579156 HITS:   28579154 MISSES:          2
L1I RFO ACCESSES:          0 HITS:          0 MISSES:          0
L1I PREFETCH ACCESSES:          0 HITS:          0 MISSES:          0
L1I WRITEBACK ACCESSES:          0 HITS:          0 MISSES:          0
L1I RQ ACCESS:  150000016
L1I RQ TO_CACHE:   28579156
L1I RQ MERGED:  121420860
L1I RQ FORWARD:          0
L1I WQ ACCESS:          0
L1I WQ TO_CACHE:          0
L1I WQ MERGED:          0
L1I WQ FORWARD:          0
L2C TOTAL     ACCESS:    5430238  HIT:     996701  MISS:    4433537
L2C LOAD      ACCESS:    1368597  HIT:     348844  MISS:    1019753
L2C RFO       ACCESS:      12205  HIT:         29  MISS:      12176
L2C PREFETCH  ACCESS:    3968645  HIT:     567157  MISS:    3401488
L2C WRITEBACK ACCESS:      80791  HIT:      80671  MISS:        120
L2C PREFETCH  REQUESTED:     439722  ISSUED:     439722  USEFUL:     147219  USELESS:    3253794
L2C TOTAL MSHR MERGED:      27849
L2C LOAD MSHR MERGED:       2340
L2C RFO MSHR MERGED:          0
L2C PREFETCH MSHR MERGED:      25509
L2C WRITEBACK MSHR MERGED:          0
L2C TOTAL ACCESSES:    5475819 HITS:     996705 MISSES:    4479114
L2C LOAD ACCESSES:    1368600 HITS:     348847 MISSES:    1019753
L2C RFO ACCESSES:      12205 HITS:         29 MISSES:      12176
L2C PREFETCH ACCESSES:    4014223 HITS:     567158 MISSES:    3447065
L2C WRITEBACK ACCESSES:      80791 HITS:      80671 MISSES:        120
L2C RQ ACCESS:    1380805
L2C RQ TO_CACHE:    1380802
L2C RQ MERGED:          0
L2C RQ FORWARD:          0
L2C WQ ACCESS:      80791
L2C WQ TO_CACHE:      80791
L2C WQ MERGED:          0
L2C WQ FORWARD:          4
LLC TOTAL     ACCESS:    4528561  HIT:    1420313  MISS:    3108248
LLC LOAD      ACCESS:    1017402  HIT:     532375  MISS:     485027
LLC RFO       ACCESS:      12176  HIT:       2383  MISS:       9793
LLC PREFETCH  ACCESS:    3419280  HIT:     822826  MISS:    2596454
LLC WRITEBACK ACCESS:      79703  HIT:      62729  MISS:      16974
LLC PREFETCH  REQUESTED:          0  ISSUED:          0  USEFUL:       3378  USELESS:    2593788
LLC TOTAL MSHR MERGED:       1318
LLC LOAD MSHR MERGED:        142
LLC RFO MSHR MERGED:          0
LLC PREFETCH MSHR MERGED:       1176
LLC WRITEBACK MSHR MERGED:          0
LLC TOTAL ACCESSES:    4529896 HITS:    1420330 MISSES:    3109566
LLC LOAD ACCESSES:    1017413 HITS:     532386 MISSES:     485027
LLC RFO ACCESSES:      12176 HITS:       2383 MISSES:       9793
LLC PREFETCH ACCESSES:    3420604 HITS:     822832 MISSES:    2597772
LLC WRITEBACK ACCESSES:      79703 HITS:      62729 MISSES:      16974
LLC 0 RQ ACCESS:    1029589
LLC 0 RQ TO_CACHE:    1029578
LLC 0 RQ MERGED:          0
LLC 0 RQ FORWARD:          0
LLC WQ ACCESS:      79703
LLC WQ TO_CACHE:      79703
LLC WQ MERGED:          0
LLC WQ FORWARD:         17
Major fault: 0 Minor fault: 2401
CPU 0 L1D next line prefetcher final stats
CPU 0 L2C PC-based stride prefetcher final stats
All Misses: 5128285
All Hits: 2377614
SD Algo Stats - Switches: 0 SRR-Repls: 574365 BRR-Repls: 0

DRAM Statistics
 CHANNEL 0
 RQ ROW_BUFFER_HIT:    2634906  ROW_BUFFER_MISS:     454165
 DBUS_CONGESTED:    1351622
 WQ ROW_BUFFER_HIT:       5422  ROW_BUFFER_MISS:      35714  FULL:          0

 AVG_CONGESTED_CYCLE: 11
LOADS RETIRED: 55160256
INSTR RETIRED: 150000000
