
*** ChampSim Multicore Out-of-Order Simulator ***

Warmup Instructions: 100000000
Simulation Instructions: 150000000
Number of CPUs: 1
LLC sets: 2048
LLC ways: 16
Clean RRIP Policies: 3333323233333232 Dirty RRIP Policies: 3333323233333232 PSEL Width: 10 Track Set: 4294967295 PSEL Mask: 1 Demote Mask: 4044404440444044DS Algo: 0Window size: 0
Off-chip DRAM Size: 4096 MB Channels: 1 Width: 64-bit Data Rate: 1600 MT/s

CPU 0 runs /mnt/beegfs/pchatz06/selected_traces/510.parest_r.train.input1.region_2.w_0.0543_0.0585.trace.gz
NOT SORTED
TRACE STRING: /mnt/beegfs/pchatz06/selected_traces/510.parest_r.train.input1.region_2.w_0.0543_0.0585.trace.gz
SORTED
TRACE STRING: /mnt/beegfs/pchatz06/selected_traces/510.parest_r.train.input1.region_2.w_0.0543_0.0585.trace.gz
INITIAL
TRACE STRING: /mnt/beegfs/pchatz06/selected_traces/510.parest_r.train.input1.region_2.w_0.0543_0.0585.trace.gz

champsim_seed used: 210

CPU 0 L1D next line prefetcher
CPU 0 L2C IP-based stride prefetcher
Initialize DRRIP state
Assign rand_sets[0]: 454  LLC: 2048
rand_sets[0]: 454
Assign rand_sets[1]: 1662  LLC: 2048
rand_sets[1]: 1662
Assign rand_sets[2]: 1921  LLC: 2048
rand_sets[2]: 1921
Assign rand_sets[3]: 1131  LLC: 2048
rand_sets[3]: 1131
Assign rand_sets[4]: 331  LLC: 2048
rand_sets[4]: 331
Assign rand_sets[5]: 1531  LLC: 2048
rand_sets[5]: 1531
Assign rand_sets[6]: 482  LLC: 2048
rand_sets[6]: 482
Assign rand_sets[7]: 1275  LLC: 2048
rand_sets[7]: 1275
Assign rand_sets[8]: 1876  LLC: 2048
rand_sets[8]: 1876
Assign rand_sets[9]: 2038  LLC: 2048
rand_sets[9]: 2038
Assign rand_sets[10]: 701  LLC: 2048
rand_sets[10]: 701
Assign rand_sets[11]: 479  LLC: 2048
rand_sets[11]: 479
Assign rand_sets[12]: 892  LLC: 2048
rand_sets[12]: 892
Assign rand_sets[13]: 1820  LLC: 2048
rand_sets[13]: 1820
Assign rand_sets[14]: 1505  LLC: 2048
rand_sets[14]: 1505
Assign rand_sets[15]: 1159  LLC: 2048
rand_sets[15]: 1159
Assign rand_sets[16]: 513  LLC: 2048
rand_sets[16]: 513
Assign rand_sets[17]: 703  LLC: 2048
rand_sets[17]: 703
Assign rand_sets[18]: 561  LLC: 2048
rand_sets[18]: 561
Assign rand_sets[19]: 990  LLC: 2048
rand_sets[19]: 990
Assign rand_sets[20]: 342  LLC: 2048
rand_sets[20]: 342
Assign rand_sets[21]: 882  LLC: 2048
rand_sets[21]: 882
Assign rand_sets[22]: 15  LLC: 2048
rand_sets[22]: 15
Assign rand_sets[23]: 71  LLC: 2048
rand_sets[23]: 71
Assign rand_sets[24]: 1127  LLC: 2048
rand_sets[24]: 1127
Assign rand_sets[25]: 1382  LLC: 2048
rand_sets[25]: 1382
Assign rand_sets[26]: 647  LLC: 2048
rand_sets[26]: 647
Assign rand_sets[27]: 857  LLC: 2048
rand_sets[27]: 857
Assign rand_sets[28]: 1450  LLC: 2048
rand_sets[28]: 1450
Assign rand_sets[29]: 1160  LLC: 2048
rand_sets[29]: 1160
Assign rand_sets[30]: 1852  LLC: 2048
rand_sets[30]: 1852
Assign rand_sets[31]: 1881  LLC: 2048
rand_sets[31]: 1881
Assign rand_sets[32]: 1770  LLC: 2048
rand_sets[32]: 1770
Assign rand_sets[33]: 1622  LLC: 2048
rand_sets[33]: 1622
Assign rand_sets[34]: 275  LLC: 2048
rand_sets[34]: 275
Assign rand_sets[35]: 635  LLC: 2048
rand_sets[35]: 635
Assign rand_sets[36]: 466  LLC: 2048
rand_sets[36]: 466
Assign rand_sets[37]: 1413  LLC: 2048
rand_sets[37]: 1413
Assign rand_sets[38]: 417  LLC: 2048
rand_sets[38]: 417
Assign rand_sets[39]: 472  LLC: 2048
rand_sets[39]: 472
Assign rand_sets[40]: 1340  LLC: 2048
rand_sets[40]: 1340
Assign rand_sets[41]: 852  LLC: 2048
rand_sets[41]: 852
Assign rand_sets[42]: 1365  LLC: 2048
rand_sets[42]: 1365
Assign rand_sets[43]: 47  LLC: 2048
rand_sets[43]: 47
Assign rand_sets[44]: 823  LLC: 2048
rand_sets[44]: 823
Assign rand_sets[45]: 686  LLC: 2048
rand_sets[45]: 686
Assign rand_sets[46]: 1637  LLC: 2048
rand_sets[46]: 1637
Assign rand_sets[47]: 1115  LLC: 2048
rand_sets[47]: 1115
Assign rand_sets[48]: 986  LLC: 2048
rand_sets[48]: 986
Assign rand_sets[49]: 258  LLC: 2048
rand_sets[49]: 258
Assign rand_sets[50]: 633  LLC: 2048
rand_sets[50]: 633
Assign rand_sets[51]: 920  LLC: 2048
rand_sets[51]: 920
Assign rand_sets[52]: 204  LLC: 2048
rand_sets[52]: 204
Assign rand_sets[53]: 227  LLC: 2048
rand_sets[53]: 227
Assign rand_sets[54]: 1818  LLC: 2048
rand_sets[54]: 1818
Assign rand_sets[55]: 886  LLC: 2048
rand_sets[55]: 886
Assign rand_sets[56]: 1422  LLC: 2048
rand_sets[56]: 1422
Assign rand_sets[57]: 607  LLC: 2048
rand_sets[57]: 607
Assign rand_sets[58]: 217  LLC: 2048
rand_sets[58]: 217
Assign rand_sets[59]: 1945  LLC: 2048
rand_sets[59]: 1945
Assign rand_sets[60]: 143  LLC: 2048
rand_sets[60]: 143
Assign rand_sets[61]: 1311  LLC: 2048
rand_sets[61]: 1311
Assign rand_sets[62]: 319  LLC: 2048
rand_sets[62]: 319
Assign rand_sets[63]: 1846  LLC: 2048
rand_sets[63]: 1846
 CLEAN-RRIP-POLICY-1: 3-3-3-3-3-2-3-2- CLEAN-RRIP-POLICY-2: 3-3-3-3-3-2-3-2-
 DIRTY-RRIP-POLICY-1: 3-3-3-3-3-2-3-2- DIRTY-RRIP-POLICY-2: 3-3-3-3-3-2-3-2-
 PSEL width: 10
Heartbeat CPU 0 instructions: 10000002 cycles: 3606817 heartbeat IPC: 2.77253 cumulative IPC: 2.77253 (Simulation time: 0 hr 0 min 11 sec) 
Heartbeat CPU 0 instructions: 20000000 cycles: 7363765 heartbeat IPC: 2.66173 cumulative IPC: 2.716 (Simulation time: 0 hr 0 min 22 sec) 
Heartbeat CPU 0 instructions: 30000000 cycles: 12167053 heartbeat IPC: 2.08191 cumulative IPC: 2.46568 (Simulation time: 0 hr 0 min 38 sec) 
Heartbeat CPU 0 instructions: 40000000 cycles: 16930081 heartbeat IPC: 2.0995 cumulative IPC: 2.36266 (Simulation time: 0 hr 0 min 54 sec) 
Heartbeat CPU 0 instructions: 50000003 cycles: 21732395 heartbeat IPC: 2.08233 cumulative IPC: 2.30071 (Simulation time: 0 hr 1 min 10 sec) 
Heartbeat CPU 0 instructions: 60000000 cycles: 26518617 heartbeat IPC: 2.08933 cumulative IPC: 2.26256 (Simulation time: 0 hr 1 min 27 sec) 
Heartbeat CPU 0 instructions: 70000001 cycles: 31306666 heartbeat IPC: 2.08853 cumulative IPC: 2.23595 (Simulation time: 0 hr 1 min 43 sec) 
Heartbeat CPU 0 instructions: 80000000 cycles: 36101236 heartbeat IPC: 2.08569 cumulative IPC: 2.21599 (Simulation time: 0 hr 1 min 59 sec) 
Heartbeat CPU 0 instructions: 90000003 cycles: 40902961 heartbeat IPC: 2.08259 cumulative IPC: 2.20033 (Simulation time: 0 hr 2 min 16 sec) 
Heartbeat CPU 0 instructions: 100000000 cycles: 45676465 heartbeat IPC: 2.0949 cumulative IPC: 2.18931 (Simulation time: 0 hr 2 min 32 sec) 

Warmup complete CPU 0 instructions: 100000002 cycles: 45676471 (Simulation time: 0 hr 2 min 32 sec) 

Heartbeat CPU 0 instructions: 110000002 cycles: 58689096 heartbeat IPC: 0.768484 cumulative IPC: 0.768484 (Simulation time: 0 hr 2 min 53 sec) 
Heartbeat CPU 0 instructions: 120000000 cycles: 72166069 heartbeat IPC: 0.742006 cumulative IPC: 0.755013 (Simulation time: 0 hr 3 min 14 sec) 
Heartbeat CPU 0 instructions: 130000001 cycles: 84220155 heartbeat IPC: 0.829594 cumulative IPC: 0.778338 (Simulation time: 0 hr 3 min 34 sec) 
Heartbeat CPU 0 instructions: 140000000 cycles: 96211830 heartbeat IPC: 0.833912 cumulative IPC: 0.791525 (Simulation time: 0 hr 3 min 53 sec) 
Heartbeat CPU 0 instructions: 150000001 cycles: 108170619 heartbeat IPC: 0.836205 cumulative IPC: 0.800075 (Simulation time: 0 hr 4 min 13 sec) 
Heartbeat CPU 0 instructions: 160000000 cycles: 120080035 heartbeat IPC: 0.839672 cumulative IPC: 0.806413 (Simulation time: 0 hr 4 min 33 sec) 
Heartbeat CPU 0 instructions: 170000000 cycles: 131969705 heartbeat IPC: 0.841066 cumulative IPC: 0.811188 (Simulation time: 0 hr 4 min 52 sec) 
Heartbeat CPU 0 instructions: 180000000 cycles: 143857397 heartbeat IPC: 0.841206 cumulative IPC: 0.814822 (Simulation time: 0 hr 5 min 12 sec) 
Heartbeat CPU 0 instructions: 190000000 cycles: 155746750 heartbeat IPC: 0.841089 cumulative IPC: 0.817659 (Simulation time: 0 hr 5 min 31 sec) 
Heartbeat CPU 0 instructions: 200000000 cycles: 167625998 heartbeat IPC: 0.841804 cumulative IPC: 0.820011 (Simulation time: 0 hr 5 min 51 sec) 
Heartbeat CPU 0 instructions: 210000003 cycles: 179504786 heartbeat IPC: 0.841837 cumulative IPC: 0.821949 (Simulation time: 0 hr 6 min 10 sec) 
Heartbeat CPU 0 instructions: 220000000 cycles: 191382872 heartbeat IPC: 0.841886 cumulative IPC: 0.823574 (Simulation time: 0 hr 6 min 30 sec) 
Heartbeat CPU 0 instructions: 230000003 cycles: 203231217 heartbeat IPC: 0.844 cumulative IPC: 0.82511 (Simulation time: 0 hr 6 min 50 sec) 
Heartbeat CPU 0 instructions: 240000000 cycles: 215062601 heartbeat IPC: 0.845209 cumulative IPC: 0.826514 (Simulation time: 0 hr 7 min 9 sec) 
*** Reached end of trace for Core: 0 Repeating trace: /mnt/beegfs/pchatz06/selected_traces/510.parest_r.train.input1.region_2.w_0.0543_0.0585.trace.gz
Heartbeat CPU 0 instructions: 250000003 cycles: 226750637 heartbeat IPC: 0.855576 cumulative IPC: 0.82839 (Simulation time: 0 hr 7 min 29 sec) 
Finished CPU 0 instructions: 150000001 cycles: 181074166 cumulative IPC: 0.82839 (Simulation time: 0 hr 7 min 29 sec) 

CPU 0 Branch Prediction Accuracy: 98.21% MPKI: 2.2776
Number of Branches: 19086295 Number of Mispredictions: 341640
Number of LOAD Instructions: 86959922
Number of LOAD Instructions (ROI): 86959922
Number of STORE Instructions: 7400434
Number of STORE Instructions (ROI): 7400434
Total Destination Memory Operands: 7756426
Total Destination Memory Operands (ROI): 7756426
Total Source Memory Operands: 86959922
Total Source Memory Operands (ROI): 86959922
Number of DEPENDED LOADS: 821710
Number of DEPENDED LOADS (ROI): 821710
Number of SQ_ADDED: 7756425
Number of SQ_ADDED (ROI): 7756425
Number of LQ_ADDED: 91302419
Number of LQ_ADDED (ROI): 91302419
Number of Instructions read from trace: 250000090

ChampSim completed all CPUs

Region of Interest Statistics

CPU 0 cumulative IPC: 0.82839 instructions: 150000001 cycles: 181074166
ITLB TOTAL     ACCESS:   24008511  HIT:   24008415  MISS:         96
ITLB LOAD      ACCESS:   24008511  HIT:   24008415  MISS:         96
ITLB RFO       ACCESS:          0  HIT:          0  MISS:          0
ITLB PREFETCH  ACCESS:          0  HIT:          0  MISS:          0
ITLB WRITEBACK ACCESS:          0  HIT:          0  MISS:          0
ITLB PREFETCH  REQUESTED:          0  ISSUED:          0  USEFUL:          0  USELESS:          0
ITLB TOTAL MSHR MERGED:        108
ITLB LOAD MSHR MERGED:        108
ITLB RFO MSHR MERGED:          0
ITLB PREFETCH MSHR MERGED:          0
ITLB WRITEBACK MSHR MERGED:          0
ITLB TOTAL ACCESSES:   24008619 HITS:   24008415 MISSES:        204
ITLB LOAD ACCESSES:   24008619 HITS:   24008415 MISSES:        204
ITLB RFO ACCESSES:          0 HITS:          0 MISSES:          0
ITLB PREFETCH ACCESSES:          0 HITS:          0 MISSES:          0
ITLB WRITEBACK ACCESSES:          0 HITS:          0 MISSES:          0
ITLB RQ ACCESS:  149999834
ITLB RQ TO_CACHE:   24008619
ITLB RQ MERGED:  125991215
ITLB RQ FORWARD:          0
ITLB WQ ACCESS:          0
ITLB WQ TO_CACHE:          0
ITLB WQ MERGED:          0
ITLB WQ FORWARD:          0
DTLB TOTAL     ACCESS:   36752531  HIT:   36640843  MISS:     111688
DTLB LOAD      ACCESS:   35267913  HIT:   35159634  MISS:     108279
DTLB RFO       ACCESS:    1484618  HIT:    1481209  MISS:       3409
DTLB PREFETCH  ACCESS:          0  HIT:          0  MISS:          0
DTLB WRITEBACK ACCESS:          0  HIT:          0  MISS:          0
DTLB PREFETCH  REQUESTED:          0  ISSUED:          0  USEFUL:          0  USELESS:          0
DTLB TOTAL MSHR MERGED:     158857
DTLB LOAD MSHR MERGED:     154736
DTLB RFO MSHR MERGED:       4121
DTLB PREFETCH MSHR MERGED:          0
DTLB WRITEBACK MSHR MERGED:          0
DTLB TOTAL ACCESSES:   36911388 HITS:   36640843 MISSES:     270545
DTLB LOAD ACCESSES:   35422649 HITS:   35159634 MISSES:     263015
DTLB RFO ACCESSES:    1488739 HITS:    1481209 MISSES:       7530
DTLB PREFETCH ACCESSES:          0 HITS:          0 MISSES:          0
DTLB WRITEBACK ACCESSES:          0 HITS:          0 MISSES:          0
DTLB RQ ACCESS:   55554236
DTLB RQ TO_CACHE:   36911388
DTLB RQ MERGED:   18642848
DTLB RQ FORWARD:          0
DTLB WQ ACCESS:          0
DTLB WQ TO_CACHE:          0
DTLB WQ MERGED:          0
DTLB WQ FORWARD:          0
L1D TOTAL     ACCESS:   38035929  HIT:   33280920  MISS:    4755009
L1D LOAD      ACCESS:   22572258  HIT:   19674263  MISS:    2897995
L1D RFO       ACCESS:    1915932  HIT:    1872619  MISS:      43313
L1D PREFETCH  ACCESS:   13547739  HIT:   11734038  MISS:    1813701
L1D WRITEBACK ACCESS:          0  HIT:          0  MISS:          0
L1D PREFETCH  REQUESTED:   26171637  ISSUED:   25726935  USEFUL:    1236015  USELESS:     577643
L1D TOTAL MSHR MERGED:    9167282
L1D LOAD MSHR MERGED:    5154509
L1D RFO MSHR MERGED:      82277
L1D PREFETCH MSHR MERGED:    3930496
L1D WRITEBACK MSHR MERGED:          0
L1D TOTAL ACCESSES:   47203681 HITS:   33281382 MISSES:   13922299
L1D LOAD ACCESSES:   26171638 HITS:   19674264 MISSES:    6497374
L1D RFO ACCESSES:    1998132 HITS:    1872619 MISSES:     125513
L1D PREFETCH ACCESSES:   19033911 HITS:   11734499 MISSES:    7299412
L1D WRITEBACK ACCESSES:          0 HITS:          0 MISSES:          0
L1D RQ ACCESS:   53525283
L1D RQ TO_CACHE:   26171637
L1D RQ MERGED:   27353645
L1D RQ FORWARD:          0
L1D WQ ACCESS:    2028963
L1D WQ TO_CACHE:    1998134
L1D WQ MERGED:      30829
L1D WQ FORWARD:        462
L1I TOTAL     ACCESS:   29739294  HIT:   29736086  MISS:       3208
L1I LOAD      ACCESS:   29739294  HIT:   29736086  MISS:       3208
L1I RFO       ACCESS:          0  HIT:          0  MISS:          0
L1I PREFETCH  ACCESS:          0  HIT:          0  MISS:          0
L1I WRITEBACK ACCESS:          0  HIT:          0  MISS:          0
L1I PREFETCH  REQUESTED:          0  ISSUED:          0  USEFUL:          0  USELESS:          0
L1I TOTAL MSHR MERGED:       2940
L1I LOAD MSHR MERGED:       2940
L1I RFO MSHR MERGED:          0
L1I PREFETCH MSHR MERGED:          0
L1I WRITEBACK MSHR MERGED:          0
L1I TOTAL ACCESSES:   29742235 HITS:   29736086 MISSES:       6149
L1I LOAD ACCESSES:   29742235 HITS:   29736086 MISSES:       6149
L1I RFO ACCESSES:          0 HITS:          0 MISSES:          0
L1I PREFETCH ACCESSES:          0 HITS:          0 MISSES:          0
L1I WRITEBACK ACCESSES:          0 HITS:          0 MISSES:          0
L1I RQ ACCESS:  149999834
L1I RQ TO_CACHE:   29742235
L1I RQ MERGED:  120257599
L1I RQ FORWARD:          0
L1I WQ ACCESS:          0
L1I WQ TO_CACHE:          0
L1I WQ MERGED:          0
L1I WQ FORWARD:          0
L2C TOTAL     ACCESS:    5251355  HIT:    1157741  MISS:    4093614
L2C LOAD      ACCESS:    1346050  HIT:     388825  MISS:     957225
L2C RFO       ACCESS:      43234  HIT:      27238  MISS:      15996
L2C PREFETCH  ACCESS:    3734324  HIT:     614024  MISS:    3120300
L2C WRITEBACK ACCESS:     127747  HIT:     127654  MISS:         93
L2C PREFETCH  REQUESTED:     442072  ISSUED:     442072  USEFUL:     144477  USELESS:    2975100
L2C TOTAL MSHR MERGED:      28299
L2C LOAD MSHR MERGED:       2999
L2C RFO MSHR MERGED:          0
L2C PREFETCH MSHR MERGED:      25300
L2C WRITEBACK MSHR MERGED:          0
L2C TOTAL ACCESSES:    5298525 HITS:    1157771 MISSES:    4140754
L2C LOAD ACCESSES:    1346073 HITS:     388846 MISSES:     957227
L2C RFO ACCESSES:      43236 HITS:      27240 MISSES:      15996
L2C PREFETCH ACCESSES:    3781469 HITS:     614031 MISSES:    3167438
L2C WRITEBACK ACCESSES:     127747 HITS:     127654 MISSES:         93
L2C RQ ACCESS:    1389310
L2C RQ TO_CACHE:    1389287
L2C RQ MERGED:          0
L2C RQ FORWARD:          0
L2C WQ ACCESS:     127748
L2C WQ TO_CACHE:     127748
L2C WQ MERGED:          0
L2C WQ FORWARD:         30
LLC TOTAL     ACCESS:    4191812  HIT:    1287706  MISS:    2904106
LLC LOAD      ACCESS:     954220  HIT:     461227  MISS:     492993
LLC RFO       ACCESS:      15996  HIT:       4455  MISS:      11541
LLC PREFETCH  ACCESS:    3139357  HIT:     755145  MISS:    2384212
LLC WRITEBACK ACCESS:      82239  HIT:      66879  MISS:      15360
LLC PREFETCH  REQUESTED:          0  ISSUED:          0  USEFUL:       3152  USELESS:    2383573
LLC TOTAL MSHR MERGED:       1334
LLC LOAD MSHR MERGED:        253
LLC RFO MSHR MERGED:          0
LLC PREFETCH MSHR MERGED:       1081
LLC WRITEBACK MSHR MERGED:          0
LLC TOTAL ACCESSES:    4193157 HITS:    1287712 MISSES:    2905445
LLC LOAD ACCESSES:     954228 HITS:     461233 MISSES:     492995
LLC RFO ACCESSES:      15996 HITS:       4455 MISSES:      11541
LLC PREFETCH ACCESSES:    3140694 HITS:     755145 MISSES:    2385549
LLC WRITEBACK ACCESSES:      82239 HITS:      66879 MISSES:      15360
LLC 0 RQ ACCESS:     970224
LLC 0 RQ TO_CACHE:     970218
LLC 0 RQ MERGED:          0
LLC 0 RQ FORWARD:          0
LLC WQ ACCESS:      82239
LLC WQ TO_CACHE:      82239
LLC WQ MERGED:          0
LLC WQ FORWARD:          6
Major fault: 0 Minor fault: 2584
CPU 0 L1D next line prefetcher final stats
CPU 0 L2C PC-based stride prefetcher final stats
All Misses: 3007819
All Hits: 1416678
SD Algo Stats - Switches: 0 SRR-Repls: 482603 BRR-Repls: 0

DRAM Statistics
 CHANNEL 0
 RQ ROW_BUFFER_HIT:    2446734  ROW_BUFFER_MISS:     440038
 DBUS_CONGESTED:    1337537
 WQ ROW_BUFFER_HIT:       5995  ROW_BUFFER_MISS:      34652  FULL:          0

 AVG_CONGESTED_CYCLE: 12
LOADS RETIRED: 53752262
INSTR RETIRED: 150000000
