
*** ChampSim Multicore Out-of-Order Simulator ***

Warmup Instructions: 100000000
Simulation Instructions: 150000000
Number of CPUs: 1
LLC sets: 2048
LLC ways: 16
Clean RRIP Policies: 3333323233333232 Dirty RRIP Policies: 3333323233333232 PSEL Width: 10 Track Set: 4294967295 PSEL Mask: 1 Demote Mask: 4044404440444044DS Algo: 0Window size: 0
Off-chip DRAM Size: 4096 MB Channels: 1 Width: 64-bit Data Rate: 1600 MT/s

CPU 0 runs /mnt/beegfs/pchatz06/selected_traces/519.lbm_r.refrate.input1.region_5.w_0.1719_0.19.trace.gz
NOT SORTED
TRACE STRING: /mnt/beegfs/pchatz06/selected_traces/519.lbm_r.refrate.input1.region_5.w_0.1719_0.19.trace.gz
SORTED
TRACE STRING: /mnt/beegfs/pchatz06/selected_traces/519.lbm_r.refrate.input1.region_5.w_0.1719_0.19.trace.gz
INITIAL
TRACE STRING: /mnt/beegfs/pchatz06/selected_traces/519.lbm_r.refrate.input1.region_5.w_0.1719_0.19.trace.gz

champsim_seed used: 106

CPU 0 L1D next line prefetcher
CPU 0 L2C IP-based stride prefetcher
Initialize DRRIP state
Assign rand_sets[0]: 454  LLC: 2048
rand_sets[0]: 454
Assign rand_sets[1]: 1662  LLC: 2048
rand_sets[1]: 1662
Assign rand_sets[2]: 1921  LLC: 2048
rand_sets[2]: 1921
Assign rand_sets[3]: 1131  LLC: 2048
rand_sets[3]: 1131
Assign rand_sets[4]: 331  LLC: 2048
rand_sets[4]: 331
Assign rand_sets[5]: 1531  LLC: 2048
rand_sets[5]: 1531
Assign rand_sets[6]: 482  LLC: 2048
rand_sets[6]: 482
Assign rand_sets[7]: 1275  LLC: 2048
rand_sets[7]: 1275
Assign rand_sets[8]: 1876  LLC: 2048
rand_sets[8]: 1876
Assign rand_sets[9]: 2038  LLC: 2048
rand_sets[9]: 2038
Assign rand_sets[10]: 701  LLC: 2048
rand_sets[10]: 701
Assign rand_sets[11]: 479  LLC: 2048
rand_sets[11]: 479
Assign rand_sets[12]: 892  LLC: 2048
rand_sets[12]: 892
Assign rand_sets[13]: 1820  LLC: 2048
rand_sets[13]: 1820
Assign rand_sets[14]: 1505  LLC: 2048
rand_sets[14]: 1505
Assign rand_sets[15]: 1159  LLC: 2048
rand_sets[15]: 1159
Assign rand_sets[16]: 513  LLC: 2048
rand_sets[16]: 513
Assign rand_sets[17]: 703  LLC: 2048
rand_sets[17]: 703
Assign rand_sets[18]: 561  LLC: 2048
rand_sets[18]: 561
Assign rand_sets[19]: 990  LLC: 2048
rand_sets[19]: 990
Assign rand_sets[20]: 342  LLC: 2048
rand_sets[20]: 342
Assign rand_sets[21]: 882  LLC: 2048
rand_sets[21]: 882
Assign rand_sets[22]: 15  LLC: 2048
rand_sets[22]: 15
Assign rand_sets[23]: 71  LLC: 2048
rand_sets[23]: 71
Assign rand_sets[24]: 1127  LLC: 2048
rand_sets[24]: 1127
Assign rand_sets[25]: 1382  LLC: 2048
rand_sets[25]: 1382
Assign rand_sets[26]: 647  LLC: 2048
rand_sets[26]: 647
Assign rand_sets[27]: 857  LLC: 2048
rand_sets[27]: 857
Assign rand_sets[28]: 1450  LLC: 2048
rand_sets[28]: 1450
Assign rand_sets[29]: 1160  LLC: 2048
rand_sets[29]: 1160
Assign rand_sets[30]: 1852  LLC: 2048
rand_sets[30]: 1852
Assign rand_sets[31]: 1881  LLC: 2048
rand_sets[31]: 1881
Assign rand_sets[32]: 1770  LLC: 2048
rand_sets[32]: 1770
Assign rand_sets[33]: 1622  LLC: 2048
rand_sets[33]: 1622
Assign rand_sets[34]: 275  LLC: 2048
rand_sets[34]: 275
Assign rand_sets[35]: 635  LLC: 2048
rand_sets[35]: 635
Assign rand_sets[36]: 466  LLC: 2048
rand_sets[36]: 466
Assign rand_sets[37]: 1413  LLC: 2048
rand_sets[37]: 1413
Assign rand_sets[38]: 417  LLC: 2048
rand_sets[38]: 417
Assign rand_sets[39]: 472  LLC: 2048
rand_sets[39]: 472
Assign rand_sets[40]: 1340  LLC: 2048
rand_sets[40]: 1340
Assign rand_sets[41]: 852  LLC: 2048
rand_sets[41]: 852
Assign rand_sets[42]: 1365  LLC: 2048
rand_sets[42]: 1365
Assign rand_sets[43]: 47  LLC: 2048
rand_sets[43]: 47
Assign rand_sets[44]: 823  LLC: 2048
rand_sets[44]: 823
Assign rand_sets[45]: 686  LLC: 2048
rand_sets[45]: 686
Assign rand_sets[46]: 1637  LLC: 2048
rand_sets[46]: 1637
Assign rand_sets[47]: 1115  LLC: 2048
rand_sets[47]: 1115
Assign rand_sets[48]: 986  LLC: 2048
rand_sets[48]: 986
Assign rand_sets[49]: 258  LLC: 2048
rand_sets[49]: 258
Assign rand_sets[50]: 633  LLC: 2048
rand_sets[50]: 633
Assign rand_sets[51]: 920  LLC: 2048
rand_sets[51]: 920
Assign rand_sets[52]: 204  LLC: 2048
rand_sets[52]: 204
Assign rand_sets[53]: 227  LLC: 2048
rand_sets[53]: 227
Assign rand_sets[54]: 1818  LLC: 2048
rand_sets[54]: 1818
Assign rand_sets[55]: 886  LLC: 2048
rand_sets[55]: 886
Assign rand_sets[56]: 1422  LLC: 2048
rand_sets[56]: 1422
Assign rand_sets[57]: 607  LLC: 2048
rand_sets[57]: 607
Assign rand_sets[58]: 217  LLC: 2048
rand_sets[58]: 217
Assign rand_sets[59]: 1945  LLC: 2048
rand_sets[59]: 1945
Assign rand_sets[60]: 143  LLC: 2048
rand_sets[60]: 143
Assign rand_sets[61]: 1311  LLC: 2048
rand_sets[61]: 1311
Assign rand_sets[62]: 319  LLC: 2048
rand_sets[62]: 319
Assign rand_sets[63]: 1846  LLC: 2048
rand_sets[63]: 1846
 CLEAN-RRIP-POLICY-1: 3-3-3-3-3-2-3-2- CLEAN-RRIP-POLICY-2: 3-3-3-3-3-2-3-2-
 DIRTY-RRIP-POLICY-1: 3-3-3-3-3-2-3-2- DIRTY-RRIP-POLICY-2: 3-3-3-3-3-2-3-2-
 PSEL width: 10
Heartbeat CPU 0 instructions: 10000003 cycles: 4321566 heartbeat IPC: 2.31398 cumulative IPC: 2.31398 (Simulation time: 0 hr 0 min 17 sec) 
Heartbeat CPU 0 instructions: 20000000 cycles: 8643670 heartbeat IPC: 2.31369 cumulative IPC: 2.31383 (Simulation time: 0 hr 0 min 35 sec) 
Heartbeat CPU 0 instructions: 30000003 cycles: 12969723 heartbeat IPC: 2.31158 cumulative IPC: 2.31308 (Simulation time: 0 hr 0 min 52 sec) 
Heartbeat CPU 0 instructions: 40000000 cycles: 17291265 heartbeat IPC: 2.31399 cumulative IPC: 2.31331 (Simulation time: 0 hr 1 min 9 sec) 
Heartbeat CPU 0 instructions: 50000000 cycles: 21613151 heartbeat IPC: 2.3138 cumulative IPC: 2.31341 (Simulation time: 0 hr 1 min 26 sec) 
Heartbeat CPU 0 instructions: 60000000 cycles: 25935014 heartbeat IPC: 2.31382 cumulative IPC: 2.31347 (Simulation time: 0 hr 1 min 44 sec) 
Heartbeat CPU 0 instructions: 70000001 cycles: 30261000 heartbeat IPC: 2.31161 cumulative IPC: 2.31321 (Simulation time: 0 hr 2 min 1 sec) 
Heartbeat CPU 0 instructions: 80000000 cycles: 34582825 heartbeat IPC: 2.31384 cumulative IPC: 2.31329 (Simulation time: 0 hr 2 min 18 sec) 
Heartbeat CPU 0 instructions: 90000001 cycles: 38904824 heartbeat IPC: 2.31374 cumulative IPC: 2.31334 (Simulation time: 0 hr 2 min 36 sec) 
Heartbeat CPU 0 instructions: 100000000 cycles: 43226345 heartbeat IPC: 2.314 cumulative IPC: 2.3134 (Simulation time: 0 hr 2 min 53 sec) 

Warmup complete CPU 0 instructions: 100000003 cycles: 43226346 (Simulation time: 0 hr 2 min 53 sec) 

Heartbeat CPU 0 instructions: 110000002 cycles: 57506953 heartbeat IPC: 0.70025 cumulative IPC: 0.70025 (Simulation time: 0 hr 3 min 18 sec) 
Heartbeat CPU 0 instructions: 120000000 cycles: 71523436 heartbeat IPC: 0.713446 cumulative IPC: 0.706786 (Simulation time: 0 hr 3 min 42 sec) 
Heartbeat CPU 0 instructions: 130000002 cycles: 85705470 heartbeat IPC: 0.705118 cumulative IPC: 0.706229 (Simulation time: 0 hr 4 min 7 sec) 
Heartbeat CPU 0 instructions: 140000000 cycles: 99816669 heartbeat IPC: 0.708657 cumulative IPC: 0.706835 (Simulation time: 0 hr 4 min 31 sec) 
Heartbeat CPU 0 instructions: 150000002 cycles: 113448363 heartbeat IPC: 0.733585 cumulative IPC: 0.712027 (Simulation time: 0 hr 4 min 56 sec) 
Heartbeat CPU 0 instructions: 160000000 cycles: 127039956 heartbeat IPC: 0.735749 cumulative IPC: 0.715874 (Simulation time: 0 hr 5 min 20 sec) 
Heartbeat CPU 0 instructions: 170000001 cycles: 141150959 heartbeat IPC: 0.708667 cumulative IPC: 0.714836 (Simulation time: 0 hr 5 min 44 sec) 
Heartbeat CPU 0 instructions: 180000000 cycles: 154709945 heartbeat IPC: 0.737518 cumulative IPC: 0.717594 (Simulation time: 0 hr 6 min 9 sec) 
Heartbeat CPU 0 instructions: 190000002 cycles: 177371989 heartbeat IPC: 0.441267 cumulative IPC: 0.670913 (Simulation time: 0 hr 6 min 41 sec) 
Heartbeat CPU 0 instructions: 200000000 cycles: 191373739 heartbeat IPC: 0.714196 cumulative IPC: 0.675003 (Simulation time: 0 hr 7 min 5 sec) 
Heartbeat CPU 0 instructions: 210000000 cycles: 205113326 heartbeat IPC: 0.727824 cumulative IPC: 0.679486 (Simulation time: 0 hr 7 min 30 sec) 
Heartbeat CPU 0 instructions: 220000000 cycles: 218971413 heartbeat IPC: 0.7216 cumulative IPC: 0.682807 (Simulation time: 0 hr 7 min 54 sec) 
Heartbeat CPU 0 instructions: 230000002 cycles: 232893202 heartbeat IPC: 0.718299 cumulative IPC: 0.685412 (Simulation time: 0 hr 8 min 18 sec) 
Heartbeat CPU 0 instructions: 240000000 cycles: 246955427 heartbeat IPC: 0.711125 cumulative IPC: 0.687187 (Simulation time: 0 hr 8 min 42 sec) 
*** Reached end of trace for Core: 0 Repeating trace: /mnt/beegfs/pchatz06/selected_traces/519.lbm_r.refrate.input1.region_5.w_0.1719_0.19.trace.gz
Heartbeat CPU 0 instructions: 250000000 cycles: 261333978 heartbeat IPC: 0.69548 cumulative IPC: 0.687734 (Simulation time: 0 hr 9 min 5 sec) 
Finished CPU 0 instructions: 150000001 cycles: 218107633 cumulative IPC: 0.687734 (Simulation time: 0 hr 9 min 5 sec) 

CPU 0 Branch Prediction Accuracy: 99.6831% MPKI: 0.0294
Number of Branches: 1391692 Number of Mispredictions: 4410
Number of LOAD Instructions: 62613655
Number of LOAD Instructions (ROI): 62613655
Number of STORE Instructions: 32250762
Number of STORE Instructions (ROI): 32250762
Total Destination Memory Operands: 32250762
Total Destination Memory Operands (ROI): 32250762
Total Source Memory Operands: 62613655
Total Source Memory Operands (ROI): 62613655
Number of DEPENDED LOADS: 8080544
Number of DEPENDED LOADS (ROI): 8080544
Number of SQ_ADDED: 32250738
Number of SQ_ADDED (ROI): 32250738
Number of LQ_ADDED: 62613601
Number of LQ_ADDED (ROI): 62613601
Number of Instructions read from trace: 250000256

ChampSim completed all CPUs

Region of Interest Statistics

CPU 0 cumulative IPC: 0.687734 instructions: 150000001 cycles: 218107633
ITLB TOTAL     ACCESS:   25950587  HIT:   25950586  MISS:          1
ITLB LOAD      ACCESS:   25950587  HIT:   25950586  MISS:          1
ITLB RFO       ACCESS:          0  HIT:          0  MISS:          0
ITLB PREFETCH  ACCESS:          0  HIT:          0  MISS:          0
ITLB WRITEBACK ACCESS:          0  HIT:          0  MISS:          0
ITLB PREFETCH  REQUESTED:          0  ISSUED:          0  USEFUL:          0  USELESS:          0
ITLB TOTAL MSHR MERGED:          1
ITLB LOAD MSHR MERGED:          1
ITLB RFO MSHR MERGED:          0
ITLB PREFETCH MSHR MERGED:          0
ITLB WRITEBACK MSHR MERGED:          0
ITLB TOTAL ACCESSES:   25950588 HITS:   25950586 MISSES:          2
ITLB LOAD ACCESSES:   25950588 HITS:   25950586 MISSES:          2
ITLB RFO ACCESSES:          0 HITS:          0 MISSES:          0
ITLB PREFETCH ACCESSES:          0 HITS:          0 MISSES:          0
ITLB WRITEBACK ACCESSES:          0 HITS:          0 MISSES:          0
ITLB RQ ACCESS:  150000000
ITLB RQ TO_CACHE:   25950588
ITLB RQ MERGED:  124049412
ITLB RQ FORWARD:          0
ITLB WQ ACCESS:          0
ITLB WQ TO_CACHE:          0
ITLB WQ MERGED:          0
ITLB WQ FORWARD:          0
DTLB TOTAL     ACCESS:   29673885  HIT:   29617404  MISS:      56481
DTLB LOAD      ACCESS:   16620081  HIT:   16605965  MISS:      14116
DTLB RFO       ACCESS:   13053804  HIT:   13011439  MISS:      42365
DTLB PREFETCH  ACCESS:          0  HIT:          0  MISS:          0
DTLB WRITEBACK ACCESS:          0  HIT:          0  MISS:          0
DTLB PREFETCH  REQUESTED:          0  ISSUED:          0  USEFUL:          0  USELESS:          0
DTLB TOTAL MSHR MERGED:      25454
DTLB LOAD MSHR MERGED:      25451
DTLB RFO MSHR MERGED:          3
DTLB PREFETCH MSHR MERGED:          0
DTLB WRITEBACK MSHR MERGED:          0
DTLB TOTAL ACCESSES:   29699339 HITS:   29617404 MISSES:      81935
DTLB LOAD ACCESSES:   16645532 HITS:   16605965 MISSES:      39567
DTLB RFO ACCESSES:   13053807 HITS:   13011439 MISSES:      42368
DTLB PREFETCH ACCESSES:          0 HITS:          0 MISSES:          0
DTLB WRITEBACK ACCESSES:          0 HITS:          0 MISSES:          0
DTLB RQ ACCESS:   52640256
DTLB RQ TO_CACHE:   29699339
DTLB RQ MERGED:   22940917
DTLB RQ FORWARD:          0
DTLB WQ ACCESS:          0
DTLB WQ TO_CACHE:          0
DTLB WQ MERGED:          0
DTLB WQ FORWARD:          0
L1D TOTAL     ACCESS:   49746176  HIT:   43784494  MISS:    5961682
L1D LOAD      ACCESS:   18289280  HIT:   17724660  MISS:     564620
L1D RFO       ACCESS:   19547381  HIT:   14489239  MISS:    5058142
L1D PREFETCH  ACCESS:   11909515  HIT:   11570595  MISS:     338920
L1D WRITEBACK ACCESS:          0  HIT:          0  MISS:          0
L1D PREFETCH  REQUESTED:   18657147  ISSUED:   18568575  USEFUL:     338815  USELESS:        106
L1D TOTAL MSHR MERGED:    1079261
L1D LOAD MSHR MERGED:     389523
L1D RFO MSHR MERGED:       1051
L1D PREFETCH MSHR MERGED:     688687
L1D WRITEBACK MSHR MERGED:          0
L1D TOTAL ACCESSES:   50992782 HITS:   43951836 MISSES:    7040946
L1D LOAD ACCESSES:   18730287 HITS:   17797800 MISSES:     932487
L1D RFO ACCESSES:   19548431 HITS:   14489239 MISSES:    5059192
L1D PREFETCH ACCESSES:   12714064 HITS:   11664797 MISSES:    1049267
L1D WRITEBACK ACCESSES:          0 HITS:          0 MISSES:          0
L1D RQ ACCESS:   33087239
L1D RQ TO_CACHE:   18657147
L1D RQ MERGED:   14356952
L1D RQ FORWARD:          0
L1D WQ ACCESS:   19553012
L1D WQ TO_CACHE:   19548440
L1D WQ MERGED:       4572
L1D WQ FORWARD:     167342
L1I TOTAL     ACCESS:   32394559  HIT:   32394551  MISS:          8
L1I LOAD      ACCESS:   32394559  HIT:   32394551  MISS:          8
L1I RFO       ACCESS:          0  HIT:          0  MISS:          0
L1I PREFETCH  ACCESS:          0  HIT:          0  MISS:          0
L1I WRITEBACK ACCESS:          0  HIT:          0  MISS:          0
L1I PREFETCH  REQUESTED:          0  ISSUED:          0  USEFUL:          0  USELESS:          0
L1I TOTAL MSHR MERGED:          3
L1I LOAD MSHR MERGED:          3
L1I RFO MSHR MERGED:          0
L1I PREFETCH MSHR MERGED:          0
L1I WRITEBACK MSHR MERGED:          0
L1I TOTAL ACCESSES:   32394562 HITS:   32394551 MISSES:         11
L1I LOAD ACCESSES:   32394562 HITS:   32394551 MISSES:         11
L1I RFO ACCESSES:          0 HITS:          0 MISSES:          0
L1I PREFETCH ACCESSES:          0 HITS:          0 MISSES:          0
L1I WRITEBACK ACCESSES:          0 HITS:          0 MISSES:          0
L1I RQ ACCESS:  149999995
L1I RQ TO_CACHE:   32394564
L1I RQ MERGED:  117605431
L1I RQ FORWARD:          0
L1I WQ ACCESS:          0
L1I WQ TO_CACHE:          0
L1I WQ MERGED:          0
L1I WQ FORWARD:          0
L2C TOTAL     ACCESS:   11214244  HIT:    7579515  MISS:    3634729
L2C LOAD      ACCESS:     542972  HIT:      77673  MISS:     465299
L2C RFO       ACCESS:    5058139  HIT:    2327154  MISS:    2730985
L2C PREFETCH  ACCESS:     554989  HIT:     116787  MISS:     438202
L2C WRITEBACK ACCESS:    5058144  HIT:    5057901  MISS:        243
L2C PREFETCH  REQUESTED:     248731  ISSUED:     248731  USEFUL:      77651  USELESS:     360786
L2C TOTAL MSHR MERGED:        997
L2C LOAD MSHR MERGED:        201
L2C RFO MSHR MERGED:          0
L2C PREFETCH MSHR MERGED:        796
L2C WRITEBACK MSHR MERGED:          0
L2C TOTAL ACCESSES:   11268523 HITS:    7579515 MISSES:    3689008
L2C LOAD ACCESSES:     542972 HITS:      77673 MISSES:     465299
L2C RFO ACCESSES:    5058141 HITS:    2327154 MISSES:    2730987
L2C PREFETCH ACCESSES:     609266 HITS:     116787 MISSES:     492479
L2C WRITEBACK ACCESSES:    5058144 HITS:    5057901 MISSES:        243
L2C RQ ACCESS:    5601113
L2C RQ TO_CACHE:    5601113
L2C RQ MERGED:          0
L2C RQ FORWARD:          0
L2C WQ ACCESS:    5058144
L2C WQ TO_CACHE:    5058144
L2C WQ MERGED:          0
L2C WQ FORWARD:          0
LLC TOTAL     ACCESS:    6417794  HIT:    1324468  MISS:    5093326
LLC LOAD      ACCESS:     465098  HIT:      19666  MISS:     445432
LLC RFO       ACCESS:    2730982  HIT:     308776  MISS:    2422206
LLC PREFETCH  ACCESS:     490610  HIT:      32453  MISS:     458157
LLC WRITEBACK ACCESS:    2731104  HIT:     963573  MISS:    1767531
LLC PREFETCH  REQUESTED:          0  ISSUED:          0  USEFUL:      19637  USELESS:     437695
LLC TOTAL MSHR MERGED:        939
LLC LOAD MSHR MERGED:         52
LLC RFO MSHR MERGED:          0
LLC PREFETCH MSHR MERGED:        887
LLC WRITEBACK MSHR MERGED:          0
LLC TOTAL ACCESSES:    6418738 HITS:    1324471 MISSES:    5094267
LLC LOAD ACCESSES:     465098 HITS:      19666 MISSES:     445432
LLC RFO ACCESSES:    2730987 HITS:     308779 MISSES:    2422208
LLC PREFETCH ACCESSES:     491549 HITS:      32453 MISSES:     459096
LLC WRITEBACK ACCESSES:    2731104 HITS:     963573 MISSES:    1767531
LLC 0 RQ ACCESS:    3196085
LLC 0 RQ TO_CACHE:    3196082
LLC 0 RQ MERGED:          0
LLC 0 RQ FORWARD:          0
LLC WQ ACCESS:    2731106
LLC WQ TO_CACHE:    2731106
LLC WQ MERGED:          0
LLC WQ FORWARD:          3
Major fault: 0 Minor fault: 47379
CPU 0 L1D next line prefetcher final stats
CPU 0 L2C PC-based stride prefetcher final stats
All Misses: 8230472
All Hits: 2162813
SD Algo Stats - Switches: 0 SRR-Repls: 654963 BRR-Repls: 0

DRAM Statistics
 CHANNEL 0
 RQ ROW_BUFFER_HIT:    1123776  ROW_BUFFER_MISS:    2201682
 DBUS_CONGESTED:    3898416
 WQ ROW_BUFFER_HIT:     415900  ROW_BUFFER_MISS:    2006850  FULL:          0

 AVG_CONGESTED_CYCLE: 13
LOADS RETIRED: 37808748
INSTR RETIRED: 150000000
