
*** ChampSim Multicore Out-of-Order Simulator ***

Warmup Instructions: 100000000
Simulation Instructions: 150000000
Number of CPUs: 1
LLC sets: 2048
LLC ways: 16
Clean RRIP Policies: 3333323233333232 Dirty RRIP Policies: 3333323233333232 PSEL Width: 10 Track Set: 4294967295 PSEL Mask: 1 Demote Mask: 4044404440444044DS Algo: 0Window size: 0
Off-chip DRAM Size: 4096 MB Channels: 1 Width: 64-bit Data Rate: 1600 MT/s

CPU 0 runs /mnt/beegfs/pchatz06/selected_traces/519.lbm_r.refrate.input1.region_3.w_0.2437_0.2693.trace.gz
NOT SORTED
TRACE STRING: /mnt/beegfs/pchatz06/selected_traces/519.lbm_r.refrate.input1.region_3.w_0.2437_0.2693.trace.gz
SORTED
TRACE STRING: /mnt/beegfs/pchatz06/selected_traces/519.lbm_r.refrate.input1.region_3.w_0.2437_0.2693.trace.gz
INITIAL
TRACE STRING: /mnt/beegfs/pchatz06/selected_traces/519.lbm_r.refrate.input1.region_3.w_0.2437_0.2693.trace.gz

champsim_seed used: 212

CPU 0 L1D next line prefetcher
CPU 0 L2C IP-based stride prefetcher
Initialize DRRIP state
Assign rand_sets[0]: 454  LLC: 2048
rand_sets[0]: 454
Assign rand_sets[1]: 1662  LLC: 2048
rand_sets[1]: 1662
Assign rand_sets[2]: 1921  LLC: 2048
rand_sets[2]: 1921
Assign rand_sets[3]: 1131  LLC: 2048
rand_sets[3]: 1131
Assign rand_sets[4]: 331  LLC: 2048
rand_sets[4]: 331
Assign rand_sets[5]: 1531  LLC: 2048
rand_sets[5]: 1531
Assign rand_sets[6]: 482  LLC: 2048
rand_sets[6]: 482
Assign rand_sets[7]: 1275  LLC: 2048
rand_sets[7]: 1275
Assign rand_sets[8]: 1876  LLC: 2048
rand_sets[8]: 1876
Assign rand_sets[9]: 2038  LLC: 2048
rand_sets[9]: 2038
Assign rand_sets[10]: 701  LLC: 2048
rand_sets[10]: 701
Assign rand_sets[11]: 479  LLC: 2048
rand_sets[11]: 479
Assign rand_sets[12]: 892  LLC: 2048
rand_sets[12]: 892
Assign rand_sets[13]: 1820  LLC: 2048
rand_sets[13]: 1820
Assign rand_sets[14]: 1505  LLC: 2048
rand_sets[14]: 1505
Assign rand_sets[15]: 1159  LLC: 2048
rand_sets[15]: 1159
Assign rand_sets[16]: 513  LLC: 2048
rand_sets[16]: 513
Assign rand_sets[17]: 703  LLC: 2048
rand_sets[17]: 703
Assign rand_sets[18]: 561  LLC: 2048
rand_sets[18]: 561
Assign rand_sets[19]: 990  LLC: 2048
rand_sets[19]: 990
Assign rand_sets[20]: 342  LLC: 2048
rand_sets[20]: 342
Assign rand_sets[21]: 882  LLC: 2048
rand_sets[21]: 882
Assign rand_sets[22]: 15  LLC: 2048
rand_sets[22]: 15
Assign rand_sets[23]: 71  LLC: 2048
rand_sets[23]: 71
Assign rand_sets[24]: 1127  LLC: 2048
rand_sets[24]: 1127
Assign rand_sets[25]: 1382  LLC: 2048
rand_sets[25]: 1382
Assign rand_sets[26]: 647  LLC: 2048
rand_sets[26]: 647
Assign rand_sets[27]: 857  LLC: 2048
rand_sets[27]: 857
Assign rand_sets[28]: 1450  LLC: 2048
rand_sets[28]: 1450
Assign rand_sets[29]: 1160  LLC: 2048
rand_sets[29]: 1160
Assign rand_sets[30]: 1852  LLC: 2048
rand_sets[30]: 1852
Assign rand_sets[31]: 1881  LLC: 2048
rand_sets[31]: 1881
Assign rand_sets[32]: 1770  LLC: 2048
rand_sets[32]: 1770
Assign rand_sets[33]: 1622  LLC: 2048
rand_sets[33]: 1622
Assign rand_sets[34]: 275  LLC: 2048
rand_sets[34]: 275
Assign rand_sets[35]: 635  LLC: 2048
rand_sets[35]: 635
Assign rand_sets[36]: 466  LLC: 2048
rand_sets[36]: 466
Assign rand_sets[37]: 1413  LLC: 2048
rand_sets[37]: 1413
Assign rand_sets[38]: 417  LLC: 2048
rand_sets[38]: 417
Assign rand_sets[39]: 472  LLC: 2048
rand_sets[39]: 472
Assign rand_sets[40]: 1340  LLC: 2048
rand_sets[40]: 1340
Assign rand_sets[41]: 852  LLC: 2048
rand_sets[41]: 852
Assign rand_sets[42]: 1365  LLC: 2048
rand_sets[42]: 1365
Assign rand_sets[43]: 47  LLC: 2048
rand_sets[43]: 47
Assign rand_sets[44]: 823  LLC: 2048
rand_sets[44]: 823
Assign rand_sets[45]: 686  LLC: 2048
rand_sets[45]: 686
Assign rand_sets[46]: 1637  LLC: 2048
rand_sets[46]: 1637
Assign rand_sets[47]: 1115  LLC: 2048
rand_sets[47]: 1115
Assign rand_sets[48]: 986  LLC: 2048
rand_sets[48]: 986
Assign rand_sets[49]: 258  LLC: 2048
rand_sets[49]: 258
Assign rand_sets[50]: 633  LLC: 2048
rand_sets[50]: 633
Assign rand_sets[51]: 920  LLC: 2048
rand_sets[51]: 920
Assign rand_sets[52]: 204  LLC: 2048
rand_sets[52]: 204
Assign rand_sets[53]: 227  LLC: 2048
rand_sets[53]: 227
Assign rand_sets[54]: 1818  LLC: 2048
rand_sets[54]: 1818
Assign rand_sets[55]: 886  LLC: 2048
rand_sets[55]: 886
Assign rand_sets[56]: 1422  LLC: 2048
rand_sets[56]: 1422
Assign rand_sets[57]: 607  LLC: 2048
rand_sets[57]: 607
Assign rand_sets[58]: 217  LLC: 2048
rand_sets[58]: 217
Assign rand_sets[59]: 1945  LLC: 2048
rand_sets[59]: 1945
Assign rand_sets[60]: 143  LLC: 2048
rand_sets[60]: 143
Assign rand_sets[61]: 1311  LLC: 2048
rand_sets[61]: 1311
Assign rand_sets[62]: 319  LLC: 2048
rand_sets[62]: 319
Assign rand_sets[63]: 1846  LLC: 2048
rand_sets[63]: 1846
 CLEAN-RRIP-POLICY-1: 3-3-3-3-3-2-3-2- CLEAN-RRIP-POLICY-2: 3-3-3-3-3-2-3-2-
 DIRTY-RRIP-POLICY-1: 3-3-3-3-3-2-3-2- DIRTY-RRIP-POLICY-2: 3-3-3-3-3-2-3-2-
 PSEL width: 10
Heartbeat CPU 0 instructions: 10000001 cycles: 4347517 heartbeat IPC: 2.30016 cumulative IPC: 2.30016 (Simulation time: 0 hr 0 min 17 sec) 
Heartbeat CPU 0 instructions: 20000000 cycles: 8676855 heartbeat IPC: 2.30982 cumulative IPC: 2.30498 (Simulation time: 0 hr 0 min 35 sec) 
Heartbeat CPU 0 instructions: 30000000 cycles: 13005128 heartbeat IPC: 2.31039 cumulative IPC: 2.30678 (Simulation time: 0 hr 0 min 52 sec) 
Heartbeat CPU 0 instructions: 40000000 cycles: 17337064 heartbeat IPC: 2.30844 cumulative IPC: 2.3072 (Simulation time: 0 hr 1 min 9 sec) 
Heartbeat CPU 0 instructions: 50000000 cycles: 21665368 heartbeat IPC: 2.31037 cumulative IPC: 2.30783 (Simulation time: 0 hr 1 min 27 sec) 
Heartbeat CPU 0 instructions: 60000000 cycles: 25993516 heartbeat IPC: 2.31046 cumulative IPC: 2.30827 (Simulation time: 0 hr 1 min 44 sec) 
Heartbeat CPU 0 instructions: 70000000 cycles: 30321446 heartbeat IPC: 2.31057 cumulative IPC: 2.3086 (Simulation time: 0 hr 2 min 1 sec) 
Heartbeat CPU 0 instructions: 80000000 cycles: 34654601 heartbeat IPC: 2.30779 cumulative IPC: 2.3085 (Simulation time: 0 hr 2 min 19 sec) 
Heartbeat CPU 0 instructions: 90000000 cycles: 38983141 heartbeat IPC: 2.31025 cumulative IPC: 2.30869 (Simulation time: 0 hr 2 min 36 sec) 
Heartbeat CPU 0 instructions: 100000000 cycles: 43311008 heartbeat IPC: 2.31061 cumulative IPC: 2.30888 (Simulation time: 0 hr 2 min 53 sec) 

Warmup complete CPU 0 instructions: 100000003 cycles: 43311009 (Simulation time: 0 hr 2 min 53 sec) 

Heartbeat CPU 0 instructions: 110000002 cycles: 57733573 heartbeat IPC: 0.693358 cumulative IPC: 0.693358 (Simulation time: 0 hr 3 min 18 sec) 
Heartbeat CPU 0 instructions: 120000000 cycles: 71725214 heartbeat IPC: 0.714712 cumulative IPC: 0.703873 (Simulation time: 0 hr 3 min 43 sec) 
Heartbeat CPU 0 instructions: 130000000 cycles: 85986633 heartbeat IPC: 0.701192 cumulative IPC: 0.702977 (Simulation time: 0 hr 4 min 8 sec) 
Heartbeat CPU 0 instructions: 140000000 cycles: 99898217 heartbeat IPC: 0.718825 cumulative IPC: 0.706873 (Simulation time: 0 hr 4 min 32 sec) 
Heartbeat CPU 0 instructions: 150000001 cycles: 113813580 heartbeat IPC: 0.71863 cumulative IPC: 0.709194 (Simulation time: 0 hr 4 min 57 sec) 
Heartbeat CPU 0 instructions: 160000000 cycles: 127567938 heartbeat IPC: 0.727042 cumulative IPC: 0.712108 (Simulation time: 0 hr 5 min 21 sec) 
Heartbeat CPU 0 instructions: 170000003 cycles: 141540870 heartbeat IPC: 0.71567 cumulative IPC: 0.712614 (Simulation time: 0 hr 5 min 46 sec) 
Heartbeat CPU 0 instructions: 180000000 cycles: 155031778 heartbeat IPC: 0.74124 cumulative IPC: 0.716071 (Simulation time: 0 hr 6 min 10 sec) 
Heartbeat CPU 0 instructions: 190000003 cycles: 168829411 heartbeat IPC: 0.724762 cumulative IPC: 0.717026 (Simulation time: 0 hr 6 min 34 sec) 
Heartbeat CPU 0 instructions: 200000000 cycles: 182848008 heartbeat IPC: 0.713338 cumulative IPC: 0.716656 (Simulation time: 0 hr 6 min 59 sec) 
Heartbeat CPU 0 instructions: 210000002 cycles: 197000434 heartbeat IPC: 0.706593 cumulative IPC: 0.715729 (Simulation time: 0 hr 7 min 24 sec) 
Heartbeat CPU 0 instructions: 220000000 cycles: 210338022 heartbeat IPC: 0.749761 cumulative IPC: 0.718447 (Simulation time: 0 hr 7 min 48 sec) 
Heartbeat CPU 0 instructions: 230000002 cycles: 224472072 heartbeat IPC: 0.707511 cumulative IPC: 0.717593 (Simulation time: 0 hr 8 min 12 sec) 
Heartbeat CPU 0 instructions: 240000000 cycles: 238503304 heartbeat IPC: 0.712696 cumulative IPC: 0.717241 (Simulation time: 0 hr 8 min 36 sec) 
*** Reached end of trace for Core: 0 Repeating trace: /mnt/beegfs/pchatz06/selected_traces/519.lbm_r.refrate.input1.region_3.w_0.2437_0.2693.trace.gz
Heartbeat CPU 0 instructions: 250000002 cycles: 252038894 heartbeat IPC: 0.738793 cumulative IPC: 0.718639 (Simulation time: 0 hr 9 min 0 sec) 
Finished CPU 0 instructions: 150000003 cycles: 208727886 cumulative IPC: 0.718639 (Simulation time: 0 hr 9 min 0 sec) 

CPU 0 Branch Prediction Accuracy: 99.7141% MPKI: 0.02522
Number of Branches: 1322995 Number of Mispredictions: 3783
Number of LOAD Instructions: 62022855
Number of LOAD Instructions (ROI): 62022855
Number of STORE Instructions: 31760803
Number of STORE Instructions (ROI): 31760803
Total Destination Memory Operands: 31760803
Total Destination Memory Operands (ROI): 31760803
Total Source Memory Operands: 62022855
Total Source Memory Operands (ROI): 62022855
Number of DEPENDED LOADS: 8165513
Number of DEPENDED LOADS (ROI): 8165513
Number of SQ_ADDED: 31760772
Number of SQ_ADDED (ROI): 31760772
Number of LQ_ADDED: 62022814
Number of LQ_ADDED (ROI): 62022814
Number of Instructions read from trace: 250000258

ChampSim completed all CPUs

Region of Interest Statistics

CPU 0 cumulative IPC: 0.718639 instructions: 150000003 cycles: 208727886
ITLB TOTAL     ACCESS:   26018976  HIT:   26018976  MISS:          0
ITLB LOAD      ACCESS:   26018976  HIT:   26018976  MISS:          0
ITLB RFO       ACCESS:          0  HIT:          0  MISS:          0
ITLB PREFETCH  ACCESS:          0  HIT:          0  MISS:          0
ITLB WRITEBACK ACCESS:          0  HIT:          0  MISS:          0
ITLB PREFETCH  REQUESTED:          0  ISSUED:          0  USEFUL:          0  USELESS:          0
ITLB TOTAL MSHR MERGED:          0
ITLB LOAD MSHR MERGED:          0
ITLB RFO MSHR MERGED:          0
ITLB PREFETCH MSHR MERGED:          0
ITLB WRITEBACK MSHR MERGED:          0
ITLB TOTAL ACCESSES:   26018976 HITS:   26018976 MISSES:          0
ITLB LOAD ACCESSES:   26018976 HITS:   26018976 MISSES:          0
ITLB RFO ACCESSES:          0 HITS:          0 MISSES:          0
ITLB PREFETCH ACCESSES:          0 HITS:          0 MISSES:          0
ITLB WRITEBACK ACCESSES:          0 HITS:          0 MISSES:          0
ITLB RQ ACCESS:  150000004
ITLB RQ TO_CACHE:   26018977
ITLB RQ MERGED:  123981027
ITLB RQ FORWARD:          0
ITLB WQ ACCESS:          0
ITLB WQ TO_CACHE:          0
ITLB WQ MERGED:          0
ITLB WQ FORWARD:          0
DTLB TOTAL     ACCESS:   28665433  HIT:   28612705  MISS:      52728
DTLB LOAD      ACCESS:   16040137  HIT:   16026954  MISS:      13183
DTLB RFO       ACCESS:   12625296  HIT:   12585751  MISS:      39545
DTLB PREFETCH  ACCESS:          0  HIT:          0  MISS:          0
DTLB WRITEBACK ACCESS:          0  HIT:          0  MISS:          0
DTLB PREFETCH  REQUESTED:          0  ISSUED:          0  USEFUL:          0  USELESS:          0
DTLB TOTAL MSHR MERGED:      23532
DTLB LOAD MSHR MERGED:      23532
DTLB RFO MSHR MERGED:          0
DTLB PREFETCH MSHR MERGED:          0
DTLB WRITEBACK MSHR MERGED:          0
DTLB TOTAL ACCESSES:   28688965 HITS:   28612705 MISSES:      76260
DTLB LOAD ACCESSES:   16063669 HITS:   16026954 MISSES:      36715
DTLB RFO ACCESSES:   12625296 HITS:   12585751 MISSES:      39545
DTLB PREFETCH ACCESSES:          0 HITS:          0 MISSES:          0
DTLB WRITEBACK ACCESSES:          0 HITS:          0 MISSES:          0
DTLB RQ ACCESS:   51450337
DTLB RQ TO_CACHE:   28688966
DTLB RQ MERGED:   22761371
DTLB RQ FORWARD:          0
DTLB WQ ACCESS:          0
DTLB WQ TO_CACHE:          0
DTLB WQ MERGED:          0
DTLB WQ FORWARD:          0
L1D TOTAL     ACCESS:   50063054  HIT:   44494603  MISS:    5568451
L1D LOAD      ACCESS:   18417140  HIT:   17900962  MISS:     516178
L1D RFO       ACCESS:   19044322  HIT:   14319748  MISS:    4724574
L1D PREFETCH  ACCESS:   12601592  HIT:   12273893  MISS:     327699
L1D WRITEBACK ACCESS:          0  HIT:          0  MISS:          0
L1D PREFETCH  REQUESTED:   18756561  ISSUED:   18670775  USEFUL:     327631  USELESS:         68
L1D TOTAL MSHR MERGED:    1003486
L1D LOAD MSHR MERGED:     354603
L1D RFO MSHR MERGED:        505
L1D PREFETCH MSHR MERGED:     648378
L1D WRITEBACK MSHR MERGED:          0
L1D TOTAL ACCESSES:   51138365 HITS:   44566428 MISSES:    6571937
L1D LOAD ACCESSES:   18826864 HITS:   17971265 MISSES:     855599
L1D RFO ACCESSES:   19044817 HITS:   14319748 MISSES:    4725069
L1D PREFETCH ACCESSES:   13266684 HITS:   12275415 MISSES:     991269
L1D WRITEBACK ACCESSES:          0 HITS:          0 MISSES:          0
L1D RQ ACCESS:   32401078
L1D RQ TO_CACHE:   18756565
L1D RQ MERGED:   13574210
L1D RQ FORWARD:          0
L1D WQ ACCESS:   19049255
L1D WQ TO_CACHE:   19044818
L1D WQ MERGED:       4437
L1D WQ FORWARD:      71825
L1I TOTAL     ACCESS:   32195765  HIT:   32195765  MISS:          0
L1I LOAD      ACCESS:   32195765  HIT:   32195765  MISS:          0
L1I RFO       ACCESS:          0  HIT:          0  MISS:          0
L1I PREFETCH  ACCESS:          0  HIT:          0  MISS:          0
L1I WRITEBACK ACCESS:          0  HIT:          0  MISS:          0
L1I PREFETCH  REQUESTED:          0  ISSUED:          0  USEFUL:          0  USELESS:          0
L1I TOTAL MSHR MERGED:          0
L1I LOAD MSHR MERGED:          0
L1I RFO MSHR MERGED:          0
L1I PREFETCH MSHR MERGED:          0
L1I WRITEBACK MSHR MERGED:          0
L1I TOTAL ACCESSES:   32195765 HITS:   32195765 MISSES:          0
L1I LOAD ACCESSES:   32195765 HITS:   32195765 MISSES:          0
L1I RFO ACCESSES:          0 HITS:          0 MISSES:          0
L1I PREFETCH ACCESSES:          0 HITS:          0 MISSES:          0
L1I WRITEBACK ACCESSES:          0 HITS:          0 MISSES:          0
L1I RQ ACCESS:  150000001
L1I RQ TO_CACHE:   32195766
L1I RQ MERGED:  117804235
L1I RQ FORWARD:          0
L1I WQ ACCESS:          0
L1I WQ TO_CACHE:          0
L1I WQ MERGED:          0
L1I WQ FORWARD:          0
L2C TOTAL     ACCESS:   10486206  HIT:    7091236  MISS:    3394970
L2C LOAD      ACCESS:     500996  HIT:      79133  MISS:     421863
L2C RFO       ACCESS:    4724564  HIT:    2173678  MISS:    2550886
L2C PREFETCH  ACCESS:     536070  HIT:     114053  MISS:     422017
L2C WRITEBACK ACCESS:    4724576  HIT:    4724372  MISS:        204
L2C PREFETCH  REQUESTED:     242077  ISSUED:     242077  USEFUL:      79133  USELESS:     342928
L2C TOTAL MSHR MERGED:        285
L2C LOAD MSHR MERGED:         62
L2C RFO MSHR MERGED:          0
L2C PREFETCH MSHR MERGED:        223
L2C WRITEBACK MSHR MERGED:          0
L2C TOTAL ACCESSES:   10535098 HITS:    7091236 MISSES:    3443862
L2C LOAD ACCESSES:     500996 HITS:      79133 MISSES:     421863
L2C RFO ACCESSES:    4724564 HITS:    2173678 MISSES:    2550886
L2C PREFETCH ACCESSES:     584962 HITS:     114053 MISSES:     470909
L2C WRITEBACK ACCESSES:    4724576 HITS:    4724372 MISSES:        204
L2C RQ ACCESS:    5225560
L2C RQ TO_CACHE:    5225560
L2C RQ MERGED:          0
L2C RQ FORWARD:          0
L2C WQ ACCESS:    4724576
L2C WQ TO_CACHE:    4724576
L2C WQ MERGED:          0
L2C WQ FORWARD:          0
LLC TOTAL     ACCESS:    5994386  HIT:    1277194  MISS:    4717192
LLC LOAD      ACCESS:     421801  HIT:      17352  MISS:     404449
LLC RFO       ACCESS:    2550886  HIT:     301117  MISS:    2249769
LLC PREFETCH  ACCESS:     470447  HIT:      30925  MISS:     439522
LLC WRITEBACK ACCESS:    2551252  HIT:     927800  MISS:    1623452
LLC PREFETCH  REQUESTED:          0  ISSUED:          0  USEFUL:      17344  USELESS:     421443
LLC TOTAL MSHR MERGED:        204
LLC LOAD MSHR MERGED:         13
LLC RFO MSHR MERGED:          0
LLC PREFETCH MSHR MERGED:        191
LLC WRITEBACK MSHR MERGED:          0
LLC TOTAL ACCESSES:    5994590 HITS:    1277194 MISSES:    4717396
LLC LOAD ACCESSES:     421801 HITS:      17352 MISSES:     404449
LLC RFO ACCESSES:    2550886 HITS:     301117 MISSES:    2249769
LLC PREFETCH ACCESSES:     470651 HITS:      30925 MISSES:     439726
LLC WRITEBACK ACCESSES:    2551252 HITS:     927800 MISSES:    1623452
LLC 0 RQ ACCESS:    2972687
LLC 0 RQ TO_CACHE:    2972687
LLC 0 RQ MERGED:          0
LLC 0 RQ FORWARD:          0
LLC WQ ACCESS:    2551252
LLC WQ TO_CACHE:    2551252
LLC WQ MERGED:          0
LLC WQ FORWARD:          0
Major fault: 0 Minor fault: 44798
CPU 0 L1D next line prefetcher final stats
CPU 0 L2C PC-based stride prefetcher final stats
All Misses: 7888791
All Hits: 2103887
SD Algo Stats - Switches: 0 SRR-Repls: 616363 BRR-Repls: 0

DRAM Statistics
 CHANNEL 0
 RQ ROW_BUFFER_HIT:    1046146  ROW_BUFFER_MISS:    2047216
 DBUS_CONGESTED:    3590269
 WQ ROW_BUFFER_HIT:     387391  ROW_BUFFER_MISS:    1864603  FULL:          0

 AVG_CONGESTED_CYCLE: 13
LOADS RETIRED: 37208974
INSTR RETIRED: 150000000
