
*** ChampSim Multicore Out-of-Order Simulator ***

Warmup Instructions: 100000000
Simulation Instructions: 150000000
Number of CPUs: 1
LLC sets: 2048
LLC ways: 16
Clean RRIP Policies: 3333323233333232 Dirty RRIP Policies: 3333323233333232 PSEL Width: 10 Track Set: 4294967295 PSEL Mask: 1 Demote Mask: 4044404440444044DS Algo: 0Window size: 0
Off-chip DRAM Size: 4096 MB Channels: 1 Width: 64-bit Data Rate: 1600 MT/s

CPU 0 runs /mnt/beegfs/pchatz06/selected_traces/519.lbm_r.train.input1.region_5.w_0.171_0.1732.trace.gz
NOT SORTED
TRACE STRING: /mnt/beegfs/pchatz06/selected_traces/519.lbm_r.train.input1.region_5.w_0.171_0.1732.trace.gz
SORTED
TRACE STRING: /mnt/beegfs/pchatz06/selected_traces/519.lbm_r.train.input1.region_5.w_0.171_0.1732.trace.gz
INITIAL
TRACE STRING: /mnt/beegfs/pchatz06/selected_traces/519.lbm_r.train.input1.region_5.w_0.171_0.1732.trace.gz

champsim_seed used: 205

CPU 0 L1D next line prefetcher
CPU 0 L2C IP-based stride prefetcher
Initialize DRRIP state
Assign rand_sets[0]: 454  LLC: 2048
rand_sets[0]: 454
Assign rand_sets[1]: 1662  LLC: 2048
rand_sets[1]: 1662
Assign rand_sets[2]: 1921  LLC: 2048
rand_sets[2]: 1921
Assign rand_sets[3]: 1131  LLC: 2048
rand_sets[3]: 1131
Assign rand_sets[4]: 331  LLC: 2048
rand_sets[4]: 331
Assign rand_sets[5]: 1531  LLC: 2048
rand_sets[5]: 1531
Assign rand_sets[6]: 482  LLC: 2048
rand_sets[6]: 482
Assign rand_sets[7]: 1275  LLC: 2048
rand_sets[7]: 1275
Assign rand_sets[8]: 1876  LLC: 2048
rand_sets[8]: 1876
Assign rand_sets[9]: 2038  LLC: 2048
rand_sets[9]: 2038
Assign rand_sets[10]: 701  LLC: 2048
rand_sets[10]: 701
Assign rand_sets[11]: 479  LLC: 2048
rand_sets[11]: 479
Assign rand_sets[12]: 892  LLC: 2048
rand_sets[12]: 892
Assign rand_sets[13]: 1820  LLC: 2048
rand_sets[13]: 1820
Assign rand_sets[14]: 1505  LLC: 2048
rand_sets[14]: 1505
Assign rand_sets[15]: 1159  LLC: 2048
rand_sets[15]: 1159
Assign rand_sets[16]: 513  LLC: 2048
rand_sets[16]: 513
Assign rand_sets[17]: 703  LLC: 2048
rand_sets[17]: 703
Assign rand_sets[18]: 561  LLC: 2048
rand_sets[18]: 561
Assign rand_sets[19]: 990  LLC: 2048
rand_sets[19]: 990
Assign rand_sets[20]: 342  LLC: 2048
rand_sets[20]: 342
Assign rand_sets[21]: 882  LLC: 2048
rand_sets[21]: 882
Assign rand_sets[22]: 15  LLC: 2048
rand_sets[22]: 15
Assign rand_sets[23]: 71  LLC: 2048
rand_sets[23]: 71
Assign rand_sets[24]: 1127  LLC: 2048
rand_sets[24]: 1127
Assign rand_sets[25]: 1382  LLC: 2048
rand_sets[25]: 1382
Assign rand_sets[26]: 647  LLC: 2048
rand_sets[26]: 647
Assign rand_sets[27]: 857  LLC: 2048
rand_sets[27]: 857
Assign rand_sets[28]: 1450  LLC: 2048
rand_sets[28]: 1450
Assign rand_sets[29]: 1160  LLC: 2048
rand_sets[29]: 1160
Assign rand_sets[30]: 1852  LLC: 2048
rand_sets[30]: 1852
Assign rand_sets[31]: 1881  LLC: 2048
rand_sets[31]: 1881
Assign rand_sets[32]: 1770  LLC: 2048
rand_sets[32]: 1770
Assign rand_sets[33]: 1622  LLC: 2048
rand_sets[33]: 1622
Assign rand_sets[34]: 275  LLC: 2048
rand_sets[34]: 275
Assign rand_sets[35]: 635  LLC: 2048
rand_sets[35]: 635
Assign rand_sets[36]: 466  LLC: 2048
rand_sets[36]: 466
Assign rand_sets[37]: 1413  LLC: 2048
rand_sets[37]: 1413
Assign rand_sets[38]: 417  LLC: 2048
rand_sets[38]: 417
Assign rand_sets[39]: 472  LLC: 2048
rand_sets[39]: 472
Assign rand_sets[40]: 1340  LLC: 2048
rand_sets[40]: 1340
Assign rand_sets[41]: 852  LLC: 2048
rand_sets[41]: 852
Assign rand_sets[42]: 1365  LLC: 2048
rand_sets[42]: 1365
Assign rand_sets[43]: 47  LLC: 2048
rand_sets[43]: 47
Assign rand_sets[44]: 823  LLC: 2048
rand_sets[44]: 823
Assign rand_sets[45]: 686  LLC: 2048
rand_sets[45]: 686
Assign rand_sets[46]: 1637  LLC: 2048
rand_sets[46]: 1637
Assign rand_sets[47]: 1115  LLC: 2048
rand_sets[47]: 1115
Assign rand_sets[48]: 986  LLC: 2048
rand_sets[48]: 986
Assign rand_sets[49]: 258  LLC: 2048
rand_sets[49]: 258
Assign rand_sets[50]: 633  LLC: 2048
rand_sets[50]: 633
Assign rand_sets[51]: 920  LLC: 2048
rand_sets[51]: 920
Assign rand_sets[52]: 204  LLC: 2048
rand_sets[52]: 204
Assign rand_sets[53]: 227  LLC: 2048
rand_sets[53]: 227
Assign rand_sets[54]: 1818  LLC: 2048
rand_sets[54]: 1818
Assign rand_sets[55]: 886  LLC: 2048
rand_sets[55]: 886
Assign rand_sets[56]: 1422  LLC: 2048
rand_sets[56]: 1422
Assign rand_sets[57]: 607  LLC: 2048
rand_sets[57]: 607
Assign rand_sets[58]: 217  LLC: 2048
rand_sets[58]: 217
Assign rand_sets[59]: 1945  LLC: 2048
rand_sets[59]: 1945
Assign rand_sets[60]: 143  LLC: 2048
rand_sets[60]: 143
Assign rand_sets[61]: 1311  LLC: 2048
rand_sets[61]: 1311
Assign rand_sets[62]: 319  LLC: 2048
rand_sets[62]: 319
Assign rand_sets[63]: 1846  LLC: 2048
rand_sets[63]: 1846
 CLEAN-RRIP-POLICY-1: 3-3-3-3-3-2-3-2- CLEAN-RRIP-POLICY-2: 3-3-3-3-3-2-3-2-
 DIRTY-RRIP-POLICY-1: 3-3-3-3-3-2-3-2- DIRTY-RRIP-POLICY-2: 3-3-3-3-3-2-3-2-
 PSEL width: 10
Heartbeat CPU 0 instructions: 10000000 cycles: 4338425 heartbeat IPC: 2.30498 cumulative IPC: 2.30498 (Simulation time: 0 hr 0 min 18 sec) 
Heartbeat CPU 0 instructions: 20000000 cycles: 8671636 heartbeat IPC: 2.30776 cumulative IPC: 2.30637 (Simulation time: 0 hr 0 min 36 sec) 
Heartbeat CPU 0 instructions: 30000002 cycles: 12999963 heartbeat IPC: 2.31036 cumulative IPC: 2.3077 (Simulation time: 0 hr 0 min 53 sec) 
Heartbeat CPU 0 instructions: 40000000 cycles: 17327639 heartbeat IPC: 2.31071 cumulative IPC: 2.30845 (Simulation time: 0 hr 1 min 11 sec) 
Heartbeat CPU 0 instructions: 50000002 cycles: 21656198 heartbeat IPC: 2.31024 cumulative IPC: 2.30881 (Simulation time: 0 hr 1 min 29 sec) 
Heartbeat CPU 0 instructions: 60000000 cycles: 25989128 heartbeat IPC: 2.30791 cumulative IPC: 2.30866 (Simulation time: 0 hr 1 min 48 sec) 
Heartbeat CPU 0 instructions: 70000002 cycles: 30317091 heartbeat IPC: 2.31056 cumulative IPC: 2.30893 (Simulation time: 0 hr 2 min 6 sec) 
Heartbeat CPU 0 instructions: 80000000 cycles: 34645813 heartbeat IPC: 2.31015 cumulative IPC: 2.30908 (Simulation time: 0 hr 2 min 24 sec) 
Heartbeat CPU 0 instructions: 90000000 cycles: 39018587 heartbeat IPC: 2.28688 cumulative IPC: 2.30659 (Simulation time: 0 hr 2 min 42 sec) 
Heartbeat CPU 0 instructions: 100000000 cycles: 43352079 heartbeat IPC: 2.30761 cumulative IPC: 2.30669 (Simulation time: 0 hr 3 min 0 sec) 

Warmup complete CPU 0 instructions: 100000001 cycles: 43352084 (Simulation time: 0 hr 3 min 0 sec) 

Heartbeat CPU 0 instructions: 110000003 cycles: 57338352 heartbeat IPC: 0.714987 cumulative IPC: 0.714987 (Simulation time: 0 hr 3 min 26 sec) 
Heartbeat CPU 0 instructions: 120000000 cycles: 71274094 heartbeat IPC: 0.717579 cumulative IPC: 0.716281 (Simulation time: 0 hr 3 min 52 sec) 
Heartbeat CPU 0 instructions: 130000003 cycles: 85486839 heartbeat IPC: 0.703594 cumulative IPC: 0.712001 (Simulation time: 0 hr 4 min 18 sec) 
Heartbeat CPU 0 instructions: 140000000 cycles: 100062341 heartbeat IPC: 0.686082 cumulative IPC: 0.70534 (Simulation time: 0 hr 4 min 44 sec) 
Heartbeat CPU 0 instructions: 150000000 cycles: 115571117 heartbeat IPC: 0.644796 cumulative IPC: 0.692338 (Simulation time: 0 hr 5 min 12 sec) 
Heartbeat CPU 0 instructions: 160000000 cycles: 132711233 heartbeat IPC: 0.583427 cumulative IPC: 0.671448 (Simulation time: 0 hr 5 min 41 sec) 
Heartbeat CPU 0 instructions: 170000002 cycles: 152166574 heartbeat IPC: 0.513998 cumulative IPC: 0.643297 (Simulation time: 0 hr 6 min 12 sec) 
Heartbeat CPU 0 instructions: 180000000 cycles: 174687070 heartbeat IPC: 0.44404 cumulative IPC: 0.609129 (Simulation time: 0 hr 6 min 45 sec) 
Heartbeat CPU 0 instructions: 190000001 cycles: 199019251 heartbeat IPC: 0.410978 cumulative IPC: 0.578157 (Simulation time: 0 hr 7 min 21 sec) 
Heartbeat CPU 0 instructions: 200000000 cycles: 222835225 heartbeat IPC: 0.419886 cumulative IPC: 0.557155 (Simulation time: 0 hr 7 min 55 sec) 
Heartbeat CPU 0 instructions: 210000003 cycles: 244471786 heartbeat IPC: 0.462181 cumulative IPC: 0.546938 (Simulation time: 0 hr 8 min 28 sec) 
Heartbeat CPU 0 instructions: 220000000 cycles: 263902321 heartbeat IPC: 0.514654 cumulative IPC: 0.544094 (Simulation time: 0 hr 8 min 59 sec) 
Heartbeat CPU 0 instructions: 230000000 cycles: 282802281 heartbeat IPC: 0.529102 cumulative IPC: 0.54291 (Simulation time: 0 hr 9 min 29 sec) 
Heartbeat CPU 0 instructions: 240000000 cycles: 301507910 heartbeat IPC: 0.534598 cumulative IPC: 0.542308 (Simulation time: 0 hr 9 min 58 sec) 
*** Reached end of trace for Core: 0 Repeating trace: /mnt/beegfs/pchatz06/selected_traces/519.lbm_r.train.input1.region_5.w_0.171_0.1732.trace.gz
Heartbeat CPU 0 instructions: 250000000 cycles: 320828596 heartbeat IPC: 0.51758 cumulative IPC: 0.540586 (Simulation time: 0 hr 10 min 28 sec) 
Finished CPU 0 instructions: 150000003 cycles: 277476850 cumulative IPC: 0.540586 (Simulation time: 0 hr 10 min 28 sec) 

CPU 0 Branch Prediction Accuracy: 98.4643% MPKI: 0.168447
Number of Branches: 1645313 Number of Mispredictions: 25267
Number of LOAD Instructions: 63740445
Number of LOAD Instructions (ROI): 63740445
Number of STORE Instructions: 34199517
Number of STORE Instructions (ROI): 34199517
Total Destination Memory Operands: 34199517
Total Destination Memory Operands (ROI): 34199517
Total Source Memory Operands: 63740445
Total Source Memory Operands (ROI): 63740445
Number of DEPENDED LOADS: 7719756
Number of DEPENDED LOADS (ROI): 7719756
Number of SQ_ADDED: 34199487
Number of SQ_ADDED (ROI): 34199487
Number of LQ_ADDED: 63740420
Number of LQ_ADDED (ROI): 63740420
Number of Instructions read from trace: 250000256

ChampSim completed all CPUs

Region of Interest Statistics

CPU 0 cumulative IPC: 0.540586 instructions: 150000003 cycles: 277476850
ITLB TOTAL     ACCESS:   26153985  HIT:   26153985  MISS:          0
ITLB LOAD      ACCESS:   26153985  HIT:   26153985  MISS:          0
ITLB RFO       ACCESS:          0  HIT:          0  MISS:          0
ITLB PREFETCH  ACCESS:          0  HIT:          0  MISS:          0
ITLB WRITEBACK ACCESS:          0  HIT:          0  MISS:          0
ITLB PREFETCH  REQUESTED:          0  ISSUED:          0  USEFUL:          0  USELESS:          0
ITLB TOTAL MSHR MERGED:          0
ITLB LOAD MSHR MERGED:          0
ITLB RFO MSHR MERGED:          0
ITLB PREFETCH MSHR MERGED:          0
ITLB WRITEBACK MSHR MERGED:          0
ITLB TOTAL ACCESSES:   26153985 HITS:   26153985 MISSES:          0
ITLB LOAD ACCESSES:   26153985 HITS:   26153985 MISSES:          0
ITLB RFO ACCESSES:          0 HITS:          0 MISSES:          0
ITLB PREFETCH ACCESSES:          0 HITS:          0 MISSES:          0
ITLB WRITEBACK ACCESSES:          0 HITS:          0 MISSES:          0
ITLB RQ ACCESS:  150000000
ITLB RQ TO_CACHE:   26153985
ITLB RQ MERGED:  123846015
ITLB RQ FORWARD:          0
ITLB WQ ACCESS:          0
ITLB WQ TO_CACHE:          0
ITLB WQ MERGED:          0
ITLB WQ FORWARD:          0
DTLB TOTAL     ACCESS:   31505623  HIT:   31424573  MISS:      81050
DTLB LOAD      ACCESS:   16323192  HIT:   16302929  MISS:      20263
DTLB RFO       ACCESS:   15182431  HIT:   15121644  MISS:      60787
DTLB PREFETCH  ACCESS:          0  HIT:          0  MISS:          0
DTLB WRITEBACK ACCESS:          0  HIT:          0  MISS:          0
DTLB PREFETCH  REQUESTED:          0  ISSUED:          0  USEFUL:          0  USELESS:          0
DTLB TOTAL MSHR MERGED:      30499
DTLB LOAD MSHR MERGED:      30499
DTLB RFO MSHR MERGED:          0
DTLB PREFETCH MSHR MERGED:          0
DTLB WRITEBACK MSHR MERGED:          0
DTLB TOTAL ACCESSES:   31536122 HITS:   31424573 MISSES:     111549
DTLB LOAD ACCESSES:   16353691 HITS:   16302929 MISSES:      50762
DTLB RFO ACCESSES:   15182431 HITS:   15121644 MISSES:      60787
DTLB PREFETCH ACCESSES:          0 HITS:          0 MISSES:          0
DTLB WRITEBACK ACCESSES:          0 HITS:          0 MISSES:          0
DTLB RQ ACCESS:   56135416
DTLB RQ TO_CACHE:   31536122
DTLB RQ MERGED:   24599294
DTLB RQ FORWARD:          0
DTLB WQ ACCESS:          0
DTLB WQ TO_CACHE:          0
DTLB WQ MERGED:          0
DTLB WQ FORWARD:          0
L1D TOTAL     ACCESS:   51640421  HIT:   43041396  MISS:    8599025
L1D LOAD      ACCESS:   17891952  HIT:   16979781  MISS:     912171
L1D RFO       ACCESS:   21656803  HIT:   14376771  MISS:    7280032
L1D PREFETCH  ACCESS:   12091666  HIT:   11684844  MISS:     406822
L1D WRITEBACK ACCESS:          0  HIT:          0  MISS:          0
L1D PREFETCH  REQUESTED:   18318434  ISSUED:   18225103  USEFUL:     400423  USELESS:       6400
L1D TOTAL MSHR MERGED:    1470959
L1D LOAD MSHR MERGED:     472286
L1D RFO MSHR MERGED:      43734
L1D PREFETCH MSHR MERGED:     954939
L1D WRITEBACK MSHR MERGED:          0
L1D TOTAL ACCESSES:   53260675 HITS:   43190685 MISSES:   10069990
L1D LOAD ACCESSES:   18466010 HITS:   17127357 MISSES:    1338653
L1D RFO ACCESSES:   21700460 HITS:   14376771 MISSES:    7323689
L1D PREFETCH ACCESSES:   13094205 HITS:   11686557 MISSES:    1407648
L1D WRITEBACK ACCESSES:          0 HITS:          0 MISSES:          0
L1D RQ ACCESS:   34425963
L1D RQ TO_CACHE:   18318434
L1D RQ MERGED:   15959953
L1D RQ FORWARD:          0
L1D WQ ACCESS:   21709449
L1D WQ TO_CACHE:   21700460
L1D WQ MERGED:       8989
L1D WQ FORWARD:     149289
L1I TOTAL     ACCESS:   32566673  HIT:   32566673  MISS:          0
L1I LOAD      ACCESS:   32566673  HIT:   32566673  MISS:          0
L1I RFO       ACCESS:          0  HIT:          0  MISS:          0
L1I PREFETCH  ACCESS:          0  HIT:          0  MISS:          0
L1I WRITEBACK ACCESS:          0  HIT:          0  MISS:          0
L1I PREFETCH  REQUESTED:          0  ISSUED:          0  USEFUL:          0  USELESS:          0
L1I TOTAL MSHR MERGED:          0
L1I LOAD MSHR MERGED:          0
L1I RFO MSHR MERGED:          0
L1I PREFETCH MSHR MERGED:          0
L1I WRITEBACK MSHR MERGED:          0
L1I TOTAL ACCESSES:   32566673 HITS:   32566673 MISSES:          0
L1I LOAD ACCESSES:   32566673 HITS:   32566673 MISSES:          0
L1I RFO ACCESSES:          0 HITS:          0 MISSES:          0
L1I PREFETCH ACCESSES:          0 HITS:          0 MISSES:          0
L1I WRITEBACK ACCESSES:          0 HITS:          0 MISSES:          0
L1I RQ ACCESS:  150000000
L1I RQ TO_CACHE:   32566673
L1I RQ MERGED:  117433327
L1I RQ FORWARD:          0
L1I WQ ACCESS:          0
L1I WQ TO_CACHE:          0
L1I WQ MERGED:          0
L1I WQ FORWARD:          0
L2C TOTAL     ACCESS:   16072231  HIT:   10848222  MISS:    5224009
L2C LOAD      ACCESS:     866363  HIT:      96008  MISS:     770355
L2C RFO       ACCESS:    7279929  HIT:    3355902  MISS:    3924027
L2C PREFETCH  ACCESS:     645759  HIT:     117334  MISS:     528425
L2C WRITEBACK ACCESS:    7280180  HIT:    7278978  MISS:       1202
L2C PREFETCH  REQUESTED:     292159  ISSUED:     292159  USEFUL:      87443  USELESS:     441184
L2C TOTAL MSHR MERGED:       6121
L2C LOAD MSHR MERGED:       1312
L2C RFO MSHR MERGED:          0
L2C PREFETCH MSHR MERGED:       4809
L2C WRITEBACK MSHR MERGED:          0
L2C TOTAL ACCESSES:   16171191 HITS:   10848248 MISSES:    5322943
L2C LOAD ACCESSES:     866367 HITS:      96008 MISSES:     770359
L2C RFO ACCESSES:    7279955 HITS:    3355928 MISSES:    3924027
L2C PREFETCH ACCESSES:     744689 HITS:     117334 MISSES:     627355
L2C WRITEBACK ACCESSES:    7280180 HITS:    7278978 MISSES:       1202
L2C RQ ACCESS:    8146322
L2C RQ TO_CACHE:    8146296
L2C RQ MERGED:          0
L2C RQ FORWARD:          0
L2C WQ ACCESS:    7280180
L2C WQ TO_CACHE:    7280180
L2C WQ MERGED:          0
L2C WQ FORWARD:         26
LLC TOTAL     ACCESS:    9234702  HIT:    1833267  MISS:    7401435
LLC LOAD      ACCESS:     769043  HIT:      38864  MISS:     730179
LLC RFO       ACCESS:    3924019  HIT:     466910  MISS:    3457109
LLC PREFETCH  ACCESS:     616517  HIT:      49125  MISS:     567392
LLC WRITEBACK ACCESS:    3925123  HIT:    1278368  MISS:    2646755
LLC PREFETCH  REQUESTED:          0  ISSUED:          0  USEFUL:      38019  USELESS:     528878
LLC TOTAL MSHR MERGED:       5234
LLC LOAD MSHR MERGED:        398
LLC RFO MSHR MERGED:          0
LLC PREFETCH MSHR MERGED:       4836
LLC WRITEBACK MSHR MERGED:          0
LLC TOTAL ACCESSES:    9239951 HITS:    1833275 MISSES:    7406676
LLC LOAD ACCESSES:     769047 HITS:      38864 MISSES:     730183
LLC RFO ACCESSES:    3924027 HITS:     466918 MISSES:    3457109
LLC PREFETCH ACCESSES:     621753 HITS:      49125 MISSES:     572628
LLC WRITEBACK ACCESSES:    3925124 HITS:    1278368 MISSES:    2646756
LLC 0 RQ ACCESS:    4693074
LLC 0 RQ TO_CACHE:    4693066
LLC 0 RQ MERGED:          0
LLC 0 RQ FORWARD:          0
LLC WQ ACCESS:    3925125
LLC WQ TO_CACHE:    3925125
LLC WQ MERGED:          0
LLC WQ FORWARD:          8
Major fault: 0 Minor fault: 58902
CPU 0 L1D next line prefetcher final stats
CPU 0 L2C PC-based stride prefetcher final stats
All Misses: 10566908
All Hits: 2666991
SD Algo Stats - Switches: 0 SRR-Repls: 919140 BRR-Repls: 0

DRAM Statistics
 CHANNEL 0
 RQ ROW_BUFFER_HIT:    1588712  ROW_BUFFER_MISS:    3165358
 DBUS_CONGESTED:    5682195
 WQ ROW_BUFFER_HIT:     615775  ROW_BUFFER_MISS:    2845077  FULL:          0

 AVG_CONGESTED_CYCLE: 13
LOADS RETIRED: 38945455
INSTR RETIRED: 150000000
