
*** ChampSim Multicore Out-of-Order Simulator ***

Warmup Instructions: 100000000
Simulation Instructions: 150000000
Number of CPUs: 1
LLC sets: 2048
LLC ways: 16
Clean RRIP Policies: 3333323233333232 Dirty RRIP Policies: 3333323233333232 PSEL Width: 10 Track Set: 4294967295 PSEL Mask: 1 Demote Mask: 4044404440444044DS Algo: 0Window size: 0
Off-chip DRAM Size: 4096 MB Channels: 1 Width: 64-bit Data Rate: 1600 MT/s

CPU 0 runs /mnt/beegfs/pchatz06/selected_traces/520.omnetpp_r.refrate.input1.region_5.w_0.1489_0.161.trace.gz
NOT SORTED
TRACE STRING: /mnt/beegfs/pchatz06/selected_traces/520.omnetpp_r.refrate.input1.region_5.w_0.1489_0.161.trace.gz
SORTED
TRACE STRING: /mnt/beegfs/pchatz06/selected_traces/520.omnetpp_r.refrate.input1.region_5.w_0.1489_0.161.trace.gz
INITIAL
TRACE STRING: /mnt/beegfs/pchatz06/selected_traces/520.omnetpp_r.refrate.input1.region_5.w_0.1489_0.161.trace.gz

champsim_seed used: 152

CPU 0 L1D next line prefetcher
CPU 0 L2C IP-based stride prefetcher
Initialize DRRIP state
Assign rand_sets[0]: 454  LLC: 2048
rand_sets[0]: 454
Assign rand_sets[1]: 1662  LLC: 2048
rand_sets[1]: 1662
Assign rand_sets[2]: 1921  LLC: 2048
rand_sets[2]: 1921
Assign rand_sets[3]: 1131  LLC: 2048
rand_sets[3]: 1131
Assign rand_sets[4]: 331  LLC: 2048
rand_sets[4]: 331
Assign rand_sets[5]: 1531  LLC: 2048
rand_sets[5]: 1531
Assign rand_sets[6]: 482  LLC: 2048
rand_sets[6]: 482
Assign rand_sets[7]: 1275  LLC: 2048
rand_sets[7]: 1275
Assign rand_sets[8]: 1876  LLC: 2048
rand_sets[8]: 1876
Assign rand_sets[9]: 2038  LLC: 2048
rand_sets[9]: 2038
Assign rand_sets[10]: 701  LLC: 2048
rand_sets[10]: 701
Assign rand_sets[11]: 479  LLC: 2048
rand_sets[11]: 479
Assign rand_sets[12]: 892  LLC: 2048
rand_sets[12]: 892
Assign rand_sets[13]: 1820  LLC: 2048
rand_sets[13]: 1820
Assign rand_sets[14]: 1505  LLC: 2048
rand_sets[14]: 1505
Assign rand_sets[15]: 1159  LLC: 2048
rand_sets[15]: 1159
Assign rand_sets[16]: 513  LLC: 2048
rand_sets[16]: 513
Assign rand_sets[17]: 703  LLC: 2048
rand_sets[17]: 703
Assign rand_sets[18]: 561  LLC: 2048
rand_sets[18]: 561
Assign rand_sets[19]: 990  LLC: 2048
rand_sets[19]: 990
Assign rand_sets[20]: 342  LLC: 2048
rand_sets[20]: 342
Assign rand_sets[21]: 882  LLC: 2048
rand_sets[21]: 882
Assign rand_sets[22]: 15  LLC: 2048
rand_sets[22]: 15
Assign rand_sets[23]: 71  LLC: 2048
rand_sets[23]: 71
Assign rand_sets[24]: 1127  LLC: 2048
rand_sets[24]: 1127
Assign rand_sets[25]: 1382  LLC: 2048
rand_sets[25]: 1382
Assign rand_sets[26]: 647  LLC: 2048
rand_sets[26]: 647
Assign rand_sets[27]: 857  LLC: 2048
rand_sets[27]: 857
Assign rand_sets[28]: 1450  LLC: 2048
rand_sets[28]: 1450
Assign rand_sets[29]: 1160  LLC: 2048
rand_sets[29]: 1160
Assign rand_sets[30]: 1852  LLC: 2048
rand_sets[30]: 1852
Assign rand_sets[31]: 1881  LLC: 2048
rand_sets[31]: 1881
Assign rand_sets[32]: 1770  LLC: 2048
rand_sets[32]: 1770
Assign rand_sets[33]: 1622  LLC: 2048
rand_sets[33]: 1622
Assign rand_sets[34]: 275  LLC: 2048
rand_sets[34]: 275
Assign rand_sets[35]: 635  LLC: 2048
rand_sets[35]: 635
Assign rand_sets[36]: 466  LLC: 2048
rand_sets[36]: 466
Assign rand_sets[37]: 1413  LLC: 2048
rand_sets[37]: 1413
Assign rand_sets[38]: 417  LLC: 2048
rand_sets[38]: 417
Assign rand_sets[39]: 472  LLC: 2048
rand_sets[39]: 472
Assign rand_sets[40]: 1340  LLC: 2048
rand_sets[40]: 1340
Assign rand_sets[41]: 852  LLC: 2048
rand_sets[41]: 852
Assign rand_sets[42]: 1365  LLC: 2048
rand_sets[42]: 1365
Assign rand_sets[43]: 47  LLC: 2048
rand_sets[43]: 47
Assign rand_sets[44]: 823  LLC: 2048
rand_sets[44]: 823
Assign rand_sets[45]: 686  LLC: 2048
rand_sets[45]: 686
Assign rand_sets[46]: 1637  LLC: 2048
rand_sets[46]: 1637
Assign rand_sets[47]: 1115  LLC: 2048
rand_sets[47]: 1115
Assign rand_sets[48]: 986  LLC: 2048
rand_sets[48]: 986
Assign rand_sets[49]: 258  LLC: 2048
rand_sets[49]: 258
Assign rand_sets[50]: 633  LLC: 2048
rand_sets[50]: 633
Assign rand_sets[51]: 920  LLC: 2048
rand_sets[51]: 920
Assign rand_sets[52]: 204  LLC: 2048
rand_sets[52]: 204
Assign rand_sets[53]: 227  LLC: 2048
rand_sets[53]: 227
Assign rand_sets[54]: 1818  LLC: 2048
rand_sets[54]: 1818
Assign rand_sets[55]: 886  LLC: 2048
rand_sets[55]: 886
Assign rand_sets[56]: 1422  LLC: 2048
rand_sets[56]: 1422
Assign rand_sets[57]: 607  LLC: 2048
rand_sets[57]: 607
Assign rand_sets[58]: 217  LLC: 2048
rand_sets[58]: 217
Assign rand_sets[59]: 1945  LLC: 2048
rand_sets[59]: 1945
Assign rand_sets[60]: 143  LLC: 2048
rand_sets[60]: 143
Assign rand_sets[61]: 1311  LLC: 2048
rand_sets[61]: 1311
Assign rand_sets[62]: 319  LLC: 2048
rand_sets[62]: 319
Assign rand_sets[63]: 1846  LLC: 2048
rand_sets[63]: 1846
 CLEAN-RRIP-POLICY-1: 3-3-3-3-3-2-3-2- CLEAN-RRIP-POLICY-2: 3-3-3-3-3-2-3-2-
 DIRTY-RRIP-POLICY-1: 3-3-3-3-3-2-3-2- DIRTY-RRIP-POLICY-2: 3-3-3-3-3-2-3-2-
 PSEL width: 10
Heartbeat CPU 0 instructions: 10000000 cycles: 7202574 heartbeat IPC: 1.38839 cumulative IPC: 1.38839 (Simulation time: 0 hr 0 min 20 sec) 
Heartbeat CPU 0 instructions: 20000000 cycles: 14392093 heartbeat IPC: 1.39091 cumulative IPC: 1.38965 (Simulation time: 0 hr 0 min 40 sec) 
Heartbeat CPU 0 instructions: 30000003 cycles: 21610763 heartbeat IPC: 1.3853 cumulative IPC: 1.3882 (Simulation time: 0 hr 1 min 0 sec) 
Heartbeat CPU 0 instructions: 40000000 cycles: 28827425 heartbeat IPC: 1.38568 cumulative IPC: 1.38757 (Simulation time: 0 hr 1 min 20 sec) 
Heartbeat CPU 0 instructions: 50000001 cycles: 36051370 heartbeat IPC: 1.38429 cumulative IPC: 1.38691 (Simulation time: 0 hr 1 min 41 sec) 
Heartbeat CPU 0 instructions: 60000000 cycles: 43260484 heartbeat IPC: 1.38713 cumulative IPC: 1.38695 (Simulation time: 0 hr 2 min 1 sec) 
Heartbeat CPU 0 instructions: 70000000 cycles: 50457948 heartbeat IPC: 1.38938 cumulative IPC: 1.38729 (Simulation time: 0 hr 2 min 22 sec) 
Heartbeat CPU 0 instructions: 80000000 cycles: 57687256 heartbeat IPC: 1.38326 cumulative IPC: 1.38679 (Simulation time: 0 hr 2 min 42 sec) 
Heartbeat CPU 0 instructions: 90000000 cycles: 64875765 heartbeat IPC: 1.39111 cumulative IPC: 1.38727 (Simulation time: 0 hr 3 min 3 sec) 
Heartbeat CPU 0 instructions: 100000000 cycles: 72096487 heartbeat IPC: 1.3849 cumulative IPC: 1.38703 (Simulation time: 0 hr 3 min 23 sec) 

Warmup complete CPU 0 instructions: 100000003 cycles: 72096488 (Simulation time: 0 hr 3 min 23 sec) 

Heartbeat CPU 0 instructions: 110000003 cycles: 111776286 heartbeat IPC: 0.252017 cumulative IPC: 0.252017 (Simulation time: 0 hr 4 min 4 sec) 
Heartbeat CPU 0 instructions: 120000000 cycles: 151642769 heartbeat IPC: 0.250837 cumulative IPC: 0.251426 (Simulation time: 0 hr 4 min 45 sec) 
Heartbeat CPU 0 instructions: 130000000 cycles: 191573189 heartbeat IPC: 0.250436 cumulative IPC: 0.251095 (Simulation time: 0 hr 5 min 26 sec) 
Heartbeat CPU 0 instructions: 140000000 cycles: 231126341 heartbeat IPC: 0.252824 cumulative IPC: 0.251525 (Simulation time: 0 hr 6 min 7 sec) 
Heartbeat CPU 0 instructions: 150000001 cycles: 271352084 heartbeat IPC: 0.248597 cumulative IPC: 0.250934 (Simulation time: 0 hr 6 min 48 sec) 
Heartbeat CPU 0 instructions: 160000000 cycles: 310928659 heartbeat IPC: 0.252675 cumulative IPC: 0.251222 (Simulation time: 0 hr 7 min 29 sec) 
Heartbeat CPU 0 instructions: 170000000 cycles: 350936018 heartbeat IPC: 0.249954 cumulative IPC: 0.25104 (Simulation time: 0 hr 8 min 9 sec) 
Heartbeat CPU 0 instructions: 180000000 cycles: 391082271 heartbeat IPC: 0.249089 cumulative IPC: 0.250795 (Simulation time: 0 hr 8 min 50 sec) 
Heartbeat CPU 0 instructions: 190000000 cycles: 430807464 heartbeat IPC: 0.251729 cumulative IPC: 0.250898 (Simulation time: 0 hr 9 min 30 sec) 
Heartbeat CPU 0 instructions: 200000000 cycles: 471125097 heartbeat IPC: 0.24803 cumulative IPC: 0.250609 (Simulation time: 0 hr 10 min 10 sec) 
Heartbeat CPU 0 instructions: 210000001 cycles: 511164962 heartbeat IPC: 0.249751 cumulative IPC: 0.25053 (Simulation time: 0 hr 10 min 49 sec) 
Heartbeat CPU 0 instructions: 220000000 cycles: 551622844 heartbeat IPC: 0.247171 cumulative IPC: 0.250247 (Simulation time: 0 hr 11 min 29 sec) 
Heartbeat CPU 0 instructions: 230000002 cycles: 592036327 heartbeat IPC: 0.247442 cumulative IPC: 0.250029 (Simulation time: 0 hr 12 min 9 sec) 
Heartbeat CPU 0 instructions: 240000000 cycles: 632464764 heartbeat IPC: 0.247351 cumulative IPC: 0.249836 (Simulation time: 0 hr 12 min 49 sec) 
*** Reached end of trace for Core: 0 Repeating trace: /mnt/beegfs/pchatz06/selected_traces/520.omnetpp_r.refrate.input1.region_5.w_0.1489_0.161.trace.gz
Heartbeat CPU 0 instructions: 250000003 cycles: 671761685 heartbeat IPC: 0.254473 cumulative IPC: 0.25014 (Simulation time: 0 hr 13 min 28 sec) 
Finished CPU 0 instructions: 150000000 cycles: 599665197 cumulative IPC: 0.25014 (Simulation time: 0 hr 13 min 28 sec) 

CPU 0 Branch Prediction Accuracy: 96.8342% MPKI: 4.79564
Number of Branches: 22722204 Number of Mispredictions: 719346
Number of LOAD Instructions: 79969696
Number of LOAD Instructions (ROI): 79969696
Number of STORE Instructions: 41189115
Number of STORE Instructions (ROI): 41189115
Total Destination Memory Operands: 45040001
Total Destination Memory Operands (ROI): 45040001
Total Source Memory Operands: 79969696
Total Source Memory Operands (ROI): 79969696
Number of DEPENDED LOADS: 2831419
Number of DEPENDED LOADS (ROI): 2831419
Number of SQ_ADDED: 45040001
Number of SQ_ADDED (ROI): 45040001
Number of LQ_ADDED: 154109342
Number of LQ_ADDED (ROI): 154109342
Number of Instructions read from trace: 250000026

ChampSim completed all CPUs

Region of Interest Statistics

CPU 0 cumulative IPC: 0.25014 instructions: 150000000 cycles: 599665197
ITLB TOTAL     ACCESS:   46193826  HIT:   46193774  MISS:         52
ITLB LOAD      ACCESS:   46193826  HIT:   46193774  MISS:         52
ITLB RFO       ACCESS:          0  HIT:          0  MISS:          0
ITLB PREFETCH  ACCESS:          0  HIT:          0  MISS:          0
ITLB WRITEBACK ACCESS:          0  HIT:          0  MISS:          0
ITLB PREFETCH  REQUESTED:          0  ISSUED:          0  USEFUL:          0  USELESS:          0
ITLB TOTAL MSHR MERGED:         73
ITLB LOAD MSHR MERGED:         73
ITLB RFO MSHR MERGED:          0
ITLB PREFETCH MSHR MERGED:          0
ITLB WRITEBACK MSHR MERGED:          0
ITLB TOTAL ACCESSES:   46193899 HITS:   46193774 MISSES:        125
ITLB LOAD ACCESSES:   46193899 HITS:   46193774 MISSES:        125
ITLB RFO ACCESSES:          0 HITS:          0 MISSES:          0
ITLB PREFETCH ACCESSES:          0 HITS:          0 MISSES:          0
ITLB WRITEBACK ACCESSES:          0 HITS:          0 MISSES:          0
ITLB RQ ACCESS:  149999910
ITLB RQ TO_CACHE:   46193899
ITLB RQ MERGED:  103806011
ITLB RQ FORWARD:          0
ITLB WQ ACCESS:          0
ITLB WQ TO_CACHE:          0
ITLB WQ MERGED:          0
ITLB WQ FORWARD:          0
DTLB TOTAL     ACCESS:   60567445  HIT:   59088852  MISS:    1478593
DTLB LOAD      ACCESS:   37279572  HIT:   35907783  MISS:    1371789
DTLB RFO       ACCESS:   23287873  HIT:   23181069  MISS:     106804
DTLB PREFETCH  ACCESS:          0  HIT:          0  MISS:          0
DTLB WRITEBACK ACCESS:          0  HIT:          0  MISS:          0
DTLB PREFETCH  REQUESTED:          0  ISSUED:          0  USEFUL:          0  USELESS:          0
DTLB TOTAL MSHR MERGED:     249482
DTLB LOAD MSHR MERGED:     213576
DTLB RFO MSHR MERGED:      35906
DTLB PREFETCH MSHR MERGED:          0
DTLB WRITEBACK MSHR MERGED:          0
DTLB TOTAL ACCESSES:   60816927 HITS:   59088852 MISSES:    1728075
DTLB LOAD ACCESSES:   37493148 HITS:   35907783 MISSES:    1585365
DTLB RFO ACCESSES:   23323779 HITS:   23181069 MISSES:     142710
DTLB PREFETCH ACCESSES:          0 HITS:          0 MISSES:          0
DTLB WRITEBACK ACCESSES:          0 HITS:          0 MISSES:          0
DTLB RQ ACCESS:   73107824
DTLB RQ TO_CACHE:   60816927
DTLB RQ MERGED:   12290897
DTLB RQ FORWARD:          0
DTLB WQ ACCESS:          0
DTLB WQ TO_CACHE:          0
DTLB WQ MERGED:          0
DTLB WQ FORWARD:          0
L1D TOTAL     ACCESS:   99276838  HIT:   93909711  MISS:    5367127
L1D LOAD      ACCESS:   38087801  HIT:   35437658  MISS:    2650143
L1D RFO       ACCESS:   26512569  HIT:   26256352  MISS:     256217
L1D PREFETCH  ACCESS:   34676468  HIT:   32215701  MISS:    2460767
L1D WRITEBACK ACCESS:          0  HIT:          0  MISS:          0
L1D PREFETCH  REQUESTED:   38315310  ISSUED:   36493942  USEFUL:     513137  USELESS:    1947634
L1D TOTAL MSHR MERGED:    1205823
L1D LOAD MSHR MERGED:     277124
L1D RFO MSHR MERGED:     360376
L1D PREFETCH MSHR MERGED:     568323
L1D WRITEBACK MSHR MERGED:          0
L1D TOTAL ACCESSES:  100498914 HITS:   93925963 MISSES:    6572951
L1D LOAD ACCESSES:   38315506 HITS:   35437854 MISSES:    2877652
L1D RFO ACCESSES:   26848788 HITS:   26256352 MISSES:     592436
L1D PREFETCH ACCESSES:   35334620 HITS:   32231757 MISSES:    3102863
L1D WRITEBACK ACCESSES:          0 HITS:          0 MISSES:          0
L1D RQ ACCESS:   46092364
L1D RQ TO_CACHE:   38315311
L1D RQ MERGED:    7776857
L1D RQ FORWARD:          0
L1D WQ ACCESS:   27015458
L1D WQ TO_CACHE:   26848789
L1D WQ MERGED:     166669
L1D WQ FORWARD:      16252
L1I TOTAL     ACCESS:   53444030  HIT:   53304225  MISS:     139805
L1I LOAD      ACCESS:   53444030  HIT:   53304225  MISS:     139805
L1I RFO       ACCESS:          0  HIT:          0  MISS:          0
L1I PREFETCH  ACCESS:          0  HIT:          0  MISS:          0
L1I WRITEBACK ACCESS:          0  HIT:          0  MISS:          0
L1I PREFETCH  REQUESTED:          0  ISSUED:          0  USEFUL:          0  USELESS:          0
L1I TOTAL MSHR MERGED:      84823
L1I LOAD MSHR MERGED:      84823
L1I RFO MSHR MERGED:          0
L1I PREFETCH MSHR MERGED:          0
L1I WRITEBACK MSHR MERGED:          0
L1I TOTAL ACCESSES:   53528853 HITS:   53304225 MISSES:     224628
L1I LOAD ACCESSES:   53528853 HITS:   53304225 MISSES:     224628
L1I RFO ACCESSES:          0 HITS:          0 MISSES:          0
L1I PREFETCH ACCESSES:          0 HITS:          0 MISSES:          0
L1I WRITEBACK ACCESSES:          0 HITS:          0 MISSES:          0
L1I RQ ACCESS:  149999910
L1I RQ TO_CACHE:   53528853
L1I RQ MERGED:   96471057
L1I RQ FORWARD:          0
L1I WQ ACCESS:          0
L1I WQ TO_CACHE:          0
L1I WQ MERGED:          0
L1I WQ FORWARD:          0
L2C TOTAL     ACCESS:    7133008  HIT:    3634623  MISS:    3498385
L2C LOAD      ACCESS:    2739996  HIT:    1089217  MISS:    1650779
L2C RFO       ACCESS:     232032  HIT:      48503  MISS:     183529
L2C PREFETCH  ACCESS:    2540651  HIT:     885379  MISS:    1655272
L2C WRITEBACK ACCESS:    1620329  HIT:    1611524  MISS:       8805
L2C PREFETCH  REQUESTED:       6443  ISSUED:       6443  USEFUL:      86557  USELESS:    1568870
L2C TOTAL MSHR MERGED:          1
L2C LOAD MSHR MERGED:          0
L2C RFO MSHR MERGED:          0
L2C PREFETCH MSHR MERGED:          1
L2C WRITEBACK MSHR MERGED:          0
L2C TOTAL ACCESSES:    7133555 HITS:    3635166 MISSES:    3498389
L2C LOAD ACCESSES:    2740332 HITS:    1089553 MISSES:    1650779
L2C RFO ACCESSES:     232060 HITS:      48531 MISSES:     183529
L2C PREFETCH ACCESSES:    2540834 HITS:     885558 MISSES:    1655276
L2C WRITEBACK ACCESSES:    1620329 HITS:    1611524 MISSES:       8805
L2C RQ ACCESS:    2972393
L2C RQ TO_CACHE:    2972029
L2C RQ MERGED:          0
L2C RQ FORWARD:          0
L2C WQ ACCESS:    1620329
L2C WQ TO_CACHE:    1620329
L2C WQ MERGED:          0
L2C WQ FORWARD:        543
LLC TOTAL     ACCESS:    4674311  HIT:    1882448  MISS:    2791863
LLC LOAD      ACCESS:    1650772  HIT:     578953  MISS:    1071819
LLC RFO       ACCESS:     183528  HIT:      87161  MISS:      96367
LLC PREFETCH  ACCESS:    1655269  HIT:     289216  MISS:    1366053
LLC WRITEBACK ACCESS:    1184742  HIT:     927118  MISS:     257624
LLC PREFETCH  REQUESTED:          0  ISSUED:          0  USEFUL:       8938  USELESS:    1358127
LLC TOTAL MSHR MERGED:          0
LLC LOAD MSHR MERGED:          0
LLC RFO MSHR MERGED:          0
LLC PREFETCH MSHR MERGED:          0
LLC WRITEBACK MSHR MERGED:          0
LLC TOTAL ACCESSES:    4674325 HITS:    1882462 MISSES:    2791863
LLC LOAD ACCESSES:    1650779 HITS:     578960 MISSES:    1071819
LLC RFO ACCESSES:     183529 HITS:      87162 MISSES:      96367
LLC PREFETCH ACCESSES:    1655275 HITS:     289222 MISSES:    1366053
LLC WRITEBACK ACCESSES:    1184742 HITS:     927118 MISSES:     257624
LLC 0 RQ ACCESS:    1834308
LLC 0 RQ TO_CACHE:    1834300
LLC 0 RQ MERGED:          0
LLC 0 RQ FORWARD:          0
LLC WQ ACCESS:    1184742
LLC WQ TO_CACHE:    1184742
LLC WQ MERGED:          0
LLC WQ FORWARD:         14
Major fault: 0 Minor fault: 52569
CPU 0 L1D next line prefetcher final stats
CPU 0 L2C PC-based stride prefetcher final stats
All Misses: 4691506
All Hits: 3054631
SD Algo Stats - Switches: 0 SRR-Repls: 1635647 BRR-Repls: 0

DRAM Statistics
 CHANNEL 0
 RQ ROW_BUFFER_HIT:     483667  ROW_BUFFER_MISS:    2049654
 DBUS_CONGESTED:    1703694
 WQ ROW_BUFFER_HIT:      59068  ROW_BUFFER_MISS:     661546  FULL:          0

 AVG_CONGESTED_CYCLE: 13
LOADS RETIRED: 48004090
INSTR RETIRED: 150000000
