
*** ChampSim Multicore Out-of-Order Simulator ***

Warmup Instructions: 100000000
Simulation Instructions: 150000000
Number of CPUs: 1
LLC sets: 2048
LLC ways: 16
Clean RRIP Policies: 3333323233333232 Dirty RRIP Policies: 3333323233333232 PSEL Width: 10 Track Set: 4294967295 PSEL Mask: 1 Demote Mask: 4044404440444044DS Algo: 0Window size: 0
Off-chip DRAM Size: 4096 MB Channels: 1 Width: 64-bit Data Rate: 1600 MT/s

CPU 0 runs /mnt/beegfs/pchatz06/selected_traces/521.wrf_r.refrate.input1.region_11.w_0.031_0.0591.trace.gz
NOT SORTED
TRACE STRING: /mnt/beegfs/pchatz06/selected_traces/521.wrf_r.refrate.input1.region_11.w_0.031_0.0591.trace.gz
SORTED
TRACE STRING: /mnt/beegfs/pchatz06/selected_traces/521.wrf_r.refrate.input1.region_11.w_0.031_0.0591.trace.gz
INITIAL
TRACE STRING: /mnt/beegfs/pchatz06/selected_traces/521.wrf_r.refrate.input1.region_11.w_0.031_0.0591.trace.gz

champsim_seed used: 207

CPU 0 L1D next line prefetcher
CPU 0 L2C IP-based stride prefetcher
Initialize DRRIP state
Assign rand_sets[0]: 454  LLC: 2048
rand_sets[0]: 454
Assign rand_sets[1]: 1662  LLC: 2048
rand_sets[1]: 1662
Assign rand_sets[2]: 1921  LLC: 2048
rand_sets[2]: 1921
Assign rand_sets[3]: 1131  LLC: 2048
rand_sets[3]: 1131
Assign rand_sets[4]: 331  LLC: 2048
rand_sets[4]: 331
Assign rand_sets[5]: 1531  LLC: 2048
rand_sets[5]: 1531
Assign rand_sets[6]: 482  LLC: 2048
rand_sets[6]: 482
Assign rand_sets[7]: 1275  LLC: 2048
rand_sets[7]: 1275
Assign rand_sets[8]: 1876  LLC: 2048
rand_sets[8]: 1876
Assign rand_sets[9]: 2038  LLC: 2048
rand_sets[9]: 2038
Assign rand_sets[10]: 701  LLC: 2048
rand_sets[10]: 701
Assign rand_sets[11]: 479  LLC: 2048
rand_sets[11]: 479
Assign rand_sets[12]: 892  LLC: 2048
rand_sets[12]: 892
Assign rand_sets[13]: 1820  LLC: 2048
rand_sets[13]: 1820
Assign rand_sets[14]: 1505  LLC: 2048
rand_sets[14]: 1505
Assign rand_sets[15]: 1159  LLC: 2048
rand_sets[15]: 1159
Assign rand_sets[16]: 513  LLC: 2048
rand_sets[16]: 513
Assign rand_sets[17]: 703  LLC: 2048
rand_sets[17]: 703
Assign rand_sets[18]: 561  LLC: 2048
rand_sets[18]: 561
Assign rand_sets[19]: 990  LLC: 2048
rand_sets[19]: 990
Assign rand_sets[20]: 342  LLC: 2048
rand_sets[20]: 342
Assign rand_sets[21]: 882  LLC: 2048
rand_sets[21]: 882
Assign rand_sets[22]: 15  LLC: 2048
rand_sets[22]: 15
Assign rand_sets[23]: 71  LLC: 2048
rand_sets[23]: 71
Assign rand_sets[24]: 1127  LLC: 2048
rand_sets[24]: 1127
Assign rand_sets[25]: 1382  LLC: 2048
rand_sets[25]: 1382
Assign rand_sets[26]: 647  LLC: 2048
rand_sets[26]: 647
Assign rand_sets[27]: 857  LLC: 2048
rand_sets[27]: 857
Assign rand_sets[28]: 1450  LLC: 2048
rand_sets[28]: 1450
Assign rand_sets[29]: 1160  LLC: 2048
rand_sets[29]: 1160
Assign rand_sets[30]: 1852  LLC: 2048
rand_sets[30]: 1852
Assign rand_sets[31]: 1881  LLC: 2048
rand_sets[31]: 1881
Assign rand_sets[32]: 1770  LLC: 2048
rand_sets[32]: 1770
Assign rand_sets[33]: 1622  LLC: 2048
rand_sets[33]: 1622
Assign rand_sets[34]: 275  LLC: 2048
rand_sets[34]: 275
Assign rand_sets[35]: 635  LLC: 2048
rand_sets[35]: 635
Assign rand_sets[36]: 466  LLC: 2048
rand_sets[36]: 466
Assign rand_sets[37]: 1413  LLC: 2048
rand_sets[37]: 1413
Assign rand_sets[38]: 417  LLC: 2048
rand_sets[38]: 417
Assign rand_sets[39]: 472  LLC: 2048
rand_sets[39]: 472
Assign rand_sets[40]: 1340  LLC: 2048
rand_sets[40]: 1340
Assign rand_sets[41]: 852  LLC: 2048
rand_sets[41]: 852
Assign rand_sets[42]: 1365  LLC: 2048
rand_sets[42]: 1365
Assign rand_sets[43]: 47  LLC: 2048
rand_sets[43]: 47
Assign rand_sets[44]: 823  LLC: 2048
rand_sets[44]: 823
Assign rand_sets[45]: 686  LLC: 2048
rand_sets[45]: 686
Assign rand_sets[46]: 1637  LLC: 2048
rand_sets[46]: 1637
Assign rand_sets[47]: 1115  LLC: 2048
rand_sets[47]: 1115
Assign rand_sets[48]: 986  LLC: 2048
rand_sets[48]: 986
Assign rand_sets[49]: 258  LLC: 2048
rand_sets[49]: 258
Assign rand_sets[50]: 633  LLC: 2048
rand_sets[50]: 633
Assign rand_sets[51]: 920  LLC: 2048
rand_sets[51]: 920
Assign rand_sets[52]: 204  LLC: 2048
rand_sets[52]: 204
Assign rand_sets[53]: 227  LLC: 2048
rand_sets[53]: 227
Assign rand_sets[54]: 1818  LLC: 2048
rand_sets[54]: 1818
Assign rand_sets[55]: 886  LLC: 2048
rand_sets[55]: 886
Assign rand_sets[56]: 1422  LLC: 2048
rand_sets[56]: 1422
Assign rand_sets[57]: 607  LLC: 2048
rand_sets[57]: 607
Assign rand_sets[58]: 217  LLC: 2048
rand_sets[58]: 217
Assign rand_sets[59]: 1945  LLC: 2048
rand_sets[59]: 1945
Assign rand_sets[60]: 143  LLC: 2048
rand_sets[60]: 143
Assign rand_sets[61]: 1311  LLC: 2048
rand_sets[61]: 1311
Assign rand_sets[62]: 319  LLC: 2048
rand_sets[62]: 319
Assign rand_sets[63]: 1846  LLC: 2048
rand_sets[63]: 1846
 CLEAN-RRIP-POLICY-1: 3-3-3-3-3-2-3-2- CLEAN-RRIP-POLICY-2: 3-3-3-3-3-2-3-2-
 DIRTY-RRIP-POLICY-1: 3-3-3-3-3-2-3-2- DIRTY-RRIP-POLICY-2: 3-3-3-3-3-2-3-2-
 PSEL width: 10
Heartbeat CPU 0 instructions: 10000003 cycles: 6645799 heartbeat IPC: 1.50471 cumulative IPC: 1.50471 (Simulation time: 0 hr 0 min 22 sec) 
Heartbeat CPU 0 instructions: 20000000 cycles: 12279303 heartbeat IPC: 1.77509 cumulative IPC: 1.62876 (Simulation time: 0 hr 0 min 42 sec) 
Heartbeat CPU 0 instructions: 30000001 cycles: 18235551 heartbeat IPC: 1.67891 cumulative IPC: 1.64514 (Simulation time: 0 hr 1 min 3 sec) 
Heartbeat CPU 0 instructions: 40000000 cycles: 23987641 heartbeat IPC: 1.7385 cumulative IPC: 1.66753 (Simulation time: 0 hr 1 min 24 sec) 
Heartbeat CPU 0 instructions: 50000003 cycles: 29865406 heartbeat IPC: 1.70133 cumulative IPC: 1.67418 (Simulation time: 0 hr 1 min 45 sec) 
Heartbeat CPU 0 instructions: 60000000 cycles: 35636553 heartbeat IPC: 1.73276 cumulative IPC: 1.68366 (Simulation time: 0 hr 2 min 6 sec) 
Heartbeat CPU 0 instructions: 70000003 cycles: 41385235 heartbeat IPC: 1.73953 cumulative IPC: 1.69142 (Simulation time: 0 hr 2 min 28 sec) 
Heartbeat CPU 0 instructions: 80000000 cycles: 47291290 heartbeat IPC: 1.69318 cumulative IPC: 1.69164 (Simulation time: 0 hr 2 min 49 sec) 
Heartbeat CPU 0 instructions: 90000003 cycles: 53072913 heartbeat IPC: 1.72962 cumulative IPC: 1.69578 (Simulation time: 0 hr 3 min 10 sec) 
Heartbeat CPU 0 instructions: 100000000 cycles: 58945365 heartbeat IPC: 1.70287 cumulative IPC: 1.69649 (Simulation time: 0 hr 3 min 31 sec) 

Warmup complete CPU 0 instructions: 100000001 cycles: 58945376 (Simulation time: 0 hr 3 min 31 sec) 

Heartbeat CPU 0 instructions: 110000001 cycles: 70225037 heartbeat IPC: 0.886551 cumulative IPC: 0.886551 (Simulation time: 0 hr 3 min 57 sec) 
Heartbeat CPU 0 instructions: 120000000 cycles: 81063288 heartbeat IPC: 0.922658 cumulative IPC: 0.904244 (Simulation time: 0 hr 4 min 22 sec) 
Heartbeat CPU 0 instructions: 130000003 cycles: 90917550 heartbeat IPC: 1.01479 cumulative IPC: 0.938316 (Simulation time: 0 hr 4 min 47 sec) 
Heartbeat CPU 0 instructions: 140000000 cycles: 104613936 heartbeat IPC: 0.730119 cumulative IPC: 0.875876 (Simulation time: 0 hr 5 min 14 sec) 
Heartbeat CPU 0 instructions: 150000001 cycles: 114859434 heartbeat IPC: 0.976039 cumulative IPC: 0.894229 (Simulation time: 0 hr 5 min 39 sec) 
Heartbeat CPU 0 instructions: 160000000 cycles: 125321588 heartbeat IPC: 0.955826 cumulative IPC: 0.903938 (Simulation time: 0 hr 6 min 4 sec) 
Heartbeat CPU 0 instructions: 170000001 cycles: 139485592 heartbeat IPC: 0.706015 cumulative IPC: 0.869131 (Simulation time: 0 hr 6 min 32 sec) 
Heartbeat CPU 0 instructions: 180000000 cycles: 157369522 heartbeat IPC: 0.559161 cumulative IPC: 0.812809 (Simulation time: 0 hr 7 min 3 sec) 
Heartbeat CPU 0 instructions: 190000002 cycles: 169709227 heartbeat IPC: 0.810392 cumulative IPC: 0.812539 (Simulation time: 0 hr 7 min 30 sec) 
Heartbeat CPU 0 instructions: 200000000 cycles: 179768442 heartbeat IPC: 0.994113 cumulative IPC: 0.827657 (Simulation time: 0 hr 7 min 52 sec) 
Heartbeat CPU 0 instructions: 210000002 cycles: 187603572 heartbeat IPC: 1.2763 cumulative IPC: 0.854979 (Simulation time: 0 hr 8 min 14 sec) 
Heartbeat CPU 0 instructions: 220000000 cycles: 199420671 heartbeat IPC: 0.846231 cumulative IPC: 0.854243 (Simulation time: 0 hr 8 min 40 sec) 
Heartbeat CPU 0 instructions: 230000002 cycles: 209656232 heartbeat IPC: 0.976986 cumulative IPC: 0.862579 (Simulation time: 0 hr 9 min 4 sec) 
Heartbeat CPU 0 instructions: 240000000 cycles: 219137638 heartbeat IPC: 1.0547 cumulative IPC: 0.87395 (Simulation time: 0 hr 9 min 26 sec) 
*** Reached end of trace for Core: 0 Repeating trace: /mnt/beegfs/pchatz06/selected_traces/521.wrf_r.refrate.input1.region_11.w_0.031_0.0591.trace.gz
Heartbeat CPU 0 instructions: 250000000 cycles: 229089775 heartbeat IPC: 1.00481 cumulative IPC: 0.881604 (Simulation time: 0 hr 9 min 46 sec) 
Finished CPU 0 instructions: 150000000 cycles: 170144509 cumulative IPC: 0.881604 (Simulation time: 0 hr 9 min 46 sec) 

CPU 0 Branch Prediction Accuracy: 97.9629% MPKI: 0.865167
Number of Branches: 6370433 Number of Mispredictions: 129775
Number of LOAD Instructions: 103102978
Number of LOAD Instructions (ROI): 103102978
Number of STORE Instructions: 15487630
Number of STORE Instructions (ROI): 15487630
Total Destination Memory Operands: 16871143
Total Destination Memory Operands (ROI): 16871143
Total Source Memory Operands: 103102978
Total Source Memory Operands (ROI): 103102978
Number of DEPENDED LOADS: 3137866
Number of DEPENDED LOADS (ROI): 3137866
Number of SQ_ADDED: 16871138
Number of SQ_ADDED (ROI): 16871138
Number of LQ_ADDED: 167394616
Number of LQ_ADDED (ROI): 167394616
Number of Instructions read from trace: 250000034

ChampSim completed all CPUs

Region of Interest Statistics

CPU 0 cumulative IPC: 0.881604 instructions: 150000000 cycles: 170144509
ITLB TOTAL     ACCESS:   29271453  HIT:   29271403  MISS:         50
ITLB LOAD      ACCESS:   29271453  HIT:   29271403  MISS:         50
ITLB RFO       ACCESS:          0  HIT:          0  MISS:          0
ITLB PREFETCH  ACCESS:          0  HIT:          0  MISS:          0
ITLB WRITEBACK ACCESS:          0  HIT:          0  MISS:          0
ITLB PREFETCH  REQUESTED:          0  ISSUED:          0  USEFUL:          0  USELESS:          0
ITLB TOTAL MSHR MERGED:        113
ITLB LOAD MSHR MERGED:        113
ITLB RFO MSHR MERGED:          0
ITLB PREFETCH MSHR MERGED:          0
ITLB WRITEBACK MSHR MERGED:          0
ITLB TOTAL ACCESSES:   29271567 HITS:   29271403 MISSES:        164
ITLB LOAD ACCESSES:   29271567 HITS:   29271403 MISSES:        164
ITLB RFO ACCESSES:          0 HITS:          0 MISSES:          0
ITLB PREFETCH ACCESSES:          0 HITS:          0 MISSES:          0
ITLB WRITEBACK ACCESSES:          0 HITS:          0 MISSES:          0
ITLB RQ ACCESS:  149999778
ITLB RQ TO_CACHE:   29271567
ITLB RQ MERGED:  120728211
ITLB RQ FORWARD:          0
ITLB WQ ACCESS:          0
ITLB WQ TO_CACHE:          0
ITLB WQ MERGED:          0
ITLB WQ FORWARD:          0
DTLB TOTAL     ACCESS:   43825211  HIT:   43732808  MISS:      92403
DTLB LOAD      ACCESS:   37098745  HIT:   37011770  MISS:      86975
DTLB RFO       ACCESS:    6726466  HIT:    6721038  MISS:       5428
DTLB PREFETCH  ACCESS:          0  HIT:          0  MISS:          0
DTLB WRITEBACK ACCESS:          0  HIT:          0  MISS:          0
DTLB PREFETCH  REQUESTED:          0  ISSUED:          0  USEFUL:          0  USELESS:          0
DTLB TOTAL MSHR MERGED:      29164
DTLB LOAD MSHR MERGED:      22832
DTLB RFO MSHR MERGED:       6332
DTLB PREFETCH MSHR MERGED:          0
DTLB WRITEBACK MSHR MERGED:          0
DTLB TOTAL ACCESSES:   43854375 HITS:   43732808 MISSES:     121567
DTLB LOAD ACCESSES:   37121577 HITS:   37011770 MISSES:     109807
DTLB RFO ACCESSES:    6732798 HITS:    6721038 MISSES:      11760
DTLB PREFETCH ACCESSES:          0 HITS:          0 MISSES:          0
DTLB WRITEBACK ACCESSES:          0 HITS:          0 MISSES:          0
DTLB RQ ACCESS:   65574417
DTLB RQ TO_CACHE:   43854375
DTLB RQ MERGED:   21720042
DTLB RQ FORWARD:          0
DTLB WQ ACCESS:          0
DTLB WQ TO_CACHE:          0
DTLB WQ MERGED:          0
DTLB WQ FORWARD:          0
L1D TOTAL     ACCESS:   71158258  HIT:   67953628  MISS:    3204630
L1D LOAD      ACCESS:   37224553  HIT:   36337659  MISS:     886894
L1D RFO       ACCESS:    8013120  HIT:    7545176  MISS:     467944
L1D PREFETCH  ACCESS:   25920585  HIT:   24070793  MISS:    1849792
L1D WRITEBACK ACCESS:          0  HIT:          0  MISS:          0
L1D PREFETCH  REQUESTED:   37945110  ISSUED:   37225226  USEFUL:    1694379  USELESS:     155406
L1D TOTAL MSHR MERGED:    4776223
L1D LOAD MSHR MERGED:    1258394
L1D RFO MSHR MERGED:    1390990
L1D PREFETCH MSHR MERGED:    2126839
L1D WRITEBACK MSHR MERGED:          0
L1D TOTAL ACCESSES:   75949780 HITS:   67968927 MISSES:    7980853
L1D LOAD ACCESSES:   37950568 HITS:   36343117 MISSES:    1607451
L1D RFO ACCESSES:    9403088 HITS:    7545176 MISSES:    1857912
L1D PREFETCH ACCESSES:   28596124 HITS:   24080634 MISSES:    4515490
L1D WRITEBACK ACCESSES:          0 HITS:          0 MISSES:          0
L1D RQ ACCESS:   56124776
L1D RQ TO_CACHE:   37945110
L1D RQ MERGED:   18174208
L1D RQ FORWARD:          0
L1D WQ ACCESS:    9449661
L1D WQ TO_CACHE:    9403088
L1D WQ MERGED:      46573
L1D WQ FORWARD:      15299
L1I TOTAL     ACCESS:   36716461  HIT:   36710800  MISS:       5661
L1I LOAD      ACCESS:   36716461  HIT:   36710800  MISS:       5661
L1I RFO       ACCESS:          0  HIT:          0  MISS:          0
L1I PREFETCH  ACCESS:          0  HIT:          0  MISS:          0
L1I WRITEBACK ACCESS:          0  HIT:          0  MISS:          0
L1I PREFETCH  REQUESTED:          0  ISSUED:          0  USEFUL:          0  USELESS:          0
L1I TOTAL MSHR MERGED:       7042
L1I LOAD MSHR MERGED:       7042
L1I RFO MSHR MERGED:          0
L1I PREFETCH MSHR MERGED:          0
L1I WRITEBACK MSHR MERGED:          0
L1I TOTAL ACCESSES:   36723503 HITS:   36710800 MISSES:      12703
L1I LOAD ACCESSES:   36723503 HITS:   36710800 MISSES:      12703
L1I RFO ACCESSES:          0 HITS:          0 MISSES:          0
L1I PREFETCH ACCESSES:          0 HITS:          0 MISSES:          0
L1I WRITEBACK ACCESSES:          0 HITS:          0 MISSES:          0
L1I RQ ACCESS:  149999746
L1I RQ TO_CACHE:   36723503
L1I RQ MERGED:  113276243
L1I RQ FORWARD:          0
L1I WQ ACCESS:          0
L1I WQ TO_CACHE:          0
L1I WQ MERGED:          0
L1I WQ FORWARD:          0
L2C TOTAL     ACCESS:    4405762  HIT:    2016309  MISS:    2389453
L2C LOAD      ACCESS:     354714  HIT:      93738  MISS:     260976
L2C RFO       ACCESS:     466911  HIT:     144648  MISS:     322263
L2C PREFETCH  ACCESS:    2447021  HIT:     641322  MISS:    1805699
L2C WRITEBACK ACCESS:    1137116  HIT:    1136601  MISS:        515
L2C PREFETCH  REQUESTED:     114965  ISSUED:     114965  USEFUL:      50732  USELESS:    1753879
L2C TOTAL MSHR MERGED:      10930
L2C LOAD MSHR MERGED:        461
L2C RFO MSHR MERGED:        479
L2C PREFETCH MSHR MERGED:       9990
L2C WRITEBACK MSHR MERGED:          0
L2C TOTAL ACCESSES:    4444140 HITS:    2016374 MISSES:    2427766
L2C LOAD ACCESSES:     354718 HITS:      93742 MISSES:     260976
L2C RFO ACCESSES:     466922 HITS:     144659 MISSES:     322263
L2C PREFETCH ACCESSES:    2485384 HITS:     641372 MISSES:    1844012
L2C WRITEBACK ACCESSES:    1137116 HITS:    1136601 MISSES:        515
L2C RQ ACCESS:     821640
L2C RQ TO_CACHE:     821625
L2C RQ MERGED:          0
L2C RQ FORWARD:          0
L2C WQ ACCESS:    1137116
L2C WQ TO_CACHE:    1137116
L2C WQ MERGED:          0
L2C WQ FORWARD:         65
LLC TOTAL     ACCESS:    3306802  HIT:    1035120  MISS:    2271682
LLC LOAD      ACCESS:     260515  HIT:      70079  MISS:     190436
LLC RFO       ACCESS:     321784  HIT:      54016  MISS:     267768
LLC PREFETCH  ACCESS:    1828121  HIT:     428358  MISS:    1399763
LLC WRITEBACK ACCESS:     896382  HIT:     482667  MISS:     413715
LLC PREFETCH  REQUESTED:          0  ISSUED:          0  USEFUL:      11879  USELESS:    1389535
LLC TOTAL MSHR MERGED:       4147
LLC LOAD MSHR MERGED:       1144
LLC RFO MSHR MERGED:        199
LLC PREFETCH MSHR MERGED:       2804
LLC WRITEBACK MSHR MERGED:          0
LLC TOTAL ACCESSES:    3310953 HITS:    1035124 MISSES:    2275829
LLC LOAD ACCESSES:     260515 HITS:      70079 MISSES:     190436
LLC RFO ACCESSES:     321784 HITS:      54016 MISSES:     267768
LLC PREFETCH ACCESSES:    1832272 HITS:     428362 MISSES:    1403910
LLC WRITEBACK ACCESSES:     896382 HITS:     482667 MISSES:     413715
LLC 0 RQ ACCESS:     582299
LLC 0 RQ TO_CACHE:     582299
LLC 0 RQ MERGED:          0
LLC 0 RQ FORWARD:          0
LLC WQ ACCESS:     896382
LLC WQ TO_CACHE:     896382
LLC WQ MERGED:          0
LLC WQ FORWARD:          4
Major fault: 0 Minor fault: 10468
CPU 0 L1D next line prefetcher final stats
CPU 0 L2C PC-based stride prefetcher final stats
All Misses: 4350066
All Hits: 1595729
SD Algo Stats - Switches: 0 SRR-Repls: 288606 BRR-Repls: 0

DRAM Statistics
 CHANNEL 0
 RQ ROW_BUFFER_HIT:    1070447  ROW_BUFFER_MISS:     787153
 DBUS_CONGESTED:    1282752
 WQ ROW_BUFFER_HIT:     172112  ROW_BUFFER_MISS:     523572  FULL:          0

 AVG_CONGESTED_CYCLE: 13
LOADS RETIRED: 57714298
INSTR RETIRED: 150000000
