
*** ChampSim Multicore Out-of-Order Simulator ***

Warmup Instructions: 100000000
Simulation Instructions: 150000000
Number of CPUs: 1
LLC sets: 2048
LLC ways: 16
Clean RRIP Policies: 3333323233333232 Dirty RRIP Policies: 3333323233333232 PSEL Width: 10 Track Set: 4294967295 PSEL Mask: 1 Demote Mask: 4044404440444044DS Algo: 0Window size: 0
Off-chip DRAM Size: 4096 MB Channels: 1 Width: 64-bit Data Rate: 1600 MT/s

CPU 0 runs /mnt/beegfs/pchatz06/selected_traces/549.fotonik3d_r.refrate.input1.region_9.w_0.0537_0.0629.trace.gz
NOT SORTED
TRACE STRING: /mnt/beegfs/pchatz06/selected_traces/549.fotonik3d_r.refrate.input1.region_9.w_0.0537_0.0629.trace.gz
SORTED
TRACE STRING: /mnt/beegfs/pchatz06/selected_traces/549.fotonik3d_r.refrate.input1.region_9.w_0.0537_0.0629.trace.gz
INITIAL
TRACE STRING: /mnt/beegfs/pchatz06/selected_traces/549.fotonik3d_r.refrate.input1.region_9.w_0.0537_0.0629.trace.gz

champsim_seed used: 209

CPU 0 L1D next line prefetcher
CPU 0 L2C IP-based stride prefetcher
Initialize DRRIP state
Assign rand_sets[0]: 454  LLC: 2048
rand_sets[0]: 454
Assign rand_sets[1]: 1662  LLC: 2048
rand_sets[1]: 1662
Assign rand_sets[2]: 1921  LLC: 2048
rand_sets[2]: 1921
Assign rand_sets[3]: 1131  LLC: 2048
rand_sets[3]: 1131
Assign rand_sets[4]: 331  LLC: 2048
rand_sets[4]: 331
Assign rand_sets[5]: 1531  LLC: 2048
rand_sets[5]: 1531
Assign rand_sets[6]: 482  LLC: 2048
rand_sets[6]: 482
Assign rand_sets[7]: 1275  LLC: 2048
rand_sets[7]: 1275
Assign rand_sets[8]: 1876  LLC: 2048
rand_sets[8]: 1876
Assign rand_sets[9]: 2038  LLC: 2048
rand_sets[9]: 2038
Assign rand_sets[10]: 701  LLC: 2048
rand_sets[10]: 701
Assign rand_sets[11]: 479  LLC: 2048
rand_sets[11]: 479
Assign rand_sets[12]: 892  LLC: 2048
rand_sets[12]: 892
Assign rand_sets[13]: 1820  LLC: 2048
rand_sets[13]: 1820
Assign rand_sets[14]: 1505  LLC: 2048
rand_sets[14]: 1505
Assign rand_sets[15]: 1159  LLC: 2048
rand_sets[15]: 1159
Assign rand_sets[16]: 513  LLC: 2048
rand_sets[16]: 513
Assign rand_sets[17]: 703  LLC: 2048
rand_sets[17]: 703
Assign rand_sets[18]: 561  LLC: 2048
rand_sets[18]: 561
Assign rand_sets[19]: 990  LLC: 2048
rand_sets[19]: 990
Assign rand_sets[20]: 342  LLC: 2048
rand_sets[20]: 342
Assign rand_sets[21]: 882  LLC: 2048
rand_sets[21]: 882
Assign rand_sets[22]: 15  LLC: 2048
rand_sets[22]: 15
Assign rand_sets[23]: 71  LLC: 2048
rand_sets[23]: 71
Assign rand_sets[24]: 1127  LLC: 2048
rand_sets[24]: 1127
Assign rand_sets[25]: 1382  LLC: 2048
rand_sets[25]: 1382
Assign rand_sets[26]: 647  LLC: 2048
rand_sets[26]: 647
Assign rand_sets[27]: 857  LLC: 2048
rand_sets[27]: 857
Assign rand_sets[28]: 1450  LLC: 2048
rand_sets[28]: 1450
Assign rand_sets[29]: 1160  LLC: 2048
rand_sets[29]: 1160
Assign rand_sets[30]: 1852  LLC: 2048
rand_sets[30]: 1852
Assign rand_sets[31]: 1881  LLC: 2048
rand_sets[31]: 1881
Assign rand_sets[32]: 1770  LLC: 2048
rand_sets[32]: 1770
Assign rand_sets[33]: 1622  LLC: 2048
rand_sets[33]: 1622
Assign rand_sets[34]: 275  LLC: 2048
rand_sets[34]: 275
Assign rand_sets[35]: 635  LLC: 2048
rand_sets[35]: 635
Assign rand_sets[36]: 466  LLC: 2048
rand_sets[36]: 466
Assign rand_sets[37]: 1413  LLC: 2048
rand_sets[37]: 1413
Assign rand_sets[38]: 417  LLC: 2048
rand_sets[38]: 417
Assign rand_sets[39]: 472  LLC: 2048
rand_sets[39]: 472
Assign rand_sets[40]: 1340  LLC: 2048
rand_sets[40]: 1340
Assign rand_sets[41]: 852  LLC: 2048
rand_sets[41]: 852
Assign rand_sets[42]: 1365  LLC: 2048
rand_sets[42]: 1365
Assign rand_sets[43]: 47  LLC: 2048
rand_sets[43]: 47
Assign rand_sets[44]: 823  LLC: 2048
rand_sets[44]: 823
Assign rand_sets[45]: 686  LLC: 2048
rand_sets[45]: 686
Assign rand_sets[46]: 1637  LLC: 2048
rand_sets[46]: 1637
Assign rand_sets[47]: 1115  LLC: 2048
rand_sets[47]: 1115
Assign rand_sets[48]: 986  LLC: 2048
rand_sets[48]: 986
Assign rand_sets[49]: 258  LLC: 2048
rand_sets[49]: 258
Assign rand_sets[50]: 633  LLC: 2048
rand_sets[50]: 633
Assign rand_sets[51]: 920  LLC: 2048
rand_sets[51]: 920
Assign rand_sets[52]: 204  LLC: 2048
rand_sets[52]: 204
Assign rand_sets[53]: 227  LLC: 2048
rand_sets[53]: 227
Assign rand_sets[54]: 1818  LLC: 2048
rand_sets[54]: 1818
Assign rand_sets[55]: 886  LLC: 2048
rand_sets[55]: 886
Assign rand_sets[56]: 1422  LLC: 2048
rand_sets[56]: 1422
Assign rand_sets[57]: 607  LLC: 2048
rand_sets[57]: 607
Assign rand_sets[58]: 217  LLC: 2048
rand_sets[58]: 217
Assign rand_sets[59]: 1945  LLC: 2048
rand_sets[59]: 1945
Assign rand_sets[60]: 143  LLC: 2048
rand_sets[60]: 143
Assign rand_sets[61]: 1311  LLC: 2048
rand_sets[61]: 1311
Assign rand_sets[62]: 319  LLC: 2048
rand_sets[62]: 319
Assign rand_sets[63]: 1846  LLC: 2048
rand_sets[63]: 1846
 CLEAN-RRIP-POLICY-1: 3-3-3-3-3-2-3-2- CLEAN-RRIP-POLICY-2: 3-3-3-3-3-2-3-2-
 DIRTY-RRIP-POLICY-1: 3-3-3-3-3-2-3-2- DIRTY-RRIP-POLICY-2: 3-3-3-3-3-2-3-2-
 PSEL width: 10
Heartbeat CPU 0 instructions: 10000001 cycles: 6820956 heartbeat IPC: 1.46607 cumulative IPC: 1.46607 (Simulation time: 0 hr 0 min 24 sec) 
Heartbeat CPU 0 instructions: 20000000 cycles: 13640798 heartbeat IPC: 1.46631 cumulative IPC: 1.46619 (Simulation time: 0 hr 0 min 48 sec) 
Heartbeat CPU 0 instructions: 30000003 cycles: 20334245 heartbeat IPC: 1.494 cumulative IPC: 1.47534 (Simulation time: 0 hr 1 min 13 sec) 
Heartbeat CPU 0 instructions: 40000000 cycles: 26588360 heartbeat IPC: 1.59895 cumulative IPC: 1.50442 (Simulation time: 0 hr 1 min 38 sec) 
Heartbeat CPU 0 instructions: 50000002 cycles: 33400524 heartbeat IPC: 1.46796 cumulative IPC: 1.49698 (Simulation time: 0 hr 2 min 2 sec) 
Heartbeat CPU 0 instructions: 60000000 cycles: 40213963 heartbeat IPC: 1.46769 cumulative IPC: 1.49202 (Simulation time: 0 hr 2 min 26 sec) 
Heartbeat CPU 0 instructions: 70000001 cycles: 47025184 heartbeat IPC: 1.46817 cumulative IPC: 1.48856 (Simulation time: 0 hr 2 min 50 sec) 
Heartbeat CPU 0 instructions: 80000000 cycles: 53835652 heartbeat IPC: 1.46833 cumulative IPC: 1.486 (Simulation time: 0 hr 3 min 15 sec) 
Heartbeat CPU 0 instructions: 90000003 cycles: 60307826 heartbeat IPC: 1.54508 cumulative IPC: 1.49234 (Simulation time: 0 hr 3 min 38 sec) 
Heartbeat CPU 0 instructions: 100000000 cycles: 66192559 heartbeat IPC: 1.69931 cumulative IPC: 1.51074 (Simulation time: 0 hr 4 min 0 sec) 

Warmup complete CPU 0 instructions: 100000001 cycles: 66192560 (Simulation time: 0 hr 4 min 0 sec) 

Heartbeat CPU 0 instructions: 110000002 cycles: 77824575 heartbeat IPC: 0.859696 cumulative IPC: 0.859696 (Simulation time: 0 hr 4 min 28 sec) 
Heartbeat CPU 0 instructions: 120000000 cycles: 89745092 heartbeat IPC: 0.83889 cumulative IPC: 0.849166 (Simulation time: 0 hr 4 min 56 sec) 
Heartbeat CPU 0 instructions: 130000003 cycles: 103012597 heartbeat IPC: 0.753721 cumulative IPC: 0.814774 (Simulation time: 0 hr 5 min 24 sec) 
Heartbeat CPU 0 instructions: 140000000 cycles: 115306817 heartbeat IPC: 0.81339 cumulative IPC: 0.814427 (Simulation time: 0 hr 5 min 53 sec) 
Heartbeat CPU 0 instructions: 150000002 cycles: 127130999 heartbeat IPC: 0.845725 cumulative IPC: 0.8205 (Simulation time: 0 hr 6 min 21 sec) 
Heartbeat CPU 0 instructions: 160000000 cycles: 139654623 heartbeat IPC: 0.798491 cumulative IPC: 0.816748 (Simulation time: 0 hr 6 min 49 sec) 
Heartbeat CPU 0 instructions: 170000000 cycles: 157865520 heartbeat IPC: 0.549122 cumulative IPC: 0.763584 (Simulation time: 0 hr 7 min 14 sec) 
Heartbeat CPU 0 instructions: 180000000 cycles: 176261481 heartbeat IPC: 0.543598 cumulative IPC: 0.726817 (Simulation time: 0 hr 7 min 40 sec) 
Heartbeat CPU 0 instructions: 190000001 cycles: 194618131 heartbeat IPC: 0.544762 cumulative IPC: 0.700795 (Simulation time: 0 hr 8 min 6 sec) 
Heartbeat CPU 0 instructions: 200000000 cycles: 213049676 heartbeat IPC: 0.542548 cumulative IPC: 0.680934 (Simulation time: 0 hr 8 min 31 sec) 
Heartbeat CPU 0 instructions: 210000001 cycles: 231514301 heartbeat IPC: 0.541576 cumulative IPC: 0.665369 (Simulation time: 0 hr 8 min 57 sec) 
Heartbeat CPU 0 instructions: 220000000 cycles: 249880462 heartbeat IPC: 0.54448 cumulative IPC: 0.653282 (Simulation time: 0 hr 9 min 22 sec) 
Heartbeat CPU 0 instructions: 230000001 cycles: 268335710 heartbeat IPC: 0.541851 cumulative IPC: 0.643109 (Simulation time: 0 hr 9 min 48 sec) 
Heartbeat CPU 0 instructions: 240000000 cycles: 286795907 heartbeat IPC: 0.541706 cumulative IPC: 0.634623 (Simulation time: 0 hr 10 min 13 sec) 
*** Reached end of trace for Core: 0 Repeating trace: /mnt/beegfs/pchatz06/selected_traces/549.fotonik3d_r.refrate.input1.region_9.w_0.0537_0.0629.trace.gz
Heartbeat CPU 0 instructions: 250000001 cycles: 305178963 heartbeat IPC: 0.543979 cumulative IPC: 0.627651 (Simulation time: 0 hr 10 min 39 sec) 
Finished CPU 0 instructions: 150000000 cycles: 238986403 cumulative IPC: 0.627651 (Simulation time: 0 hr 10 min 39 sec) 

CPU 0 Branch Prediction Accuracy: 99.565% MPKI: 0.112827
Number of Branches: 3890458 Number of Mispredictions: 16924
Number of LOAD Instructions: 96031331
Number of LOAD Instructions (ROI): 96031331
Number of STORE Instructions: 28040455
Number of STORE Instructions (ROI): 28040455
Total Destination Memory Operands: 33170929
Total Destination Memory Operands (ROI): 33170929
Total Source Memory Operands: 96031331
Total Source Memory Operands (ROI): 96031331
Number of DEPENDED LOADS: 2099003
Number of DEPENDED LOADS (ROI): 2099003
Number of SQ_ADDED: 33170925
Number of SQ_ADDED (ROI): 33170925
Number of LQ_ADDED: 274992825
Number of LQ_ADDED (ROI): 274992825
Number of Instructions read from trace: 250000028

ChampSim completed all CPUs

Region of Interest Statistics

CPU 0 cumulative IPC: 0.627651 instructions: 150000000 cycles: 238986403
ITLB TOTAL     ACCESS:   27614764  HIT:   27614745  MISS:         19
ITLB LOAD      ACCESS:   27614764  HIT:   27614745  MISS:         19
ITLB RFO       ACCESS:          0  HIT:          0  MISS:          0
ITLB PREFETCH  ACCESS:          0  HIT:          0  MISS:          0
ITLB WRITEBACK ACCESS:          0  HIT:          0  MISS:          0
ITLB PREFETCH  REQUESTED:          0  ISSUED:          0  USEFUL:          0  USELESS:          0
ITLB TOTAL MSHR MERGED:         38
ITLB LOAD MSHR MERGED:         38
ITLB RFO MSHR MERGED:          0
ITLB PREFETCH MSHR MERGED:          0
ITLB WRITEBACK MSHR MERGED:          0
ITLB TOTAL ACCESSES:   27614802 HITS:   27614745 MISSES:         57
ITLB LOAD ACCESSES:   27614802 HITS:   27614745 MISSES:         57
ITLB RFO ACCESSES:          0 HITS:          0 MISSES:          0
ITLB PREFETCH ACCESSES:          0 HITS:          0 MISSES:          0
ITLB WRITEBACK ACCESSES:          0 HITS:          0 MISSES:          0
ITLB RQ ACCESS:  149999772
ITLB RQ TO_CACHE:   27614802
ITLB RQ MERGED:  122384970
ITLB RQ FORWARD:          0
ITLB WQ ACCESS:          0
ITLB WQ TO_CACHE:          0
ITLB WQ MERGED:          0
ITLB WQ FORWARD:          0
DTLB TOTAL     ACCESS:   35754332  HIT:   35700162  MISS:      54170
DTLB LOAD      ACCESS:   25372494  HIT:   25318330  MISS:      54164
DTLB RFO       ACCESS:   10381838  HIT:   10381832  MISS:          6
DTLB PREFETCH  ACCESS:          0  HIT:          0  MISS:          0
DTLB WRITEBACK ACCESS:          0  HIT:          0  MISS:          0
DTLB PREFETCH  REQUESTED:          0  ISSUED:          0  USEFUL:          0  USELESS:          0
DTLB TOTAL MSHR MERGED:      37312
DTLB LOAD MSHR MERGED:      37311
DTLB RFO MSHR MERGED:          1
DTLB PREFETCH MSHR MERGED:          0
DTLB WRITEBACK MSHR MERGED:          0
DTLB TOTAL ACCESSES:   35791644 HITS:   35700162 MISSES:      91482
DTLB LOAD ACCESSES:   25409805 HITS:   25318330 MISSES:      91475
DTLB RFO ACCESSES:   10381839 HITS:   10381832 MISSES:          7
DTLB PREFETCH ACCESSES:          0 HITS:          0 MISSES:          0
DTLB WRITEBACK ACCESSES:          0 HITS:          0 MISSES:          0
DTLB RQ ACCESS:   66413885
DTLB RQ TO_CACHE:   35791644
DTLB RQ MERGED:   30622241
DTLB RQ FORWARD:          0
DTLB WQ ACCESS:          0
DTLB WQ TO_CACHE:          0
DTLB WQ MERGED:          0
DTLB WQ FORWARD:          0
L1D TOTAL     ACCESS:   57820636  HIT:   53346197  MISS:    4474439
L1D LOAD      ACCESS:   25125430  HIT:   23415326  MISS:    1710104
L1D RFO       ACCESS:   18962635  HIT:   18955518  MISS:       7117
L1D PREFETCH  ACCESS:   13732571  HIT:   10975353  MISS:    2757218
L1D WRITEBACK ACCESS:          0  HIT:          0  MISS:          0
L1D PREFETCH  REQUESTED:   26361870  ISSUED:   26072918  USEFUL:    2624134  USELESS:     133117
L1D TOTAL MSHR MERGED:    6333856
L1D LOAD MSHR MERGED:    2465910
L1D RFO MSHR MERGED:       2882
L1D PREFETCH MSHR MERGED:    3865064
L1D WRITEBACK MSHR MERGED:          0
L1D TOTAL ACCESSES:   64158910 HITS:   53350609 MISSES:   10808301
L1D LOAD ACCESSES:   26362990 HITS:   23416446 MISSES:    2946544
L1D RFO ACCESSES:   18965517 HITS:   18955518 MISSES:       9999
L1D PREFETCH ACCESSES:   18830403 HITS:   10978645 MISSES:    7851758
L1D WRITEBACK ACCESSES:          0 HITS:          0 MISSES:          0
L1D RQ ACCESS:   47447076
L1D RQ TO_CACHE:   26361870
L1D RQ MERGED:   21084086
L1D RQ FORWARD:          0
L1D WQ ACCESS:   18966811
L1D WQ TO_CACHE:   18965518
L1D WQ MERGED:       1293
L1D WQ FORWARD:       4412
L1I TOTAL     ACCESS:   35904829  HIT:   35904432  MISS:        397
L1I LOAD      ACCESS:   35904829  HIT:   35904432  MISS:        397
L1I RFO       ACCESS:          0  HIT:          0  MISS:          0
L1I PREFETCH  ACCESS:          0  HIT:          0  MISS:          0
L1I WRITEBACK ACCESS:          0  HIT:          0  MISS:          0
L1I PREFETCH  REQUESTED:          0  ISSUED:          0  USEFUL:          0  USELESS:          0
L1I TOTAL MSHR MERGED:        477
L1I LOAD MSHR MERGED:        477
L1I RFO MSHR MERGED:          0
L1I PREFETCH MSHR MERGED:          0
L1I WRITEBACK MSHR MERGED:          0
L1I TOTAL ACCESSES:   35905306 HITS:   35904432 MISSES:        874
L1I LOAD ACCESSES:   35905306 HITS:   35904432 MISSES:        874
L1I RFO ACCESSES:          0 HITS:          0 MISSES:          0
L1I PREFETCH ACCESSES:          0 HITS:          0 MISSES:          0
L1I WRITEBACK ACCESSES:          0 HITS:          0 MISSES:          0
L1I RQ ACCESS:  149999773
L1I RQ TO_CACHE:   35905306
L1I RQ MERGED:  114094467
L1I RQ FORWARD:          0
L1I WQ ACCESS:          0
L1I WQ TO_CACHE:          0
L1I WQ MERGED:          0
L1I WQ FORWARD:          0
L2C TOTAL     ACCESS:    6891221  HIT:    3483006  MISS:    3408215
L2C LOAD      ACCESS:     481008  HIT:     131779  MISS:     349229
L2C RFO       ACCESS:       7117  HIT:       6750  MISS:        367
L2C PREFETCH  ACCESS:    4038512  HIT:     980265  MISS:    3058247
L2C WRITEBACK ACCESS:    2364584  HIT:    2364212  MISS:        372
L2C PREFETCH  REQUESTED:      58706  ISSUED:      58706  USEFUL:      30053  USELESS:    3028931
L2C TOTAL MSHR MERGED:        601
L2C LOAD MSHR MERGED:        103
L2C RFO MSHR MERGED:          0
L2C PREFETCH MSHR MERGED:        498
L2C WRITEBACK MSHR MERGED:          0
L2C TOTAL ACCESSES:    6894207 HITS:    3483035 MISSES:    3411172
L2C LOAD ACCESSES:     481031 HITS:     131799 MISSES:     349232
L2C RFO ACCESSES:       7117 HITS:       6750 MISSES:        367
L2C PREFETCH ACCESSES:    4041475 HITS:     980274 MISSES:    3061201
L2C WRITEBACK ACCESSES:    2364584 HITS:    2364212 MISSES:        372
L2C RQ ACCESS:     488148
L2C RQ TO_CACHE:     488128
L2C RQ MERGED:          0
L2C RQ FORWARD:          0
L2C WQ ACCESS:    2364584
L2C WQ TO_CACHE:    2364584
L2C WQ MERGED:          0
L2C WQ FORWARD:         29
LLC TOTAL     ACCESS:    5748010  HIT:     139480  MISS:    5608530
LLC LOAD      ACCESS:     349126  HIT:      14743  MISS:     334383
LLC RFO       ACCESS:        367  HIT:          4  MISS:        363
LLC PREFETCH  ACCESS:    3060701  HIT:       3269  MISS:    3057432
LLC WRITEBACK ACCESS:    2337816  HIT:     121464  MISS:    2216352
LLC PREFETCH  REQUESTED:          0  ISSUED:          0  USEFUL:       1305  USELESS:    3066171
LLC TOTAL MSHR MERGED:          0
LLC LOAD MSHR MERGED:          0
LLC RFO MSHR MERGED:          0
LLC PREFETCH MSHR MERGED:          0
LLC WRITEBACK MSHR MERGED:          0
LLC TOTAL ACCESSES:    5748011 HITS:     139480 MISSES:    5608531
LLC LOAD ACCESSES:     349127 HITS:      14743 MISSES:     334384
LLC RFO ACCESSES:        367 HITS:          4 MISSES:        363
LLC PREFETCH ACCESSES:    3060701 HITS:       3269 MISSES:    3057432
LLC WRITEBACK ACCESSES:    2337816 HITS:     121464 MISSES:    2216352
LLC 0 RQ ACCESS:     349496
LLC 0 RQ TO_CACHE:     349496
LLC 0 RQ MERGED:          0
LLC 0 RQ FORWARD:          0
LLC WQ ACCESS:    2337817
LLC WQ TO_CACHE:    2337817
LLC WQ MERGED:          0
LLC WQ FORWARD:          0
Major fault: 0 Minor fault: 146853
CPU 0 L1D next line prefetcher final stats
CPU 0 L2C PC-based stride prefetcher final stats
All Misses: 10836468
All Hits: 960929
SD Algo Stats - Switches: 0 SRR-Repls: 1484262 BRR-Repls: 0

DRAM Statistics
 CHANNEL 0
 RQ ROW_BUFFER_HIT:    1778853  ROW_BUFFER_MISS:    1613325
 DBUS_CONGESTED:    3484479
 WQ ROW_BUFFER_HIT:    1068659  ROW_BUFFER_MISS:    1260585  FULL:          0

 AVG_CONGESTED_CYCLE: 13
LOADS RETIRED: 47946864
INSTR RETIRED: 150000000
