
*** ChampSim Multicore Out-of-Order Simulator ***

Warmup Instructions: 100000000
Simulation Instructions: 150000000
Number of CPUs: 1
LLC sets: 2048
LLC ways: 16
Clean RRIP Policies: 3333323233333232 Dirty RRIP Policies: 3333323233333232 PSEL Width: 10 Track Set: 4294967295 PSEL Mask: 1 Demote Mask: 4044404440444044DS Algo: 0Window size: 0
Off-chip DRAM Size: 4096 MB Channels: 1 Width: 64-bit Data Rate: 1600 MT/s

CPU 0 runs /mnt/beegfs/pchatz06/selected_traces/554.roms_r.train.input1.region_5.w_0.1674_0.1934.trace.gz
NOT SORTED
TRACE STRING: /mnt/beegfs/pchatz06/selected_traces/554.roms_r.train.input1.region_5.w_0.1674_0.1934.trace.gz
SORTED
TRACE STRING: /mnt/beegfs/pchatz06/selected_traces/554.roms_r.train.input1.region_5.w_0.1674_0.1934.trace.gz
INITIAL
TRACE STRING: /mnt/beegfs/pchatz06/selected_traces/554.roms_r.train.input1.region_5.w_0.1674_0.1934.trace.gz

champsim_seed used: 209

CPU 0 L1D next line prefetcher
CPU 0 L2C IP-based stride prefetcher
Initialize DRRIP state
Assign rand_sets[0]: 454  LLC: 2048
rand_sets[0]: 454
Assign rand_sets[1]: 1662  LLC: 2048
rand_sets[1]: 1662
Assign rand_sets[2]: 1921  LLC: 2048
rand_sets[2]: 1921
Assign rand_sets[3]: 1131  LLC: 2048
rand_sets[3]: 1131
Assign rand_sets[4]: 331  LLC: 2048
rand_sets[4]: 331
Assign rand_sets[5]: 1531  LLC: 2048
rand_sets[5]: 1531
Assign rand_sets[6]: 482  LLC: 2048
rand_sets[6]: 482
Assign rand_sets[7]: 1275  LLC: 2048
rand_sets[7]: 1275
Assign rand_sets[8]: 1876  LLC: 2048
rand_sets[8]: 1876
Assign rand_sets[9]: 2038  LLC: 2048
rand_sets[9]: 2038
Assign rand_sets[10]: 701  LLC: 2048
rand_sets[10]: 701
Assign rand_sets[11]: 479  LLC: 2048
rand_sets[11]: 479
Assign rand_sets[12]: 892  LLC: 2048
rand_sets[12]: 892
Assign rand_sets[13]: 1820  LLC: 2048
rand_sets[13]: 1820
Assign rand_sets[14]: 1505  LLC: 2048
rand_sets[14]: 1505
Assign rand_sets[15]: 1159  LLC: 2048
rand_sets[15]: 1159
Assign rand_sets[16]: 513  LLC: 2048
rand_sets[16]: 513
Assign rand_sets[17]: 703  LLC: 2048
rand_sets[17]: 703
Assign rand_sets[18]: 561  LLC: 2048
rand_sets[18]: 561
Assign rand_sets[19]: 990  LLC: 2048
rand_sets[19]: 990
Assign rand_sets[20]: 342  LLC: 2048
rand_sets[20]: 342
Assign rand_sets[21]: 882  LLC: 2048
rand_sets[21]: 882
Assign rand_sets[22]: 15  LLC: 2048
rand_sets[22]: 15
Assign rand_sets[23]: 71  LLC: 2048
rand_sets[23]: 71
Assign rand_sets[24]: 1127  LLC: 2048
rand_sets[24]: 1127
Assign rand_sets[25]: 1382  LLC: 2048
rand_sets[25]: 1382
Assign rand_sets[26]: 647  LLC: 2048
rand_sets[26]: 647
Assign rand_sets[27]: 857  LLC: 2048
rand_sets[27]: 857
Assign rand_sets[28]: 1450  LLC: 2048
rand_sets[28]: 1450
Assign rand_sets[29]: 1160  LLC: 2048
rand_sets[29]: 1160
Assign rand_sets[30]: 1852  LLC: 2048
rand_sets[30]: 1852
Assign rand_sets[31]: 1881  LLC: 2048
rand_sets[31]: 1881
Assign rand_sets[32]: 1770  LLC: 2048
rand_sets[32]: 1770
Assign rand_sets[33]: 1622  LLC: 2048
rand_sets[33]: 1622
Assign rand_sets[34]: 275  LLC: 2048
rand_sets[34]: 275
Assign rand_sets[35]: 635  LLC: 2048
rand_sets[35]: 635
Assign rand_sets[36]: 466  LLC: 2048
rand_sets[36]: 466
Assign rand_sets[37]: 1413  LLC: 2048
rand_sets[37]: 1413
Assign rand_sets[38]: 417  LLC: 2048
rand_sets[38]: 417
Assign rand_sets[39]: 472  LLC: 2048
rand_sets[39]: 472
Assign rand_sets[40]: 1340  LLC: 2048
rand_sets[40]: 1340
Assign rand_sets[41]: 852  LLC: 2048
rand_sets[41]: 852
Assign rand_sets[42]: 1365  LLC: 2048
rand_sets[42]: 1365
Assign rand_sets[43]: 47  LLC: 2048
rand_sets[43]: 47
Assign rand_sets[44]: 823  LLC: 2048
rand_sets[44]: 823
Assign rand_sets[45]: 686  LLC: 2048
rand_sets[45]: 686
Assign rand_sets[46]: 1637  LLC: 2048
rand_sets[46]: 1637
Assign rand_sets[47]: 1115  LLC: 2048
rand_sets[47]: 1115
Assign rand_sets[48]: 986  LLC: 2048
rand_sets[48]: 986
Assign rand_sets[49]: 258  LLC: 2048
rand_sets[49]: 258
Assign rand_sets[50]: 633  LLC: 2048
rand_sets[50]: 633
Assign rand_sets[51]: 920  LLC: 2048
rand_sets[51]: 920
Assign rand_sets[52]: 204  LLC: 2048
rand_sets[52]: 204
Assign rand_sets[53]: 227  LLC: 2048
rand_sets[53]: 227
Assign rand_sets[54]: 1818  LLC: 2048
rand_sets[54]: 1818
Assign rand_sets[55]: 886  LLC: 2048
rand_sets[55]: 886
Assign rand_sets[56]: 1422  LLC: 2048
rand_sets[56]: 1422
Assign rand_sets[57]: 607  LLC: 2048
rand_sets[57]: 607
Assign rand_sets[58]: 217  LLC: 2048
rand_sets[58]: 217
Assign rand_sets[59]: 1945  LLC: 2048
rand_sets[59]: 1945
Assign rand_sets[60]: 143  LLC: 2048
rand_sets[60]: 143
Assign rand_sets[61]: 1311  LLC: 2048
rand_sets[61]: 1311
Assign rand_sets[62]: 319  LLC: 2048
rand_sets[62]: 319
Assign rand_sets[63]: 1846  LLC: 2048
rand_sets[63]: 1846
 CLEAN-RRIP-POLICY-1: 3-3-3-3-3-2-3-2- CLEAN-RRIP-POLICY-2: 3-3-3-3-3-2-3-2-
 DIRTY-RRIP-POLICY-1: 3-3-3-3-3-2-3-2- DIRTY-RRIP-POLICY-2: 3-3-3-3-3-2-3-2-
 PSEL width: 10
Heartbeat CPU 0 instructions: 10000000 cycles: 6081052 heartbeat IPC: 1.64445 cumulative IPC: 1.64445 (Simulation time: 0 hr 0 min 20 sec) 
Heartbeat CPU 0 instructions: 20000000 cycles: 12218790 heartbeat IPC: 1.62926 cumulative IPC: 1.63682 (Simulation time: 0 hr 0 min 40 sec) 
Heartbeat CPU 0 instructions: 30000001 cycles: 18309073 heartbeat IPC: 1.64196 cumulative IPC: 1.63853 (Simulation time: 0 hr 1 min 0 sec) 
Heartbeat CPU 0 instructions: 40000000 cycles: 24278579 heartbeat IPC: 1.67518 cumulative IPC: 1.64754 (Simulation time: 0 hr 1 min 20 sec) 
Heartbeat CPU 0 instructions: 50000001 cycles: 30330811 heartbeat IPC: 1.65228 cumulative IPC: 1.64849 (Simulation time: 0 hr 1 min 39 sec) 
Heartbeat CPU 0 instructions: 60000000 cycles: 36469949 heartbeat IPC: 1.62889 cumulative IPC: 1.64519 (Simulation time: 0 hr 2 min 0 sec) 
Heartbeat CPU 0 instructions: 70000003 cycles: 42550403 heartbeat IPC: 1.64461 cumulative IPC: 1.64511 (Simulation time: 0 hr 2 min 20 sec) 
Heartbeat CPU 0 instructions: 80000000 cycles: 48469113 heartbeat IPC: 1.68956 cumulative IPC: 1.65054 (Simulation time: 0 hr 2 min 40 sec) 
Heartbeat CPU 0 instructions: 90000000 cycles: 54459904 heartbeat IPC: 1.66923 cumulative IPC: 1.65259 (Simulation time: 0 hr 2 min 59 sec) 
Heartbeat CPU 0 instructions: 100000000 cycles: 60560895 heartbeat IPC: 1.63908 cumulative IPC: 1.65123 (Simulation time: 0 hr 3 min 20 sec) 

Warmup complete CPU 0 instructions: 100000001 cycles: 60560918 (Simulation time: 0 hr 3 min 20 sec) 

Heartbeat CPU 0 instructions: 110000002 cycles: 71114885 heartbeat IPC: 0.947509 cumulative IPC: 0.947511 (Simulation time: 0 hr 3 min 43 sec) 
Heartbeat CPU 0 instructions: 120000000 cycles: 82293587 heartbeat IPC: 0.894558 cumulative IPC: 0.920273 (Simulation time: 0 hr 4 min 7 sec) 
Heartbeat CPU 0 instructions: 130000003 cycles: 92780870 heartbeat IPC: 0.953536 cumulative IPC: 0.9311 (Simulation time: 0 hr 4 min 31 sec) 
Heartbeat CPU 0 instructions: 140000000 cycles: 103116161 heartbeat IPC: 0.967558 cumulative IPC: 0.939955 (Simulation time: 0 hr 4 min 55 sec) 
Heartbeat CPU 0 instructions: 150000001 cycles: 113499614 heartbeat IPC: 0.963071 cumulative IPC: 0.944489 (Simulation time: 0 hr 5 min 18 sec) 
Heartbeat CPU 0 instructions: 160000000 cycles: 124645307 heartbeat IPC: 0.897207 cumulative IPC: 0.936265 (Simulation time: 0 hr 5 min 43 sec) 
Heartbeat CPU 0 instructions: 170000000 cycles: 135433579 heartbeat IPC: 0.926933 cumulative IPC: 0.934921 (Simulation time: 0 hr 6 min 6 sec) 
Heartbeat CPU 0 instructions: 180000000 cycles: 145678923 heartbeat IPC: 0.976053 cumulative IPC: 0.939872 (Simulation time: 0 hr 6 min 30 sec) 
Heartbeat CPU 0 instructions: 190000000 cycles: 156064961 heartbeat IPC: 0.962831 cumulative IPC: 0.942368 (Simulation time: 0 hr 6 min 53 sec) 
Heartbeat CPU 0 instructions: 200000000 cycles: 166989607 heartbeat IPC: 0.915361 cumulative IPC: 0.939596 (Simulation time: 0 hr 7 min 17 sec) 
Heartbeat CPU 0 instructions: 210000000 cycles: 177727426 heartbeat IPC: 0.931288 cumulative IPC: 0.938835 (Simulation time: 0 hr 7 min 40 sec) 
Heartbeat CPU 0 instructions: 220000000 cycles: 187947981 heartbeat IPC: 0.97842 cumulative IPC: 0.942011 (Simulation time: 0 hr 8 min 3 sec) 
Heartbeat CPU 0 instructions: 230000001 cycles: 198449651 heartbeat IPC: 0.95223 cumulative IPC: 0.942789 (Simulation time: 0 hr 8 min 27 sec) 
Heartbeat CPU 0 instructions: 240000000 cycles: 209451756 heartbeat IPC: 0.908917 cumulative IPC: 0.940286 (Simulation time: 0 hr 8 min 50 sec) 
*** Reached end of trace for Core: 0 Repeating trace: /mnt/beegfs/pchatz06/selected_traces/554.roms_r.train.input1.region_5.w_0.1674_0.1934.trace.gz
Heartbeat CPU 0 instructions: 250000002 cycles: 220541380 heartbeat IPC: 0.901744 cumulative IPC: 0.937615 (Simulation time: 0 hr 9 min 13 sec) 
Finished CPU 0 instructions: 150000001 cycles: 159980462 cumulative IPC: 0.937615 (Simulation time: 0 hr 9 min 13 sec) 

CPU 0 Branch Prediction Accuracy: 98.888% MPKI: 0.497793
Number of Branches: 6714734 Number of Mispredictions: 74669
Number of LOAD Instructions: 115543862
Number of LOAD Instructions (ROI): 115543862
Number of STORE Instructions: 18466632
Number of STORE Instructions (ROI): 18466632
Total Destination Memory Operands: 19350430
Total Destination Memory Operands (ROI): 19350430
Total Source Memory Operands: 115543862
Total Source Memory Operands (ROI): 115543862
Number of DEPENDED LOADS: 1097121
Number of DEPENDED LOADS (ROI): 1097121
Number of SQ_ADDED: 19350414
Number of SQ_ADDED (ROI): 19350414
Number of LQ_ADDED: 162424960
Number of LQ_ADDED (ROI): 162424960
Number of Instructions read from trace: 250000253

ChampSim completed all CPUs

Region of Interest Statistics

CPU 0 cumulative IPC: 0.937615 instructions: 150000001 cycles: 159980462
ITLB TOTAL     ACCESS:   27913898  HIT:   27913898  MISS:          0
ITLB LOAD      ACCESS:   27913898  HIT:   27913898  MISS:          0
ITLB RFO       ACCESS:          0  HIT:          0  MISS:          0
ITLB PREFETCH  ACCESS:          0  HIT:          0  MISS:          0
ITLB WRITEBACK ACCESS:          0  HIT:          0  MISS:          0
ITLB PREFETCH  REQUESTED:          0  ISSUED:          0  USEFUL:          0  USELESS:          0
ITLB TOTAL MSHR MERGED:          0
ITLB LOAD MSHR MERGED:          0
ITLB RFO MSHR MERGED:          0
ITLB PREFETCH MSHR MERGED:          0
ITLB WRITEBACK MSHR MERGED:          0
ITLB TOTAL ACCESSES:   27913898 HITS:   27913898 MISSES:          0
ITLB LOAD ACCESSES:   27913898 HITS:   27913898 MISSES:          0
ITLB RFO ACCESSES:          0 HITS:          0 MISSES:          0
ITLB PREFETCH ACCESSES:          0 HITS:          0 MISSES:          0
ITLB WRITEBACK ACCESSES:          0 HITS:          0 MISSES:          0
ITLB RQ ACCESS:  149999997
ITLB RQ TO_CACHE:   27913899
ITLB RQ MERGED:  122086098
ITLB RQ FORWARD:          0
ITLB WQ ACCESS:          0
ITLB WQ TO_CACHE:          0
ITLB WQ MERGED:          0
ITLB WQ FORWARD:          0
DTLB TOTAL     ACCESS:   51534177  HIT:   51369432  MISS:     164745
DTLB LOAD      ACCESS:   43406359  HIT:   43264114  MISS:     142245
DTLB RFO       ACCESS:    8127818  HIT:    8105318  MISS:      22500
DTLB PREFETCH  ACCESS:          0  HIT:          0  MISS:          0
DTLB WRITEBACK ACCESS:          0  HIT:          0  MISS:          0
DTLB PREFETCH  REQUESTED:          0  ISSUED:          0  USEFUL:          0  USELESS:          0
DTLB TOTAL MSHR MERGED:      90524
DTLB LOAD MSHR MERGED:      67785
DTLB RFO MSHR MERGED:      22739
DTLB PREFETCH MSHR MERGED:          0
DTLB WRITEBACK MSHR MERGED:          0
DTLB TOTAL ACCESSES:   51624702 HITS:   51369432 MISSES:     255270
DTLB LOAD ACCESSES:   43474145 HITS:   43264114 MISSES:     210031
DTLB RFO ACCESSES:    8150557 HITS:    8105318 MISSES:      45239
DTLB PREFETCH ACCESSES:          0 HITS:          0 MISSES:          0
DTLB WRITEBACK ACCESSES:          0 HITS:          0 MISSES:          0
DTLB RQ ACCESS:   80215736
DTLB RQ TO_CACHE:   51624702
DTLB RQ MERGED:   28591034
DTLB RQ FORWARD:          0
DTLB WQ ACCESS:          0
DTLB WQ TO_CACHE:          0
DTLB WQ MERGED:          0
DTLB WQ FORWARD:          0
L1D TOTAL     ACCESS:   70310764  HIT:   63260484  MISS:    7050280
L1D LOAD      ACCESS:   40513630  HIT:   38350065  MISS:    2163565
L1D RFO       ACCESS:    8402694  HIT:    7227984  MISS:    1174710
L1D PREFETCH  ACCESS:   21394440  HIT:   17682435  MISS:    3712005
L1D WRITEBACK ACCESS:          0  HIT:          0  MISS:          0
L1D PREFETCH  REQUESTED:   42171891  ISSUED:   41696802  USEFUL:    2998917  USELESS:     713088
L1D TOTAL MSHR MERGED:    9232181
L1D LOAD MSHR MERGED:    2472795
L1D RFO MSHR MERGED:    3249299
L1D PREFETCH MSHR MERGED:    3510087
L1D WRITEBACK MSHR MERGED:          0
L1D TOTAL ACCESSES:   79545087 HITS:   63262620 MISSES:   16282467
L1D LOAD ACCESSES:   42172371 HITS:   38350545 MISSES:    3821826
L1D RFO ACCESSES:   11651506 HITS:    7227984 MISSES:    4423522
L1D PREFETCH ACCESSES:   25721210 HITS:   17684091 MISSES:    8037119
L1D WRITEBACK ACCESSES:          0 HITS:          0 MISSES:          0
L1D RQ ACCESS:   68557947
L1D RQ TO_CACHE:   42171893
L1D RQ MERGED:   26385574
L1D RQ FORWARD:          0
L1D WQ ACCESS:   11657826
L1D WQ TO_CACHE:   11651508
L1D WQ MERGED:       6318
L1D WQ FORWARD:       2136
L1I TOTAL     ACCESS:   35812824  HIT:   35758343  MISS:      54481
L1I LOAD      ACCESS:   35812824  HIT:   35758343  MISS:      54481
L1I RFO       ACCESS:          0  HIT:          0  MISS:          0
L1I PREFETCH  ACCESS:          0  HIT:          0  MISS:          0
L1I WRITEBACK ACCESS:          0  HIT:          0  MISS:          0
L1I PREFETCH  REQUESTED:          0  ISSUED:          0  USEFUL:          0  USELESS:          0
L1I TOTAL MSHR MERGED:      83687
L1I LOAD MSHR MERGED:      83687
L1I RFO MSHR MERGED:          0
L1I PREFETCH MSHR MERGED:          0
L1I WRITEBACK MSHR MERGED:          0
L1I TOTAL ACCESSES:   35896511 HITS:   35758343 MISSES:     138168
L1I LOAD ACCESSES:   35896511 HITS:   35758343 MISSES:     138168
L1I RFO ACCESSES:          0 HITS:          0 MISSES:          0
L1I PREFETCH ACCESSES:          0 HITS:          0 MISSES:          0
L1I WRITEBACK ACCESSES:          0 HITS:          0 MISSES:          0
L1I RQ ACCESS:  149999989
L1I RQ TO_CACHE:   35896512
L1I RQ MERGED:  114103477
L1I RQ FORWARD:          0
L1I WQ ACCESS:          0
L1I WQ TO_CACHE:          0
L1I WQ MERGED:          0
L1I WQ FORWARD:          0
L2C TOTAL     ACCESS:    9453323  HIT:    5256709  MISS:    4196614
L2C LOAD      ACCESS:    1403311  HIT:    1054038  MISS:     349273
L2C RFO       ACCESS:    1172661  HIT:     249749  MISS:     922912
L2C PREFETCH  ACCESS:    5315959  HIT:    2395070  MISS:    2920889
L2C WRITEBACK ACCESS:    1561392  HIT:    1557852  MISS:       3540
L2C PREFETCH  REQUESTED:     929597  ISSUED:     929597  USEFUL:     413597  USELESS:    2507893
L2C TOTAL MSHR MERGED:      27334
L2C LOAD MSHR MERGED:         16
L2C RFO MSHR MERGED:          0
L2C PREFETCH MSHR MERGED:      27318
L2C WRITEBACK MSHR MERGED:          0
L2C TOTAL ACCESSES:    9503424 HITS:    5258629 MISSES:    4244795
L2C LOAD ACCESSES:    1403511 HITS:    1054238 MISSES:     349273
L2C RFO ACCESSES:    1174222 HITS:     251307 MISSES:     922915
L2C PREFETCH ACCESSES:    5364299 HITS:    2395232 MISSES:    2969067
L2C WRITEBACK ACCESSES:    1561392 HITS:    1557852 MISSES:       3540
L2C RQ ACCESS:    2577735
L2C RQ TO_CACHE:    2575977
L2C RQ MERGED:          0
L2C RQ FORWARD:          0
L2C WQ ACCESS:    1561392
L2C WQ TO_CACHE:    1561392
L2C WQ MERGED:          0
L2C WQ FORWARD:       1920
LLC TOTAL     ACCESS:    5490435  HIT:    3516815  MISS:    1973620
LLC LOAD      ACCESS:     349245  HIT:     228277  MISS:     120968
LLC RFO       ACCESS:     922907  HIT:     780914  MISS:     141993
LLC PREFETCH  ACCESS:    2940125  HIT:    1348311  MISS:    1591814
LLC WRITEBACK ACCESS:    1278158  HIT:    1159313  MISS:     118845
LLC PREFETCH  REQUESTED:          0  ISSUED:          0  USEFUL:      11297  USELESS:    1581639
LLC TOTAL MSHR MERGED:       1028
LLC LOAD MSHR MERGED:          0
LLC RFO MSHR MERGED:          0
LLC PREFETCH MSHR MERGED:       1028
LLC WRITEBACK MSHR MERGED:          0
LLC TOTAL ACCESSES:    5491508 HITS:    3516858 MISSES:    1974650
LLC LOAD ACCESSES:     349257 HITS:     228289 MISSES:     120968
LLC RFO ACCESSES:     922914 HITS:     780919 MISSES:     141995
LLC PREFETCH ACCESSES:    2941179 HITS:    1348337 MISSES:    1592842
LLC WRITEBACK ACCESSES:    1278158 HITS:    1159313 MISSES:     118845
LLC 0 RQ ACCESS:    1272172
LLC 0 RQ TO_CACHE:    1272155
LLC 0 RQ MERGED:          0
LLC 0 RQ FORWARD:          0
LLC WQ ACCESS:    1278158
LLC WQ TO_CACHE:    1278158
LLC WQ MERGED:          0
LLC WQ FORWARD:         43
Major fault: 0 Minor fault: 3031
CPU 0 L1D next line prefetcher final stats
CPU 0 L2C PC-based stride prefetcher final stats
All Misses: 3322582
All Hits: 5803304
SD Algo Stats - Switches: 0 SRR-Repls: 172771 BRR-Repls: 0

DRAM Statistics
 CHANNEL 0
 RQ ROW_BUFFER_HIT:    1173712  ROW_BUFFER_MISS:     680673
 DBUS_CONGESTED:     802595
 WQ ROW_BUFFER_HIT:      42713  ROW_BUFFER_MISS:     222613  FULL:          0

 AVG_CONGESTED_CYCLE: 12
LOADS RETIRED: 69213870
INSTR RETIRED: 150000000
