
*** ChampSim Multicore Out-of-Order Simulator ***

Warmup Instructions: 100000000
Simulation Instructions: 150000000
Number of CPUs: 1
LLC sets: 2048
LLC ways: 16
Clean RRIP Policies: 3333323233333232 Dirty RRIP Policies: 3333323233333232 PSEL Width: 10 Track Set: 4294967295 PSEL Mask: 1 Demote Mask: 4044404440444044DS Algo: 0Window size: 0
Off-chip DRAM Size: 4096 MB Channels: 1 Width: 64-bit Data Rate: 1600 MT/s

CPU 0 runs /mnt/beegfs/pchatz06/selected_traces/554.roms_r.train.input1.region_7.w_0.0359_0.0415.trace.gz
NOT SORTED
TRACE STRING: /mnt/beegfs/pchatz06/selected_traces/554.roms_r.train.input1.region_7.w_0.0359_0.0415.trace.gz
SORTED
TRACE STRING: /mnt/beegfs/pchatz06/selected_traces/554.roms_r.train.input1.region_7.w_0.0359_0.0415.trace.gz
INITIAL
TRACE STRING: /mnt/beegfs/pchatz06/selected_traces/554.roms_r.train.input1.region_7.w_0.0359_0.0415.trace.gz

champsim_seed used: 202

CPU 0 L1D next line prefetcher
CPU 0 L2C IP-based stride prefetcher
Initialize DRRIP state
Assign rand_sets[0]: 454  LLC: 2048
rand_sets[0]: 454
Assign rand_sets[1]: 1662  LLC: 2048
rand_sets[1]: 1662
Assign rand_sets[2]: 1921  LLC: 2048
rand_sets[2]: 1921
Assign rand_sets[3]: 1131  LLC: 2048
rand_sets[3]: 1131
Assign rand_sets[4]: 331  LLC: 2048
rand_sets[4]: 331
Assign rand_sets[5]: 1531  LLC: 2048
rand_sets[5]: 1531
Assign rand_sets[6]: 482  LLC: 2048
rand_sets[6]: 482
Assign rand_sets[7]: 1275  LLC: 2048
rand_sets[7]: 1275
Assign rand_sets[8]: 1876  LLC: 2048
rand_sets[8]: 1876
Assign rand_sets[9]: 2038  LLC: 2048
rand_sets[9]: 2038
Assign rand_sets[10]: 701  LLC: 2048
rand_sets[10]: 701
Assign rand_sets[11]: 479  LLC: 2048
rand_sets[11]: 479
Assign rand_sets[12]: 892  LLC: 2048
rand_sets[12]: 892
Assign rand_sets[13]: 1820  LLC: 2048
rand_sets[13]: 1820
Assign rand_sets[14]: 1505  LLC: 2048
rand_sets[14]: 1505
Assign rand_sets[15]: 1159  LLC: 2048
rand_sets[15]: 1159
Assign rand_sets[16]: 513  LLC: 2048
rand_sets[16]: 513
Assign rand_sets[17]: 703  LLC: 2048
rand_sets[17]: 703
Assign rand_sets[18]: 561  LLC: 2048
rand_sets[18]: 561
Assign rand_sets[19]: 990  LLC: 2048
rand_sets[19]: 990
Assign rand_sets[20]: 342  LLC: 2048
rand_sets[20]: 342
Assign rand_sets[21]: 882  LLC: 2048
rand_sets[21]: 882
Assign rand_sets[22]: 15  LLC: 2048
rand_sets[22]: 15
Assign rand_sets[23]: 71  LLC: 2048
rand_sets[23]: 71
Assign rand_sets[24]: 1127  LLC: 2048
rand_sets[24]: 1127
Assign rand_sets[25]: 1382  LLC: 2048
rand_sets[25]: 1382
Assign rand_sets[26]: 647  LLC: 2048
rand_sets[26]: 647
Assign rand_sets[27]: 857  LLC: 2048
rand_sets[27]: 857
Assign rand_sets[28]: 1450  LLC: 2048
rand_sets[28]: 1450
Assign rand_sets[29]: 1160  LLC: 2048
rand_sets[29]: 1160
Assign rand_sets[30]: 1852  LLC: 2048
rand_sets[30]: 1852
Assign rand_sets[31]: 1881  LLC: 2048
rand_sets[31]: 1881
Assign rand_sets[32]: 1770  LLC: 2048
rand_sets[32]: 1770
Assign rand_sets[33]: 1622  LLC: 2048
rand_sets[33]: 1622
Assign rand_sets[34]: 275  LLC: 2048
rand_sets[34]: 275
Assign rand_sets[35]: 635  LLC: 2048
rand_sets[35]: 635
Assign rand_sets[36]: 466  LLC: 2048
rand_sets[36]: 466
Assign rand_sets[37]: 1413  LLC: 2048
rand_sets[37]: 1413
Assign rand_sets[38]: 417  LLC: 2048
rand_sets[38]: 417
Assign rand_sets[39]: 472  LLC: 2048
rand_sets[39]: 472
Assign rand_sets[40]: 1340  LLC: 2048
rand_sets[40]: 1340
Assign rand_sets[41]: 852  LLC: 2048
rand_sets[41]: 852
Assign rand_sets[42]: 1365  LLC: 2048
rand_sets[42]: 1365
Assign rand_sets[43]: 47  LLC: 2048
rand_sets[43]: 47
Assign rand_sets[44]: 823  LLC: 2048
rand_sets[44]: 823
Assign rand_sets[45]: 686  LLC: 2048
rand_sets[45]: 686
Assign rand_sets[46]: 1637  LLC: 2048
rand_sets[46]: 1637
Assign rand_sets[47]: 1115  LLC: 2048
rand_sets[47]: 1115
Assign rand_sets[48]: 986  LLC: 2048
rand_sets[48]: 986
Assign rand_sets[49]: 258  LLC: 2048
rand_sets[49]: 258
Assign rand_sets[50]: 633  LLC: 2048
rand_sets[50]: 633
Assign rand_sets[51]: 920  LLC: 2048
rand_sets[51]: 920
Assign rand_sets[52]: 204  LLC: 2048
rand_sets[52]: 204
Assign rand_sets[53]: 227  LLC: 2048
rand_sets[53]: 227
Assign rand_sets[54]: 1818  LLC: 2048
rand_sets[54]: 1818
Assign rand_sets[55]: 886  LLC: 2048
rand_sets[55]: 886
Assign rand_sets[56]: 1422  LLC: 2048
rand_sets[56]: 1422
Assign rand_sets[57]: 607  LLC: 2048
rand_sets[57]: 607
Assign rand_sets[58]: 217  LLC: 2048
rand_sets[58]: 217
Assign rand_sets[59]: 1945  LLC: 2048
rand_sets[59]: 1945
Assign rand_sets[60]: 143  LLC: 2048
rand_sets[60]: 143
Assign rand_sets[61]: 1311  LLC: 2048
rand_sets[61]: 1311
Assign rand_sets[62]: 319  LLC: 2048
rand_sets[62]: 319
Assign rand_sets[63]: 1846  LLC: 2048
rand_sets[63]: 1846
 CLEAN-RRIP-POLICY-1: 3-3-3-3-3-2-3-2- CLEAN-RRIP-POLICY-2: 3-3-3-3-3-2-3-2-
 DIRTY-RRIP-POLICY-1: 3-3-3-3-3-2-3-2- DIRTY-RRIP-POLICY-2: 3-3-3-3-3-2-3-2-
 PSEL width: 10
Heartbeat CPU 0 instructions: 10000003 cycles: 5334554 heartbeat IPC: 1.87457 cumulative IPC: 1.87457 (Simulation time: 0 hr 0 min 18 sec) 
Heartbeat CPU 0 instructions: 20000000 cycles: 10763789 heartbeat IPC: 1.84188 cumulative IPC: 1.85808 (Simulation time: 0 hr 0 min 37 sec) 
Heartbeat CPU 0 instructions: 30000001 cycles: 16162365 heartbeat IPC: 1.85234 cumulative IPC: 1.85616 (Simulation time: 0 hr 0 min 56 sec) 
Heartbeat CPU 0 instructions: 40000000 cycles: 21374369 heartbeat IPC: 1.91865 cumulative IPC: 1.8714 (Simulation time: 0 hr 1 min 13 sec) 
Heartbeat CPU 0 instructions: 50000001 cycles: 26773102 heartbeat IPC: 1.85229 cumulative IPC: 1.86755 (Simulation time: 0 hr 1 min 32 sec) 
Heartbeat CPU 0 instructions: 60000000 cycles: 32184285 heartbeat IPC: 1.84802 cumulative IPC: 1.86426 (Simulation time: 0 hr 1 min 51 sec) 
Heartbeat CPU 0 instructions: 70000001 cycles: 37535253 heartbeat IPC: 1.86882 cumulative IPC: 1.86491 (Simulation time: 0 hr 2 min 9 sec) 
Heartbeat CPU 0 instructions: 80000000 cycles: 42798151 heartbeat IPC: 1.90009 cumulative IPC: 1.86924 (Simulation time: 0 hr 2 min 26 sec) 
Heartbeat CPU 0 instructions: 90000003 cycles: 48219893 heartbeat IPC: 1.84443 cumulative IPC: 1.86645 (Simulation time: 0 hr 2 min 45 sec) 
Heartbeat CPU 0 instructions: 100000000 cycles: 53639515 heartbeat IPC: 1.84515 cumulative IPC: 1.8643 (Simulation time: 0 hr 3 min 4 sec) 

Warmup complete CPU 0 instructions: 100000001 cycles: 53639518 (Simulation time: 0 hr 3 min 4 sec) 

Heartbeat CPU 0 instructions: 110000000 cycles: 67328670 heartbeat IPC: 0.730505 cumulative IPC: 0.730505 (Simulation time: 0 hr 3 min 28 sec) 
Heartbeat CPU 0 instructions: 120000000 cycles: 79417728 heartbeat IPC: 0.827194 cumulative IPC: 0.775849 (Simulation time: 0 hr 3 min 51 sec) 
Heartbeat CPU 0 instructions: 130000000 cycles: 88875798 heartbeat IPC: 1.0573 cumulative IPC: 0.851395 (Simulation time: 0 hr 4 min 14 sec) 
Heartbeat CPU 0 instructions: 140000000 cycles: 98248276 heartbeat IPC: 1.06695 cumulative IPC: 0.896685 (Simulation time: 0 hr 4 min 36 sec) 
Heartbeat CPU 0 instructions: 150000003 cycles: 113912139 heartbeat IPC: 0.638412 cumulative IPC: 0.829564 (Simulation time: 0 hr 5 min 0 sec) 
Heartbeat CPU 0 instructions: 160000000 cycles: 123939221 heartbeat IPC: 0.997299 cumulative IPC: 0.853489 (Simulation time: 0 hr 5 min 23 sec) 
Heartbeat CPU 0 instructions: 170000000 cycles: 133381631 heartbeat IPC: 1.05905 cumulative IPC: 0.87783 (Simulation time: 0 hr 5 min 45 sec) 
Heartbeat CPU 0 instructions: 180000000 cycles: 144774474 heartbeat IPC: 0.877744 cumulative IPC: 0.877819 (Simulation time: 0 hr 6 min 8 sec) 
Heartbeat CPU 0 instructions: 190000003 cycles: 160956291 heartbeat IPC: 0.617978 cumulative IPC: 0.838639 (Simulation time: 0 hr 6 min 32 sec) 
Heartbeat CPU 0 instructions: 200000000 cycles: 178489760 heartbeat IPC: 0.570338 cumulative IPC: 0.80096 (Simulation time: 0 hr 6 min 57 sec) 
Heartbeat CPU 0 instructions: 210000000 cycles: 196048185 heartbeat IPC: 0.569527 cumulative IPC: 0.772425 (Simulation time: 0 hr 7 min 21 sec) 
Heartbeat CPU 0 instructions: 220000000 cycles: 207676701 heartbeat IPC: 0.859955 cumulative IPC: 0.779033 (Simulation time: 0 hr 7 min 41 sec) 
Heartbeat CPU 0 instructions: 230000002 cycles: 216109435 heartbeat IPC: 1.18586 cumulative IPC: 0.800148 (Simulation time: 0 hr 7 min 59 sec) 
Heartbeat CPU 0 instructions: 240000000 cycles: 224445356 heartbeat IPC: 1.19963 cumulative IPC: 0.819644 (Simulation time: 0 hr 8 min 17 sec) 
*** Reached end of trace for Core: 0 Repeating trace: /mnt/beegfs/pchatz06/selected_traces/554.roms_r.train.input1.region_7.w_0.0359_0.0415.trace.gz
Heartbeat CPU 0 instructions: 250000002 cycles: 235683970 heartbeat IPC: 0.88979 cumulative IPC: 0.823975 (Simulation time: 0 hr 8 min 40 sec) 
Finished CPU 0 instructions: 150000001 cycles: 182044452 cumulative IPC: 0.823975 (Simulation time: 0 hr 8 min 40 sec) 

CPU 0 Branch Prediction Accuracy: 99.0273% MPKI: 0.701813
Number of Branches: 10822105 Number of Mispredictions: 105272
Number of LOAD Instructions: 91065907
Number of LOAD Instructions (ROI): 91065907
Number of STORE Instructions: 31157543
Number of STORE Instructions (ROI): 31157543
Total Destination Memory Operands: 32049011
Total Destination Memory Operands (ROI): 32049011
Total Source Memory Operands: 91065907
Total Source Memory Operands (ROI): 91065907
Number of DEPENDED LOADS: 2518512
Number of DEPENDED LOADS (ROI): 2518512
Number of SQ_ADDED: 32048975
Number of SQ_ADDED (ROI): 32048975
Number of LQ_ADDED: 122182454
Number of LQ_ADDED (ROI): 122182454
Number of Instructions read from trace: 250000252

ChampSim completed all CPUs

Region of Interest Statistics

CPU 0 cumulative IPC: 0.823975 instructions: 150000001 cycles: 182044452
ITLB TOTAL     ACCESS:   28331188  HIT:   28331181  MISS:          7
ITLB LOAD      ACCESS:   28331188  HIT:   28331181  MISS:          7
ITLB RFO       ACCESS:          0  HIT:          0  MISS:          0
ITLB PREFETCH  ACCESS:          0  HIT:          0  MISS:          0
ITLB WRITEBACK ACCESS:          0  HIT:          0  MISS:          0
ITLB PREFETCH  REQUESTED:          0  ISSUED:          0  USEFUL:          0  USELESS:          0
ITLB TOTAL MSHR MERGED:         23
ITLB LOAD MSHR MERGED:         23
ITLB RFO MSHR MERGED:          0
ITLB PREFETCH MSHR MERGED:          0
ITLB WRITEBACK MSHR MERGED:          0
ITLB TOTAL ACCESSES:   28331211 HITS:   28331181 MISSES:         30
ITLB LOAD ACCESSES:   28331211 HITS:   28331181 MISSES:         30
ITLB RFO ACCESSES:          0 HITS:          0 MISSES:          0
ITLB PREFETCH ACCESSES:          0 HITS:          0 MISSES:          0
ITLB WRITEBACK ACCESSES:          0 HITS:          0 MISSES:          0
ITLB RQ ACCESS:  150000001
ITLB RQ TO_CACHE:   28331211
ITLB RQ MERGED:  121668790
ITLB RQ FORWARD:          0
ITLB WQ ACCESS:          0
ITLB WQ TO_CACHE:          0
ITLB WQ MERGED:          0
ITLB WQ FORWARD:          0
DTLB TOTAL     ACCESS:   48142443  HIT:   47076965  MISS:    1065478
DTLB LOAD      ACCESS:   35374599  HIT:   34454312  MISS:     920287
DTLB RFO       ACCESS:   12767844  HIT:   12622653  MISS:     145191
DTLB PREFETCH  ACCESS:          0  HIT:          0  MISS:          0
DTLB WRITEBACK ACCESS:          0  HIT:          0  MISS:          0
DTLB PREFETCH  REQUESTED:          0  ISSUED:          0  USEFUL:          0  USELESS:          0
DTLB TOTAL MSHR MERGED:     250998
DTLB LOAD MSHR MERGED:     112186
DTLB RFO MSHR MERGED:     138812
DTLB PREFETCH MSHR MERGED:          0
DTLB WRITEBACK MSHR MERGED:          0
DTLB TOTAL ACCESSES:   48393441 HITS:   47076965 MISSES:    1316476
DTLB LOAD ACCESSES:   35486785 HITS:   34454312 MISSES:    1032473
DTLB RFO ACCESSES:   12906656 HITS:   12622653 MISSES:     284003
DTLB PREFETCH ACCESSES:          0 HITS:          0 MISSES:          0
DTLB WRITEBACK ACCESSES:          0 HITS:          0 MISSES:          0
DTLB RQ ACCESS:   69162283
DTLB RQ TO_CACHE:   48393441
DTLB RQ MERGED:   20768842
DTLB RQ FORWARD:          0
DTLB WQ ACCESS:          0
DTLB WQ TO_CACHE:          0
DTLB WQ MERGED:          0
DTLB WQ FORWARD:          0
L1D TOTAL     ACCESS:   66635765  HIT:   60980261  MISS:    5655504
L1D LOAD      ACCESS:   31563268  HIT:   30174028  MISS:    1389240
L1D RFO       ACCESS:   15260171  HIT:   14102331  MISS:    1157840
L1D PREFETCH  ACCESS:   19812326  HIT:   16703902  MISS:    3108424
L1D WRITEBACK ACCESS:          0  HIT:          0  MISS:          0
L1D PREFETCH  REQUESTED:   32741628  ISSUED:   32166506  USEFUL:    2671237  USELESS:     437192
L1D TOTAL MSHR MERGED:    7098156
L1D LOAD MSHR MERGED:    1811348
L1D RFO MSHR MERGED:    2462448
L1D PREFETCH MSHR MERGED:    2824360
L1D WRITEBACK MSHR MERGED:          0
L1D TOTAL ACCESSES:   73734887 HITS:   60981225 MISSES:   12753662
L1D LOAD ACCESSES:   32741913 HITS:   30174313 MISSES:    2567600
L1D RFO ACCESSES:   17721810 HITS:   14102331 MISSES:    3619479
L1D PREFETCH ACCESSES:   23271164 HITS:   16704581 MISSES:    6566583
L1D WRITEBACK ACCESSES:          0 HITS:          0 MISSES:          0
L1D RQ ACCESS:   51437781
L1D RQ TO_CACHE:   32741629
L1D RQ MERGED:   18695867
L1D RQ FORWARD:          0
L1D WQ ACCESS:   17724507
L1D WQ TO_CACHE:   17721810
L1D WQ MERGED:       2697
L1D WQ FORWARD:        964
L1I TOTAL     ACCESS:   36350864  HIT:   36349526  MISS:       1338
L1I LOAD      ACCESS:   36350864  HIT:   36349526  MISS:       1338
L1I RFO       ACCESS:          0  HIT:          0  MISS:          0
L1I PREFETCH  ACCESS:          0  HIT:          0  MISS:          0
L1I WRITEBACK ACCESS:          0  HIT:          0  MISS:          0
L1I PREFETCH  REQUESTED:          0  ISSUED:          0  USEFUL:          0  USELESS:          0
L1I TOTAL MSHR MERGED:       3823
L1I LOAD MSHR MERGED:       3823
L1I RFO MSHR MERGED:          0
L1I PREFETCH MSHR MERGED:          0
L1I WRITEBACK MSHR MERGED:          0
L1I TOTAL ACCESSES:   36354689 HITS:   36349526 MISSES:       5163
L1I LOAD ACCESSES:   36354689 HITS:   36349526 MISSES:       5163
L1I RFO ACCESSES:          0 HITS:          0 MISSES:          0
L1I PREFETCH ACCESSES:          0 HITS:          0 MISSES:          0
L1I WRITEBACK ACCESSES:          0 HITS:          0 MISSES:          0
L1I RQ ACCESS:  149999997
L1I RQ TO_CACHE:   36354690
L1I RQ MERGED:  113645307
L1I RQ FORWARD:          0
L1I WQ ACCESS:          0
L1I WQ TO_CACHE:          0
L1I WQ MERGED:          0
L1I WQ FORWARD:          0
L2C TOTAL     ACCESS:    7623779  HIT:    5300148  MISS:    2323631
L2C LOAD      ACCESS:     757520  HIT:     581522  MISS:     175998
L2C RFO       ACCESS:    1151855  HIT:     594533  MISS:     557322
L2C PREFETCH  ACCESS:    3774533  HIT:    2185716  MISS:    1588817
L2C WRITEBACK ACCESS:    1939871  HIT:    1938377  MISS:       1494
L2C PREFETCH  REQUESTED:      35401  ISSUED:      35401  USEFUL:     214808  USELESS:    1373300
L2C TOTAL MSHR MERGED:        221
L2C LOAD MSHR MERGED:         11
L2C RFO MSHR MERGED:          0
L2C PREFETCH MSHR MERGED:        210
L2C WRITEBACK MSHR MERGED:          0
L2C TOTAL ACCESSES:    7629482 HITS:    5305435 MISSES:    2324047
L2C LOAD ACCESSES:     757592 HITS:     581592 MISSES:     176000
L2C RFO ACCESSES:    1157031 HITS:     599709 MISSES:     557322
L2C PREFETCH ACCESSES:    3774988 HITS:    2185757 MISSES:    1589231
L2C WRITEBACK ACCESSES:    1939871 HITS:    1938377 MISSES:       1494
L2C RQ ACCESS:    1914623
L2C RQ TO_CACHE:    1909377
L2C RQ MERGED:          0
L2C RQ FORWARD:          0
L2C WQ ACCESS:    1939871
L2C WQ TO_CACHE:    1939871
L2C WQ MERGED:          0
L2C WQ FORWARD:       5287
LLC TOTAL     ACCESS:    3258864  HIT:    1636938  MISS:    1621926
LLC LOAD      ACCESS:     175983  HIT:      61466  MISS:     114517
LLC RFO       ACCESS:     557308  HIT:     387108  MISS:     170200
LLC PREFETCH  ACCESS:    1588907  HIT:     400231  MISS:    1188676
LLC WRITEBACK ACCESS:     936666  HIT:     788133  MISS:     148533
LLC PREFETCH  REQUESTED:          0  ISSUED:          0  USEFUL:        965  USELESS:    1192364
LLC TOTAL MSHR MERGED:         53
LLC LOAD MSHR MERGED:          8
LLC RFO MSHR MERGED:          0
LLC PREFETCH MSHR MERGED:         45
LLC WRITEBACK MSHR MERGED:          0
LLC TOTAL ACCESSES:    3258992 HITS:    1637011 MISSES:    1621981
LLC LOAD ACCESSES:     175989 HITS:      61470 MISSES:     114519
LLC RFO ACCESSES:     557322 HITS:     387122 MISSES:     170200
LLC PREFETCH ACCESSES:    1589015 HITS:     400286 MISSES:    1188729
LLC WRITEBACK ACCESSES:     936666 HITS:     788133 MISSES:     148533
LLC 0 RQ ACCESS:     733311
LLC 0 RQ TO_CACHE:     733293
LLC 0 RQ MERGED:          0
LLC 0 RQ FORWARD:          0
LLC WQ ACCESS:     936666
LLC WQ TO_CACHE:     936666
LLC WQ MERGED:          0
LLC WQ FORWARD:         73
Major fault: 0 Minor fault: 26294
CPU 0 L1D next line prefetcher final stats
CPU 0 L2C PC-based stride prefetcher final stats
All Misses: 2421206
All Hits: 3116640
SD Algo Stats - Switches: 0 SRR-Repls: 153139 BRR-Repls: 0

DRAM Statistics
 CHANNEL 0
 RQ ROW_BUFFER_HIT:     761570  ROW_BUFFER_MISS:     710792
 DBUS_CONGESTED:     727285
 WQ ROW_BUFFER_HIT:      49254  ROW_BUFFER_MISS:     334986  FULL:          0

 AVG_CONGESTED_CYCLE: 13
LOADS RETIRED: 52759682
INSTR RETIRED: 150000000
