
*** ChampSim Multicore Out-of-Order Simulator ***

Warmup Instructions: 100000000
Simulation Instructions: 150000000
Number of CPUs: 1
LLC sets: 2048
LLC ways: 16
Clean RRIP Policies: 3333323233333232 Dirty RRIP Policies: 3333323233333232 PSEL Width: 10 Track Set: 4294967295 PSEL Mask: 1 Demote Mask: 4044404440444044DS Algo: 0Window size: 0
Off-chip DRAM Size: 4096 MB Channels: 1 Width: 64-bit Data Rate: 1600 MT/s

CPU 0 runs /mnt/beegfs/pchatz06/selected_traces/554.roms_r.refrate.input1.region_7.w_0.0401_0.0435.trace.gz
NOT SORTED
TRACE STRING: /mnt/beegfs/pchatz06/selected_traces/554.roms_r.refrate.input1.region_7.w_0.0401_0.0435.trace.gz
SORTED
TRACE STRING: /mnt/beegfs/pchatz06/selected_traces/554.roms_r.refrate.input1.region_7.w_0.0401_0.0435.trace.gz
INITIAL
TRACE STRING: /mnt/beegfs/pchatz06/selected_traces/554.roms_r.refrate.input1.region_7.w_0.0401_0.0435.trace.gz

champsim_seed used: 204

CPU 0 L1D next line prefetcher
CPU 0 L2C IP-based stride prefetcher
Initialize DRRIP state
Assign rand_sets[0]: 454  LLC: 2048
rand_sets[0]: 454
Assign rand_sets[1]: 1662  LLC: 2048
rand_sets[1]: 1662
Assign rand_sets[2]: 1921  LLC: 2048
rand_sets[2]: 1921
Assign rand_sets[3]: 1131  LLC: 2048
rand_sets[3]: 1131
Assign rand_sets[4]: 331  LLC: 2048
rand_sets[4]: 331
Assign rand_sets[5]: 1531  LLC: 2048
rand_sets[5]: 1531
Assign rand_sets[6]: 482  LLC: 2048
rand_sets[6]: 482
Assign rand_sets[7]: 1275  LLC: 2048
rand_sets[7]: 1275
Assign rand_sets[8]: 1876  LLC: 2048
rand_sets[8]: 1876
Assign rand_sets[9]: 2038  LLC: 2048
rand_sets[9]: 2038
Assign rand_sets[10]: 701  LLC: 2048
rand_sets[10]: 701
Assign rand_sets[11]: 479  LLC: 2048
rand_sets[11]: 479
Assign rand_sets[12]: 892  LLC: 2048
rand_sets[12]: 892
Assign rand_sets[13]: 1820  LLC: 2048
rand_sets[13]: 1820
Assign rand_sets[14]: 1505  LLC: 2048
rand_sets[14]: 1505
Assign rand_sets[15]: 1159  LLC: 2048
rand_sets[15]: 1159
Assign rand_sets[16]: 513  LLC: 2048
rand_sets[16]: 513
Assign rand_sets[17]: 703  LLC: 2048
rand_sets[17]: 703
Assign rand_sets[18]: 561  LLC: 2048
rand_sets[18]: 561
Assign rand_sets[19]: 990  LLC: 2048
rand_sets[19]: 990
Assign rand_sets[20]: 342  LLC: 2048
rand_sets[20]: 342
Assign rand_sets[21]: 882  LLC: 2048
rand_sets[21]: 882
Assign rand_sets[22]: 15  LLC: 2048
rand_sets[22]: 15
Assign rand_sets[23]: 71  LLC: 2048
rand_sets[23]: 71
Assign rand_sets[24]: 1127  LLC: 2048
rand_sets[24]: 1127
Assign rand_sets[25]: 1382  LLC: 2048
rand_sets[25]: 1382
Assign rand_sets[26]: 647  LLC: 2048
rand_sets[26]: 647
Assign rand_sets[27]: 857  LLC: 2048
rand_sets[27]: 857
Assign rand_sets[28]: 1450  LLC: 2048
rand_sets[28]: 1450
Assign rand_sets[29]: 1160  LLC: 2048
rand_sets[29]: 1160
Assign rand_sets[30]: 1852  LLC: 2048
rand_sets[30]: 1852
Assign rand_sets[31]: 1881  LLC: 2048
rand_sets[31]: 1881
Assign rand_sets[32]: 1770  LLC: 2048
rand_sets[32]: 1770
Assign rand_sets[33]: 1622  LLC: 2048
rand_sets[33]: 1622
Assign rand_sets[34]: 275  LLC: 2048
rand_sets[34]: 275
Assign rand_sets[35]: 635  LLC: 2048
rand_sets[35]: 635
Assign rand_sets[36]: 466  LLC: 2048
rand_sets[36]: 466
Assign rand_sets[37]: 1413  LLC: 2048
rand_sets[37]: 1413
Assign rand_sets[38]: 417  LLC: 2048
rand_sets[38]: 417
Assign rand_sets[39]: 472  LLC: 2048
rand_sets[39]: 472
Assign rand_sets[40]: 1340  LLC: 2048
rand_sets[40]: 1340
Assign rand_sets[41]: 852  LLC: 2048
rand_sets[41]: 852
Assign rand_sets[42]: 1365  LLC: 2048
rand_sets[42]: 1365
Assign rand_sets[43]: 47  LLC: 2048
rand_sets[43]: 47
Assign rand_sets[44]: 823  LLC: 2048
rand_sets[44]: 823
Assign rand_sets[45]: 686  LLC: 2048
rand_sets[45]: 686
Assign rand_sets[46]: 1637  LLC: 2048
rand_sets[46]: 1637
Assign rand_sets[47]: 1115  LLC: 2048
rand_sets[47]: 1115
Assign rand_sets[48]: 986  LLC: 2048
rand_sets[48]: 986
Assign rand_sets[49]: 258  LLC: 2048
rand_sets[49]: 258
Assign rand_sets[50]: 633  LLC: 2048
rand_sets[50]: 633
Assign rand_sets[51]: 920  LLC: 2048
rand_sets[51]: 920
Assign rand_sets[52]: 204  LLC: 2048
rand_sets[52]: 204
Assign rand_sets[53]: 227  LLC: 2048
rand_sets[53]: 227
Assign rand_sets[54]: 1818  LLC: 2048
rand_sets[54]: 1818
Assign rand_sets[55]: 886  LLC: 2048
rand_sets[55]: 886
Assign rand_sets[56]: 1422  LLC: 2048
rand_sets[56]: 1422
Assign rand_sets[57]: 607  LLC: 2048
rand_sets[57]: 607
Assign rand_sets[58]: 217  LLC: 2048
rand_sets[58]: 217
Assign rand_sets[59]: 1945  LLC: 2048
rand_sets[59]: 1945
Assign rand_sets[60]: 143  LLC: 2048
rand_sets[60]: 143
Assign rand_sets[61]: 1311  LLC: 2048
rand_sets[61]: 1311
Assign rand_sets[62]: 319  LLC: 2048
rand_sets[62]: 319
Assign rand_sets[63]: 1846  LLC: 2048
rand_sets[63]: 1846
 CLEAN-RRIP-POLICY-1: 3-3-3-3-3-2-3-2- CLEAN-RRIP-POLICY-2: 3-3-3-3-3-2-3-2-
 DIRTY-RRIP-POLICY-1: 3-3-3-3-3-2-3-2- DIRTY-RRIP-POLICY-2: 3-3-3-3-3-2-3-2-
 PSEL width: 10
Heartbeat CPU 0 instructions: 10000003 cycles: 5409147 heartbeat IPC: 1.84872 cumulative IPC: 1.84872 (Simulation time: 0 hr 0 min 19 sec) 
Heartbeat CPU 0 instructions: 20000000 cycles: 10658901 heartbeat IPC: 1.90485 cumulative IPC: 1.87637 (Simulation time: 0 hr 0 min 37 sec) 
Heartbeat CPU 0 instructions: 30000003 cycles: 15879340 heartbeat IPC: 1.91555 cumulative IPC: 1.88925 (Simulation time: 0 hr 0 min 53 sec) 
Heartbeat CPU 0 instructions: 40000000 cycles: 21112158 heartbeat IPC: 1.91102 cumulative IPC: 1.89464 (Simulation time: 0 hr 1 min 10 sec) 
Heartbeat CPU 0 instructions: 50000002 cycles: 26429077 heartbeat IPC: 1.88079 cumulative IPC: 1.89186 (Simulation time: 0 hr 1 min 29 sec) 
Heartbeat CPU 0 instructions: 60000000 cycles: 31828474 heartbeat IPC: 1.85206 cumulative IPC: 1.8851 (Simulation time: 0 hr 1 min 48 sec) 
Heartbeat CPU 0 instructions: 70000000 cycles: 37248921 heartbeat IPC: 1.84487 cumulative IPC: 1.87925 (Simulation time: 0 hr 2 min 8 sec) 
Heartbeat CPU 0 instructions: 80000000 cycles: 42638367 heartbeat IPC: 1.85548 cumulative IPC: 1.87624 (Simulation time: 0 hr 2 min 28 sec) 
Heartbeat CPU 0 instructions: 90000002 cycles: 48058405 heartbeat IPC: 1.84501 cumulative IPC: 1.87272 (Simulation time: 0 hr 2 min 47 sec) 
Heartbeat CPU 0 instructions: 100000000 cycles: 53454457 heartbeat IPC: 1.85321 cumulative IPC: 1.87075 (Simulation time: 0 hr 3 min 7 sec) 

Warmup complete CPU 0 instructions: 100000002 cycles: 53454459 (Simulation time: 0 hr 3 min 7 sec) 

Heartbeat CPU 0 instructions: 110000000 cycles: 62394265 heartbeat IPC: 1.11859 cumulative IPC: 1.11859 (Simulation time: 0 hr 3 min 30 sec) 
Heartbeat CPU 0 instructions: 120000000 cycles: 71394624 heartbeat IPC: 1.11107 cumulative IPC: 1.11482 (Simulation time: 0 hr 3 min 53 sec) 
Heartbeat CPU 0 instructions: 130000001 cycles: 81905975 heartbeat IPC: 0.951353 cumulative IPC: 1.05443 (Simulation time: 0 hr 4 min 17 sec) 
Heartbeat CPU 0 instructions: 140000000 cycles: 97353206 heartbeat IPC: 0.647365 cumulative IPC: 0.911188 (Simulation time: 0 hr 4 min 42 sec) 
Heartbeat CPU 0 instructions: 150000001 cycles: 112879433 heartbeat IPC: 0.644072 cumulative IPC: 0.841397 (Simulation time: 0 hr 5 min 7 sec) 
Heartbeat CPU 0 instructions: 160000000 cycles: 128351739 heartbeat IPC: 0.646316 cumulative IPC: 0.801097 (Simulation time: 0 hr 5 min 32 sec) 
Heartbeat CPU 0 instructions: 170000000 cycles: 138939142 heartbeat IPC: 0.944519 cumulative IPC: 0.81886 (Simulation time: 0 hr 5 min 56 sec) 
Heartbeat CPU 0 instructions: 180000000 cycles: 147965578 heartbeat IPC: 1.10786 cumulative IPC: 0.846461 (Simulation time: 0 hr 6 min 19 sec) 
Heartbeat CPU 0 instructions: 190000001 cycles: 157021668 heartbeat IPC: 1.10423 cumulative IPC: 0.869001 (Simulation time: 0 hr 6 min 42 sec) 
Heartbeat CPU 0 instructions: 200000000 cycles: 166085227 heartbeat IPC: 1.10332 cumulative IPC: 0.887857 (Simulation time: 0 hr 7 min 5 sec) 
Heartbeat CPU 0 instructions: 210000003 cycles: 175125614 heartbeat IPC: 1.10615 cumulative IPC: 0.904076 (Simulation time: 0 hr 7 min 28 sec) 
Heartbeat CPU 0 instructions: 220000000 cycles: 184191212 heartbeat IPC: 1.10307 cumulative IPC: 0.917875 (Simulation time: 0 hr 7 min 51 sec) 
Heartbeat CPU 0 instructions: 230000001 cycles: 193198161 heartbeat IPC: 1.11025 cumulative IPC: 0.930274 (Simulation time: 0 hr 8 min 13 sec) 
Heartbeat CPU 0 instructions: 240000000 cycles: 202280136 heartbeat IPC: 1.10108 cumulative IPC: 0.940698 (Simulation time: 0 hr 8 min 36 sec) 
*** Reached end of trace for Core: 0 Repeating trace: /mnt/beegfs/pchatz06/selected_traces/554.roms_r.refrate.input1.region_7.w_0.0401_0.0435.trace.gz
Heartbeat CPU 0 instructions: 250000003 cycles: 215086998 heartbeat IPC: 0.780832 cumulative IPC: 0.928031 (Simulation time: 0 hr 9 min 0 sec) 
Finished CPU 0 instructions: 150000001 cycles: 161632539 cumulative IPC: 0.928031 (Simulation time: 0 hr 9 min 0 sec) 

CPU 0 Branch Prediction Accuracy: 99.5302% MPKI: 0.294913
Number of Branches: 9415142 Number of Mispredictions: 44237
Number of LOAD Instructions: 94911947
Number of LOAD Instructions (ROI): 94911947
Number of STORE Instructions: 34921969
Number of STORE Instructions (ROI): 34921969
Total Destination Memory Operands: 35999088
Total Destination Memory Operands (ROI): 35999088
Total Source Memory Operands: 94911947
Total Source Memory Operands (ROI): 94911947
Number of DEPENDED LOADS: 3120233
Number of DEPENDED LOADS (ROI): 3120233
Number of SQ_ADDED: 35999048
Number of SQ_ADDED (ROI): 35999048
Number of LQ_ADDED: 131247454
Number of LQ_ADDED (ROI): 131247454
Number of Instructions read from trace: 250000255

ChampSim completed all CPUs

Region of Interest Statistics

CPU 0 cumulative IPC: 0.928031 instructions: 150000001 cycles: 161632539
ITLB TOTAL     ACCESS:   29324818  HIT:   29324818  MISS:          0
ITLB LOAD      ACCESS:   29324818  HIT:   29324818  MISS:          0
ITLB RFO       ACCESS:          0  HIT:          0  MISS:          0
ITLB PREFETCH  ACCESS:          0  HIT:          0  MISS:          0
ITLB WRITEBACK ACCESS:          0  HIT:          0  MISS:          0
ITLB PREFETCH  REQUESTED:          0  ISSUED:          0  USEFUL:          0  USELESS:          0
ITLB TOTAL MSHR MERGED:          0
ITLB LOAD MSHR MERGED:          0
ITLB RFO MSHR MERGED:          0
ITLB PREFETCH MSHR MERGED:          0
ITLB WRITEBACK MSHR MERGED:          0
ITLB TOTAL ACCESSES:   29324818 HITS:   29324818 MISSES:          0
ITLB LOAD ACCESSES:   29324818 HITS:   29324818 MISSES:          0
ITLB RFO ACCESSES:          0 HITS:          0 MISSES:          0
ITLB PREFETCH ACCESSES:          0 HITS:          0 MISSES:          0
ITLB WRITEBACK ACCESSES:          0 HITS:          0 MISSES:          0
ITLB RQ ACCESS:  149999999
ITLB RQ TO_CACHE:   29324818
ITLB RQ MERGED:  120675181
ITLB RQ FORWARD:          0
ITLB WQ ACCESS:          0
ITLB WQ TO_CACHE:          0
ITLB WQ MERGED:          0
ITLB WQ FORWARD:          0
DTLB TOTAL     ACCESS:   54264513  HIT:   52665944  MISS:    1598569
DTLB LOAD      ACCESS:   38343159  HIT:   37130729  MISS:    1212430
DTLB RFO       ACCESS:   15921354  HIT:   15535215  MISS:     386139
DTLB PREFETCH  ACCESS:          0  HIT:          0  MISS:          0
DTLB WRITEBACK ACCESS:          0  HIT:          0  MISS:          0
DTLB PREFETCH  REQUESTED:          0  ISSUED:          0  USEFUL:          0  USELESS:          0
DTLB TOTAL MSHR MERGED:     259614
DTLB LOAD MSHR MERGED:      56529
DTLB RFO MSHR MERGED:     203085
DTLB PREFETCH MSHR MERGED:          0
DTLB WRITEBACK MSHR MERGED:          0
DTLB TOTAL ACCESSES:   54524128 HITS:   52665944 MISSES:    1858184
DTLB LOAD ACCESSES:   38399688 HITS:   37130729 MISSES:    1268959
DTLB RFO ACCESSES:   16124440 HITS:   15535215 MISSES:     589225
DTLB PREFETCH ACCESSES:          0 HITS:          0 MISSES:          0
DTLB WRITEBACK ACCESSES:          0 HITS:          0 MISSES:          0
DTLB RQ ACCESS:   77063544
DTLB RQ TO_CACHE:   54524128
DTLB RQ MERGED:   22539416
DTLB RQ FORWARD:          0
DTLB WQ ACCESS:          0
DTLB WQ TO_CACHE:          0
DTLB WQ MERGED:          0
DTLB WQ FORWARD:          0
L1D TOTAL     ACCESS:   77122004  HIT:   71726946  MISS:    5395058
L1D LOAD      ACCESS:   35616110  HIT:   34789300  MISS:     826810
L1D RFO       ACCESS:   19806446  HIT:   18720956  MISS:    1085490
L1D PREFETCH  ACCESS:   21699448  HIT:   18216690  MISS:    3482758
L1D WRITEBACK ACCESS:          0  HIT:          0  MISS:          0
L1D PREFETCH  REQUESTED:   36474274  ISSUED:   35164651  USEFUL:    3392509  USELESS:      90239
L1D TOTAL MSHR MERGED:    6129928
L1D LOAD MSHR MERGED:    1333689
L1D RFO MSHR MERGED:    1783762
L1D PREFETCH MSHR MERGED:    3012477
L1D WRITEBACK MSHR MERGED:          0
L1D TOTAL ACCESSES:   83253374 HITS:   71728380 MISSES:   11524994
L1D LOAD ACCESSES:   36475496 HITS:   34790522 MISSES:    1684974
L1D RFO ACCESSES:   21590071 HITS:   18720956 MISSES:    2869115
L1D PREFETCH ACCESSES:   25187807 HITS:   18216902 MISSES:    6970905
L1D WRITEBACK ACCESSES:          0 HITS:          0 MISSES:          0
L1D RQ ACCESS:   55473000
L1D RQ TO_CACHE:   36474276
L1D RQ MERGED:   18997502
L1D RQ FORWARD:          0
L1D WQ ACCESS:   21590545
L1D WQ TO_CACHE:   21590071
L1D WQ MERGED:        474
L1D WQ FORWARD:       1434
L1I TOTAL     ACCESS:   38046462  HIT:   38045975  MISS:        487
L1I LOAD      ACCESS:   38046462  HIT:   38045975  MISS:        487
L1I RFO       ACCESS:          0  HIT:          0  MISS:          0
L1I PREFETCH  ACCESS:          0  HIT:          0  MISS:          0
L1I WRITEBACK ACCESS:          0  HIT:          0  MISS:          0
L1I PREFETCH  REQUESTED:          0  ISSUED:          0  USEFUL:          0  USELESS:          0
L1I TOTAL MSHR MERGED:       1490
L1I LOAD MSHR MERGED:       1490
L1I RFO MSHR MERGED:          0
L1I PREFETCH MSHR MERGED:          0
L1I WRITEBACK MSHR MERGED:          0
L1I TOTAL ACCESSES:   38047952 HITS:   38045975 MISSES:       1977
L1I LOAD ACCESSES:   38047952 HITS:   38045975 MISSES:       1977
L1I RFO ACCESSES:          0 HITS:          0 MISSES:          0
L1I PREFETCH ACCESSES:          0 HITS:          0 MISSES:          0
L1I WRITEBACK ACCESSES:          0 HITS:          0 MISSES:          0
L1I RQ ACCESS:  149999992
L1I RQ TO_CACHE:   38047952
L1I RQ MERGED:  111952040
L1I RQ FORWARD:          0
L1I WQ ACCESS:          0
L1I WQ TO_CACHE:          0
L1I WQ MERGED:          0
L1I WQ FORWARD:          0
L2C TOTAL     ACCESS:    7533801  HIT:    4046906  MISS:    3486895
L2C LOAD      ACCESS:     351716  HIT:     180108  MISS:     171608
L2C RFO       ACCESS:    1085262  HIT:     317660  MISS:     767602
L2C PREFETCH  ACCESS:    4002914  HIT:    1461408  MISS:    2541506
L2C WRITEBACK ACCESS:    2093909  HIT:    2087730  MISS:       6179
L2C PREFETCH  REQUESTED:      47085  ISSUED:      47085  USEFUL:     266319  USELESS:    2275080
L2C TOTAL MSHR MERGED:        354
L2C LOAD MSHR MERGED:         55
L2C RFO MSHR MERGED:          0
L2C PREFETCH MSHR MERGED:        299
L2C WRITEBACK MSHR MERGED:          0
L2C TOTAL ACCESSES:    7535237 HITS:    4047139 MISSES:    3488098
L2C LOAD ACCESSES:     351772 HITS:     180161 MISSES:     171611
L2C RFO ACCESSES:    1085353 HITS:     317751 MISSES:     767602
L2C PREFETCH ACCESSES:    4004203 HITS:    1461497 MISSES:    2542706
L2C WRITEBACK ACCESSES:    2093909 HITS:    2087730 MISSES:       6179
L2C RQ ACCESS:    1437125
L2C RQ TO_CACHE:    1436981
L2C RQ MERGED:          0
L2C RQ FORWARD:          0
L2C WQ ACCESS:    2093909
L2C WQ TO_CACHE:    2093909
L2C WQ MERGED:          0
L2C WQ FORWARD:        233
LLC TOTAL     ACCESS:    5066389  HIT:    3781694  MISS:    1284695
LLC LOAD      ACCESS:     171550  HIT:     115102  MISS:      56448
LLC RFO       ACCESS:     767601  HIT:     750295  MISS:      17306
LLC PREFETCH  ACCESS:    2542051  HIT:    1481697  MISS:    1060354
LLC WRITEBACK ACCESS:    1585187  HIT:    1434600  MISS:     150587
LLC PREFETCH  REQUESTED:          0  ISSUED:          0  USEFUL:        587  USELESS:    1062548
LLC TOTAL MSHR MERGED:        283
LLC LOAD MSHR MERGED:         38
LLC RFO MSHR MERGED:          0
LLC PREFETCH MSHR MERGED:        245
LLC WRITEBACK MSHR MERGED:          0
LLC TOTAL ACCESSES:    5066736 HITS:    3781750 MISSES:    1284986
LLC LOAD ACCESSES:     171556 HITS:     115105 MISSES:      56451
LLC RFO ACCESSES:     767602 HITS:     750296 MISSES:      17306
LLC PREFETCH ACCESSES:    2542391 HITS:    1481749 MISSES:    1060642
LLC WRITEBACK ACCESSES:    1585187 HITS:    1434600 MISSES:     150587
LLC 0 RQ ACCESS:     939158
LLC 0 RQ TO_CACHE:     939154
LLC 0 RQ MERGED:          0
LLC 0 RQ FORWARD:          0
LLC WQ ACCESS:    1585187
LLC WQ TO_CACHE:    1585187
LLC WQ MERGED:          0
LLC WQ FORWARD:         56
Major fault: 0 Minor fault: 26730
CPU 0 L1D next line prefetcher final stats
CPU 0 L2C PC-based stride prefetcher final stats
All Misses: 2230458
All Hits: 6047602
SD Algo Stats - Switches: 0 SRR-Repls: 89257 BRR-Repls: 0

DRAM Statistics
 CHANNEL 0
 RQ ROW_BUFFER_HIT:     561236  ROW_BUFFER_MISS:     566557
 DBUS_CONGESTED:     577490
 WQ ROW_BUFFER_HIT:      46206  ROW_BUFFER_MISS:     242283  FULL:          0

 AVG_CONGESTED_CYCLE: 13
LOADS RETIRED: 57285240
INSTR RETIRED: 150000000
