
*** ChampSim Multicore Out-of-Order Simulator ***

Warmup Instructions: 100000000
Simulation Instructions: 150000000
Number of CPUs: 1
LLC sets: 2048
LLC ways: 16
Clean RRIP Policies: 3333323233333232 Dirty RRIP Policies: 3333323233333232 PSEL Width: 10 Track Set: 4294967295 PSEL Mask: 1 Demote Mask: 4044404440444044DS Algo: 0Window size: 0
Off-chip DRAM Size: 4096 MB Channels: 1 Width: 64-bit Data Rate: 1600 MT/s

CPU 0 runs /mnt/beegfs/pchatz06/selected_traces/554.roms_r.train.input1.region_6.w_0.0527_0.0609.trace.gz
NOT SORTED
TRACE STRING: /mnt/beegfs/pchatz06/selected_traces/554.roms_r.train.input1.region_6.w_0.0527_0.0609.trace.gz
SORTED
TRACE STRING: /mnt/beegfs/pchatz06/selected_traces/554.roms_r.train.input1.region_6.w_0.0527_0.0609.trace.gz
INITIAL
TRACE STRING: /mnt/beegfs/pchatz06/selected_traces/554.roms_r.train.input1.region_6.w_0.0527_0.0609.trace.gz

champsim_seed used: 207

CPU 0 L1D next line prefetcher
CPU 0 L2C IP-based stride prefetcher
Initialize DRRIP state
Assign rand_sets[0]: 454  LLC: 2048
rand_sets[0]: 454
Assign rand_sets[1]: 1662  LLC: 2048
rand_sets[1]: 1662
Assign rand_sets[2]: 1921  LLC: 2048
rand_sets[2]: 1921
Assign rand_sets[3]: 1131  LLC: 2048
rand_sets[3]: 1131
Assign rand_sets[4]: 331  LLC: 2048
rand_sets[4]: 331
Assign rand_sets[5]: 1531  LLC: 2048
rand_sets[5]: 1531
Assign rand_sets[6]: 482  LLC: 2048
rand_sets[6]: 482
Assign rand_sets[7]: 1275  LLC: 2048
rand_sets[7]: 1275
Assign rand_sets[8]: 1876  LLC: 2048
rand_sets[8]: 1876
Assign rand_sets[9]: 2038  LLC: 2048
rand_sets[9]: 2038
Assign rand_sets[10]: 701  LLC: 2048
rand_sets[10]: 701
Assign rand_sets[11]: 479  LLC: 2048
rand_sets[11]: 479
Assign rand_sets[12]: 892  LLC: 2048
rand_sets[12]: 892
Assign rand_sets[13]: 1820  LLC: 2048
rand_sets[13]: 1820
Assign rand_sets[14]: 1505  LLC: 2048
rand_sets[14]: 1505
Assign rand_sets[15]: 1159  LLC: 2048
rand_sets[15]: 1159
Assign rand_sets[16]: 513  LLC: 2048
rand_sets[16]: 513
Assign rand_sets[17]: 703  LLC: 2048
rand_sets[17]: 703
Assign rand_sets[18]: 561  LLC: 2048
rand_sets[18]: 561
Assign rand_sets[19]: 990  LLC: 2048
rand_sets[19]: 990
Assign rand_sets[20]: 342  LLC: 2048
rand_sets[20]: 342
Assign rand_sets[21]: 882  LLC: 2048
rand_sets[21]: 882
Assign rand_sets[22]: 15  LLC: 2048
rand_sets[22]: 15
Assign rand_sets[23]: 71  LLC: 2048
rand_sets[23]: 71
Assign rand_sets[24]: 1127  LLC: 2048
rand_sets[24]: 1127
Assign rand_sets[25]: 1382  LLC: 2048
rand_sets[25]: 1382
Assign rand_sets[26]: 647  LLC: 2048
rand_sets[26]: 647
Assign rand_sets[27]: 857  LLC: 2048
rand_sets[27]: 857
Assign rand_sets[28]: 1450  LLC: 2048
rand_sets[28]: 1450
Assign rand_sets[29]: 1160  LLC: 2048
rand_sets[29]: 1160
Assign rand_sets[30]: 1852  LLC: 2048
rand_sets[30]: 1852
Assign rand_sets[31]: 1881  LLC: 2048
rand_sets[31]: 1881
Assign rand_sets[32]: 1770  LLC: 2048
rand_sets[32]: 1770
Assign rand_sets[33]: 1622  LLC: 2048
rand_sets[33]: 1622
Assign rand_sets[34]: 275  LLC: 2048
rand_sets[34]: 275
Assign rand_sets[35]: 635  LLC: 2048
rand_sets[35]: 635
Assign rand_sets[36]: 466  LLC: 2048
rand_sets[36]: 466
Assign rand_sets[37]: 1413  LLC: 2048
rand_sets[37]: 1413
Assign rand_sets[38]: 417  LLC: 2048
rand_sets[38]: 417
Assign rand_sets[39]: 472  LLC: 2048
rand_sets[39]: 472
Assign rand_sets[40]: 1340  LLC: 2048
rand_sets[40]: 1340
Assign rand_sets[41]: 852  LLC: 2048
rand_sets[41]: 852
Assign rand_sets[42]: 1365  LLC: 2048
rand_sets[42]: 1365
Assign rand_sets[43]: 47  LLC: 2048
rand_sets[43]: 47
Assign rand_sets[44]: 823  LLC: 2048
rand_sets[44]: 823
Assign rand_sets[45]: 686  LLC: 2048
rand_sets[45]: 686
Assign rand_sets[46]: 1637  LLC: 2048
rand_sets[46]: 1637
Assign rand_sets[47]: 1115  LLC: 2048
rand_sets[47]: 1115
Assign rand_sets[48]: 986  LLC: 2048
rand_sets[48]: 986
Assign rand_sets[49]: 258  LLC: 2048
rand_sets[49]: 258
Assign rand_sets[50]: 633  LLC: 2048
rand_sets[50]: 633
Assign rand_sets[51]: 920  LLC: 2048
rand_sets[51]: 920
Assign rand_sets[52]: 204  LLC: 2048
rand_sets[52]: 204
Assign rand_sets[53]: 227  LLC: 2048
rand_sets[53]: 227
Assign rand_sets[54]: 1818  LLC: 2048
rand_sets[54]: 1818
Assign rand_sets[55]: 886  LLC: 2048
rand_sets[55]: 886
Assign rand_sets[56]: 1422  LLC: 2048
rand_sets[56]: 1422
Assign rand_sets[57]: 607  LLC: 2048
rand_sets[57]: 607
Assign rand_sets[58]: 217  LLC: 2048
rand_sets[58]: 217
Assign rand_sets[59]: 1945  LLC: 2048
rand_sets[59]: 1945
Assign rand_sets[60]: 143  LLC: 2048
rand_sets[60]: 143
Assign rand_sets[61]: 1311  LLC: 2048
rand_sets[61]: 1311
Assign rand_sets[62]: 319  LLC: 2048
rand_sets[62]: 319
Assign rand_sets[63]: 1846  LLC: 2048
rand_sets[63]: 1846
 CLEAN-RRIP-POLICY-1: 3-3-3-3-3-2-3-2- CLEAN-RRIP-POLICY-2: 3-3-3-3-3-2-3-2-
 DIRTY-RRIP-POLICY-1: 3-3-3-3-3-2-3-2- DIRTY-RRIP-POLICY-2: 3-3-3-3-3-2-3-2-
 PSEL width: 10
Heartbeat CPU 0 instructions: 10000000 cycles: 5379385 heartbeat IPC: 1.85895 cumulative IPC: 1.85895 (Simulation time: 0 hr 0 min 19 sec) 
Heartbeat CPU 0 instructions: 20000000 cycles: 10728656 heartbeat IPC: 1.86941 cumulative IPC: 1.86417 (Simulation time: 0 hr 0 min 37 sec) 
Heartbeat CPU 0 instructions: 30000003 cycles: 15891085 heartbeat IPC: 1.93707 cumulative IPC: 1.88785 (Simulation time: 0 hr 0 min 55 sec) 
Heartbeat CPU 0 instructions: 40000000 cycles: 20621534 heartbeat IPC: 2.11396 cumulative IPC: 1.93972 (Simulation time: 0 hr 1 min 11 sec) 
Heartbeat CPU 0 instructions: 50000003 cycles: 26103148 heartbeat IPC: 1.82428 cumulative IPC: 1.91548 (Simulation time: 0 hr 1 min 30 sec) 
Heartbeat CPU 0 instructions: 60000000 cycles: 32096359 heartbeat IPC: 1.66855 cumulative IPC: 1.86937 (Simulation time: 0 hr 1 min 51 sec) 
Heartbeat CPU 0 instructions: 70000000 cycles: 36161496 heartbeat IPC: 2.45994 cumulative IPC: 1.93576 (Simulation time: 0 hr 2 min 4 sec) 
Heartbeat CPU 0 instructions: 80000000 cycles: 40665845 heartbeat IPC: 2.22008 cumulative IPC: 1.96725 (Simulation time: 0 hr 2 min 21 sec) 
Heartbeat CPU 0 instructions: 90000000 cycles: 45177787 heartbeat IPC: 2.21634 cumulative IPC: 1.99213 (Simulation time: 0 hr 2 min 38 sec) 
Heartbeat CPU 0 instructions: 100000000 cycles: 49688854 heartbeat IPC: 2.21677 cumulative IPC: 2.01252 (Simulation time: 0 hr 2 min 55 sec) 

Warmup complete CPU 0 instructions: 100000001 cycles: 49688858 (Simulation time: 0 hr 2 min 55 sec) 

Heartbeat CPU 0 instructions: 110000002 cycles: 61405454 heartbeat IPC: 0.85349 cumulative IPC: 0.85349 (Simulation time: 0 hr 3 min 19 sec) 
Heartbeat CPU 0 instructions: 120000000 cycles: 72851239 heartbeat IPC: 0.873684 cumulative IPC: 0.863469 (Simulation time: 0 hr 3 min 44 sec) 
Heartbeat CPU 0 instructions: 130000000 cycles: 84839747 heartbeat IPC: 0.834132 cumulative IPC: 0.853463 (Simulation time: 0 hr 4 min 9 sec) 
Heartbeat CPU 0 instructions: 140000000 cycles: 96818656 heartbeat IPC: 0.834801 cumulative IPC: 0.84872 (Simulation time: 0 hr 4 min 33 sec) 
Heartbeat CPU 0 instructions: 150000003 cycles: 107814045 heartbeat IPC: 0.909472 cumulative IPC: 0.860212 (Simulation time: 0 hr 4 min 59 sec) 
Heartbeat CPU 0 instructions: 160000000 cycles: 118725057 heartbeat IPC: 0.916505 cumulative IPC: 0.869109 (Simulation time: 0 hr 5 min 24 sec) 
Heartbeat CPU 0 instructions: 170000000 cycles: 129669955 heartbeat IPC: 0.913668 cumulative IPC: 0.875207 (Simulation time: 0 hr 5 min 48 sec) 
Heartbeat CPU 0 instructions: 180000000 cycles: 140614130 heartbeat IPC: 0.913728 cumulative IPC: 0.879843 (Simulation time: 0 hr 6 min 12 sec) 
Heartbeat CPU 0 instructions: 190000003 cycles: 152306148 heartbeat IPC: 0.855285 cumulative IPC: 0.877045 (Simulation time: 0 hr 6 min 35 sec) 
Heartbeat CPU 0 instructions: 200000000 cycles: 165989225 heartbeat IPC: 0.73083 cumulative IPC: 0.859842 (Simulation time: 0 hr 6 min 59 sec) 
Heartbeat CPU 0 instructions: 210000000 cycles: 179888620 heartbeat IPC: 0.719456 cumulative IPC: 0.844856 (Simulation time: 0 hr 7 min 23 sec) 
Heartbeat CPU 0 instructions: 220000000 cycles: 190376570 heartbeat IPC: 0.953475 cumulative IPC: 0.852953 (Simulation time: 0 hr 7 min 48 sec) 
Heartbeat CPU 0 instructions: 230000001 cycles: 202232885 heartbeat IPC: 0.843432 cumulative IPC: 0.852213 (Simulation time: 0 hr 8 min 10 sec) 
Heartbeat CPU 0 instructions: 240000000 cycles: 215442689 heartbeat IPC: 0.757013 cumulative IPC: 0.844626 (Simulation time: 0 hr 8 min 34 sec) 
*** Reached end of trace for Core: 0 Repeating trace: /mnt/beegfs/pchatz06/selected_traces/554.roms_r.train.input1.region_6.w_0.0527_0.0609.trace.gz
Heartbeat CPU 0 instructions: 250000000 cycles: 228677827 heartbeat IPC: 0.755564 cumulative IPC: 0.83804 (Simulation time: 0 hr 8 min 58 sec) 
Finished CPU 0 instructions: 150000002 cycles: 178988970 cumulative IPC: 0.83804 (Simulation time: 0 hr 8 min 58 sec) 

CPU 0 Branch Prediction Accuracy: 99.7552% MPKI: 0.221113
Number of Branches: 13546317 Number of Mispredictions: 33167
Number of LOAD Instructions: 69154007
Number of LOAD Instructions (ROI): 69154007
Number of STORE Instructions: 26280067
Number of STORE Instructions (ROI): 26280067
Total Destination Memory Operands: 26468567
Total Destination Memory Operands (ROI): 26468567
Total Source Memory Operands: 69154007
Total Source Memory Operands (ROI): 69154007
Number of DEPENDED LOADS: 4765668
Number of DEPENDED LOADS (ROI): 4765668
Number of SQ_ADDED: 26468552
Number of SQ_ADDED (ROI): 26468552
Number of LQ_ADDED: 73765344
Number of LQ_ADDED (ROI): 73765344
Number of Instructions read from trace: 250000032

ChampSim completed all CPUs

Region of Interest Statistics

CPU 0 cumulative IPC: 0.83804 instructions: 150000002 cycles: 178988970
ITLB TOTAL     ACCESS:   42413055  HIT:   42413051  MISS:          4
ITLB LOAD      ACCESS:   42413055  HIT:   42413051  MISS:          4
ITLB RFO       ACCESS:          0  HIT:          0  MISS:          0
ITLB PREFETCH  ACCESS:          0  HIT:          0  MISS:          0
ITLB WRITEBACK ACCESS:          0  HIT:          0  MISS:          0
ITLB PREFETCH  REQUESTED:          0  ISSUED:          0  USEFUL:          0  USELESS:          0
ITLB TOTAL MSHR MERGED:          0
ITLB LOAD MSHR MERGED:          0
ITLB RFO MSHR MERGED:          0
ITLB PREFETCH MSHR MERGED:          0
ITLB WRITEBACK MSHR MERGED:          0
ITLB TOTAL ACCESSES:   42413055 HITS:   42413051 MISSES:          4
ITLB LOAD ACCESSES:   42413055 HITS:   42413051 MISSES:          4
ITLB RFO ACCESSES:          0 HITS:          0 MISSES:          0
ITLB PREFETCH ACCESSES:          0 HITS:          0 MISSES:          0
ITLB WRITEBACK ACCESSES:          0 HITS:          0 MISSES:          0
ITLB RQ ACCESS:  149999776
ITLB RQ TO_CACHE:   42413055
ITLB RQ MERGED:  107586721
ITLB RQ FORWARD:          0
ITLB WQ ACCESS:          0
ITLB WQ TO_CACHE:          0
ITLB WQ MERGED:          0
ITLB WQ FORWARD:          0
DTLB TOTAL     ACCESS:   39359018  HIT:   38170397  MISS:    1188621
DTLB LOAD      ACCESS:   28298658  HIT:   27157439  MISS:    1141219
DTLB RFO       ACCESS:   11060360  HIT:   11012958  MISS:      47402
DTLB PREFETCH  ACCESS:          0  HIT:          0  MISS:          0
DTLB WRITEBACK ACCESS:          0  HIT:          0  MISS:          0
DTLB PREFETCH  REQUESTED:          0  ISSUED:          0  USEFUL:          0  USELESS:          0
DTLB TOTAL MSHR MERGED:      47088
DTLB LOAD MSHR MERGED:      35163
DTLB RFO MSHR MERGED:      11925
DTLB PREFETCH MSHR MERGED:          0
DTLB WRITEBACK MSHR MERGED:          0
DTLB TOTAL ACCESSES:   39406106 HITS:   38170397 MISSES:    1235709
DTLB LOAD ACCESSES:   28333821 HITS:   27157439 MISSES:    1176382
DTLB RFO ACCESSES:   11072285 HITS:   11012958 MISSES:      59327
DTLB PREFETCH ACCESSES:          0 HITS:          0 MISSES:          0
DTLB WRITEBACK ACCESSES:          0 HITS:          0 MISSES:          0
DTLB RQ ACCESS:   54906867
DTLB RQ TO_CACHE:   39406106
DTLB RQ MERGED:   15500761
DTLB RQ FORWARD:          0
DTLB WQ ACCESS:          0
DTLB WQ TO_CACHE:          0
DTLB WQ MERGED:          0
DTLB WQ FORWARD:          0
L1D TOTAL     ACCESS:   62819258  HIT:   58965876  MISS:    3853382
L1D LOAD      ACCESS:   28024505  HIT:   26587986  MISS:    1436519
L1D RFO       ACCESS:   14014363  HIT:   13523239  MISS:     491124
L1D PREFETCH  ACCESS:   20780390  HIT:   18854651  MISS:    1925739
L1D WRITEBACK ACCESS:          0  HIT:          0  MISS:          0
L1D PREFETCH  REQUESTED:   28336332  ISSUED:   27658316  USEFUL:     696536  USELESS:    1229190
L1D TOTAL MSHR MERGED:    2927212
L1D LOAD MSHR MERGED:     478038
L1D RFO MSHR MERGED:    1242351
L1D PREFETCH MSHR MERGED:    1206823
L1D WRITEBACK MSHR MERGED:          0
L1D TOTAL ACCESSES:   65769064 HITS:   58988470 MISSES:    6780594
L1D LOAD ACCESSES:   28357135 HITS:   26608789 MISSES:    1748346
L1D RFO ACCESSES:   15256689 HITS:   13523239 MISSES:    1733450
L1D PREFETCH ACCESSES:   22155240 HITS:   18856442 MISSES:    3298798
L1D WRITEBACK ACCESSES:          0 HITS:          0 MISSES:          0
L1D RQ ACCESS:   39071081
L1D RQ TO_CACHE:   28336333
L1D RQ MERGED:   10713945
L1D RQ FORWARD:          0
L1D WQ ACCESS:   15835788
L1D WQ TO_CACHE:   15256691
L1D WQ MERGED:     579097
L1D WQ FORWARD:      22594
L1I TOTAL     ACCESS:   50914605  HIT:   50913376  MISS:       1229
L1I LOAD      ACCESS:   50914605  HIT:   50913376  MISS:       1229
L1I RFO       ACCESS:          0  HIT:          0  MISS:          0
L1I PREFETCH  ACCESS:          0  HIT:          0  MISS:          0
L1I WRITEBACK ACCESS:          0  HIT:          0  MISS:          0
L1I PREFETCH  REQUESTED:          0  ISSUED:          0  USEFUL:          0  USELESS:          0
L1I TOTAL MSHR MERGED:       1419
L1I LOAD MSHR MERGED:       1419
L1I RFO MSHR MERGED:          0
L1I PREFETCH MSHR MERGED:          0
L1I WRITEBACK MSHR MERGED:          0
L1I TOTAL ACCESSES:   50916030 HITS:   50913376 MISSES:       2654
L1I LOAD ACCESSES:   50916030 HITS:   50913376 MISSES:       2654
L1I RFO ACCESSES:          0 HITS:          0 MISSES:          0
L1I PREFETCH ACCESSES:          0 HITS:          0 MISSES:          0
L1I WRITEBACK ACCESSES:          0 HITS:          0 MISSES:          0
L1I RQ ACCESS:  149999776
L1I RQ TO_CACHE:   50916030
L1I RQ MERGED:   99083746
L1I RQ FORWARD:          0
L1I WQ ACCESS:          0
L1I WQ TO_CACHE:          0
L1I WQ MERGED:          0
L1I WQ FORWARD:          0
L2C TOTAL     ACCESS:    4537562  HIT:    3426253  MISS:    1111309
L2C LOAD      ACCESS:    1271532  HIT:    1202164  MISS:      69368
L2C RFO       ACCESS:     491071  HIT:     182448  MISS:     308623
L2C PREFETCH  ACCESS:    2114627  HIT:    1381955  MISS:     732672
L2C WRITEBACK ACCESS:     660332  HIT:     659686  MISS:        646
L2C PREFETCH  REQUESTED:      25152  ISSUED:      25152  USEFUL:     158183  USELESS:     574544
L2C TOTAL MSHR MERGED:         51
L2C LOAD MSHR MERGED:          3
L2C RFO MSHR MERGED:          0
L2C PREFETCH MSHR MERGED:         48
L2C WRITEBACK MSHR MERGED:          0
L2C TOTAL ACCESSES:    4537747 HITS:    3426353 MISSES:    1111394
L2C LOAD ACCESSES:    1271543 HITS:    1202169 MISSES:      69374
L2C RFO ACCESSES:     491099 HITS:     182476 MISSES:     308623
L2C PREFETCH ACCESSES:    2114773 HITS:    1382022 MISSES:     732751
L2C WRITEBACK ACCESSES:     660332 HITS:     659686 MISSES:        646
L2C RQ ACCESS:    1762642
L2C RQ TO_CACHE:    1762609
L2C RQ MERGED:          0
L2C RQ FORWARD:          0
L2C WQ ACCESS:     660332
L2C WQ TO_CACHE:     660332
L2C WQ MERGED:          0
L2C WQ FORWARD:        100
LLC TOTAL     ACCESS:    1507558  HIT:     598537  MISS:     909021
LLC LOAD      ACCESS:      69365  HIT:      25364  MISS:      44001
LLC RFO       ACCESS:     308604  HIT:     115417  MISS:     193187
LLC PREFETCH  ACCESS:     732690  HIT:     173911  MISS:     558779
LLC WRITEBACK ACCESS:     396899  HIT:     283845  MISS:     113054
LLC PREFETCH  REQUESTED:          0  ISSUED:          0  USEFUL:        520  USELESS:     558499
LLC TOTAL MSHR MERGED:          7
LLC LOAD MSHR MERGED:          0
LLC RFO MSHR MERGED:          0
LLC PREFETCH MSHR MERGED:          7
LLC WRITEBACK MSHR MERGED:          0
LLC TOTAL ACCESSES:    1507594 HITS:     598560 MISSES:     909034
LLC LOAD ACCESSES:      69371 HITS:      25364 MISSES:      44007
LLC RFO ACCESSES:     308623 HITS:     115436 MISSES:     193187
LLC PREFETCH ACCESSES:     732701 HITS:     173915 MISSES:     558786
LLC WRITEBACK ACCESSES:     396899 HITS:     283845 MISSES:     113054
LLC 0 RQ ACCESS:     377994
LLC 0 RQ TO_CACHE:     377975
LLC 0 RQ MERGED:          0
LLC 0 RQ FORWARD:          0
LLC WQ ACCESS:     396899
LLC WQ TO_CACHE:     396899
LLC WQ MERGED:          0
LLC WQ FORWARD:         23
Major fault: 0 Minor fault: 18358
CPU 0 L1D next line prefetcher final stats
CPU 0 L2C PC-based stride prefetcher final stats
All Misses: 1719633
All Hits: 1065148
SD Algo Stats - Switches: 0 SRR-Repls: 72266 BRR-Repls: 0

DRAM Statistics
 CHANNEL 0
 RQ ROW_BUFFER_HIT:     377324  ROW_BUFFER_MISS:     418492
 DBUS_CONGESTED:     441075
 WQ ROW_BUFFER_HIT:      27396  ROW_BUFFER_MISS:     214560  FULL:          0

 AVG_CONGESTED_CYCLE: 13
LOADS RETIRED: 42000209
INSTR RETIRED: 150000000
