
*** ChampSim Multicore Out-of-Order Simulator ***

Warmup Instructions: 100000000
Simulation Instructions: 150000000
Number of CPUs: 1
LLC sets: 2048
LLC ways: 16
Clean RRIP Policies: 3333323233333232 Dirty RRIP Policies: 3333323233333232 PSEL Width: 10 Track Set: 4294967295 PSEL Mask: 1 Demote Mask: 4044404440444044DS Algo: 0Window size: 0
Off-chip DRAM Size: 4096 MB Channels: 1 Width: 64-bit Data Rate: 1600 MT/s

CPU 0 runs /mnt/beegfs/pchatz06/selected_traces/557.xz_r.train.input2.region_13.w_0.1052_0.1323.trace.gz
NOT SORTED
TRACE STRING: /mnt/beegfs/pchatz06/selected_traces/557.xz_r.train.input2.region_13.w_0.1052_0.1323.trace.gz
SORTED
TRACE STRING: /mnt/beegfs/pchatz06/selected_traces/557.xz_r.train.input2.region_13.w_0.1052_0.1323.trace.gz
INITIAL
TRACE STRING: /mnt/beegfs/pchatz06/selected_traces/557.xz_r.train.input2.region_13.w_0.1052_0.1323.trace.gz

champsim_seed used: 201

CPU 0 L1D next line prefetcher
CPU 0 L2C IP-based stride prefetcher
Initialize DRRIP state
Assign rand_sets[0]: 454  LLC: 2048
rand_sets[0]: 454
Assign rand_sets[1]: 1662  LLC: 2048
rand_sets[1]: 1662
Assign rand_sets[2]: 1921  LLC: 2048
rand_sets[2]: 1921
Assign rand_sets[3]: 1131  LLC: 2048
rand_sets[3]: 1131
Assign rand_sets[4]: 331  LLC: 2048
rand_sets[4]: 331
Assign rand_sets[5]: 1531  LLC: 2048
rand_sets[5]: 1531
Assign rand_sets[6]: 482  LLC: 2048
rand_sets[6]: 482
Assign rand_sets[7]: 1275  LLC: 2048
rand_sets[7]: 1275
Assign rand_sets[8]: 1876  LLC: 2048
rand_sets[8]: 1876
Assign rand_sets[9]: 2038  LLC: 2048
rand_sets[9]: 2038
Assign rand_sets[10]: 701  LLC: 2048
rand_sets[10]: 701
Assign rand_sets[11]: 479  LLC: 2048
rand_sets[11]: 479
Assign rand_sets[12]: 892  LLC: 2048
rand_sets[12]: 892
Assign rand_sets[13]: 1820  LLC: 2048
rand_sets[13]: 1820
Assign rand_sets[14]: 1505  LLC: 2048
rand_sets[14]: 1505
Assign rand_sets[15]: 1159  LLC: 2048
rand_sets[15]: 1159
Assign rand_sets[16]: 513  LLC: 2048
rand_sets[16]: 513
Assign rand_sets[17]: 703  LLC: 2048
rand_sets[17]: 703
Assign rand_sets[18]: 561  LLC: 2048
rand_sets[18]: 561
Assign rand_sets[19]: 990  LLC: 2048
rand_sets[19]: 990
Assign rand_sets[20]: 342  LLC: 2048
rand_sets[20]: 342
Assign rand_sets[21]: 882  LLC: 2048
rand_sets[21]: 882
Assign rand_sets[22]: 15  LLC: 2048
rand_sets[22]: 15
Assign rand_sets[23]: 71  LLC: 2048
rand_sets[23]: 71
Assign rand_sets[24]: 1127  LLC: 2048
rand_sets[24]: 1127
Assign rand_sets[25]: 1382  LLC: 2048
rand_sets[25]: 1382
Assign rand_sets[26]: 647  LLC: 2048
rand_sets[26]: 647
Assign rand_sets[27]: 857  LLC: 2048
rand_sets[27]: 857
Assign rand_sets[28]: 1450  LLC: 2048
rand_sets[28]: 1450
Assign rand_sets[29]: 1160  LLC: 2048
rand_sets[29]: 1160
Assign rand_sets[30]: 1852  LLC: 2048
rand_sets[30]: 1852
Assign rand_sets[31]: 1881  LLC: 2048
rand_sets[31]: 1881
Assign rand_sets[32]: 1770  LLC: 2048
rand_sets[32]: 1770
Assign rand_sets[33]: 1622  LLC: 2048
rand_sets[33]: 1622
Assign rand_sets[34]: 275  LLC: 2048
rand_sets[34]: 275
Assign rand_sets[35]: 635  LLC: 2048
rand_sets[35]: 635
Assign rand_sets[36]: 466  LLC: 2048
rand_sets[36]: 466
Assign rand_sets[37]: 1413  LLC: 2048
rand_sets[37]: 1413
Assign rand_sets[38]: 417  LLC: 2048
rand_sets[38]: 417
Assign rand_sets[39]: 472  LLC: 2048
rand_sets[39]: 472
Assign rand_sets[40]: 1340  LLC: 2048
rand_sets[40]: 1340
Assign rand_sets[41]: 852  LLC: 2048
rand_sets[41]: 852
Assign rand_sets[42]: 1365  LLC: 2048
rand_sets[42]: 1365
Assign rand_sets[43]: 47  LLC: 2048
rand_sets[43]: 47
Assign rand_sets[44]: 823  LLC: 2048
rand_sets[44]: 823
Assign rand_sets[45]: 686  LLC: 2048
rand_sets[45]: 686
Assign rand_sets[46]: 1637  LLC: 2048
rand_sets[46]: 1637
Assign rand_sets[47]: 1115  LLC: 2048
rand_sets[47]: 1115
Assign rand_sets[48]: 986  LLC: 2048
rand_sets[48]: 986
Assign rand_sets[49]: 258  LLC: 2048
rand_sets[49]: 258
Assign rand_sets[50]: 633  LLC: 2048
rand_sets[50]: 633
Assign rand_sets[51]: 920  LLC: 2048
rand_sets[51]: 920
Assign rand_sets[52]: 204  LLC: 2048
rand_sets[52]: 204
Assign rand_sets[53]: 227  LLC: 2048
rand_sets[53]: 227
Assign rand_sets[54]: 1818  LLC: 2048
rand_sets[54]: 1818
Assign rand_sets[55]: 886  LLC: 2048
rand_sets[55]: 886
Assign rand_sets[56]: 1422  LLC: 2048
rand_sets[56]: 1422
Assign rand_sets[57]: 607  LLC: 2048
rand_sets[57]: 607
Assign rand_sets[58]: 217  LLC: 2048
rand_sets[58]: 217
Assign rand_sets[59]: 1945  LLC: 2048
rand_sets[59]: 1945
Assign rand_sets[60]: 143  LLC: 2048
rand_sets[60]: 143
Assign rand_sets[61]: 1311  LLC: 2048
rand_sets[61]: 1311
Assign rand_sets[62]: 319  LLC: 2048
rand_sets[62]: 319
Assign rand_sets[63]: 1846  LLC: 2048
rand_sets[63]: 1846
 CLEAN-RRIP-POLICY-1: 3-3-3-3-3-2-3-2- CLEAN-RRIP-POLICY-2: 3-3-3-3-3-2-3-2-
 DIRTY-RRIP-POLICY-1: 3-3-3-3-3-2-3-2- DIRTY-RRIP-POLICY-2: 3-3-3-3-3-2-3-2-
 PSEL width: 10
Heartbeat CPU 0 instructions: 10000002 cycles: 5061644 heartbeat IPC: 1.97564 cumulative IPC: 1.97564 (Simulation time: 0 hr 0 min 16 sec) 
Heartbeat CPU 0 instructions: 20000000 cycles: 10121919 heartbeat IPC: 1.97618 cumulative IPC: 1.97591 (Simulation time: 0 hr 0 min 32 sec) 
Heartbeat CPU 0 instructions: 30000001 cycles: 15176878 heartbeat IPC: 1.97826 cumulative IPC: 1.97669 (Simulation time: 0 hr 0 min 48 sec) 
Heartbeat CPU 0 instructions: 40000000 cycles: 20269196 heartbeat IPC: 1.96374 cumulative IPC: 1.97344 (Simulation time: 0 hr 1 min 4 sec) 
Heartbeat CPU 0 instructions: 50000003 cycles: 25330819 heartbeat IPC: 1.97565 cumulative IPC: 1.97388 (Simulation time: 0 hr 1 min 21 sec) 
Heartbeat CPU 0 instructions: 60000000 cycles: 30385653 heartbeat IPC: 1.9783 cumulative IPC: 1.97462 (Simulation time: 0 hr 1 min 37 sec) 
Heartbeat CPU 0 instructions: 70000001 cycles: 35438000 heartbeat IPC: 1.97928 cumulative IPC: 1.97528 (Simulation time: 0 hr 1 min 53 sec) 
Heartbeat CPU 0 instructions: 80000000 cycles: 40495709 heartbeat IPC: 1.97718 cumulative IPC: 1.97552 (Simulation time: 0 hr 2 min 9 sec) 
Heartbeat CPU 0 instructions: 90000002 cycles: 45579008 heartbeat IPC: 1.96723 cumulative IPC: 1.97459 (Simulation time: 0 hr 2 min 26 sec) 
Heartbeat CPU 0 instructions: 100000000 cycles: 50637690 heartbeat IPC: 1.9768 cumulative IPC: 1.97481 (Simulation time: 0 hr 2 min 42 sec) 

Warmup complete CPU 0 instructions: 100000002 cycles: 50637691 (Simulation time: 0 hr 2 min 42 sec) 

Heartbeat CPU 0 instructions: 110000003 cycles: 71967002 heartbeat IPC: 0.468839 cumulative IPC: 0.468838 (Simulation time: 0 hr 3 min 8 sec) 
Heartbeat CPU 0 instructions: 120000000 cycles: 93491690 heartbeat IPC: 0.464583 cumulative IPC: 0.466701 (Simulation time: 0 hr 3 min 33 sec) 
Heartbeat CPU 0 instructions: 130000000 cycles: 114878272 heartbeat IPC: 0.467583 cumulative IPC: 0.466994 (Simulation time: 0 hr 3 min 59 sec) 
Heartbeat CPU 0 instructions: 140000000 cycles: 136401699 heartbeat IPC: 0.46461 cumulative IPC: 0.466396 (Simulation time: 0 hr 4 min 25 sec) 
Heartbeat CPU 0 instructions: 150000002 cycles: 157791170 heartbeat IPC: 0.46752 cumulative IPC: 0.46662 (Simulation time: 0 hr 4 min 51 sec) 
Heartbeat CPU 0 instructions: 160000000 cycles: 179132223 heartbeat IPC: 0.46858 cumulative IPC: 0.466946 (Simulation time: 0 hr 5 min 17 sec) 
Heartbeat CPU 0 instructions: 170000000 cycles: 200583472 heartbeat IPC: 0.466173 cumulative IPC: 0.466835 (Simulation time: 0 hr 5 min 43 sec) 
Heartbeat CPU 0 instructions: 180000000 cycles: 221938835 heartbeat IPC: 0.468266 cumulative IPC: 0.467014 (Simulation time: 0 hr 6 min 9 sec) 
Heartbeat CPU 0 instructions: 190000001 cycles: 243449923 heartbeat IPC: 0.464877 cumulative IPC: 0.466775 (Simulation time: 0 hr 6 min 34 sec) 
Heartbeat CPU 0 instructions: 200000000 cycles: 264805011 heartbeat IPC: 0.468272 cumulative IPC: 0.466925 (Simulation time: 0 hr 6 min 59 sec) 
Heartbeat CPU 0 instructions: 210000000 cycles: 286177723 heartbeat IPC: 0.467886 cumulative IPC: 0.467012 (Simulation time: 0 hr 7 min 24 sec) 
Heartbeat CPU 0 instructions: 220000000 cycles: 307558678 heartbeat IPC: 0.467706 cumulative IPC: 0.46707 (Simulation time: 0 hr 7 min 48 sec) 
Heartbeat CPU 0 instructions: 230000000 cycles: 328972655 heartbeat IPC: 0.466985 cumulative IPC: 0.467063 (Simulation time: 0 hr 8 min 13 sec) 
Heartbeat CPU 0 instructions: 240000000 cycles: 350465053 heartbeat IPC: 0.465281 cumulative IPC: 0.466935 (Simulation time: 0 hr 8 min 37 sec) 
*** Reached end of trace for Core: 0 Repeating trace: /mnt/beegfs/pchatz06/selected_traces/557.xz_r.train.input2.region_13.w_0.1052_0.1323.trace.gz
Heartbeat CPU 0 instructions: 250000002 cycles: 371859839 heartbeat IPC: 0.467404 cumulative IPC: 0.466967 (Simulation time: 0 hr 9 min 2 sec) 
Finished CPU 0 instructions: 150000000 cycles: 321222148 cumulative IPC: 0.466967 (Simulation time: 0 hr 9 min 2 sec) 

CPU 0 Branch Prediction Accuracy: 96.467% MPKI: 4.62545
Number of Branches: 19638262 Number of Mispredictions: 693818
Number of LOAD Instructions: 70395726
Number of LOAD Instructions (ROI): 70395726
Number of STORE Instructions: 36721400
Number of STORE Instructions (ROI): 36721400
Total Destination Memory Operands: 39835281
Total Destination Memory Operands (ROI): 39835281
Total Source Memory Operands: 70395726
Total Source Memory Operands (ROI): 70395726
Number of DEPENDED LOADS: 8033496
Number of DEPENDED LOADS (ROI): 8033496
Number of SQ_ADDED: 39835281
Number of SQ_ADDED (ROI): 39835281
Number of LQ_ADDED: 105619896
Number of LQ_ADDED (ROI): 105619896
Number of Instructions read from trace: 250000056

ChampSim completed all CPUs

Region of Interest Statistics

CPU 0 cumulative IPC: 0.466967 instructions: 150000000 cycles: 321222148
ITLB TOTAL     ACCESS:   25701088  HIT:   25701088  MISS:          0
ITLB LOAD      ACCESS:   25701088  HIT:   25701088  MISS:          0
ITLB RFO       ACCESS:          0  HIT:          0  MISS:          0
ITLB PREFETCH  ACCESS:          0  HIT:          0  MISS:          0
ITLB WRITEBACK ACCESS:          0  HIT:          0  MISS:          0
ITLB PREFETCH  REQUESTED:          0  ISSUED:          0  USEFUL:          0  USELESS:          0
ITLB TOTAL MSHR MERGED:          0
ITLB LOAD MSHR MERGED:          0
ITLB RFO MSHR MERGED:          0
ITLB PREFETCH MSHR MERGED:          0
ITLB WRITEBACK MSHR MERGED:          0
ITLB TOTAL ACCESSES:   25701088 HITS:   25701088 MISSES:          0
ITLB LOAD ACCESSES:   25701088 HITS:   25701088 MISSES:          0
ITLB RFO ACCESSES:          0 HITS:          0 MISSES:          0
ITLB PREFETCH ACCESSES:          0 HITS:          0 MISSES:          0
ITLB WRITEBACK ACCESSES:          0 HITS:          0 MISSES:          0
ITLB RQ ACCESS:  150000030
ITLB RQ TO_CACHE:   25701088
ITLB RQ MERGED:  124298942
ITLB RQ FORWARD:          0
ITLB WQ ACCESS:          0
ITLB WQ TO_CACHE:          0
ITLB WQ MERGED:          0
ITLB WQ FORWARD:          0
DTLB TOTAL     ACCESS:   41803749  HIT:   40837034  MISS:     966715
DTLB LOAD      ACCESS:   23366887  HIT:   22403386  MISS:     963501
DTLB RFO       ACCESS:   18436862  HIT:   18433648  MISS:       3214
DTLB PREFETCH  ACCESS:          0  HIT:          0  MISS:          0
DTLB WRITEBACK ACCESS:          0  HIT:          0  MISS:          0
DTLB PREFETCH  REQUESTED:          0  ISSUED:          0  USEFUL:          0  USELESS:          0
DTLB TOTAL MSHR MERGED:      24948
DTLB LOAD MSHR MERGED:       5858
DTLB RFO MSHR MERGED:      19090
DTLB PREFETCH MSHR MERGED:          0
DTLB WRITEBACK MSHR MERGED:          0
DTLB TOTAL ACCESSES:   41828697 HITS:   40837034 MISSES:     991663
DTLB LOAD ACCESSES:   23372745 HITS:   22403386 MISSES:     969359
DTLB RFO ACCESSES:   18455952 HITS:   18433648 MISSES:      22304
DTLB PREFETCH ACCESSES:          0 HITS:          0 MISSES:          0
DTLB WRITEBACK ACCESSES:          0 HITS:          0 MISSES:          0
DTLB RQ ACCESS:   61243663
DTLB RQ TO_CACHE:   41828697
DTLB RQ MERGED:   19414966
DTLB RQ FORWARD:          0
DTLB WQ ACCESS:          0
DTLB WQ TO_CACHE:          0
DTLB WQ MERGED:          0
DTLB WQ FORWARD:          0
L1D TOTAL     ACCESS:   73603855  HIT:   70900196  MISS:    2703659
L1D LOAD      ACCESS:   25952411  HIT:   24630420  MISS:    1321991
L1D RFO       ACCESS:   23553521  HIT:   23516694  MISS:      36827
L1D PREFETCH  ACCESS:   24097923  HIT:   22753082  MISS:    1344841
L1D WRITEBACK ACCESS:          0  HIT:          0  MISS:          0
L1D PREFETCH  REQUESTED:   25959199  ISSUED:   25896398  USEFUL:     130667  USELESS:    1214174
L1D TOTAL MSHR MERGED:     111646
L1D LOAD MSHR MERGED:      10622
L1D RFO MSHR MERGED:      61136
L1D PREFETCH MSHR MERGED:      39888
L1D WRITEBACK MSHR MERGED:          0
L1D TOTAL ACCESSES:   73801164 HITS:   70985859 MISSES:    2815305
L1D LOAD ACCESSES:   26023077 HITS:   24694298 MISSES:    1328779
L1D RFO ACCESSES:   23613259 HITS:   23516694 MISSES:      96565
L1D PREFETCH ACCESSES:   24164828 HITS:   22774867 MISSES:    1389961
L1D WRITEBACK ACCESSES:          0 HITS:          0 MISSES:          0
L1D RQ ACCESS:   37344523
L1D RQ TO_CACHE:   25959199
L1D RQ MERGED:   11321446
L1D RQ FORWARD:          0
L1D WQ ACCESS:   23899137
L1D WQ TO_CACHE:   23613259
L1D WQ MERGED:     285878
L1D WQ FORWARD:      85663
L1I TOTAL     ACCESS:   33725038  HIT:   33725024  MISS:         14
L1I LOAD      ACCESS:   33725038  HIT:   33725024  MISS:         14
L1I RFO       ACCESS:          0  HIT:          0  MISS:          0
L1I PREFETCH  ACCESS:          0  HIT:          0  MISS:          0
L1I WRITEBACK ACCESS:          0  HIT:          0  MISS:          0
L1I PREFETCH  REQUESTED:          0  ISSUED:          0  USEFUL:          0  USELESS:          0
L1I TOTAL MSHR MERGED:          5
L1I LOAD MSHR MERGED:          5
L1I RFO MSHR MERGED:          0
L1I PREFETCH MSHR MERGED:          0
L1I WRITEBACK MSHR MERGED:          0
L1I TOTAL ACCESSES:   33725043 HITS:   33725024 MISSES:         19
L1I LOAD ACCESSES:   33725043 HITS:   33725024 MISSES:         19
L1I RFO ACCESSES:          0 HITS:          0 MISSES:          0
L1I PREFETCH ACCESSES:          0 HITS:          0 MISSES:          0
L1I WRITEBACK ACCESSES:          0 HITS:          0 MISSES:          0
L1I RQ ACCESS:  150000030
L1I RQ TO_CACHE:   33725043
L1I RQ MERGED:  116274987
L1I RQ FORWARD:          0
L1I WQ ACCESS:          0
L1I WQ TO_CACHE:          0
L1I WQ MERGED:          0
L1I WQ FORWARD:          0
L2C TOTAL     ACCESS:    3603948  HIT:    1499473  MISS:    2104475
L2C LOAD      ACCESS:    1318163  HIT:     289830  MISS:    1028333
L2C RFO       ACCESS:      35429  HIT:       2212  MISS:      33217
L2C PREFETCH  ACCESS:    1355641  HIT:     319648  MISS:    1035993
L2C WRITEBACK ACCESS:     894715  HIT:     887783  MISS:       6932
L2C PREFETCH  REQUESTED:       5693  ISSUED:       5693  USEFUL:      39044  USELESS:     996960
L2C TOTAL MSHR MERGED:          0
L2C LOAD MSHR MERGED:          0
L2C RFO MSHR MERGED:          0
L2C PREFETCH MSHR MERGED:          0
L2C WRITEBACK MSHR MERGED:          0
L2C TOTAL ACCESSES:    3604017 HITS:    1499539 MISSES:    2104478
L2C LOAD ACCESSES:    1318171 HITS:     289838 MISSES:    1028333
L2C RFO ACCESSES:      35429 HITS:       2212 MISSES:      33217
L2C PREFETCH ACCESSES:    1355702 HITS:     319706 MISSES:    1035996
L2C WRITEBACK ACCESSES:     894715 HITS:     887783 MISSES:       6932
L2C RQ ACCESS:    1353600
L2C RQ TO_CACHE:    1353592
L2C RQ MERGED:          0
L2C RQ FORWARD:          0
L2C WQ ACCESS:     894715
L2C WQ TO_CACHE:     894715
L2C WQ MERGED:          0
L2C WQ FORWARD:         66
LLC TOTAL     ACCESS:    2776180  HIT:    1232534  MISS:    1543646
LLC LOAD      ACCESS:    1028333  HIT:     319259  MISS:     709074
LLC RFO       ACCESS:      33217  HIT:        740  MISS:      32477
LLC PREFETCH  ACCESS:    1035996  HIT:     327567  MISS:     708429
LLC WRITEBACK ACCESS:     678634  HIT:     584968  MISS:      93666
LLC PREFETCH  REQUESTED:          0  ISSUED:          0  USEFUL:       1203  USELESS:     707227
LLC TOTAL MSHR MERGED:          0
LLC LOAD MSHR MERGED:          0
LLC RFO MSHR MERGED:          0
LLC PREFETCH MSHR MERGED:          0
LLC WRITEBACK MSHR MERGED:          0
LLC TOTAL ACCESSES:    2776180 HITS:    1232534 MISSES:    1543646
LLC LOAD ACCESSES:    1028333 HITS:     319259 MISSES:     709074
LLC RFO ACCESSES:      33217 HITS:        740 MISSES:      32477
LLC PREFETCH ACCESSES:    1035996 HITS:     327567 MISSES:     708429
LLC WRITEBACK ACCESSES:     678634 HITS:     584968 MISSES:      93666
LLC 0 RQ ACCESS:    1061550
LLC 0 RQ TO_CACHE:    1061550
LLC 0 RQ MERGED:          0
LLC 0 RQ FORWARD:          0
LLC WQ ACCESS:     678634
LLC WQ TO_CACHE:     678634
LLC WQ MERGED:          0
LLC WQ FORWARD:          0
Major fault: 0 Minor fault: 11621
CPU 0 L1D next line prefetcher final stats
CPU 0 L2C PC-based stride prefetcher final stats
All Misses: 2586894
All Hits: 2035062
SD Algo Stats - Switches: 1 SRR-Repls: 573471 BRR-Repls: 578619

DRAM Statistics
 CHANNEL 0
 RQ ROW_BUFFER_HIT:      30376  ROW_BUFFER_MISS:    1419512
 DBUS_CONGESTED:    1235005
 WQ ROW_BUFFER_HIT:      36941  ROW_BUFFER_MISS:     452553  FULL:          0

 AVG_CONGESTED_CYCLE: 13
LOADS RETIRED: 42237178
INSTR RETIRED: 150000000
