
*** ChampSim Multicore Out-of-Order Simulator ***

Warmup Instructions: 100000000
Simulation Instructions: 150000000
Number of CPUs: 1
LLC sets: 2048
LLC ways: 16
Clean RRIP Policies: 3333323233333232 Dirty RRIP Policies: 3333323233333232 PSEL Width: 10 Track Set: 4294967295 PSEL Mask: 1 Demote Mask: 4044404440444044DS Algo: 0Window size: 0
Off-chip DRAM Size: 4096 MB Channels: 1 Width: 64-bit Data Rate: 1600 MT/s

CPU 0 runs /mnt/beegfs/pchatz06/selected_traces/557.xz_r.train.input2.region_1.w_0.0409_0.0515.trace.gz
NOT SORTED
TRACE STRING: /mnt/beegfs/pchatz06/selected_traces/557.xz_r.train.input2.region_1.w_0.0409_0.0515.trace.gz
SORTED
TRACE STRING: /mnt/beegfs/pchatz06/selected_traces/557.xz_r.train.input2.region_1.w_0.0409_0.0515.trace.gz
INITIAL
TRACE STRING: /mnt/beegfs/pchatz06/selected_traces/557.xz_r.train.input2.region_1.w_0.0409_0.0515.trace.gz

champsim_seed used: 203

CPU 0 L1D next line prefetcher
CPU 0 L2C IP-based stride prefetcher
Initialize DRRIP state
Assign rand_sets[0]: 454  LLC: 2048
rand_sets[0]: 454
Assign rand_sets[1]: 1662  LLC: 2048
rand_sets[1]: 1662
Assign rand_sets[2]: 1921  LLC: 2048
rand_sets[2]: 1921
Assign rand_sets[3]: 1131  LLC: 2048
rand_sets[3]: 1131
Assign rand_sets[4]: 331  LLC: 2048
rand_sets[4]: 331
Assign rand_sets[5]: 1531  LLC: 2048
rand_sets[5]: 1531
Assign rand_sets[6]: 482  LLC: 2048
rand_sets[6]: 482
Assign rand_sets[7]: 1275  LLC: 2048
rand_sets[7]: 1275
Assign rand_sets[8]: 1876  LLC: 2048
rand_sets[8]: 1876
Assign rand_sets[9]: 2038  LLC: 2048
rand_sets[9]: 2038
Assign rand_sets[10]: 701  LLC: 2048
rand_sets[10]: 701
Assign rand_sets[11]: 479  LLC: 2048
rand_sets[11]: 479
Assign rand_sets[12]: 892  LLC: 2048
rand_sets[12]: 892
Assign rand_sets[13]: 1820  LLC: 2048
rand_sets[13]: 1820
Assign rand_sets[14]: 1505  LLC: 2048
rand_sets[14]: 1505
Assign rand_sets[15]: 1159  LLC: 2048
rand_sets[15]: 1159
Assign rand_sets[16]: 513  LLC: 2048
rand_sets[16]: 513
Assign rand_sets[17]: 703  LLC: 2048
rand_sets[17]: 703
Assign rand_sets[18]: 561  LLC: 2048
rand_sets[18]: 561
Assign rand_sets[19]: 990  LLC: 2048
rand_sets[19]: 990
Assign rand_sets[20]: 342  LLC: 2048
rand_sets[20]: 342
Assign rand_sets[21]: 882  LLC: 2048
rand_sets[21]: 882
Assign rand_sets[22]: 15  LLC: 2048
rand_sets[22]: 15
Assign rand_sets[23]: 71  LLC: 2048
rand_sets[23]: 71
Assign rand_sets[24]: 1127  LLC: 2048
rand_sets[24]: 1127
Assign rand_sets[25]: 1382  LLC: 2048
rand_sets[25]: 1382
Assign rand_sets[26]: 647  LLC: 2048
rand_sets[26]: 647
Assign rand_sets[27]: 857  LLC: 2048
rand_sets[27]: 857
Assign rand_sets[28]: 1450  LLC: 2048
rand_sets[28]: 1450
Assign rand_sets[29]: 1160  LLC: 2048
rand_sets[29]: 1160
Assign rand_sets[30]: 1852  LLC: 2048
rand_sets[30]: 1852
Assign rand_sets[31]: 1881  LLC: 2048
rand_sets[31]: 1881
Assign rand_sets[32]: 1770  LLC: 2048
rand_sets[32]: 1770
Assign rand_sets[33]: 1622  LLC: 2048
rand_sets[33]: 1622
Assign rand_sets[34]: 275  LLC: 2048
rand_sets[34]: 275
Assign rand_sets[35]: 635  LLC: 2048
rand_sets[35]: 635
Assign rand_sets[36]: 466  LLC: 2048
rand_sets[36]: 466
Assign rand_sets[37]: 1413  LLC: 2048
rand_sets[37]: 1413
Assign rand_sets[38]: 417  LLC: 2048
rand_sets[38]: 417
Assign rand_sets[39]: 472  LLC: 2048
rand_sets[39]: 472
Assign rand_sets[40]: 1340  LLC: 2048
rand_sets[40]: 1340
Assign rand_sets[41]: 852  LLC: 2048
rand_sets[41]: 852
Assign rand_sets[42]: 1365  LLC: 2048
rand_sets[42]: 1365
Assign rand_sets[43]: 47  LLC: 2048
rand_sets[43]: 47
Assign rand_sets[44]: 823  LLC: 2048
rand_sets[44]: 823
Assign rand_sets[45]: 686  LLC: 2048
rand_sets[45]: 686
Assign rand_sets[46]: 1637  LLC: 2048
rand_sets[46]: 1637
Assign rand_sets[47]: 1115  LLC: 2048
rand_sets[47]: 1115
Assign rand_sets[48]: 986  LLC: 2048
rand_sets[48]: 986
Assign rand_sets[49]: 258  LLC: 2048
rand_sets[49]: 258
Assign rand_sets[50]: 633  LLC: 2048
rand_sets[50]: 633
Assign rand_sets[51]: 920  LLC: 2048
rand_sets[51]: 920
Assign rand_sets[52]: 204  LLC: 2048
rand_sets[52]: 204
Assign rand_sets[53]: 227  LLC: 2048
rand_sets[53]: 227
Assign rand_sets[54]: 1818  LLC: 2048
rand_sets[54]: 1818
Assign rand_sets[55]: 886  LLC: 2048
rand_sets[55]: 886
Assign rand_sets[56]: 1422  LLC: 2048
rand_sets[56]: 1422
Assign rand_sets[57]: 607  LLC: 2048
rand_sets[57]: 607
Assign rand_sets[58]: 217  LLC: 2048
rand_sets[58]: 217
Assign rand_sets[59]: 1945  LLC: 2048
rand_sets[59]: 1945
Assign rand_sets[60]: 143  LLC: 2048
rand_sets[60]: 143
Assign rand_sets[61]: 1311  LLC: 2048
rand_sets[61]: 1311
Assign rand_sets[62]: 319  LLC: 2048
rand_sets[62]: 319
Assign rand_sets[63]: 1846  LLC: 2048
rand_sets[63]: 1846
 CLEAN-RRIP-POLICY-1: 3-3-3-3-3-2-3-2- CLEAN-RRIP-POLICY-2: 3-3-3-3-3-2-3-2-
 DIRTY-RRIP-POLICY-1: 3-3-3-3-3-2-3-2- DIRTY-RRIP-POLICY-2: 3-3-3-3-3-2-3-2-
 PSEL width: 10
Heartbeat CPU 0 instructions: 10000002 cycles: 5043159 heartbeat IPC: 1.98288 cumulative IPC: 1.98288 (Simulation time: 0 hr 0 min 16 sec) 
Heartbeat CPU 0 instructions: 20000000 cycles: 10075023 heartbeat IPC: 1.98733 cumulative IPC: 1.98511 (Simulation time: 0 hr 0 min 32 sec) 
Heartbeat CPU 0 instructions: 30000003 cycles: 15142096 heartbeat IPC: 1.97353 cumulative IPC: 1.98123 (Simulation time: 0 hr 0 min 48 sec) 
Heartbeat CPU 0 instructions: 40000000 cycles: 20186658 heartbeat IPC: 1.98233 cumulative IPC: 1.98151 (Simulation time: 0 hr 1 min 4 sec) 
Heartbeat CPU 0 instructions: 50000002 cycles: 25224267 heartbeat IPC: 1.98507 cumulative IPC: 1.98222 (Simulation time: 0 hr 1 min 20 sec) 
Heartbeat CPU 0 instructions: 60000000 cycles: 30257293 heartbeat IPC: 1.98688 cumulative IPC: 1.98299 (Simulation time: 0 hr 1 min 36 sec) 
Heartbeat CPU 0 instructions: 70000003 cycles: 35293233 heartbeat IPC: 1.98573 cumulative IPC: 1.98338 (Simulation time: 0 hr 1 min 52 sec) 
Heartbeat CPU 0 instructions: 80000000 cycles: 40368221 heartbeat IPC: 1.97045 cumulative IPC: 1.98176 (Simulation time: 0 hr 2 min 8 sec) 
Heartbeat CPU 0 instructions: 90000001 cycles: 45407786 heartbeat IPC: 1.9843 cumulative IPC: 1.98204 (Simulation time: 0 hr 2 min 25 sec) 
Heartbeat CPU 0 instructions: 100000000 cycles: 50441531 heartbeat IPC: 1.98659 cumulative IPC: 1.98249 (Simulation time: 0 hr 2 min 41 sec) 

Warmup complete CPU 0 instructions: 100000001 cycles: 50441534 (Simulation time: 0 hr 2 min 41 sec) 

Heartbeat CPU 0 instructions: 110000000 cycles: 72023969 heartbeat IPC: 0.46334 cumulative IPC: 0.46334 (Simulation time: 0 hr 3 min 6 sec) 
Heartbeat CPU 0 instructions: 120000000 cycles: 93494185 heartbeat IPC: 0.465762 cumulative IPC: 0.464547 (Simulation time: 0 hr 3 min 32 sec) 
Heartbeat CPU 0 instructions: 130000003 cycles: 115298052 heartbeat IPC: 0.458634 cumulative IPC: 0.46256 (Simulation time: 0 hr 3 min 58 sec) 
Heartbeat CPU 0 instructions: 140000000 cycles: 136759754 heartbeat IPC: 0.465946 cumulative IPC: 0.463402 (Simulation time: 0 hr 4 min 24 sec) 
Heartbeat CPU 0 instructions: 150000002 cycles: 158234934 heartbeat IPC: 0.465654 cumulative IPC: 0.46385 (Simulation time: 0 hr 4 min 49 sec) 
Heartbeat CPU 0 instructions: 160000000 cycles: 179735196 heartbeat IPC: 0.465111 cumulative IPC: 0.46406 (Simulation time: 0 hr 5 min 15 sec) 
Heartbeat CPU 0 instructions: 170000002 cycles: 201209038 heartbeat IPC: 0.465683 cumulative IPC: 0.464291 (Simulation time: 0 hr 5 min 41 sec) 
Heartbeat CPU 0 instructions: 180000000 cycles: 223027173 heartbeat IPC: 0.458334 cumulative IPC: 0.463538 (Simulation time: 0 hr 6 min 6 sec) 
Heartbeat CPU 0 instructions: 190000002 cycles: 244439679 heartbeat IPC: 0.467017 cumulative IPC: 0.463922 (Simulation time: 0 hr 6 min 32 sec) 
Heartbeat CPU 0 instructions: 200000000 cycles: 265911945 heartbeat IPC: 0.465717 cumulative IPC: 0.464101 (Simulation time: 0 hr 6 min 58 sec) 
Heartbeat CPU 0 instructions: 210000002 cycles: 287473739 heartbeat IPC: 0.463783 cumulative IPC: 0.464072 (Simulation time: 0 hr 7 min 23 sec) 
Heartbeat CPU 0 instructions: 220000000 cycles: 308981194 heartbeat IPC: 0.464955 cumulative IPC: 0.464145 (Simulation time: 0 hr 7 min 49 sec) 
Heartbeat CPU 0 instructions: 230000002 cycles: 330620044 heartbeat IPC: 0.462132 cumulative IPC: 0.46399 (Simulation time: 0 hr 8 min 15 sec) 
Heartbeat CPU 0 instructions: 240000000 cycles: 352077568 heartbeat IPC: 0.466037 cumulative IPC: 0.464136 (Simulation time: 0 hr 8 min 41 sec) 
*** Reached end of trace for Core: 0 Repeating trace: /mnt/beegfs/pchatz06/selected_traces/557.xz_r.train.input2.region_1.w_0.0409_0.0515.trace.gz
Heartbeat CPU 0 instructions: 250000003 cycles: 373540362 heartbeat IPC: 0.465923 cumulative IPC: 0.464254 (Simulation time: 0 hr 9 min 6 sec) 
Finished CPU 0 instructions: 150000002 cycles: 323098828 cumulative IPC: 0.464254 (Simulation time: 0 hr 9 min 6 sec) 

CPU 0 Branch Prediction Accuracy: 96.381% MPKI: 4.73101
Number of Branches: 19609319 Number of Mispredictions: 709652
Number of LOAD Instructions: 70074801
Number of LOAD Instructions (ROI): 70074801
Number of STORE Instructions: 36425871
Number of STORE Instructions (ROI): 36425871
Total Destination Memory Operands: 39553217
Total Destination Memory Operands (ROI): 39553217
Total Source Memory Operands: 70074801
Total Source Memory Operands (ROI): 70074801
Number of DEPENDED LOADS: 7995256
Number of DEPENDED LOADS (ROI): 7995256
Number of SQ_ADDED: 39553191
Number of SQ_ADDED (ROI): 39553191
Number of LQ_ADDED: 105319598
Number of LQ_ADDED (ROI): 105319598
Number of Instructions read from trace: 250000255

ChampSim completed all CPUs

Region of Interest Statistics

CPU 0 cumulative IPC: 0.464254 instructions: 150000002 cycles: 323098828
ITLB TOTAL     ACCESS:   25402484  HIT:   25402484  MISS:          0
ITLB LOAD      ACCESS:   25402484  HIT:   25402484  MISS:          0
ITLB RFO       ACCESS:          0  HIT:          0  MISS:          0
ITLB PREFETCH  ACCESS:          0  HIT:          0  MISS:          0
ITLB WRITEBACK ACCESS:          0  HIT:          0  MISS:          0
ITLB PREFETCH  REQUESTED:          0  ISSUED:          0  USEFUL:          0  USELESS:          0
ITLB TOTAL MSHR MERGED:          0
ITLB LOAD MSHR MERGED:          0
ITLB RFO MSHR MERGED:          0
ITLB PREFETCH MSHR MERGED:          0
ITLB WRITEBACK MSHR MERGED:          0
ITLB TOTAL ACCESSES:   25402484 HITS:   25402484 MISSES:          0
ITLB LOAD ACCESSES:   25402484 HITS:   25402484 MISSES:          0
ITLB RFO ACCESSES:          0 HITS:          0 MISSES:          0
ITLB PREFETCH ACCESSES:          0 HITS:          0 MISSES:          0
ITLB WRITEBACK ACCESSES:          0 HITS:          0 MISSES:          0
ITLB RQ ACCESS:  150000228
ITLB RQ TO_CACHE:   25402484
ITLB RQ MERGED:  124597744
ITLB RQ FORWARD:          0
ITLB WQ ACCESS:          0
ITLB WQ TO_CACHE:          0
ITLB WQ MERGED:          0
ITLB WQ FORWARD:          0
DTLB TOTAL     ACCESS:   41557347  HIT:   40571649  MISS:     985698
DTLB LOAD      ACCESS:   23284040  HIT:   22301667  MISS:     982373
DTLB RFO       ACCESS:   18273307  HIT:   18269982  MISS:       3325
DTLB PREFETCH  ACCESS:          0  HIT:          0  MISS:          0
DTLB WRITEBACK ACCESS:          0  HIT:          0  MISS:          0
DTLB PREFETCH  REQUESTED:          0  ISSUED:          0  USEFUL:          0  USELESS:          0
DTLB TOTAL MSHR MERGED:      31170
DTLB LOAD MSHR MERGED:       6710
DTLB RFO MSHR MERGED:      24460
DTLB PREFETCH MSHR MERGED:          0
DTLB WRITEBACK MSHR MERGED:          0
DTLB TOTAL ACCESSES:   41588517 HITS:   40571649 MISSES:    1016868
DTLB LOAD ACCESSES:   23290750 HITS:   22301667 MISSES:     989083
DTLB RFO ACCESSES:   18297767 HITS:   18269982 MISSES:      27785
DTLB PREFETCH ACCESSES:          0 HITS:          0 MISSES:          0
DTLB WRITEBACK ACCESSES:          0 HITS:          0 MISSES:          0
DTLB RQ ACCESS:   60913730
DTLB RQ TO_CACHE:   41588517
DTLB RQ MERGED:   19325213
DTLB RQ FORWARD:          0
DTLB WQ ACCESS:          0
DTLB WQ TO_CACHE:          0
DTLB WQ MERGED:          0
DTLB WQ FORWARD:          0
L1D TOTAL     ACCESS:   72988857  HIT:   70227000  MISS:    2761857
L1D LOAD      ACCESS:   25736469  HIT:   24387653  MISS:    1348816
L1D RFO       ACCESS:   23389685  HIT:   23351262  MISS:      38423
L1D PREFETCH  ACCESS:   23862703  HIT:   22488085  MISS:    1374618
L1D WRITEBACK ACCESS:          0  HIT:          0  MISS:          0
L1D PREFETCH  REQUESTED:   25745598  ISSUED:   25680811  USEFUL:     136903  USELESS:    1237709
L1D TOTAL MSHR MERGED:     130950
L1D LOAD MSHR MERGED:      14784
L1D RFO MSHR MERGED:      61275
L1D PREFETCH MSHR MERGED:      54891
L1D WRITEBACK MSHR MERGED:          0
L1D TOTAL ACCESSES:   73205589 HITS:   70312780 MISSES:    2892809
L1D LOAD ACCESSES:   25810702 HITS:   24452757 MISSES:    1357945
L1D RFO ACCESSES:   23449606 HITS:   23351262 MISSES:      98344
L1D PREFETCH ACCESSES:   23945281 HITS:   22508761 MISSES:    1436520
L1D WRITEBACK ACCESSES:          0 HITS:          0 MISSES:          0
L1D RQ ACCESS:   37180519
L1D RQ TO_CACHE:   25745599
L1D RQ MERGED:   11369816
L1D RQ FORWARD:          0
L1D WQ ACCESS:   23733201
L1D WQ TO_CACHE:   23449605
L1D WQ MERGED:     283596
L1D WQ FORWARD:      85780
L1I TOTAL     ACCESS:   33422053  HIT:   33422052  MISS:          1
L1I LOAD      ACCESS:   33422053  HIT:   33422052  MISS:          1
L1I RFO       ACCESS:          0  HIT:          0  MISS:          0
L1I PREFETCH  ACCESS:          0  HIT:          0  MISS:          0
L1I WRITEBACK ACCESS:          0  HIT:          0  MISS:          0
L1I PREFETCH  REQUESTED:          0  ISSUED:          0  USEFUL:          0  USELESS:          0
L1I TOTAL MSHR MERGED:          1
L1I LOAD MSHR MERGED:          1
L1I RFO MSHR MERGED:          0
L1I PREFETCH MSHR MERGED:          0
L1I WRITEBACK MSHR MERGED:          0
L1I TOTAL ACCESSES:   33422054 HITS:   33422052 MISSES:          2
L1I LOAD ACCESSES:   33422054 HITS:   33422052 MISSES:          2
L1I RFO ACCESSES:          0 HITS:          0 MISSES:          0
L1I PREFETCH ACCESSES:          0 HITS:          0 MISSES:          0
L1I WRITEBACK ACCESSES:          0 HITS:          0 MISSES:          0
L1I RQ ACCESS:  150000228
L1I RQ TO_CACHE:   33422054
L1I RQ MERGED:  116578174
L1I RQ FORWARD:          0
L1I WQ ACCESS:          0
L1I WQ TO_CACHE:          0
L1I WQ MERGED:          0
L1I WQ FORWARD:          0
L2C TOTAL     ACCESS:    3684064  HIT:    1552786  MISS:    2131278
L2C LOAD      ACCESS:    1343150  HIT:     302987  MISS:    1040163
L2C RFO       ACCESS:      37069  HIT:       4200  MISS:      32869
L2C PREFETCH  ACCESS:    1388143  HIT:     336482  MISS:    1051661
L2C WRITEBACK ACCESS:     915702  HIT:     909117  MISS:       6585
L2C PREFETCH  REQUESTED:       6655  ISSUED:       6655  USEFUL:      38848  USELESS:    1012829
L2C TOTAL MSHR MERGED:          5
L2C LOAD MSHR MERGED:          2
L2C RFO MSHR MERGED:          0
L2C PREFETCH MSHR MERGED:          3
L2C WRITEBACK MSHR MERGED:          0
L2C TOTAL ACCESSES:    3684127 HITS:    1552842 MISSES:    2131285
L2C LOAD ACCESSES:    1343162 HITS:     302998 MISSES:    1040164
L2C RFO ACCESSES:      37069 HITS:       4200 MISSES:      32869
L2C PREFETCH ACCESSES:    1388194 HITS:     336527 MISSES:    1051667
L2C WRITEBACK ACCESSES:     915702 HITS:     909117 MISSES:       6585
L2C RQ ACCESS:    1380231
L2C RQ TO_CACHE:    1380220
L2C RQ MERGED:          0
L2C RQ FORWARD:          0
L2C WQ ACCESS:     915702
L2C WQ TO_CACHE:     915702
L2C WQ MERGED:          0
L2C WQ FORWARD:         56
LLC TOTAL     ACCESS:    2809429  HIT:    1234225  MISS:    1575204
LLC LOAD      ACCESS:    1040161  HIT:     319149  MISS:     721012
LLC RFO       ACCESS:      32869  HIT:        910  MISS:      31959
LLC PREFETCH  ACCESS:    1051663  HIT:     323142  MISS:     728521
LLC WRITEBACK ACCESS:     684736  HIT:     591024  MISS:      93712
LLC PREFETCH  REQUESTED:          0  ISSUED:          0  USEFUL:       1183  USELESS:     727359
LLC TOTAL MSHR MERGED:          0
LLC LOAD MSHR MERGED:          0
LLC RFO MSHR MERGED:          0
LLC PREFETCH MSHR MERGED:          0
LLC WRITEBACK MSHR MERGED:          0
LLC TOTAL ACCESSES:    2809430 HITS:    1234225 MISSES:    1575205
LLC LOAD ACCESSES:    1040162 HITS:     319149 MISSES:     721013
LLC RFO ACCESSES:      32869 HITS:        910 MISSES:      31959
LLC PREFETCH ACCESSES:    1051663 HITS:     323142 MISSES:     728521
LLC WRITEBACK ACCESSES:     684736 HITS:     591024 MISSES:      93712
LLC 0 RQ ACCESS:    1073031
LLC 0 RQ TO_CACHE:    1073031
LLC 0 RQ MERGED:          0
LLC 0 RQ FORWARD:          0
LLC WQ ACCESS:     684736
LLC WQ TO_CACHE:     684736
LLC WQ MERGED:          0
LLC WQ FORWARD:          0
Major fault: 0 Minor fault: 11618
CPU 0 L1D next line prefetcher final stats
CPU 0 L2C PC-based stride prefetcher final stats
All Misses: 2638119
All Hits: 2042368
SD Algo Stats - Switches: 0 SRR-Repls: 1170569 BRR-Repls: 0

DRAM Statistics
 CHANNEL 0
 RQ ROW_BUFFER_HIT:      32301  ROW_BUFFER_MISS:    1449101
 DBUS_CONGESTED:    1253845
 WQ ROW_BUFFER_HIT:      37330  ROW_BUFFER_MISS:     456944  FULL:          0

 AVG_CONGESTED_CYCLE: 13
LOADS RETIRED: 42047297
INSTR RETIRED: 150000000
