
*** ChampSim Multicore Out-of-Order Simulator ***

Warmup Instructions: 100000000
Simulation Instructions: 150000000
Number of CPUs: 1
LLC sets: 2048
LLC ways: 16
Clean RRIP Policies: 3333323233333232 Dirty RRIP Policies: 3333323233333232 PSEL Width: 10 Track Set: 4294967295 PSEL Mask: 1 Demote Mask: 4044404440444044DS Algo: 0Window size: 0
Off-chip DRAM Size: 4096 MB Channels: 1 Width: 64-bit Data Rate: 1600 MT/s

CPU 0 runs /mnt/beegfs/pchatz06/selected_traces/557.xz_r.train.input2.region_3.w_0.1462_0.1839.trace.gz
NOT SORTED
TRACE STRING: /mnt/beegfs/pchatz06/selected_traces/557.xz_r.train.input2.region_3.w_0.1462_0.1839.trace.gz
SORTED
TRACE STRING: /mnt/beegfs/pchatz06/selected_traces/557.xz_r.train.input2.region_3.w_0.1462_0.1839.trace.gz
INITIAL
TRACE STRING: /mnt/beegfs/pchatz06/selected_traces/557.xz_r.train.input2.region_3.w_0.1462_0.1839.trace.gz

champsim_seed used: 213

CPU 0 L1D next line prefetcher
CPU 0 L2C IP-based stride prefetcher
Initialize DRRIP state
Assign rand_sets[0]: 454  LLC: 2048
rand_sets[0]: 454
Assign rand_sets[1]: 1662  LLC: 2048
rand_sets[1]: 1662
Assign rand_sets[2]: 1921  LLC: 2048
rand_sets[2]: 1921
Assign rand_sets[3]: 1131  LLC: 2048
rand_sets[3]: 1131
Assign rand_sets[4]: 331  LLC: 2048
rand_sets[4]: 331
Assign rand_sets[5]: 1531  LLC: 2048
rand_sets[5]: 1531
Assign rand_sets[6]: 482  LLC: 2048
rand_sets[6]: 482
Assign rand_sets[7]: 1275  LLC: 2048
rand_sets[7]: 1275
Assign rand_sets[8]: 1876  LLC: 2048
rand_sets[8]: 1876
Assign rand_sets[9]: 2038  LLC: 2048
rand_sets[9]: 2038
Assign rand_sets[10]: 701  LLC: 2048
rand_sets[10]: 701
Assign rand_sets[11]: 479  LLC: 2048
rand_sets[11]: 479
Assign rand_sets[12]: 892  LLC: 2048
rand_sets[12]: 892
Assign rand_sets[13]: 1820  LLC: 2048
rand_sets[13]: 1820
Assign rand_sets[14]: 1505  LLC: 2048
rand_sets[14]: 1505
Assign rand_sets[15]: 1159  LLC: 2048
rand_sets[15]: 1159
Assign rand_sets[16]: 513  LLC: 2048
rand_sets[16]: 513
Assign rand_sets[17]: 703  LLC: 2048
rand_sets[17]: 703
Assign rand_sets[18]: 561  LLC: 2048
rand_sets[18]: 561
Assign rand_sets[19]: 990  LLC: 2048
rand_sets[19]: 990
Assign rand_sets[20]: 342  LLC: 2048
rand_sets[20]: 342
Assign rand_sets[21]: 882  LLC: 2048
rand_sets[21]: 882
Assign rand_sets[22]: 15  LLC: 2048
rand_sets[22]: 15
Assign rand_sets[23]: 71  LLC: 2048
rand_sets[23]: 71
Assign rand_sets[24]: 1127  LLC: 2048
rand_sets[24]: 1127
Assign rand_sets[25]: 1382  LLC: 2048
rand_sets[25]: 1382
Assign rand_sets[26]: 647  LLC: 2048
rand_sets[26]: 647
Assign rand_sets[27]: 857  LLC: 2048
rand_sets[27]: 857
Assign rand_sets[28]: 1450  LLC: 2048
rand_sets[28]: 1450
Assign rand_sets[29]: 1160  LLC: 2048
rand_sets[29]: 1160
Assign rand_sets[30]: 1852  LLC: 2048
rand_sets[30]: 1852
Assign rand_sets[31]: 1881  LLC: 2048
rand_sets[31]: 1881
Assign rand_sets[32]: 1770  LLC: 2048
rand_sets[32]: 1770
Assign rand_sets[33]: 1622  LLC: 2048
rand_sets[33]: 1622
Assign rand_sets[34]: 275  LLC: 2048
rand_sets[34]: 275
Assign rand_sets[35]: 635  LLC: 2048
rand_sets[35]: 635
Assign rand_sets[36]: 466  LLC: 2048
rand_sets[36]: 466
Assign rand_sets[37]: 1413  LLC: 2048
rand_sets[37]: 1413
Assign rand_sets[38]: 417  LLC: 2048
rand_sets[38]: 417
Assign rand_sets[39]: 472  LLC: 2048
rand_sets[39]: 472
Assign rand_sets[40]: 1340  LLC: 2048
rand_sets[40]: 1340
Assign rand_sets[41]: 852  LLC: 2048
rand_sets[41]: 852
Assign rand_sets[42]: 1365  LLC: 2048
rand_sets[42]: 1365
Assign rand_sets[43]: 47  LLC: 2048
rand_sets[43]: 47
Assign rand_sets[44]: 823  LLC: 2048
rand_sets[44]: 823
Assign rand_sets[45]: 686  LLC: 2048
rand_sets[45]: 686
Assign rand_sets[46]: 1637  LLC: 2048
rand_sets[46]: 1637
Assign rand_sets[47]: 1115  LLC: 2048
rand_sets[47]: 1115
Assign rand_sets[48]: 986  LLC: 2048
rand_sets[48]: 986
Assign rand_sets[49]: 258  LLC: 2048
rand_sets[49]: 258
Assign rand_sets[50]: 633  LLC: 2048
rand_sets[50]: 633
Assign rand_sets[51]: 920  LLC: 2048
rand_sets[51]: 920
Assign rand_sets[52]: 204  LLC: 2048
rand_sets[52]: 204
Assign rand_sets[53]: 227  LLC: 2048
rand_sets[53]: 227
Assign rand_sets[54]: 1818  LLC: 2048
rand_sets[54]: 1818
Assign rand_sets[55]: 886  LLC: 2048
rand_sets[55]: 886
Assign rand_sets[56]: 1422  LLC: 2048
rand_sets[56]: 1422
Assign rand_sets[57]: 607  LLC: 2048
rand_sets[57]: 607
Assign rand_sets[58]: 217  LLC: 2048
rand_sets[58]: 217
Assign rand_sets[59]: 1945  LLC: 2048
rand_sets[59]: 1945
Assign rand_sets[60]: 143  LLC: 2048
rand_sets[60]: 143
Assign rand_sets[61]: 1311  LLC: 2048
rand_sets[61]: 1311
Assign rand_sets[62]: 319  LLC: 2048
rand_sets[62]: 319
Assign rand_sets[63]: 1846  LLC: 2048
rand_sets[63]: 1846
 CLEAN-RRIP-POLICY-1: 3-3-3-3-3-2-3-2- CLEAN-RRIP-POLICY-2: 3-3-3-3-3-2-3-2-
 DIRTY-RRIP-POLICY-1: 3-3-3-3-3-2-3-2- DIRTY-RRIP-POLICY-2: 3-3-3-3-3-2-3-2-
 PSEL width: 10
Heartbeat CPU 0 instructions: 10000002 cycles: 5057016 heartbeat IPC: 1.97745 cumulative IPC: 1.97745 (Simulation time: 0 hr 0 min 16 sec) 
Heartbeat CPU 0 instructions: 20000000 cycles: 10143718 heartbeat IPC: 1.96591 cumulative IPC: 1.97166 (Simulation time: 0 hr 0 min 32 sec) 
Heartbeat CPU 0 instructions: 30000002 cycles: 15198237 heartbeat IPC: 1.97843 cumulative IPC: 1.97391 (Simulation time: 0 hr 0 min 48 sec) 
Heartbeat CPU 0 instructions: 40000000 cycles: 20252502 heartbeat IPC: 1.97853 cumulative IPC: 1.97506 (Simulation time: 0 hr 1 min 4 sec) 
Heartbeat CPU 0 instructions: 50000001 cycles: 25301857 heartbeat IPC: 1.98045 cumulative IPC: 1.97614 (Simulation time: 0 hr 1 min 20 sec) 
Heartbeat CPU 0 instructions: 60000000 cycles: 30363224 heartbeat IPC: 1.97575 cumulative IPC: 1.97607 (Simulation time: 0 hr 1 min 36 sec) 
Heartbeat CPU 0 instructions: 70000003 cycles: 35450972 heartbeat IPC: 1.96551 cumulative IPC: 1.97456 (Simulation time: 0 hr 1 min 53 sec) 
Heartbeat CPU 0 instructions: 80000000 cycles: 40511996 heartbeat IPC: 1.97588 cumulative IPC: 1.97472 (Simulation time: 0 hr 2 min 9 sec) 
Heartbeat CPU 0 instructions: 90000002 cycles: 45567938 heartbeat IPC: 1.97787 cumulative IPC: 1.97507 (Simulation time: 0 hr 2 min 25 sec) 
Heartbeat CPU 0 instructions: 100000000 cycles: 50627189 heartbeat IPC: 1.97658 cumulative IPC: 1.97522 (Simulation time: 0 hr 2 min 41 sec) 

Warmup complete CPU 0 instructions: 100000001 cycles: 50627190 (Simulation time: 0 hr 2 min 41 sec) 

Heartbeat CPU 0 instructions: 110000000 cycles: 72333565 heartbeat IPC: 0.460694 cumulative IPC: 0.460694 (Simulation time: 0 hr 3 min 7 sec) 
Heartbeat CPU 0 instructions: 120000000 cycles: 93900008 heartbeat IPC: 0.463683 cumulative IPC: 0.462184 (Simulation time: 0 hr 3 min 32 sec) 
Heartbeat CPU 0 instructions: 130000000 cycles: 115431066 heartbeat IPC: 0.464445 cumulative IPC: 0.462935 (Simulation time: 0 hr 3 min 58 sec) 
Heartbeat CPU 0 instructions: 140000000 cycles: 136947269 heartbeat IPC: 0.464766 cumulative IPC: 0.463392 (Simulation time: 0 hr 4 min 23 sec) 
Heartbeat CPU 0 instructions: 150000002 cycles: 158510713 heartbeat IPC: 0.463748 cumulative IPC: 0.463463 (Simulation time: 0 hr 4 min 49 sec) 
Heartbeat CPU 0 instructions: 160000000 cycles: 180216610 heartbeat IPC: 0.460704 cumulative IPC: 0.463001 (Simulation time: 0 hr 5 min 15 sec) 
Heartbeat CPU 0 instructions: 170000003 cycles: 201705510 heartbeat IPC: 0.465357 cumulative IPC: 0.463336 (Simulation time: 0 hr 5 min 40 sec) 
Heartbeat CPU 0 instructions: 180000000 cycles: 223308136 heartbeat IPC: 0.462907 cumulative IPC: 0.463282 (Simulation time: 0 hr 6 min 6 sec) 
Heartbeat CPU 0 instructions: 190000003 cycles: 244819117 heartbeat IPC: 0.464879 cumulative IPC: 0.463459 (Simulation time: 0 hr 6 min 31 sec) 
Heartbeat CPU 0 instructions: 200000000 cycles: 266369438 heartbeat IPC: 0.46403 cumulative IPC: 0.463516 (Simulation time: 0 hr 6 min 57 sec) 
Heartbeat CPU 0 instructions: 210000003 cycles: 287983475 heartbeat IPC: 0.462662 cumulative IPC: 0.463438 (Simulation time: 0 hr 7 min 23 sec) 
Heartbeat CPU 0 instructions: 220000000 cycles: 309466457 heartbeat IPC: 0.465485 cumulative IPC: 0.463608 (Simulation time: 0 hr 7 min 48 sec) 
Heartbeat CPU 0 instructions: 230000001 cycles: 331008742 heartbeat IPC: 0.464203 cumulative IPC: 0.463654 (Simulation time: 0 hr 8 min 14 sec) 
Heartbeat CPU 0 instructions: 240000000 cycles: 352560613 heartbeat IPC: 0.463997 cumulative IPC: 0.463678 (Simulation time: 0 hr 8 min 39 sec) 
*** Reached end of trace for Core: 0 Repeating trace: /mnt/beegfs/pchatz06/selected_traces/557.xz_r.train.input2.region_3.w_0.1462_0.1839.trace.gz
Heartbeat CPU 0 instructions: 250000002 cycles: 374061428 heartbeat IPC: 0.465099 cumulative IPC: 0.463773 (Simulation time: 0 hr 9 min 5 sec) 
Finished CPU 0 instructions: 150000001 cycles: 323434238 cumulative IPC: 0.463773 (Simulation time: 0 hr 9 min 5 sec) 

CPU 0 Branch Prediction Accuracy: 96.3763% MPKI: 4.73735
Number of Branches: 19609986 Number of Mispredictions: 710602
Number of LOAD Instructions: 70275127
Number of LOAD Instructions (ROI): 70275127
Number of STORE Instructions: 36615057
Number of STORE Instructions (ROI): 36615057
Total Destination Memory Operands: 39727743
Total Destination Memory Operands (ROI): 39727743
Total Source Memory Operands: 70275127
Total Source Memory Operands (ROI): 70275127
Number of DEPENDED LOADS: 8012011
Number of DEPENDED LOADS (ROI): 8012011
Number of SQ_ADDED: 39727743
Number of SQ_ADDED (ROI): 39727743
Number of LQ_ADDED: 105462129
Number of LQ_ADDED (ROI): 105462129
Number of Instructions read from trace: 250000005

ChampSim completed all CPUs

Region of Interest Statistics

CPU 0 cumulative IPC: 0.463773 instructions: 150000001 cycles: 323434238
ITLB TOTAL     ACCESS:   25544752  HIT:   25544752  MISS:          0
ITLB LOAD      ACCESS:   25544752  HIT:   25544752  MISS:          0
ITLB RFO       ACCESS:          0  HIT:          0  MISS:          0
ITLB PREFETCH  ACCESS:          0  HIT:          0  MISS:          0
ITLB WRITEBACK ACCESS:          0  HIT:          0  MISS:          0
ITLB PREFETCH  REQUESTED:          0  ISSUED:          0  USEFUL:          0  USELESS:          0
ITLB TOTAL MSHR MERGED:          0
ITLB LOAD MSHR MERGED:          0
ITLB RFO MSHR MERGED:          0
ITLB PREFETCH MSHR MERGED:          0
ITLB WRITEBACK MSHR MERGED:          0
ITLB TOTAL ACCESSES:   25544752 HITS:   25544752 MISSES:          0
ITLB LOAD ACCESSES:   25544752 HITS:   25544752 MISSES:          0
ITLB RFO ACCESSES:          0 HITS:          0 MISSES:          0
ITLB PREFETCH ACCESSES:          0 HITS:          0 MISSES:          0
ITLB WRITEBACK ACCESSES:          0 HITS:          0 MISSES:          0
ITLB RQ ACCESS:  149999954
ITLB RQ TO_CACHE:   25544752
ITLB RQ MERGED:  124455202
ITLB RQ FORWARD:          0
ITLB WQ ACCESS:          0
ITLB WQ TO_CACHE:          0
ITLB WQ MERGED:          0
ITLB WQ FORWARD:          0
DTLB TOTAL     ACCESS:   41680791  HIT:   40703492  MISS:     977299
DTLB LOAD      ACCESS:   23324118  HIT:   22349997  MISS:     974121
DTLB RFO       ACCESS:   18356673  HIT:   18353495  MISS:       3178
DTLB PREFETCH  ACCESS:          0  HIT:          0  MISS:          0
DTLB WRITEBACK ACCESS:          0  HIT:          0  MISS:          0
DTLB PREFETCH  REQUESTED:          0  ISSUED:          0  USEFUL:          0  USELESS:          0
DTLB TOTAL MSHR MERGED:      30348
DTLB LOAD MSHR MERGED:       6366
DTLB RFO MSHR MERGED:      23982
DTLB PREFETCH MSHR MERGED:          0
DTLB WRITEBACK MSHR MERGED:          0
DTLB TOTAL ACCESSES:   41711139 HITS:   40703492 MISSES:    1007647
DTLB LOAD ACCESSES:   23330484 HITS:   22349997 MISSES:     980487
DTLB RFO ACCESSES:   18380655 HITS:   18353495 MISSES:      27160
DTLB PREFETCH ACCESSES:          0 HITS:          0 MISSES:          0
DTLB WRITEBACK ACCESSES:          0 HITS:          0 MISSES:          0
DTLB RQ ACCESS:   61119461
DTLB RQ TO_CACHE:   41711139
DTLB RQ MERGED:   19408322
DTLB RQ FORWARD:          0
DTLB WQ ACCESS:          0
DTLB WQ TO_CACHE:          0
DTLB WQ MERGED:          0
DTLB WQ FORWARD:          0
L1D TOTAL     ACCESS:   73414631  HIT:   70694982  MISS:    2719649
L1D LOAD      ACCESS:   25889588  HIT:   24559810  MISS:    1329778
L1D RFO       ACCESS:   23492786  HIT:   23455810  MISS:      36976
L1D PREFETCH  ACCESS:   24032257  HIT:   22679362  MISS:    1352895
L1D WRITEBACK ACCESS:          0  HIT:          0  MISS:          0
L1D PREFETCH  REQUESTED:   25897743  ISSUED:   25834799  USEFUL:     128773  USELESS:    1224133
L1D TOTAL MSHR MERGED:     112044
L1D LOAD MSHR MERGED:      12039
L1D RFO MSHR MERGED:      59259
L1D PREFETCH MSHR MERGED:      40746
L1D WRITEBACK MSHR MERGED:          0
L1D TOTAL ACCESSES:   73613486 HITS:   70781793 MISSES:    2831693
L1D LOAD ACCESSES:   25963009 HITS:   24625076 MISSES:    1337933
L1D RFO ACCESSES:   23550725 HITS:   23455810 MISSES:      94915
L1D PREFETCH ACCESSES:   24099752 HITS:   22700907 MISSES:    1398845
L1D WRITEBACK ACCESSES:          0 HITS:          0 MISSES:          0
L1D RQ ACCESS:   37283743
L1D RQ TO_CACHE:   25897743
L1D RQ MERGED:   11320734
L1D RQ FORWARD:          0
L1D WQ ACCESS:   23835721
L1D WQ TO_CACHE:   23550726
L1D WQ MERGED:     284995
L1D WQ FORWARD:      86811
L1I TOTAL     ACCESS:   33569855  HIT:   33569850  MISS:          5
L1I LOAD      ACCESS:   33569855  HIT:   33569850  MISS:          5
L1I RFO       ACCESS:          0  HIT:          0  MISS:          0
L1I PREFETCH  ACCESS:          0  HIT:          0  MISS:          0
L1I WRITEBACK ACCESS:          0  HIT:          0  MISS:          0
L1I PREFETCH  REQUESTED:          0  ISSUED:          0  USEFUL:          0  USELESS:          0
L1I TOTAL MSHR MERGED:          2
L1I LOAD MSHR MERGED:          2
L1I RFO MSHR MERGED:          0
L1I PREFETCH MSHR MERGED:          0
L1I WRITEBACK MSHR MERGED:          0
L1I TOTAL ACCESSES:   33569857 HITS:   33569850 MISSES:          7
L1I LOAD ACCESSES:   33569857 HITS:   33569850 MISSES:          7
L1I RFO ACCESSES:          0 HITS:          0 MISSES:          0
L1I PREFETCH ACCESSES:          0 HITS:          0 MISSES:          0
L1I WRITEBACK ACCESSES:          0 HITS:          0 MISSES:          0
L1I RQ ACCESS:  149999955
L1I RQ TO_CACHE:   33569857
L1I RQ MERGED:  116430098
L1I RQ FORWARD:          0
L1I WQ ACCESS:          0
L1I WQ TO_CACHE:          0
L1I WQ MERGED:          0
L1I WQ FORWARD:          0
L2C TOTAL     ACCESS:    3623049  HIT:    1501222  MISS:    2121827
L2C LOAD      ACCESS:    1325889  HIT:     289452  MISS:    1036437
L2C RFO       ACCESS:      35656  HIT:       2776  MISS:      32880
L2C PREFETCH  ACCESS:    1363857  HIT:     318647  MISS:    1045210
L2C WRITEBACK ACCESS:     897647  HIT:     890347  MISS:       7300
L2C PREFETCH  REQUESTED:       5894  ISSUED:       5894  USEFUL:      39580  USELESS:    1005656
L2C TOTAL MSHR MERGED:          6
L2C LOAD MSHR MERGED:          4
L2C RFO MSHR MERGED:          0
L2C PREFETCH MSHR MERGED:          2
L2C WRITEBACK MSHR MERGED:          0
L2C TOTAL ACCESSES:    3623110 HITS:    1501274 MISSES:    2121836
L2C LOAD ACCESSES:    1325899 HITS:     289462 MISSES:    1036437
L2C RFO ACCESSES:      35656 HITS:       2776 MISSES:      32880
L2C PREFETCH ACCESSES:    1363908 HITS:     318689 MISSES:    1045219
L2C WRITEBACK ACCESSES:     897647 HITS:     890347 MISSES:       7300
L2C RQ ACCESS:    1361555
L2C RQ TO_CACHE:    1361545
L2C RQ MERGED:          0
L2C RQ FORWARD:          0
L2C WQ ACCESS:     897647
L2C WQ TO_CACHE:     897647
L2C WQ MERGED:          0
L2C WQ FORWARD:         52
LLC TOTAL     ACCESS:    2797316  HIT:    1232592  MISS:    1564724
LLC LOAD      ACCESS:    1036433  HIT:     317559  MISS:     718874
LLC RFO       ACCESS:      32880  HIT:        800  MISS:      32080
LLC PREFETCH  ACCESS:    1045217  HIT:     326207  MISS:     719010
LLC WRITEBACK ACCESS:     682786  HIT:     588026  MISS:      94760
LLC PREFETCH  REQUESTED:          0  ISSUED:          0  USEFUL:       1150  USELESS:     717893
LLC TOTAL MSHR MERGED:          0
LLC LOAD MSHR MERGED:          0
LLC RFO MSHR MERGED:          0
LLC PREFETCH MSHR MERGED:          0
LLC WRITEBACK MSHR MERGED:          0
LLC TOTAL ACCESSES:    2797316 HITS:    1232592 MISSES:    1564724
LLC LOAD ACCESSES:    1036433 HITS:     317559 MISSES:     718874
LLC RFO ACCESSES:      32880 HITS:        800 MISSES:      32080
LLC PREFETCH ACCESSES:    1045217 HITS:     326207 MISSES:     719010
LLC WRITEBACK ACCESSES:     682786 HITS:     588026 MISSES:      94760
LLC 0 RQ ACCESS:    1069313
LLC 0 RQ TO_CACHE:    1069313
LLC 0 RQ MERGED:          0
LLC 0 RQ FORWARD:          0
LLC WQ ACCESS:     682786
LLC WQ TO_CACHE:     682786
LLC WQ MERGED:          0
LLC WQ FORWARD:          0
Major fault: 0 Minor fault: 11618
CPU 0 L1D next line prefetcher final stats
CPU 0 L2C PC-based stride prefetcher final stats
All Misses: 2625456
All Hits: 2035978
SD Algo Stats - Switches: 0 SRR-Repls: 1168736 BRR-Repls: 0

DRAM Statistics
 CHANNEL 0
 RQ ROW_BUFFER_HIT:      30400  ROW_BUFFER_MISS:    1439473
 DBUS_CONGESTED:    1250522
 WQ ROW_BUFFER_HIT:      37015  ROW_BUFFER_MISS:     456725  FULL:          0

 AVG_CONGESTED_CYCLE: 13
LOADS RETIRED: 42163229
INSTR RETIRED: 150000000
