
*** ChampSim Multicore Out-of-Order Simulator ***

Warmup Instructions: 100000000
Simulation Instructions: 150000000
Number of CPUs: 1
LLC sets: 2048
LLC ways: 16
Clean RRIP Policies: 3333323233333232 Dirty RRIP Policies: 3333323233333232 PSEL Width: 10 Track Set: 4294967295 PSEL Mask: 1 Demote Mask: 4044404440444044DS Algo: 0Window size: 0
Off-chip DRAM Size: 4096 MB Channels: 1 Width: 64-bit Data Rate: 1600 MT/s

CPU 0 runs /mnt/beegfs/pchatz06/selected_traces/557.xz_r.train.input1.region_10.w_0.0661_0.0769.trace.gz
NOT SORTED
TRACE STRING: /mnt/beegfs/pchatz06/selected_traces/557.xz_r.train.input1.region_10.w_0.0661_0.0769.trace.gz
SORTED
TRACE STRING: /mnt/beegfs/pchatz06/selected_traces/557.xz_r.train.input1.region_10.w_0.0661_0.0769.trace.gz
INITIAL
TRACE STRING: /mnt/beegfs/pchatz06/selected_traces/557.xz_r.train.input1.region_10.w_0.0661_0.0769.trace.gz

champsim_seed used: 214

CPU 0 L1D next line prefetcher
CPU 0 L2C IP-based stride prefetcher
Initialize DRRIP state
Assign rand_sets[0]: 454  LLC: 2048
rand_sets[0]: 454
Assign rand_sets[1]: 1662  LLC: 2048
rand_sets[1]: 1662
Assign rand_sets[2]: 1921  LLC: 2048
rand_sets[2]: 1921
Assign rand_sets[3]: 1131  LLC: 2048
rand_sets[3]: 1131
Assign rand_sets[4]: 331  LLC: 2048
rand_sets[4]: 331
Assign rand_sets[5]: 1531  LLC: 2048
rand_sets[5]: 1531
Assign rand_sets[6]: 482  LLC: 2048
rand_sets[6]: 482
Assign rand_sets[7]: 1275  LLC: 2048
rand_sets[7]: 1275
Assign rand_sets[8]: 1876  LLC: 2048
rand_sets[8]: 1876
Assign rand_sets[9]: 2038  LLC: 2048
rand_sets[9]: 2038
Assign rand_sets[10]: 701  LLC: 2048
rand_sets[10]: 701
Assign rand_sets[11]: 479  LLC: 2048
rand_sets[11]: 479
Assign rand_sets[12]: 892  LLC: 2048
rand_sets[12]: 892
Assign rand_sets[13]: 1820  LLC: 2048
rand_sets[13]: 1820
Assign rand_sets[14]: 1505  LLC: 2048
rand_sets[14]: 1505
Assign rand_sets[15]: 1159  LLC: 2048
rand_sets[15]: 1159
Assign rand_sets[16]: 513  LLC: 2048
rand_sets[16]: 513
Assign rand_sets[17]: 703  LLC: 2048
rand_sets[17]: 703
Assign rand_sets[18]: 561  LLC: 2048
rand_sets[18]: 561
Assign rand_sets[19]: 990  LLC: 2048
rand_sets[19]: 990
Assign rand_sets[20]: 342  LLC: 2048
rand_sets[20]: 342
Assign rand_sets[21]: 882  LLC: 2048
rand_sets[21]: 882
Assign rand_sets[22]: 15  LLC: 2048
rand_sets[22]: 15
Assign rand_sets[23]: 71  LLC: 2048
rand_sets[23]: 71
Assign rand_sets[24]: 1127  LLC: 2048
rand_sets[24]: 1127
Assign rand_sets[25]: 1382  LLC: 2048
rand_sets[25]: 1382
Assign rand_sets[26]: 647  LLC: 2048
rand_sets[26]: 647
Assign rand_sets[27]: 857  LLC: 2048
rand_sets[27]: 857
Assign rand_sets[28]: 1450  LLC: 2048
rand_sets[28]: 1450
Assign rand_sets[29]: 1160  LLC: 2048
rand_sets[29]: 1160
Assign rand_sets[30]: 1852  LLC: 2048
rand_sets[30]: 1852
Assign rand_sets[31]: 1881  LLC: 2048
rand_sets[31]: 1881
Assign rand_sets[32]: 1770  LLC: 2048
rand_sets[32]: 1770
Assign rand_sets[33]: 1622  LLC: 2048
rand_sets[33]: 1622
Assign rand_sets[34]: 275  LLC: 2048
rand_sets[34]: 275
Assign rand_sets[35]: 635  LLC: 2048
rand_sets[35]: 635
Assign rand_sets[36]: 466  LLC: 2048
rand_sets[36]: 466
Assign rand_sets[37]: 1413  LLC: 2048
rand_sets[37]: 1413
Assign rand_sets[38]: 417  LLC: 2048
rand_sets[38]: 417
Assign rand_sets[39]: 472  LLC: 2048
rand_sets[39]: 472
Assign rand_sets[40]: 1340  LLC: 2048
rand_sets[40]: 1340
Assign rand_sets[41]: 852  LLC: 2048
rand_sets[41]: 852
Assign rand_sets[42]: 1365  LLC: 2048
rand_sets[42]: 1365
Assign rand_sets[43]: 47  LLC: 2048
rand_sets[43]: 47
Assign rand_sets[44]: 823  LLC: 2048
rand_sets[44]: 823
Assign rand_sets[45]: 686  LLC: 2048
rand_sets[45]: 686
Assign rand_sets[46]: 1637  LLC: 2048
rand_sets[46]: 1637
Assign rand_sets[47]: 1115  LLC: 2048
rand_sets[47]: 1115
Assign rand_sets[48]: 986  LLC: 2048
rand_sets[48]: 986
Assign rand_sets[49]: 258  LLC: 2048
rand_sets[49]: 258
Assign rand_sets[50]: 633  LLC: 2048
rand_sets[50]: 633
Assign rand_sets[51]: 920  LLC: 2048
rand_sets[51]: 920
Assign rand_sets[52]: 204  LLC: 2048
rand_sets[52]: 204
Assign rand_sets[53]: 227  LLC: 2048
rand_sets[53]: 227
Assign rand_sets[54]: 1818  LLC: 2048
rand_sets[54]: 1818
Assign rand_sets[55]: 886  LLC: 2048
rand_sets[55]: 886
Assign rand_sets[56]: 1422  LLC: 2048
rand_sets[56]: 1422
Assign rand_sets[57]: 607  LLC: 2048
rand_sets[57]: 607
Assign rand_sets[58]: 217  LLC: 2048
rand_sets[58]: 217
Assign rand_sets[59]: 1945  LLC: 2048
rand_sets[59]: 1945
Assign rand_sets[60]: 143  LLC: 2048
rand_sets[60]: 143
Assign rand_sets[61]: 1311  LLC: 2048
rand_sets[61]: 1311
Assign rand_sets[62]: 319  LLC: 2048
rand_sets[62]: 319
Assign rand_sets[63]: 1846  LLC: 2048
rand_sets[63]: 1846
 CLEAN-RRIP-POLICY-1: 3-3-3-3-3-2-3-2- CLEAN-RRIP-POLICY-2: 3-3-3-3-3-2-3-2-
 DIRTY-RRIP-POLICY-1: 3-3-3-3-3-2-3-2- DIRTY-RRIP-POLICY-2: 3-3-3-3-3-2-3-2-
 PSEL width: 10
Heartbeat CPU 0 instructions: 10000003 cycles: 4061257 heartbeat IPC: 2.46229 cumulative IPC: 2.46229 (Simulation time: 0 hr 0 min 10 sec) 
Heartbeat CPU 0 instructions: 20000000 cycles: 8120905 heartbeat IPC: 2.46327 cumulative IPC: 2.46278 (Simulation time: 0 hr 0 min 21 sec) 
Heartbeat CPU 0 instructions: 30000001 cycles: 12177197 heartbeat IPC: 2.46531 cumulative IPC: 2.46362 (Simulation time: 0 hr 0 min 31 sec) 
Heartbeat CPU 0 instructions: 40000000 cycles: 16234562 heartbeat IPC: 2.46465 cumulative IPC: 2.46388 (Simulation time: 0 hr 0 min 42 sec) 
Heartbeat CPU 0 instructions: 50000000 cycles: 20296992 heartbeat IPC: 2.46158 cumulative IPC: 2.46342 (Simulation time: 0 hr 0 min 52 sec) 
Heartbeat CPU 0 instructions: 60000000 cycles: 24362540 heartbeat IPC: 2.45969 cumulative IPC: 2.4628 (Simulation time: 0 hr 1 min 2 sec) 
Heartbeat CPU 0 instructions: 70000000 cycles: 28406576 heartbeat IPC: 2.47278 cumulative IPC: 2.46422 (Simulation time: 0 hr 1 min 13 sec) 
Heartbeat CPU 0 instructions: 80000000 cycles: 32479084 heartbeat IPC: 2.45549 cumulative IPC: 2.46312 (Simulation time: 0 hr 1 min 23 sec) 
Heartbeat CPU 0 instructions: 90000001 cycles: 36526499 heartbeat IPC: 2.47071 cumulative IPC: 2.46396 (Simulation time: 0 hr 1 min 34 sec) 
Heartbeat CPU 0 instructions: 100000000 cycles: 40608269 heartbeat IPC: 2.44992 cumulative IPC: 2.46255 (Simulation time: 0 hr 1 min 44 sec) 

Warmup complete CPU 0 instructions: 100000001 cycles: 40608270 (Simulation time: 0 hr 1 min 44 sec) 

Heartbeat CPU 0 instructions: 110000002 cycles: 48642379 heartbeat IPC: 1.24469 cumulative IPC: 1.24469 (Simulation time: 0 hr 2 min 0 sec) 
Heartbeat CPU 0 instructions: 120000000 cycles: 56807108 heartbeat IPC: 1.22478 cumulative IPC: 1.23466 (Simulation time: 0 hr 2 min 17 sec) 
Heartbeat CPU 0 instructions: 130000001 cycles: 64865565 heartbeat IPC: 1.24093 cumulative IPC: 1.23674 (Simulation time: 0 hr 2 min 33 sec) 
Heartbeat CPU 0 instructions: 140000000 cycles: 73024068 heartbeat IPC: 1.22571 cumulative IPC: 1.23397 (Simulation time: 0 hr 2 min 49 sec) 
Heartbeat CPU 0 instructions: 150000001 cycles: 81165101 heartbeat IPC: 1.22835 cumulative IPC: 1.23284 (Simulation time: 0 hr 3 min 5 sec) 
Heartbeat CPU 0 instructions: 160000000 cycles: 89531836 heartbeat IPC: 1.19521 cumulative IPC: 1.2264 (Simulation time: 0 hr 3 min 22 sec) 
Heartbeat CPU 0 instructions: 170000001 cycles: 97731638 heartbeat IPC: 1.21954 cumulative IPC: 1.22542 (Simulation time: 0 hr 3 min 38 sec) 
Heartbeat CPU 0 instructions: 180000000 cycles: 106105507 heartbeat IPC: 1.19419 cumulative IPC: 1.22143 (Simulation time: 0 hr 3 min 54 sec) 
Heartbeat CPU 0 instructions: 190000000 cycles: 114209481 heartbeat IPC: 1.23396 cumulative IPC: 1.22281 (Simulation time: 0 hr 4 min 11 sec) 
Heartbeat CPU 0 instructions: 200000000 cycles: 122624284 heartbeat IPC: 1.18838 cumulative IPC: 1.21927 (Simulation time: 0 hr 4 min 27 sec) 
Heartbeat CPU 0 instructions: 210000002 cycles: 130774514 heartbeat IPC: 1.22696 cumulative IPC: 1.21997 (Simulation time: 0 hr 4 min 43 sec) 
Heartbeat CPU 0 instructions: 220000000 cycles: 138903474 heartbeat IPC: 1.23017 cumulative IPC: 1.22081 (Simulation time: 0 hr 5 min 0 sec) 
Heartbeat CPU 0 instructions: 230000002 cycles: 146908965 heartbeat IPC: 1.24914 cumulative IPC: 1.22295 (Simulation time: 0 hr 5 min 16 sec) 
Heartbeat CPU 0 instructions: 240000000 cycles: 155085124 heartbeat IPC: 1.22307 cumulative IPC: 1.22295 (Simulation time: 0 hr 5 min 32 sec) 
*** Reached end of trace for Core: 0 Repeating trace: /mnt/beegfs/pchatz06/selected_traces/557.xz_r.train.input1.region_10.w_0.0661_0.0769.trace.gz
Heartbeat CPU 0 instructions: 250000000 cycles: 163062321 heartbeat IPC: 1.25357 cumulative IPC: 1.22495 (Simulation time: 0 hr 5 min 48 sec) 
Finished CPU 0 instructions: 150000003 cycles: 122454053 cumulative IPC: 1.22495 (Simulation time: 0 hr 5 min 48 sec) 

CPU 0 Branch Prediction Accuracy: 96.467% MPKI: 5.1049
Number of Branches: 21674012 Number of Mispredictions: 765735
Number of LOAD Instructions: 56484626
Number of LOAD Instructions (ROI): 56484626
Number of STORE Instructions: 10523398
Number of STORE Instructions (ROI): 10523398
Total Destination Memory Operands: 11132181
Total Destination Memory Operands (ROI): 11132181
Total Source Memory Operands: 56484626
Total Source Memory Operands (ROI): 56484626
Number of DEPENDED LOADS: 2481504
Number of DEPENDED LOADS (ROI): 2481504
Number of SQ_ADDED: 11132181
Number of SQ_ADDED (ROI): 11132181
Number of LQ_ADDED: 61932947
Number of LQ_ADDED (ROI): 61932947
Number of Instructions read from trace: 250000027

ChampSim completed all CPUs

Region of Interest Statistics

CPU 0 cumulative IPC: 1.22495 instructions: 150000003 cycles: 122454053
ITLB TOTAL     ACCESS:   22682314  HIT:   22682314  MISS:          0
ITLB LOAD      ACCESS:   22682314  HIT:   22682314  MISS:          0
ITLB RFO       ACCESS:          0  HIT:          0  MISS:          0
ITLB PREFETCH  ACCESS:          0  HIT:          0  MISS:          0
ITLB WRITEBACK ACCESS:          0  HIT:          0  MISS:          0
ITLB PREFETCH  REQUESTED:          0  ISSUED:          0  USEFUL:          0  USELESS:          0
ITLB TOTAL MSHR MERGED:          0
ITLB LOAD MSHR MERGED:          0
ITLB RFO MSHR MERGED:          0
ITLB PREFETCH MSHR MERGED:          0
ITLB WRITEBACK MSHR MERGED:          0
ITLB TOTAL ACCESSES:   22682314 HITS:   22682314 MISSES:          0
ITLB LOAD ACCESSES:   22682314 HITS:   22682314 MISSES:          0
ITLB RFO ACCESSES:          0 HITS:          0 MISSES:          0
ITLB PREFETCH ACCESSES:          0 HITS:          0 MISSES:          0
ITLB WRITEBACK ACCESSES:          0 HITS:          0 MISSES:          0
ITLB RQ ACCESS:  149999964
ITLB RQ TO_CACHE:   22682314
ITLB RQ MERGED:  127317650
ITLB RQ FORWARD:          0
ITLB WQ ACCESS:          0
ITLB WQ TO_CACHE:          0
ITLB WQ MERGED:          0
ITLB WQ FORWARD:          0
DTLB TOTAL     ACCESS:   26683536  HIT:   26471888  MISS:     211648
DTLB LOAD      ACCESS:   21539440  HIT:   21329855  MISS:     209585
DTLB RFO       ACCESS:    5144096  HIT:    5142033  MISS:       2063
DTLB PREFETCH  ACCESS:          0  HIT:          0  MISS:          0
DTLB WRITEBACK ACCESS:          0  HIT:          0  MISS:          0
DTLB PREFETCH  REQUESTED:          0  ISSUED:          0  USEFUL:          0  USELESS:          0
DTLB TOTAL MSHR MERGED:      27005
DTLB LOAD MSHR MERGED:      23920
DTLB RFO MSHR MERGED:       3085
DTLB PREFETCH MSHR MERGED:          0
DTLB WRITEBACK MSHR MERGED:          0
DTLB TOTAL ACCESSES:   26710541 HITS:   26471888 MISSES:     238653
DTLB LOAD ACCESSES:   21563360 HITS:   21329855 MISSES:     233505
DTLB RFO ACCESSES:    5147181 HITS:    5142033 MISSES:       5148
DTLB PREFETCH ACCESSES:          0 HITS:          0 MISSES:          0
DTLB WRITEBACK ACCESSES:          0 HITS:          0 MISSES:          0
DTLB RQ ACCESS:   38626921
DTLB RQ TO_CACHE:   26710541
DTLB RQ MERGED:   11916380
DTLB RQ FORWARD:          0
DTLB WQ ACCESS:          0
DTLB WQ TO_CACHE:          0
DTLB WQ MERGED:          0
DTLB WQ FORWARD:          0
L1D TOTAL     ACCESS:   44476597  HIT:   43295356  MISS:    1181241
L1D LOAD      ACCESS:   21890344  HIT:   21330966  MISS:     559378
L1D RFO       ACCESS:    6591837  HIT:    6566105  MISS:      25732
L1D PREFETCH  ACCESS:   15994416  HIT:   15398285  MISS:     596131
L1D WRITEBACK ACCESS:          0  HIT:          0  MISS:          0
L1D PREFETCH  REQUESTED:   21922494  ISSUED:   21775944  USEFUL:     149350  USELESS:     446772
L1D TOTAL MSHR MERGED:      86065
L1D LOAD MSHR MERGED:      34449
L1D RFO MSHR MERGED:      19627
L1D PREFETCH MSHR MERGED:      31989
L1D WRITEBACK MSHR MERGED:          0
L1D TOTAL ACCESSES:   44582464 HITS:   43315156 MISSES:    1267308
L1D LOAD ACCESSES:   21922497 HITS:   21330969 MISSES:     591528
L1D RFO ACCESSES:    6611214 HITS:    6566105 MISSES:      45109
L1D PREFETCH ACCESSES:   16048753 HITS:   15418082 MISSES:     630671
L1D WRITEBACK ACCESSES:          0 HITS:          0 MISSES:          0
L1D RQ ACCESS:   31967646
L1D RQ TO_CACHE:   21922494
L1D RQ MERGED:   10045149
L1D RQ FORWARD:          0
L1D WQ ACCESS:    6659275
L1D WQ TO_CACHE:    6611214
L1D WQ MERGED:      48061
L1D WQ FORWARD:      19800
L1I TOTAL     ACCESS:   30959345  HIT:   30959339  MISS:          6
L1I LOAD      ACCESS:   30959345  HIT:   30959339  MISS:          6
L1I RFO       ACCESS:          0  HIT:          0  MISS:          0
L1I PREFETCH  ACCESS:          0  HIT:          0  MISS:          0
L1I WRITEBACK ACCESS:          0  HIT:          0  MISS:          0
L1I PREFETCH  REQUESTED:          0  ISSUED:          0  USEFUL:          0  USELESS:          0
L1I TOTAL MSHR MERGED:         36
L1I LOAD MSHR MERGED:         36
L1I RFO MSHR MERGED:          0
L1I PREFETCH MSHR MERGED:          0
L1I WRITEBACK MSHR MERGED:          0
L1I TOTAL ACCESSES:   30959381 HITS:   30959339 MISSES:         42
L1I LOAD ACCESSES:   30959381 HITS:   30959339 MISSES:         42
L1I RFO ACCESSES:          0 HITS:          0 MISSES:          0
L1I PREFETCH ACCESSES:          0 HITS:          0 MISSES:          0
L1I WRITEBACK ACCESSES:          0 HITS:          0 MISSES:          0
L1I RQ ACCESS:  149999968
L1I RQ TO_CACHE:   30959381
L1I RQ MERGED:  119040587
L1I RQ FORWARD:          0
L1I WQ ACCESS:          0
L1I WQ TO_CACHE:          0
L1I WQ MERGED:          0
L1I WQ FORWARD:          0
L2C TOTAL     ACCESS:    1768882  HIT:    1515933  MISS:     252949
L2C LOAD      ACCESS:     557008  HIT:     454022  MISS:     102986
L2C RFO       ACCESS:      25482  HIT:       1095  MISS:      24387
L2C PREFETCH  ACCESS:     732856  HIT:     607570  MISS:     125286
L2C WRITEBACK ACCESS:     453536  HIT:     453246  MISS:        290
L2C PREFETCH  REQUESTED:     179413  ISSUED:     179413  USEFUL:      14999  USELESS:     110337
L2C TOTAL MSHR MERGED:       1026
L2C LOAD MSHR MERGED:        348
L2C RFO MSHR MERGED:          0
L2C PREFETCH MSHR MERGED:        678
L2C WRITEBACK MSHR MERGED:          0
L2C TOTAL ACCESSES:    1770225 HITS:    1516011 MISSES:     254214
L2C LOAD ACCESSES:     557085 HITS:     454098 MISSES:     102987
L2C RFO ACCESSES:      25482 HITS:       1095 MISSES:      24387
L2C PREFETCH ACCESSES:     734122 HITS:     607572 MISSES:     126550
L2C WRITEBACK ACCESSES:     453536 HITS:     453246 MISSES:        290
L2C RQ ACCESS:     582567
L2C RQ TO_CACHE:     582491
L2C RQ MERGED:          0
L2C RQ FORWARD:          0
L2C WQ ACCESS:     453536
L2C WQ TO_CACHE:     453536
L2C WQ MERGED:          0
L2C WQ FORWARD:         78
LLC TOTAL     ACCESS:     359247  HIT:     281731  MISS:      77516
LLC LOAD      ACCESS:     102634  HIT:      80200  MISS:      22434
LLC RFO       ACCESS:      24387  HIT:      19450  MISS:       4937
LLC PREFETCH  ACCESS:     125825  HIT:      80481  MISS:      45344
LLC WRITEBACK ACCESS:     106401  HIT:     101600  MISS:       4801
LLC PREFETCH  REQUESTED:          0  ISSUED:          0  USEFUL:        935  USELESS:      43695
LLC TOTAL MSHR MERGED:         36
LLC LOAD MSHR MERGED:          9
LLC RFO MSHR MERGED:          0
LLC PREFETCH MSHR MERGED:         27
LLC WRITEBACK MSHR MERGED:          0
LLC TOTAL ACCESSES:     359290 HITS:     281737 MISSES:      77553
LLC LOAD ACCESSES:     102639 HITS:      80204 MISSES:      22435
LLC RFO ACCESSES:      24387 HITS:      19450 MISSES:       4937
LLC PREFETCH ACCESSES:     125863 HITS:      80483 MISSES:      45380
LLC WRITEBACK ACCESSES:     106401 HITS:     101600 MISSES:       4801
LLC 0 RQ ACCESS:     127026
LLC 0 RQ TO_CACHE:     127022
LLC 0 RQ MERGED:          0
LLC 0 RQ FORWARD:          0
LLC WQ ACCESS:     106401
LLC WQ TO_CACHE:     106401
LLC WQ MERGED:          0
LLC WQ FORWARD:          6
Major fault: 0 Minor fault: 4404
CPU 0 L1D next line prefetcher final stats
CPU 0 L2C PC-based stride prefetcher final stats
All Misses: 159220
All Hits: 444170
SD Algo Stats - Switches: 0 SRR-Repls: 46168 BRR-Repls: 0

DRAM Statistics
 CHANNEL 0
 RQ ROW_BUFFER_HIT:       6063  ROW_BUFFER_MISS:      66554
 DBUS_CONGESTED:      48944
 WQ ROW_BUFFER_HIT:       1750  ROW_BUFFER_MISS:      21399  FULL:          0

 AVG_CONGESTED_CYCLE: 13
LOADS RETIRED: 33885752
INSTR RETIRED: 150000000
