
*** ChampSim Multicore Out-of-Order Simulator ***

Warmup Instructions: 100000000
Simulation Instructions: 500000000
Number of CPUs: 1
LLC sets: 2048
LLC ways: 16
Clean RRIP Policies: 2003030120030301 Dirty RRIP Policies: 1003130110031301 PSEL Width: 10 Track Set: 4294967295 PSEL Mask: 1 Demote Mask: 2102204021022040DS Algo: 0Window size: 0
Off-chip DRAM Size: 4096 MB Channels: 1 Width: 64-bit Data Rate: 1600 MT/s

CPU 0 runs /mnt/beegfs/iconst01/spec2017/Lbm.trace.gz
NOT SORTED
TRACE STRING: /mnt/beegfs/iconst01/spec2017/Lbm.trace.gz
SORTED
TRACE STRING: /mnt/beegfs/iconst01/spec2017/Lbm.trace.gz
INITIAL
TRACE STRING: /mnt/beegfs/iconst01/spec2017/Lbm.trace.gz

champsim_seed used: 283

CPU 0 L1D next line prefetcher
CPU 0 L2C IP-based stride prefetcher
Initialize DRRIP state
Assign rand_sets[0]: 454  LLC: 2048
rand_sets[0]: 454
Assign rand_sets[1]: 1662  LLC: 2048
rand_sets[1]: 1662
Assign rand_sets[2]: 1921  LLC: 2048
rand_sets[2]: 1921
Assign rand_sets[3]: 1131  LLC: 2048
rand_sets[3]: 1131
Assign rand_sets[4]: 331  LLC: 2048
rand_sets[4]: 331
Assign rand_sets[5]: 1531  LLC: 2048
rand_sets[5]: 1531
Assign rand_sets[6]: 482  LLC: 2048
rand_sets[6]: 482
Assign rand_sets[7]: 1275  LLC: 2048
rand_sets[7]: 1275
Assign rand_sets[8]: 1876  LLC: 2048
rand_sets[8]: 1876
Assign rand_sets[9]: 2038  LLC: 2048
rand_sets[9]: 2038
Assign rand_sets[10]: 701  LLC: 2048
rand_sets[10]: 701
Assign rand_sets[11]: 479  LLC: 2048
rand_sets[11]: 479
Assign rand_sets[12]: 892  LLC: 2048
rand_sets[12]: 892
Assign rand_sets[13]: 1820  LLC: 2048
rand_sets[13]: 1820
Assign rand_sets[14]: 1505  LLC: 2048
rand_sets[14]: 1505
Assign rand_sets[15]: 1159  LLC: 2048
rand_sets[15]: 1159
Assign rand_sets[16]: 513  LLC: 2048
rand_sets[16]: 513
Assign rand_sets[17]: 703  LLC: 2048
rand_sets[17]: 703
Assign rand_sets[18]: 561  LLC: 2048
rand_sets[18]: 561
Assign rand_sets[19]: 990  LLC: 2048
rand_sets[19]: 990
Assign rand_sets[20]: 342  LLC: 2048
rand_sets[20]: 342
Assign rand_sets[21]: 882  LLC: 2048
rand_sets[21]: 882
Assign rand_sets[22]: 15  LLC: 2048
rand_sets[22]: 15
Assign rand_sets[23]: 71  LLC: 2048
rand_sets[23]: 71
Assign rand_sets[24]: 1127  LLC: 2048
rand_sets[24]: 1127
Assign rand_sets[25]: 1382  LLC: 2048
rand_sets[25]: 1382
Assign rand_sets[26]: 647  LLC: 2048
rand_sets[26]: 647
Assign rand_sets[27]: 857  LLC: 2048
rand_sets[27]: 857
Assign rand_sets[28]: 1450  LLC: 2048
rand_sets[28]: 1450
Assign rand_sets[29]: 1160  LLC: 2048
rand_sets[29]: 1160
Assign rand_sets[30]: 1852  LLC: 2048
rand_sets[30]: 1852
Assign rand_sets[31]: 1881  LLC: 2048
rand_sets[31]: 1881
Assign rand_sets[32]: 1770  LLC: 2048
rand_sets[32]: 1770
Assign rand_sets[33]: 1622  LLC: 2048
rand_sets[33]: 1622
Assign rand_sets[34]: 275  LLC: 2048
rand_sets[34]: 275
Assign rand_sets[35]: 635  LLC: 2048
rand_sets[35]: 635
Assign rand_sets[36]: 466  LLC: 2048
rand_sets[36]: 466
Assign rand_sets[37]: 1413  LLC: 2048
rand_sets[37]: 1413
Assign rand_sets[38]: 417  LLC: 2048
rand_sets[38]: 417
Assign rand_sets[39]: 472  LLC: 2048
rand_sets[39]: 472
Assign rand_sets[40]: 1340  LLC: 2048
rand_sets[40]: 1340
Assign rand_sets[41]: 852  LLC: 2048
rand_sets[41]: 852
Assign rand_sets[42]: 1365  LLC: 2048
rand_sets[42]: 1365
Assign rand_sets[43]: 47  LLC: 2048
rand_sets[43]: 47
Assign rand_sets[44]: 823  LLC: 2048
rand_sets[44]: 823
Assign rand_sets[45]: 686  LLC: 2048
rand_sets[45]: 686
Assign rand_sets[46]: 1637  LLC: 2048
rand_sets[46]: 1637
Assign rand_sets[47]: 1115  LLC: 2048
rand_sets[47]: 1115
Assign rand_sets[48]: 986  LLC: 2048
rand_sets[48]: 986
Assign rand_sets[49]: 258  LLC: 2048
rand_sets[49]: 258
Assign rand_sets[50]: 633  LLC: 2048
rand_sets[50]: 633
Assign rand_sets[51]: 920  LLC: 2048
rand_sets[51]: 920
Assign rand_sets[52]: 204  LLC: 2048
rand_sets[52]: 204
Assign rand_sets[53]: 227  LLC: 2048
rand_sets[53]: 227
Assign rand_sets[54]: 1818  LLC: 2048
rand_sets[54]: 1818
Assign rand_sets[55]: 886  LLC: 2048
rand_sets[55]: 886
Assign rand_sets[56]: 1422  LLC: 2048
rand_sets[56]: 1422
Assign rand_sets[57]: 607  LLC: 2048
rand_sets[57]: 607
Assign rand_sets[58]: 217  LLC: 2048
rand_sets[58]: 217
Assign rand_sets[59]: 1945  LLC: 2048
rand_sets[59]: 1945
Assign rand_sets[60]: 143  LLC: 2048
rand_sets[60]: 143
Assign rand_sets[61]: 1311  LLC: 2048
rand_sets[61]: 1311
Assign rand_sets[62]: 319  LLC: 2048
rand_sets[62]: 319
Assign rand_sets[63]: 1846  LLC: 2048
rand_sets[63]: 1846
 CLEAN-RRIP-POLICY-1: 2-0-0-3-0-3-0-1- CLEAN-RRIP-POLICY-2: 2-0-0-3-0-3-0-1-
 DIRTY-RRIP-POLICY-1: 1-0-0-3-1-3-0-1- DIRTY-RRIP-POLICY-2: 1-0-0-3-1-3-0-1-
 PSEL width: 10
Heartbeat CPU 0 instructions: 10000000 cycles: 4321562 heartbeat IPC: 2.31398 cumulative IPC: 2.31398 (Simulation time: 0 hr 0 min 18 sec) 
Heartbeat CPU 0 instructions: 20000000 cycles: 8643662 heartbeat IPC: 2.31369 cumulative IPC: 2.31383 (Simulation time: 0 hr 0 min 36 sec) 
Heartbeat CPU 0 instructions: 30000000 cycles: 12965507 heartbeat IPC: 2.31383 cumulative IPC: 2.31383 (Simulation time: 0 hr 0 min 55 sec) 
Heartbeat CPU 0 instructions: 40000000 cycles: 17291325 heartbeat IPC: 2.3117 cumulative IPC: 2.3133 (Simulation time: 0 hr 1 min 13 sec) 
Heartbeat CPU 0 instructions: 50000000 cycles: 21613252 heartbeat IPC: 2.31378 cumulative IPC: 2.3134 (Simulation time: 0 hr 1 min 31 sec) 
Heartbeat CPU 0 instructions: 60000000 cycles: 25935212 heartbeat IPC: 2.31377 cumulative IPC: 2.31346 (Simulation time: 0 hr 1 min 50 sec) 
Heartbeat CPU 0 instructions: 70000000 cycles: 30256811 heartbeat IPC: 2.31396 cumulative IPC: 2.31353 (Simulation time: 0 hr 2 min 8 sec) 
Heartbeat CPU 0 instructions: 80000000 cycles: 34583084 heartbeat IPC: 2.31146 cumulative IPC: 2.31327 (Simulation time: 0 hr 2 min 27 sec) 
Heartbeat CPU 0 instructions: 90000003 cycles: 38905204 heartbeat IPC: 2.31368 cumulative IPC: 2.31332 (Simulation time: 0 hr 2 min 45 sec) 
Heartbeat CPU 0 instructions: 100000000 cycles: 43226785 heartbeat IPC: 2.31397 cumulative IPC: 2.31338 (Simulation time: 0 hr 3 min 4 sec) 

Warmup complete CPU 0 instructions: 100000001 cycles: 43226786 (Simulation time: 0 hr 3 min 4 sec) 

Heartbeat CPU 0 instructions: 110000000 cycles: 57955610 heartbeat IPC: 0.678941 cumulative IPC: 0.678941 (Simulation time: 0 hr 3 min 31 sec) 
Heartbeat CPU 0 instructions: 120000000 cycles: 72792592 heartbeat IPC: 0.673992 cumulative IPC: 0.676457 (Simulation time: 0 hr 3 min 57 sec) 
Heartbeat CPU 0 instructions: 130000000 cycles: 87510203 heartbeat IPC: 0.679458 cumulative IPC: 0.677454 (Simulation time: 0 hr 4 min 24 sec) 
Heartbeat CPU 0 instructions: 140000000 cycles: 102177776 heartbeat IPC: 0.681776 cumulative IPC: 0.67853 (Simulation time: 0 hr 4 min 51 sec) 
Heartbeat CPU 0 instructions: 150000003 cycles: 116082632 heartbeat IPC: 0.719173 cumulative IPC: 0.686287 (Simulation time: 0 hr 5 min 18 sec) 
Heartbeat CPU 0 instructions: 160000000 cycles: 130062421 heartbeat IPC: 0.715318 cumulative IPC: 0.690961 (Simulation time: 0 hr 5 min 44 sec) 
Heartbeat CPU 0 instructions: 170000002 cycles: 144820845 heartbeat IPC: 0.677579 cumulative IPC: 0.689017 (Simulation time: 0 hr 6 min 11 sec) 
Heartbeat CPU 0 instructions: 180000000 cycles: 159249005 heartbeat IPC: 0.693089 cumulative IPC: 0.689523 (Simulation time: 0 hr 6 min 38 sec) 
Heartbeat CPU 0 instructions: 190000003 cycles: 176969968 heartbeat IPC: 0.564304 cumulative IPC: 0.672931 (Simulation time: 0 hr 7 min 8 sec) 
Heartbeat CPU 0 instructions: 200000000 cycles: 197901575 heartbeat IPC: 0.477746 cumulative IPC: 0.646518 (Simulation time: 0 hr 7 min 41 sec) 
Heartbeat CPU 0 instructions: 210000001 cycles: 212284408 heartbeat IPC: 0.695273 cumulative IPC: 0.650666 (Simulation time: 0 hr 8 min 7 sec) 
Heartbeat CPU 0 instructions: 220000000 cycles: 226711467 heartbeat IPC: 0.693142 cumulative IPC: 0.654006 (Simulation time: 0 hr 8 min 34 sec) 
Heartbeat CPU 0 instructions: 230000001 cycles: 241481829 heartbeat IPC: 0.677032 cumulative IPC: 0.655721 (Simulation time: 0 hr 9 min 1 sec) 
Heartbeat CPU 0 instructions: 240000000 cycles: 256035172 heartbeat IPC: 0.687127 cumulative IPC: 0.657869 (Simulation time: 0 hr 9 min 28 sec) 
Heartbeat CPU 0 instructions: 250000000 cycles: 271003504 heartbeat IPC: 0.668077 cumulative IPC: 0.65854 (Simulation time: 0 hr 9 min 55 sec) 
Heartbeat CPU 0 instructions: 260000000 cycles: 286124437 heartbeat IPC: 0.661335 cumulative IPC: 0.658714 (Simulation time: 0 hr 10 min 22 sec) 
Heartbeat CPU 0 instructions: 270000002 cycles: 301660428 heartbeat IPC: 0.643667 cumulative IPC: 0.657809 (Simulation time: 0 hr 10 min 50 sec) 
Heartbeat CPU 0 instructions: 280000000 cycles: 317065651 heartbeat IPC: 0.64913 cumulative IPC: 0.657321 (Simulation time: 0 hr 11 min 18 sec) 
Heartbeat CPU 0 instructions: 290000003 cycles: 333152114 heartbeat IPC: 0.621641 cumulative IPC: 0.655341 (Simulation time: 0 hr 11 min 46 sec) 
Heartbeat CPU 0 instructions: 300000000 cycles: 348544090 heartbeat IPC: 0.649689 cumulative IPC: 0.655056 (Simulation time: 0 hr 12 min 14 sec) 
Heartbeat CPU 0 instructions: 310000000 cycles: 365051343 heartbeat IPC: 0.605794 cumulative IPC: 0.652529 (Simulation time: 0 hr 12 min 42 sec) 
Heartbeat CPU 0 instructions: 320000000 cycles: 381321214 heartbeat IPC: 0.614633 cumulative IPC: 0.650706 (Simulation time: 0 hr 13 min 10 sec) 
Heartbeat CPU 0 instructions: 330000002 cycles: 396814634 heartbeat IPC: 0.645435 cumulative IPC: 0.650475 (Simulation time: 0 hr 13 min 37 sec) 
Heartbeat CPU 0 instructions: 340000000 cycles: 413186796 heartbeat IPC: 0.610793 cumulative IPC: 0.648719 (Simulation time: 0 hr 14 min 4 sec) 
Heartbeat CPU 0 instructions: 350000001 cycles: 428684004 heartbeat IPC: 0.645278 cumulative IPC: 0.64858 (Simulation time: 0 hr 14 min 31 sec) 
Heartbeat CPU 0 instructions: 360000000 cycles: 444576141 heartbeat IPC: 0.629242 cumulative IPC: 0.647815 (Simulation time: 0 hr 14 min 59 sec) 
Heartbeat CPU 0 instructions: 370000000 cycles: 459861347 heartbeat IPC: 0.654227 cumulative IPC: 0.64805 (Simulation time: 0 hr 15 min 26 sec) 
Heartbeat CPU 0 instructions: 380000000 cycles: 475311437 heartbeat IPC: 0.647245 cumulative IPC: 0.648021 (Simulation time: 0 hr 15 min 53 sec) 
Heartbeat CPU 0 instructions: 390000000 cycles: 490092778 heartbeat IPC: 0.676529 cumulative IPC: 0.648964 (Simulation time: 0 hr 16 min 19 sec) 
Heartbeat CPU 0 instructions: 400000000 cycles: 505004028 heartbeat IPC: 0.670635 cumulative IPC: 0.649664 (Simulation time: 0 hr 16 min 45 sec) 
Heartbeat CPU 0 instructions: 410000000 cycles: 519743665 heartbeat IPC: 0.678443 cumulative IPC: 0.650554 (Simulation time: 0 hr 17 min 11 sec) 
Heartbeat CPU 0 instructions: 420000000 cycles: 534255953 heartbeat IPC: 0.689071 cumulative IPC: 0.651692 (Simulation time: 0 hr 17 min 37 sec) 
Heartbeat CPU 0 instructions: 430000002 cycles: 548514820 heartbeat IPC: 0.701318 cumulative IPC: 0.653093 (Simulation time: 0 hr 18 min 2 sec) 
Heartbeat CPU 0 instructions: 440000000 cycles: 562696590 heartbeat IPC: 0.70513 cumulative IPC: 0.654513 (Simulation time: 0 hr 18 min 28 sec) 
Heartbeat CPU 0 instructions: 450000000 cycles: 577296965 heartbeat IPC: 0.684914 cumulative IPC: 0.655345 (Simulation time: 0 hr 18 min 53 sec) 
Heartbeat CPU 0 instructions: 460000000 cycles: 592367171 heartbeat IPC: 0.663561 cumulative IPC: 0.65557 (Simulation time: 0 hr 19 min 19 sec) 
Heartbeat CPU 0 instructions: 470000000 cycles: 606955860 heartbeat IPC: 0.685463 cumulative IPC: 0.656344 (Simulation time: 0 hr 19 min 45 sec) 
Heartbeat CPU 0 instructions: 480000000 cycles: 621295019 heartbeat IPC: 0.697391 cumulative IPC: 0.657362 (Simulation time: 0 hr 20 min 10 sec) 
Heartbeat CPU 0 instructions: 490000001 cycles: 636184823 heartbeat IPC: 0.671601 cumulative IPC: 0.657719 (Simulation time: 0 hr 20 min 36 sec) 
Heartbeat CPU 0 instructions: 500000000 cycles: 650651224 heartbeat IPC: 0.691257 cumulative IPC: 0.658518 (Simulation time: 0 hr 21 min 2 sec) 
Heartbeat CPU 0 instructions: 510000002 cycles: 665017207 heartbeat IPC: 0.696089 cumulative IPC: 0.659386 (Simulation time: 0 hr 21 min 27 sec) 
Heartbeat CPU 0 instructions: 520000000 cycles: 679215554 heartbeat IPC: 0.704307 cumulative IPC: 0.660389 (Simulation time: 0 hr 21 min 52 sec) 
Heartbeat CPU 0 instructions: 530000001 cycles: 693722164 heartbeat IPC: 0.689341 cumulative IPC: 0.661035 (Simulation time: 0 hr 22 min 18 sec) 
Heartbeat CPU 0 instructions: 540000000 cycles: 708229509 heartbeat IPC: 0.689306 cumulative IPC: 0.661651 (Simulation time: 0 hr 22 min 43 sec) 
Heartbeat CPU 0 instructions: 550000003 cycles: 722562482 heartbeat IPC: 0.697692 cumulative IPC: 0.662412 (Simulation time: 0 hr 23 min 9 sec) 
Heartbeat CPU 0 instructions: 560000000 cycles: 737500963 heartbeat IPC: 0.669412 cumulative IPC: 0.662562 (Simulation time: 0 hr 23 min 35 sec) 
Heartbeat CPU 0 instructions: 570000001 cycles: 752089779 heartbeat IPC: 0.685457 cumulative IPC: 0.663034 (Simulation time: 0 hr 24 min 0 sec) 
Heartbeat CPU 0 instructions: 580000000 cycles: 765929372 heartbeat IPC: 0.722565 cumulative IPC: 0.664174 (Simulation time: 0 hr 24 min 25 sec) 
Heartbeat CPU 0 instructions: 590000003 cycles: 779091012 heartbeat IPC: 0.759784 cumulative IPC: 0.665884 (Simulation time: 0 hr 24 min 50 sec) 
Heartbeat CPU 0 instructions: 600000000 cycles: 793459208 heartbeat IPC: 0.695981 cumulative IPC: 0.66646 (Simulation time: 0 hr 25 min 15 sec) 
Finished CPU 0 instructions: 500000000 cycles: 750232430 cumulative IPC: 0.66646 (Simulation time: 0 hr 25 min 15 sec) 

CPU 0 Branch Prediction Accuracy: 99.5915% MPKI: 0.037126
Number of Branches: 4544106 Number of Mispredictions: 18563
Number of LOAD Instructions: 149787067
Number of LOAD Instructions (ROI): 149787067
Number of STORE Instructions: 77239062
Number of STORE Instructions (ROI): 77239062
Total Destination Memory Operands: 77239062
Total Destination Memory Operands (ROI): 77239062
Total Source Memory Operands: 149787067
Total Source Memory Operands (ROI): 149787067
Number of DEPENDED LOADS: 19251639
Number of DEPENDED LOADS (ROI): 19251639
Number of SQ_ADDED: 77239036
Number of SQ_ADDED (ROI): 77239036
Number of LQ_ADDED: 149787020
Number of LQ_ADDED (ROI): 149787020
Number of Instructions read from trace: 600000256

ChampSim completed all CPUs

Region of Interest Statistics

CPU 0 cumulative IPC: 0.66646 instructions: 500000000 cycles: 750232430
ITLB TOTAL     ACCESS:   86446558  HIT:   86446557  MISS:          1
ITLB LOAD      ACCESS:   86446558  HIT:   86446557  MISS:          1
ITLB RFO       ACCESS:          0  HIT:          0  MISS:          0
ITLB PREFETCH  ACCESS:          0  HIT:          0  MISS:          0
ITLB WRITEBACK ACCESS:          0  HIT:          0  MISS:          0
ITLB PREFETCH  REQUESTED:          0  ISSUED:          0  USEFUL:          0  USELESS:          0
ITLB TOTAL MSHR MERGED:          1
ITLB LOAD MSHR MERGED:          1
ITLB RFO MSHR MERGED:          0
ITLB PREFETCH MSHR MERGED:          0
ITLB WRITEBACK MSHR MERGED:          0
ITLB TOTAL ACCESSES:   86446559 HITS:   86446557 MISSES:          2
ITLB LOAD ACCESSES:   86446559 HITS:   86446557 MISSES:          2
ITLB RFO ACCESSES:          0 HITS:          0 MISSES:          0
ITLB PREFETCH ACCESSES:          0 HITS:          0 MISSES:          0
ITLB WRITEBACK ACCESSES:          0 HITS:          0 MISSES:          0
ITLB RQ ACCESS:  500000002
ITLB RQ TO_CACHE:   86446559
ITLB RQ MERGED:  413553443
ITLB RQ FORWARD:          0
ITLB WQ ACCESS:          0
ITLB WQ TO_CACHE:          0
ITLB WQ MERGED:          0
ITLB WQ FORWARD:          0
DTLB TOTAL     ACCESS:   98097250  HIT:   97911989  MISS:     185261
DTLB LOAD      ACCESS:   55037057  HIT:   54990746  MISS:      46311
DTLB RFO       ACCESS:   43060193  HIT:   42921243  MISS:     138950
DTLB PREFETCH  ACCESS:          0  HIT:          0  MISS:          0
DTLB WRITEBACK ACCESS:          0  HIT:          0  MISS:          0
DTLB PREFETCH  REQUESTED:          0  ISSUED:          0  USEFUL:          0  USELESS:          0
DTLB TOTAL MSHR MERGED:      83603
DTLB LOAD MSHR MERGED:      83596
DTLB RFO MSHR MERGED:          7
DTLB PREFETCH MSHR MERGED:          0
DTLB WRITEBACK MSHR MERGED:          0
DTLB TOTAL ACCESSES:   98180853 HITS:   97911989 MISSES:     268864
DTLB LOAD ACCESSES:   55120653 HITS:   54990746 MISSES:     129907
DTLB RFO ACCESSES:   43060200 HITS:   42921243 MISSES:     138957
DTLB PREFETCH ACCESSES:          0 HITS:          0 MISSES:          0
DTLB WRITEBACK ACCESSES:          0 HITS:          0 MISSES:          0
DTLB RQ ACCESS:  173630888
DTLB RQ TO_CACHE:   98180853
DTLB RQ MERGED:   75450035
DTLB RQ FORWARD:          0
DTLB WQ ACCESS:          0
DTLB WQ TO_CACHE:          0
DTLB WQ MERGED:          0
DTLB WQ FORWARD:          0
L1D TOTAL     ACCESS:  164480120  HIT:  144907568  MISS:   19572552
L1D LOAD      ACCESS:   60460391  HIT:   58608753  MISS:    1851638
L1D RFO       ACCESS:   64512896  HIT:   47910769  MISS:   16602127
L1D PREFETCH  ACCESS:   39506833  HIT:   38388046  MISS:    1118787
L1D WRITEBACK ACCESS:          0  HIT:          0  MISS:          0
L1D PREFETCH  REQUESTED:   61592960  ISSUED:   61301804  USEFUL:    1116869  USELESS:       1918
L1D TOTAL MSHR MERGED:    3458207
L1D LOAD MSHR MERGED:    1202043
L1D RFO MSHR MERGED:      11214
L1D PREFETCH MSHR MERGED:    2244950
L1D WRITEBACK MSHR MERGED:          0
L1D TOTAL ACCESSES:  168526793 HITS:  145496035 MISSES:   23030758
L1D LOAD ACCESSES:   61875088 HITS:   58890881 MISSES:    2984207
L1D RFO ACCESSES:   64524075 HITS:   47910769 MISSES:   16613306
L1D PREFETCH ACCESSES:   42127630 HITS:   38694385 MISSES:    3433245
L1D WRITEBACK ACCESSES:          0 HITS:          0 MISSES:          0
L1D RQ ACCESS:  109089573
L1D RQ TO_CACHE:   61592960
L1D RQ MERGED:   47214485
L1D RQ FORWARD:          0
L1D WQ ACCESS:   64541313
L1D WQ TO_CACHE:   64524076
L1D WQ MERGED:      17237
L1D WQ FORWARD:     588467
L1I TOTAL     ACCESS:  107756276  HIT:  107756268  MISS:          8
L1I LOAD      ACCESS:  107756276  HIT:  107756268  MISS:          8
L1I RFO       ACCESS:          0  HIT:          0  MISS:          0
L1I PREFETCH  ACCESS:          0  HIT:          0  MISS:          0
L1I WRITEBACK ACCESS:          0  HIT:          0  MISS:          0
L1I PREFETCH  REQUESTED:          0  ISSUED:          0  USEFUL:          0  USELESS:          0
L1I TOTAL MSHR MERGED:          3
L1I LOAD MSHR MERGED:          3
L1I RFO MSHR MERGED:          0
L1I PREFETCH MSHR MERGED:          0
L1I WRITEBACK MSHR MERGED:          0
L1I TOTAL ACCESSES:  107756279 HITS:  107756268 MISSES:         11
L1I LOAD ACCESSES:  107756279 HITS:  107756268 MISSES:         11
L1I RFO ACCESSES:          0 HITS:          0 MISSES:          0
L1I PREFETCH ACCESSES:          0 HITS:          0 MISSES:          0
L1I WRITEBACK ACCESSES:          0 HITS:          0 MISSES:          0
L1I RQ ACCESS:  500000007
L1I RQ TO_CACHE:  107756279
L1I RQ MERGED:  392243728
L1I RQ FORWARD:          0
L1I WQ ACCESS:          0
L1I WQ TO_CACHE:          0
L1I WQ MERGED:          0
L1I WQ FORWARD:          0
L2C TOTAL     ACCESS:   36781648  HIT:   24824074  MISS:   11957574
L2C LOAD      ACCESS:    1782172  HIT:     246145  MISS:    1536027
L2C RFO       ACCESS:   16602091  HIT:    7610729  MISS:    8991362
L2C PREFETCH  ACCESS:    1795205  HIT:     366247  MISS:    1428958
L2C WRITEBACK ACCESS:   16602180  HIT:   16600953  MISS:       1227
L2C PREFETCH  REQUESTED:     817032  ISSUED:     817032  USEFUL:     243807  USELESS:    1185433
L2C TOTAL MSHR MERGED:       2659
L2C LOAD MSHR MERGED:        617
L2C RFO MSHR MERGED:          0
L2C PREFETCH MSHR MERGED:       2042
L2C WRITEBACK MSHR MERGED:          0
L2C TOTAL ACCESSES:   36991691 HITS:   24824076 MISSES:   12167615
L2C LOAD ACCESSES:    1782172 HITS:     246145 MISSES:    1536027
L2C RFO ACCESSES:   16602092 HITS:    7610731 MISSES:    8991361
L2C PREFETCH ACCESSES:    2005247 HITS:     366247 MISSES:    1639000
L2C WRITEBACK ACCESSES:   16602180 HITS:   16600953 MISSES:       1227
L2C RQ ACCESS:   18384264
L2C RQ TO_CACHE:   18384262
L2C RQ MERGED:          0
L2C RQ FORWARD:          0
L2C WQ ACCESS:   16602180
L2C WQ TO_CACHE:   16602180
L2C WQ MERGED:          0
L2C WQ FORWARD:          2
LLC TOTAL     ACCESS:   21152463  HIT:     657850  MISS:   20494613
LLC LOAD      ACCESS:    1535410  HIT:      74998  MISS:    1460412
LLC RFO       ACCESS:    8991344  HIT:     163503  MISS:    8827841
LLC PREFETCH  ACCESS:    1633520  HIT:     128689  MISS:    1504831
LLC WRITEBACK ACCESS:    8992189  HIT:     290660  MISS:    8701529
LLC PREFETCH  REQUESTED:          0  ISSUED:          0  USEFUL:      74708  USELESS:    1429686
LLC TOTAL MSHR MERGED:       2983
LLC LOAD MSHR MERGED:        295
LLC RFO MSHR MERGED:          0
LLC PREFETCH MSHR MERGED:       2688
LLC WRITEBACK MSHR MERGED:          0
LLC TOTAL ACCESSES:   21155463 HITS:     657868 MISSES:   20497595
LLC LOAD ACCESSES:    1535410 HITS:      74998 MISSES:    1460412
LLC RFO ACCESSES:    8991361 HITS:     163521 MISSES:    8827840
LLC PREFETCH ACCESSES:    1636503 HITS:     128689 MISSES:    1507814
LLC WRITEBACK ACCESSES:    8992189 HITS:     290660 MISSES:    8701529
LLC 0 RQ ACCESS:   10526771
LLC 0 RQ TO_CACHE:   10526753
LLC 0 RQ MERGED:          0
LLC 0 RQ FORWARD:          0
LLC WQ ACCESS:    8992189
LLC WQ TO_CACHE:    8992189
LLC WQ MERGED:          0
LLC WQ FORWARD:         18
Major fault: 0 Minor fault: 102360
CPU 0 L1D next line prefetcher final stats
CPU 0 L2C PC-based stride prefetcher final stats
All Misses: 24335909
All Hits: 792065
SD Algo Stats - Switches: 0 SRR-Repls: 1638973 BRR-Repls: 0

DRAM Statistics
 CHANNEL 0
 RQ ROW_BUFFER_HIT:    3726857  ROW_BUFFER_MISS:    8066010
 DBUS_CONGESTED:   14251953
 WQ ROW_BUFFER_HIT:    1088359  ROW_BUFFER_MISS:    7744308  FULL:          0

 AVG_CONGESTED_CYCLE: 13
LOADS RETIRED: 124982196
INSTR RETIRED: 500000000
