
*** ChampSim Multicore Out-of-Order Simulator ***

Warmup Instructions: 100000000
Simulation Instructions: 500000000
Number of CPUs: 1
LLC sets: 2048
LLC ways: 16
Clean RRIP Policies: 1122010111220101 Dirty RRIP Policies: 1112110111121101 PSEL Width: 10 Track Set: 4294967295 PSEL Mask: 1 Demote Mask: 3320210433202104DS Algo: 0Window size: 0
Off-chip DRAM Size: 4096 MB Channels: 1 Width: 64-bit Data Rate: 1600 MT/s

CPU 0 runs /mnt/beegfs/iconst01/spec2017/Gcc.trace.gz
NOT SORTED
TRACE STRING: /mnt/beegfs/iconst01/spec2017/Gcc.trace.gz
SORTED
TRACE STRING: /mnt/beegfs/iconst01/spec2017/Gcc.trace.gz
INITIAL
TRACE STRING: /mnt/beegfs/iconst01/spec2017/Gcc.trace.gz

champsim_seed used: 269

CPU 0 L1D next line prefetcher
CPU 0 L2C IP-based stride prefetcher
Initialize DRRIP state
Assign rand_sets[0]: 454  LLC: 2048
rand_sets[0]: 454
Assign rand_sets[1]: 1662  LLC: 2048
rand_sets[1]: 1662
Assign rand_sets[2]: 1921  LLC: 2048
rand_sets[2]: 1921
Assign rand_sets[3]: 1131  LLC: 2048
rand_sets[3]: 1131
Assign rand_sets[4]: 331  LLC: 2048
rand_sets[4]: 331
Assign rand_sets[5]: 1531  LLC: 2048
rand_sets[5]: 1531
Assign rand_sets[6]: 482  LLC: 2048
rand_sets[6]: 482
Assign rand_sets[7]: 1275  LLC: 2048
rand_sets[7]: 1275
Assign rand_sets[8]: 1876  LLC: 2048
rand_sets[8]: 1876
Assign rand_sets[9]: 2038  LLC: 2048
rand_sets[9]: 2038
Assign rand_sets[10]: 701  LLC: 2048
rand_sets[10]: 701
Assign rand_sets[11]: 479  LLC: 2048
rand_sets[11]: 479
Assign rand_sets[12]: 892  LLC: 2048
rand_sets[12]: 892
Assign rand_sets[13]: 1820  LLC: 2048
rand_sets[13]: 1820
Assign rand_sets[14]: 1505  LLC: 2048
rand_sets[14]: 1505
Assign rand_sets[15]: 1159  LLC: 2048
rand_sets[15]: 1159
Assign rand_sets[16]: 513  LLC: 2048
rand_sets[16]: 513
Assign rand_sets[17]: 703  LLC: 2048
rand_sets[17]: 703
Assign rand_sets[18]: 561  LLC: 2048
rand_sets[18]: 561
Assign rand_sets[19]: 990  LLC: 2048
rand_sets[19]: 990
Assign rand_sets[20]: 342  LLC: 2048
rand_sets[20]: 342
Assign rand_sets[21]: 882  LLC: 2048
rand_sets[21]: 882
Assign rand_sets[22]: 15  LLC: 2048
rand_sets[22]: 15
Assign rand_sets[23]: 71  LLC: 2048
rand_sets[23]: 71
Assign rand_sets[24]: 1127  LLC: 2048
rand_sets[24]: 1127
Assign rand_sets[25]: 1382  LLC: 2048
rand_sets[25]: 1382
Assign rand_sets[26]: 647  LLC: 2048
rand_sets[26]: 647
Assign rand_sets[27]: 857  LLC: 2048
rand_sets[27]: 857
Assign rand_sets[28]: 1450  LLC: 2048
rand_sets[28]: 1450
Assign rand_sets[29]: 1160  LLC: 2048
rand_sets[29]: 1160
Assign rand_sets[30]: 1852  LLC: 2048
rand_sets[30]: 1852
Assign rand_sets[31]: 1881  LLC: 2048
rand_sets[31]: 1881
Assign rand_sets[32]: 1770  LLC: 2048
rand_sets[32]: 1770
Assign rand_sets[33]: 1622  LLC: 2048
rand_sets[33]: 1622
Assign rand_sets[34]: 275  LLC: 2048
rand_sets[34]: 275
Assign rand_sets[35]: 635  LLC: 2048
rand_sets[35]: 635
Assign rand_sets[36]: 466  LLC: 2048
rand_sets[36]: 466
Assign rand_sets[37]: 1413  LLC: 2048
rand_sets[37]: 1413
Assign rand_sets[38]: 417  LLC: 2048
rand_sets[38]: 417
Assign rand_sets[39]: 472  LLC: 2048
rand_sets[39]: 472
Assign rand_sets[40]: 1340  LLC: 2048
rand_sets[40]: 1340
Assign rand_sets[41]: 852  LLC: 2048
rand_sets[41]: 852
Assign rand_sets[42]: 1365  LLC: 2048
rand_sets[42]: 1365
Assign rand_sets[43]: 47  LLC: 2048
rand_sets[43]: 47
Assign rand_sets[44]: 823  LLC: 2048
rand_sets[44]: 823
Assign rand_sets[45]: 686  LLC: 2048
rand_sets[45]: 686
Assign rand_sets[46]: 1637  LLC: 2048
rand_sets[46]: 1637
Assign rand_sets[47]: 1115  LLC: 2048
rand_sets[47]: 1115
Assign rand_sets[48]: 986  LLC: 2048
rand_sets[48]: 986
Assign rand_sets[49]: 258  LLC: 2048
rand_sets[49]: 258
Assign rand_sets[50]: 633  LLC: 2048
rand_sets[50]: 633
Assign rand_sets[51]: 920  LLC: 2048
rand_sets[51]: 920
Assign rand_sets[52]: 204  LLC: 2048
rand_sets[52]: 204
Assign rand_sets[53]: 227  LLC: 2048
rand_sets[53]: 227
Assign rand_sets[54]: 1818  LLC: 2048
rand_sets[54]: 1818
Assign rand_sets[55]: 886  LLC: 2048
rand_sets[55]: 886
Assign rand_sets[56]: 1422  LLC: 2048
rand_sets[56]: 1422
Assign rand_sets[57]: 607  LLC: 2048
rand_sets[57]: 607
Assign rand_sets[58]: 217  LLC: 2048
rand_sets[58]: 217
Assign rand_sets[59]: 1945  LLC: 2048
rand_sets[59]: 1945
Assign rand_sets[60]: 143  LLC: 2048
rand_sets[60]: 143
Assign rand_sets[61]: 1311  LLC: 2048
rand_sets[61]: 1311
Assign rand_sets[62]: 319  LLC: 2048
rand_sets[62]: 319
Assign rand_sets[63]: 1846  LLC: 2048
rand_sets[63]: 1846
 CLEAN-RRIP-POLICY-1: 1-1-2-2-0-1-0-1- CLEAN-RRIP-POLICY-2: 1-1-2-2-0-1-0-1-
 DIRTY-RRIP-POLICY-1: 1-1-1-2-1-1-0-1- DIRTY-RRIP-POLICY-2: 1-1-1-2-1-1-0-1-
 PSEL width: 10
Heartbeat CPU 0 instructions: 10000001 cycles: 7315913 heartbeat IPC: 1.36688 cumulative IPC: 1.36688 (Simulation time: 0 hr 0 min 15 sec) 
Heartbeat CPU 0 instructions: 20000000 cycles: 14307373 heartbeat IPC: 1.43032 cumulative IPC: 1.39788 (Simulation time: 0 hr 0 min 30 sec) 
Heartbeat CPU 0 instructions: 30000001 cycles: 21020166 heartbeat IPC: 1.48969 cumulative IPC: 1.4272 (Simulation time: 0 hr 0 min 46 sec) 
Heartbeat CPU 0 instructions: 40000000 cycles: 27480891 heartbeat IPC: 1.54781 cumulative IPC: 1.45556 (Simulation time: 0 hr 1 min 3 sec) 
Heartbeat CPU 0 instructions: 50000001 cycles: 33582588 heartbeat IPC: 1.63889 cumulative IPC: 1.48887 (Simulation time: 0 hr 1 min 19 sec) 
Heartbeat CPU 0 instructions: 60000000 cycles: 40063695 heartbeat IPC: 1.54295 cumulative IPC: 1.49762 (Simulation time: 0 hr 1 min 35 sec) 
Heartbeat CPU 0 instructions: 70000000 cycles: 47102006 heartbeat IPC: 1.4208 cumulative IPC: 1.48614 (Simulation time: 0 hr 1 min 50 sec) 
Heartbeat CPU 0 instructions: 80000000 cycles: 54191568 heartbeat IPC: 1.41052 cumulative IPC: 1.47624 (Simulation time: 0 hr 2 min 5 sec) 
Heartbeat CPU 0 instructions: 90000003 cycles: 61195862 heartbeat IPC: 1.4277 cumulative IPC: 1.47069 (Simulation time: 0 hr 2 min 20 sec) 
Heartbeat CPU 0 instructions: 100000000 cycles: 68362939 heartbeat IPC: 1.39527 cumulative IPC: 1.46278 (Simulation time: 0 hr 2 min 35 sec) 

Warmup complete CPU 0 instructions: 100000004 cycles: 68362940 (Simulation time: 0 hr 2 min 35 sec) 

Heartbeat CPU 0 instructions: 110000003 cycles: 95968698 heartbeat IPC: 0.362243 cumulative IPC: 0.362243 (Simulation time: 0 hr 3 min 5 sec) 
Heartbeat CPU 0 instructions: 120000000 cycles: 123409559 heartbeat IPC: 0.36442 cumulative IPC: 0.363328 (Simulation time: 0 hr 3 min 35 sec) 
Heartbeat CPU 0 instructions: 130000000 cycles: 148375055 heartbeat IPC: 0.400553 cumulative IPC: 0.374943 (Simulation time: 0 hr 4 min 5 sec) 
Heartbeat CPU 0 instructions: 140000000 cycles: 177801954 heartbeat IPC: 0.339825 cumulative IPC: 0.3655 (Simulation time: 0 hr 4 min 34 sec) 
Heartbeat CPU 0 instructions: 150000000 cycles: 207603792 heartbeat IPC: 0.33555 cumulative IPC: 0.35909 (Simulation time: 0 hr 5 min 4 sec) 
Heartbeat CPU 0 instructions: 160000000 cycles: 234996833 heartbeat IPC: 0.365056 cumulative IPC: 0.360071 (Simulation time: 0 hr 5 min 33 sec) 
Heartbeat CPU 0 instructions: 170000001 cycles: 262988474 heartbeat IPC: 0.35725 cumulative IPC: 0.359665 (Simulation time: 0 hr 6 min 4 sec) 
Heartbeat CPU 0 instructions: 180000000 cycles: 291404923 heartbeat IPC: 0.351909 cumulative IPC: 0.358677 (Simulation time: 0 hr 6 min 34 sec) 
Heartbeat CPU 0 instructions: 190000002 cycles: 319381334 heartbeat IPC: 0.357444 cumulative IPC: 0.358539 (Simulation time: 0 hr 7 min 4 sec) 
Heartbeat CPU 0 instructions: 200000000 cycles: 347694871 heartbeat IPC: 0.353188 cumulative IPC: 0.357997 (Simulation time: 0 hr 7 min 34 sec) 
Heartbeat CPU 0 instructions: 210000002 cycles: 375515336 heartbeat IPC: 0.359448 cumulative IPC: 0.358128 (Simulation time: 0 hr 8 min 4 sec) 
Heartbeat CPU 0 instructions: 220000000 cycles: 404587838 heartbeat IPC: 0.343968 cumulative IPC: 0.356904 (Simulation time: 0 hr 8 min 33 sec) 
Heartbeat CPU 0 instructions: 230000000 cycles: 432082746 heartbeat IPC: 0.363704 cumulative IPC: 0.357418 (Simulation time: 0 hr 9 min 2 sec) 
Heartbeat CPU 0 instructions: 240000000 cycles: 457986411 heartbeat IPC: 0.386046 cumulative IPC: 0.359321 (Simulation time: 0 hr 9 min 30 sec) 
Heartbeat CPU 0 instructions: 250000000 cycles: 488094900 heartbeat IPC: 0.332132 cumulative IPC: 0.357371 (Simulation time: 0 hr 10 min 1 sec) 
Heartbeat CPU 0 instructions: 260000000 cycles: 515177619 heartbeat IPC: 0.369239 cumulative IPC: 0.35809 (Simulation time: 0 hr 10 min 31 sec) 
Heartbeat CPU 0 instructions: 270000003 cycles: 543572728 heartbeat IPC: 0.352173 cumulative IPC: 0.357737 (Simulation time: 0 hr 11 min 1 sec) 
Heartbeat CPU 0 instructions: 280000000 cycles: 571729220 heartbeat IPC: 0.355158 cumulative IPC: 0.357592 (Simulation time: 0 hr 11 min 32 sec) 
Heartbeat CPU 0 instructions: 290000000 cycles: 600585370 heartbeat IPC: 0.346547 cumulative IPC: 0.356994 (Simulation time: 0 hr 12 min 3 sec) 
Heartbeat CPU 0 instructions: 300000000 cycles: 630439779 heartbeat IPC: 0.334959 cumulative IPC: 0.355823 (Simulation time: 0 hr 12 min 33 sec) 
Heartbeat CPU 0 instructions: 310000001 cycles: 659784685 heartbeat IPC: 0.340775 cumulative IPC: 0.355077 (Simulation time: 0 hr 13 min 2 sec) 
Heartbeat CPU 0 instructions: 320000000 cycles: 687937208 heartbeat IPC: 0.355208 cumulative IPC: 0.355083 (Simulation time: 0 hr 13 min 31 sec) 
Heartbeat CPU 0 instructions: 330000000 cycles: 716536479 heartbeat IPC: 0.349659 cumulative IPC: 0.354843 (Simulation time: 0 hr 14 min 1 sec) 
Heartbeat CPU 0 instructions: 340000000 cycles: 745775479 heartbeat IPC: 0.342009 cumulative IPC: 0.354289 (Simulation time: 0 hr 14 min 31 sec) 
Heartbeat CPU 0 instructions: 350000003 cycles: 772783023 heartbeat IPC: 0.370267 cumulative IPC: 0.354902 (Simulation time: 0 hr 15 min 0 sec) 
Heartbeat CPU 0 instructions: 360000000 cycles: 800852375 heartbeat IPC: 0.35626 cumulative IPC: 0.354954 (Simulation time: 0 hr 15 min 28 sec) 
Heartbeat CPU 0 instructions: 370000000 cycles: 829018189 heartbeat IPC: 0.35504 cumulative IPC: 0.354957 (Simulation time: 0 hr 15 min 56 sec) 
Heartbeat CPU 0 instructions: 380000000 cycles: 857503439 heartbeat IPC: 0.351059 cumulative IPC: 0.354816 (Simulation time: 0 hr 16 min 25 sec) 
Heartbeat CPU 0 instructions: 390000001 cycles: 885092581 heartbeat IPC: 0.362461 cumulative IPC: 0.355075 (Simulation time: 0 hr 16 min 53 sec) 
Heartbeat CPU 0 instructions: 400000000 cycles: 913707703 heartbeat IPC: 0.349466 cumulative IPC: 0.354885 (Simulation time: 0 hr 17 min 21 sec) 
Heartbeat CPU 0 instructions: 410000001 cycles: 940985328 heartbeat IPC: 0.366601 cumulative IPC: 0.355251 (Simulation time: 0 hr 17 min 50 sec) 
Heartbeat CPU 0 instructions: 420000000 cycles: 968272702 heartbeat IPC: 0.36647 cumulative IPC: 0.355591 (Simulation time: 0 hr 18 min 18 sec) 
Heartbeat CPU 0 instructions: 430000002 cycles: 995931006 heartbeat IPC: 0.361555 cumulative IPC: 0.355769 (Simulation time: 0 hr 18 min 46 sec) 
Heartbeat CPU 0 instructions: 440000000 cycles: 1025407940 heartbeat IPC: 0.339248 cumulative IPC: 0.35526 (Simulation time: 0 hr 19 min 15 sec) 
Heartbeat CPU 0 instructions: 450000002 cycles: 1054621625 heartbeat IPC: 0.342305 cumulative IPC: 0.354876 (Simulation time: 0 hr 19 min 44 sec) 
Heartbeat CPU 0 instructions: 460000000 cycles: 1082291082 heartbeat IPC: 0.361409 cumulative IPC: 0.355055 (Simulation time: 0 hr 20 min 12 sec) 
Heartbeat CPU 0 instructions: 470000000 cycles: 1109910355 heartbeat IPC: 0.362066 cumulative IPC: 0.355241 (Simulation time: 0 hr 20 min 40 sec) 
Heartbeat CPU 0 instructions: 480000000 cycles: 1137773483 heartbeat IPC: 0.358897 cumulative IPC: 0.355336 (Simulation time: 0 hr 21 min 8 sec) 
Heartbeat CPU 0 instructions: 490000000 cycles: 1165342378 heartbeat IPC: 0.362728 cumulative IPC: 0.355522 (Simulation time: 0 hr 21 min 37 sec) 
Heartbeat CPU 0 instructions: 500000000 cycles: 1193606395 heartbeat IPC: 0.353807 cumulative IPC: 0.355479 (Simulation time: 0 hr 22 min 5 sec) 
Heartbeat CPU 0 instructions: 510000000 cycles: 1229024042 heartbeat IPC: 0.282345 cumulative IPC: 0.353247 (Simulation time: 0 hr 22 min 38 sec) 
Heartbeat CPU 0 instructions: 520000000 cycles: 1256937972 heartbeat IPC: 0.358244 cumulative IPC: 0.353364 (Simulation time: 0 hr 23 min 7 sec) 
Heartbeat CPU 0 instructions: 530000001 cycles: 1286212042 heartbeat IPC: 0.341599 cumulative IPC: 0.353081 (Simulation time: 0 hr 23 min 37 sec) 
Heartbeat CPU 0 instructions: 540000000 cycles: 1314208913 heartbeat IPC: 0.357183 cumulative IPC: 0.353174 (Simulation time: 0 hr 24 min 6 sec) 
Heartbeat CPU 0 instructions: 550000001 cycles: 1343384240 heartbeat IPC: 0.342755 cumulative IPC: 0.352935 (Simulation time: 0 hr 24 min 37 sec) 
Heartbeat CPU 0 instructions: 560000000 cycles: 1368747093 heartbeat IPC: 0.394277 cumulative IPC: 0.353742 (Simulation time: 0 hr 25 min 6 sec) 
Heartbeat CPU 0 instructions: 570000000 cycles: 1398171521 heartbeat IPC: 0.339854 cumulative IPC: 0.353434 (Simulation time: 0 hr 25 min 36 sec) 
Heartbeat CPU 0 instructions: 580000000 cycles: 1426069341 heartbeat IPC: 0.358451 cumulative IPC: 0.353537 (Simulation time: 0 hr 26 min 6 sec) 
Heartbeat CPU 0 instructions: 590000001 cycles: 1450802772 heartbeat IPC: 0.404311 cumulative IPC: 0.354446 (Simulation time: 0 hr 26 min 34 sec) 
Heartbeat CPU 0 instructions: 600000000 cycles: 1476864664 heartbeat IPC: 0.383702 cumulative IPC: 0.354987 (Simulation time: 0 hr 27 min 2 sec) 
Finished CPU 0 instructions: 500000000 cycles: 1408501746 cumulative IPC: 0.354987 (Simulation time: 0 hr 27 min 2 sec) 

CPU 0 Branch Prediction Accuracy: 86.4311% MPKI: 26.2662
Number of Branches: 96788573 Number of Mispredictions: 13133102
Number of LOAD Instructions: 164682285
Number of LOAD Instructions (ROI): 164682285
Number of STORE Instructions: 78194750
Number of STORE Instructions (ROI): 78194750
Total Destination Memory Operands: 83268534
Total Destination Memory Operands (ROI): 83268534
Total Source Memory Operands: 164712438
Total Source Memory Operands (ROI): 164712438
Number of DEPENDED LOADS: 7060695
Number of DEPENDED LOADS (ROI): 7060695
Number of SQ_ADDED: 83268522
Number of SQ_ADDED (ROI): 83268522
Number of LQ_ADDED: 236610227
Number of LQ_ADDED (ROI): 236610227
Number of Instructions read from trace: 600000066

ChampSim completed all CPUs

Region of Interest Statistics

CPU 0 cumulative IPC: 0.354987 instructions: 500000000 cycles: 1408501746
ITLB TOTAL     ACCESS:  100511696  HIT:  100307250  MISS:     204446
ITLB LOAD      ACCESS:  100511696  HIT:  100307250  MISS:     204446
ITLB RFO       ACCESS:          0  HIT:          0  MISS:          0
ITLB PREFETCH  ACCESS:          0  HIT:          0  MISS:          0
ITLB WRITEBACK ACCESS:          0  HIT:          0  MISS:          0
ITLB PREFETCH  REQUESTED:          0  ISSUED:          0  USEFUL:          0  USELESS:          0
ITLB TOTAL MSHR MERGED:     172423
ITLB LOAD MSHR MERGED:     172423
ITLB RFO MSHR MERGED:          0
ITLB PREFETCH MSHR MERGED:          0
ITLB WRITEBACK MSHR MERGED:          0
ITLB TOTAL ACCESSES:  100684119 HITS:  100307250 MISSES:     376869
ITLB LOAD ACCESSES:  100684119 HITS:  100307250 MISSES:     376869
ITLB RFO ACCESSES:          0 HITS:          0 MISSES:          0
ITLB PREFETCH ACCESSES:          0 HITS:          0 MISSES:          0
ITLB WRITEBACK ACCESSES:          0 HITS:          0 MISSES:          0
ITLB RQ ACCESS:  500000057
ITLB RQ TO_CACHE:  100684119
ITLB RQ MERGED:  399315938
ITLB RQ FORWARD:          0
ITLB WQ ACCESS:          0
ITLB WQ TO_CACHE:          0
ITLB WQ MERGED:          0
ITLB WQ FORWARD:          0
DTLB TOTAL     ACCESS:  165335352  HIT:  164701005  MISS:     634347
DTLB LOAD      ACCESS:  106291194  HIT:  105721203  MISS:     569991
DTLB RFO       ACCESS:   59044158  HIT:   58979802  MISS:      64356
DTLB PREFETCH  ACCESS:          0  HIT:          0  MISS:          0
DTLB WRITEBACK ACCESS:          0  HIT:          0  MISS:          0
DTLB PREFETCH  REQUESTED:          0  ISSUED:          0  USEFUL:          0  USELESS:          0
DTLB TOTAL MSHR MERGED:      99984
DTLB LOAD MSHR MERGED:      59460
DTLB RFO MSHR MERGED:      40524
DTLB PREFETCH MSHR MERGED:          0
DTLB WRITEBACK MSHR MERGED:          0
DTLB TOTAL ACCESSES:  165435336 HITS:  164701005 MISSES:     734331
DTLB LOAD ACCESSES:  106350654 HITS:  105721203 MISSES:     629451
DTLB RFO ACCESSES:   59084682 HITS:   58979802 MISSES:     104880
DTLB PREFETCH ACCESSES:          0 HITS:          0 MISSES:          0
DTLB WRITEBACK ACCESSES:          0 HITS:          0 MISSES:          0
DTLB RQ ACCESS:  200310201
DTLB RQ TO_CACHE:  165435336
DTLB RQ MERGED:   34874865
DTLB RQ FORWARD:          0
DTLB WQ ACCESS:          0
DTLB WQ TO_CACHE:          0
DTLB WQ MERGED:          0
DTLB WQ FORWARD:          0
L1D TOTAL     ACCESS:  281835303  HIT:  273925992  MISS:    7909311
L1D LOAD      ACCESS:  110421988  HIT:  107145111  MISS:    3276877
L1D RFO       ACCESS:   67113131  HIT:   66222366  MISS:     890765
L1D PREFETCH  ACCESS:  104300184  HIT:  100558515  MISS:    3741669
L1D WRITEBACK ACCESS:          0  HIT:          0  MISS:          0
L1D PREFETCH  REQUESTED:  110815178  ISSUED:  109115881  USEFUL:    1662404  USELESS:    2079229
L1D TOTAL MSHR MERGED:    2864953
L1D LOAD MSHR MERGED:     489530
L1D RFO MSHR MERGED:    1872914
L1D PREFETCH MSHR MERGED:     502509
L1D WRITEBACK MSHR MERGED:          0
L1D TOTAL ACCESSES:  284727783 HITS:  273953519 MISSES:   10774264
L1D LOAD ACCESSES:  110816705 HITS:  107146638 MISSES:    3670067
L1D RFO ACCESSES:   68974086 HITS:   66222366 MISSES:    2751720
L1D PREFETCH ACCESSES:  104936992 HITS:  100584515 MISSES:    4352477
L1D WRITEBACK ACCESSES:          0 HITS:          0 MISSES:          0
L1D RQ ACCESS:  130757598
L1D RQ TO_CACHE:  110815181
L1D RQ MERGED:   19940890
L1D RQ FORWARD:          0
L1D WQ ACCESS:   69552603
L1D WQ TO_CACHE:   68974087
L1D WQ MERGED:     578516
L1D WQ FORWARD:      27527
L1I TOTAL     ACCESS:  126559368  HIT:  122320815  MISS:    4238553
L1I LOAD      ACCESS:  126559368  HIT:  122320815  MISS:    4238553
L1I RFO       ACCESS:          0  HIT:          0  MISS:          0
L1I PREFETCH  ACCESS:          0  HIT:          0  MISS:          0
L1I WRITEBACK ACCESS:          0  HIT:          0  MISS:          0
L1I PREFETCH  REQUESTED:          0  ISSUED:          0  USEFUL:          0  USELESS:          0
L1I TOTAL MSHR MERGED:    1834505
L1I LOAD MSHR MERGED:    1834505
L1I RFO MSHR MERGED:          0
L1I PREFETCH MSHR MERGED:          0
L1I WRITEBACK MSHR MERGED:          0
L1I TOTAL ACCESSES:  128393876 HITS:  122320815 MISSES:    6073061
L1I LOAD ACCESSES:  128393876 HITS:  122320815 MISSES:    6073061
L1I RFO ACCESSES:          0 HITS:          0 MISSES:          0
L1I PREFETCH ACCESSES:          0 HITS:          0 MISSES:          0
L1I WRITEBACK ACCESSES:          0 HITS:          0 MISSES:          0
L1I RQ ACCESS:  500000057
L1I RQ TO_CACHE:  128393876
L1I RQ MERGED:  371606181
L1I RQ FORWARD:          0
L1I WQ ACCESS:          0
L1I WQ TO_CACHE:          0
L1I WQ MERGED:          0
L1I WQ FORWARD:          0
L2C TOTAL     ACCESS:   14905227  HIT:   11158748  MISS:    3746479
L2C LOAD      ACCESS:    7418883  HIT:    5098864  MISS:    2320019
L2C RFO       ACCESS:     878708  HIT:     409902  MISS:     468806
L2C PREFETCH  ACCESS:    4568396  HIT:    3627997  MISS:     940399
L2C WRITEBACK ACCESS:    2039240  HIT:    2021985  MISS:      17255
L2C PREFETCH  REQUESTED:     842702  ISSUED:     842702  USEFUL:     203387  USELESS:     736718
L2C TOTAL MSHR MERGED:       6995
L2C LOAD MSHR MERGED:        779
L2C RFO MSHR MERGED:          0
L2C PREFETCH MSHR MERGED:       6216
L2C WRITEBACK MSHR MERGED:          0
L2C TOTAL ACCESSES:   14913086 HITS:   11159198 MISSES:    3753888
L2C LOAD ACCESSES:    7419090 HITS:    5099071 MISSES:    2320019
L2C RFO ACCESSES:     878806 HITS:     410000 MISSES:     468806
L2C PREFETCH ACCESSES:    4575950 HITS:    3628142 MISSES:     947808
L2C WRITEBACK ACCESSES:    2039240 HITS:    2021985 MISSES:      17255
L2C RQ ACCESS:    8297899
L2C RQ TO_CACHE:    8297594
L2C RQ MERGED:          0
L2C RQ FORWARD:          0
L2C WQ ACCESS:    2039240
L2C WQ TO_CACHE:    2039240
L2C WQ MERGED:          0
L2C WQ FORWARD:        450
LLC TOTAL     ACCESS:    4609808  HIT:    3999248  MISS:     610560
LLC LOAD      ACCESS:    2319226  HIT:    2085669  MISS:     233557
LLC RFO       ACCESS:     468796  HIT:     396535  MISS:      72261
LLC PREFETCH  ACCESS:     941489  HIT:     661890  MISS:     279599
LLC WRITEBACK ACCESS:     880297  HIT:     855154  MISS:      25143
LLC PREFETCH  REQUESTED:          0  ISSUED:          0  USEFUL:      23162  USELESS:     257221
LLC TOTAL MSHR MERGED:         86
LLC LOAD MSHR MERGED:         28
LLC RFO MSHR MERGED:          0
LLC PREFETCH MSHR MERGED:         58
LLC WRITEBACK MSHR MERGED:          0
LLC TOTAL ACCESSES:    4609929 HITS:    3999283 MISSES:     610646
LLC LOAD ACCESSES:    2319240 HITS:    2085683 MISSES:     233557
LLC RFO ACCESSES:     468806 HITS:     396545 MISSES:      72261
LLC PREFETCH ACCESSES:     941586 HITS:     661901 MISSES:     279685
LLC WRITEBACK ACCESSES:     880297 HITS:     855154 MISSES:      25143
LLC 0 RQ ACCESS:    2788046
LLC 0 RQ TO_CACHE:    2788022
LLC 0 RQ MERGED:          0
LLC 0 RQ FORWARD:          0
LLC WQ ACCESS:     880297
LLC WQ TO_CACHE:     880297
LLC WQ MERGED:          0
LLC WQ FORWARD:         35
Major fault: 0 Minor fault: 12862
CPU 0 L1D next line prefetcher final stats
CPU 0 L2C PC-based stride prefetcher final stats
All Misses: 717422
All Hits: 4709392
SD Algo Stats - Switches: 0 SRR-Repls: 273181 BRR-Repls: 0

DRAM Statistics
 CHANNEL 0
 RQ ROW_BUFFER_HIT:     112030  ROW_BUFFER_MISS:     472185
 DBUS_CONGESTED:     370545
 WQ ROW_BUFFER_HIT:      16751  ROW_BUFFER_MISS:     188659  FULL:          0

 AVG_CONGESTED_CYCLE: 13
LOADS RETIRED: 136549171
INSTR RETIRED: 500000000
