
*** ChampSim Multicore Out-of-Order Simulator ***

Warmup Instructions: 100000000
Simulation Instructions: 500000000
Number of CPUs: 1
LLC sets: 2048
LLC ways: 16
Clean RRIP Policies: 1213030112130301 Dirty RRIP Policies: 2213130122131301 PSEL Width: 10 Track Set: 4294967295 PSEL Mask: 1 Demote Mask: 3340221033402210DS Algo: 0Window size: 0
Off-chip DRAM Size: 4096 MB Channels: 1 Width: 64-bit Data Rate: 1600 MT/s

CPU 0 runs /mnt/beegfs/iconst01/spec2017/Mcf.trace.gz
NOT SORTED
TRACE STRING: /mnt/beegfs/iconst01/spec2017/Mcf.trace.gz
SORTED
TRACE STRING: /mnt/beegfs/iconst01/spec2017/Mcf.trace.gz
INITIAL
TRACE STRING: /mnt/beegfs/iconst01/spec2017/Mcf.trace.gz

champsim_seed used: 278

CPU 0 L1D next line prefetcher
CPU 0 L2C IP-based stride prefetcher
Initialize DRRIP state
Assign rand_sets[0]: 454  LLC: 2048
rand_sets[0]: 454
Assign rand_sets[1]: 1662  LLC: 2048
rand_sets[1]: 1662
Assign rand_sets[2]: 1921  LLC: 2048
rand_sets[2]: 1921
Assign rand_sets[3]: 1131  LLC: 2048
rand_sets[3]: 1131
Assign rand_sets[4]: 331  LLC: 2048
rand_sets[4]: 331
Assign rand_sets[5]: 1531  LLC: 2048
rand_sets[5]: 1531
Assign rand_sets[6]: 482  LLC: 2048
rand_sets[6]: 482
Assign rand_sets[7]: 1275  LLC: 2048
rand_sets[7]: 1275
Assign rand_sets[8]: 1876  LLC: 2048
rand_sets[8]: 1876
Assign rand_sets[9]: 2038  LLC: 2048
rand_sets[9]: 2038
Assign rand_sets[10]: 701  LLC: 2048
rand_sets[10]: 701
Assign rand_sets[11]: 479  LLC: 2048
rand_sets[11]: 479
Assign rand_sets[12]: 892  LLC: 2048
rand_sets[12]: 892
Assign rand_sets[13]: 1820  LLC: 2048
rand_sets[13]: 1820
Assign rand_sets[14]: 1505  LLC: 2048
rand_sets[14]: 1505
Assign rand_sets[15]: 1159  LLC: 2048
rand_sets[15]: 1159
Assign rand_sets[16]: 513  LLC: 2048
rand_sets[16]: 513
Assign rand_sets[17]: 703  LLC: 2048
rand_sets[17]: 703
Assign rand_sets[18]: 561  LLC: 2048
rand_sets[18]: 561
Assign rand_sets[19]: 990  LLC: 2048
rand_sets[19]: 990
Assign rand_sets[20]: 342  LLC: 2048
rand_sets[20]: 342
Assign rand_sets[21]: 882  LLC: 2048
rand_sets[21]: 882
Assign rand_sets[22]: 15  LLC: 2048
rand_sets[22]: 15
Assign rand_sets[23]: 71  LLC: 2048
rand_sets[23]: 71
Assign rand_sets[24]: 1127  LLC: 2048
rand_sets[24]: 1127
Assign rand_sets[25]: 1382  LLC: 2048
rand_sets[25]: 1382
Assign rand_sets[26]: 647  LLC: 2048
rand_sets[26]: 647
Assign rand_sets[27]: 857  LLC: 2048
rand_sets[27]: 857
Assign rand_sets[28]: 1450  LLC: 2048
rand_sets[28]: 1450
Assign rand_sets[29]: 1160  LLC: 2048
rand_sets[29]: 1160
Assign rand_sets[30]: 1852  LLC: 2048
rand_sets[30]: 1852
Assign rand_sets[31]: 1881  LLC: 2048
rand_sets[31]: 1881
Assign rand_sets[32]: 1770  LLC: 2048
rand_sets[32]: 1770
Assign rand_sets[33]: 1622  LLC: 2048
rand_sets[33]: 1622
Assign rand_sets[34]: 275  LLC: 2048
rand_sets[34]: 275
Assign rand_sets[35]: 635  LLC: 2048
rand_sets[35]: 635
Assign rand_sets[36]: 466  LLC: 2048
rand_sets[36]: 466
Assign rand_sets[37]: 1413  LLC: 2048
rand_sets[37]: 1413
Assign rand_sets[38]: 417  LLC: 2048
rand_sets[38]: 417
Assign rand_sets[39]: 472  LLC: 2048
rand_sets[39]: 472
Assign rand_sets[40]: 1340  LLC: 2048
rand_sets[40]: 1340
Assign rand_sets[41]: 852  LLC: 2048
rand_sets[41]: 852
Assign rand_sets[42]: 1365  LLC: 2048
rand_sets[42]: 1365
Assign rand_sets[43]: 47  LLC: 2048
rand_sets[43]: 47
Assign rand_sets[44]: 823  LLC: 2048
rand_sets[44]: 823
Assign rand_sets[45]: 686  LLC: 2048
rand_sets[45]: 686
Assign rand_sets[46]: 1637  LLC: 2048
rand_sets[46]: 1637
Assign rand_sets[47]: 1115  LLC: 2048
rand_sets[47]: 1115
Assign rand_sets[48]: 986  LLC: 2048
rand_sets[48]: 986
Assign rand_sets[49]: 258  LLC: 2048
rand_sets[49]: 258
Assign rand_sets[50]: 633  LLC: 2048
rand_sets[50]: 633
Assign rand_sets[51]: 920  LLC: 2048
rand_sets[51]: 920
Assign rand_sets[52]: 204  LLC: 2048
rand_sets[52]: 204
Assign rand_sets[53]: 227  LLC: 2048
rand_sets[53]: 227
Assign rand_sets[54]: 1818  LLC: 2048
rand_sets[54]: 1818
Assign rand_sets[55]: 886  LLC: 2048
rand_sets[55]: 886
Assign rand_sets[56]: 1422  LLC: 2048
rand_sets[56]: 1422
Assign rand_sets[57]: 607  LLC: 2048
rand_sets[57]: 607
Assign rand_sets[58]: 217  LLC: 2048
rand_sets[58]: 217
Assign rand_sets[59]: 1945  LLC: 2048
rand_sets[59]: 1945
Assign rand_sets[60]: 143  LLC: 2048
rand_sets[60]: 143
Assign rand_sets[61]: 1311  LLC: 2048
rand_sets[61]: 1311
Assign rand_sets[62]: 319  LLC: 2048
rand_sets[62]: 319
Assign rand_sets[63]: 1846  LLC: 2048
rand_sets[63]: 1846
 CLEAN-RRIP-POLICY-1: 1-2-1-3-0-3-0-1- CLEAN-RRIP-POLICY-2: 1-2-1-3-0-3-0-1-
 DIRTY-RRIP-POLICY-1: 2-2-1-3-1-3-0-1- DIRTY-RRIP-POLICY-2: 2-2-1-3-1-3-0-1-
 PSEL width: 10
Heartbeat CPU 0 instructions: 10000002 cycles: 6248654 heartbeat IPC: 1.60035 cumulative IPC: 1.60035 (Simulation time: 0 hr 0 min 12 sec) 
Heartbeat CPU 0 instructions: 20000000 cycles: 12469988 heartbeat IPC: 1.60737 cumulative IPC: 1.60385 (Simulation time: 0 hr 0 min 25 sec) 
Heartbeat CPU 0 instructions: 30000000 cycles: 18680840 heartbeat IPC: 1.61009 cumulative IPC: 1.60592 (Simulation time: 0 hr 0 min 38 sec) 
Heartbeat CPU 0 instructions: 40000000 cycles: 24891830 heartbeat IPC: 1.61005 cumulative IPC: 1.60695 (Simulation time: 0 hr 0 min 50 sec) 
Heartbeat CPU 0 instructions: 50000003 cycles: 31104504 heartbeat IPC: 1.60961 cumulative IPC: 1.60748 (Simulation time: 0 hr 1 min 3 sec) 
Heartbeat CPU 0 instructions: 60000000 cycles: 37300824 heartbeat IPC: 1.61386 cumulative IPC: 1.60854 (Simulation time: 0 hr 1 min 16 sec) 
Heartbeat CPU 0 instructions: 70000003 cycles: 43519479 heartbeat IPC: 1.60807 cumulative IPC: 1.60848 (Simulation time: 0 hr 1 min 29 sec) 
Heartbeat CPU 0 instructions: 80000000 cycles: 49750097 heartbeat IPC: 1.60498 cumulative IPC: 1.60804 (Simulation time: 0 hr 1 min 41 sec) 
Heartbeat CPU 0 instructions: 90000000 cycles: 55979104 heartbeat IPC: 1.60539 cumulative IPC: 1.60774 (Simulation time: 0 hr 1 min 54 sec) 
Heartbeat CPU 0 instructions: 100000000 cycles: 62198207 heartbeat IPC: 1.60795 cumulative IPC: 1.60776 (Simulation time: 0 hr 2 min 7 sec) 

Warmup complete CPU 0 instructions: 100000001 cycles: 62198208 (Simulation time: 0 hr 2 min 7 sec) 

Heartbeat CPU 0 instructions: 110000000 cycles: 86944142 heartbeat IPC: 0.404107 cumulative IPC: 0.404107 (Simulation time: 0 hr 2 min 31 sec) 
Heartbeat CPU 0 instructions: 120000000 cycles: 111752412 heartbeat IPC: 0.403091 cumulative IPC: 0.403598 (Simulation time: 0 hr 2 min 56 sec) 
Heartbeat CPU 0 instructions: 130000000 cycles: 136648093 heartbeat IPC: 0.401676 cumulative IPC: 0.402956 (Simulation time: 0 hr 3 min 21 sec) 
Heartbeat CPU 0 instructions: 140000000 cycles: 161494002 heartbeat IPC: 0.402481 cumulative IPC: 0.402837 (Simulation time: 0 hr 3 min 45 sec) 
Heartbeat CPU 0 instructions: 150000003 cycles: 186217227 heartbeat IPC: 0.404478 cumulative IPC: 0.403164 (Simulation time: 0 hr 4 min 10 sec) 
Heartbeat CPU 0 instructions: 160000000 cycles: 211212379 heartbeat IPC: 0.400077 cumulative IPC: 0.402646 (Simulation time: 0 hr 4 min 34 sec) 
Heartbeat CPU 0 instructions: 170000001 cycles: 236069558 heartbeat IPC: 0.402298 cumulative IPC: 0.402597 (Simulation time: 0 hr 4 min 59 sec) 
Heartbeat CPU 0 instructions: 180000000 cycles: 260914758 heartbeat IPC: 0.402492 cumulative IPC: 0.402583 (Simulation time: 0 hr 5 min 24 sec) 
Heartbeat CPU 0 instructions: 190000003 cycles: 285716814 heartbeat IPC: 0.403192 cumulative IPC: 0.402651 (Simulation time: 0 hr 5 min 48 sec) 
Heartbeat CPU 0 instructions: 200000000 cycles: 310561307 heartbeat IPC: 0.402504 cumulative IPC: 0.402636 (Simulation time: 0 hr 6 min 13 sec) 
Heartbeat CPU 0 instructions: 210000003 cycles: 335457230 heartbeat IPC: 0.401672 cumulative IPC: 0.402548 (Simulation time: 0 hr 6 min 38 sec) 
Heartbeat CPU 0 instructions: 220000000 cycles: 360563841 heartbeat IPC: 0.398301 cumulative IPC: 0.402191 (Simulation time: 0 hr 7 min 2 sec) 
Heartbeat CPU 0 instructions: 230000002 cycles: 385314969 heartbeat IPC: 0.404022 cumulative IPC: 0.402331 (Simulation time: 0 hr 7 min 27 sec) 
Heartbeat CPU 0 instructions: 240000000 cycles: 410359033 heartbeat IPC: 0.399296 cumulative IPC: 0.402113 (Simulation time: 0 hr 7 min 52 sec) 
Heartbeat CPU 0 instructions: 250000000 cycles: 435228057 heartbeat IPC: 0.402107 cumulative IPC: 0.402113 (Simulation time: 0 hr 8 min 17 sec) 
Heartbeat CPU 0 instructions: 260000000 cycles: 460072676 heartbeat IPC: 0.402502 cumulative IPC: 0.402137 (Simulation time: 0 hr 8 min 41 sec) 
Heartbeat CPU 0 instructions: 270000001 cycles: 485007556 heartbeat IPC: 0.401045 cumulative IPC: 0.402072 (Simulation time: 0 hr 9 min 6 sec) 
Heartbeat CPU 0 instructions: 280000000 cycles: 509855564 heartbeat IPC: 0.402447 cumulative IPC: 0.402093 (Simulation time: 0 hr 9 min 31 sec) 
Heartbeat CPU 0 instructions: 290000001 cycles: 534783451 heartbeat IPC: 0.401157 cumulative IPC: 0.402044 (Simulation time: 0 hr 9 min 56 sec) 
Heartbeat CPU 0 instructions: 300000000 cycles: 559884887 heartbeat IPC: 0.398384 cumulative IPC: 0.401859 (Simulation time: 0 hr 10 min 21 sec) 
Heartbeat CPU 0 instructions: 310000003 cycles: 584630927 heartbeat IPC: 0.404105 cumulative IPC: 0.401966 (Simulation time: 0 hr 10 min 46 sec) 
Heartbeat CPU 0 instructions: 320000000 cycles: 609747180 heartbeat IPC: 0.398148 cumulative IPC: 0.401791 (Simulation time: 0 hr 11 min 11 sec) 
Heartbeat CPU 0 instructions: 330000003 cycles: 634589508 heartbeat IPC: 0.402539 cumulative IPC: 0.401823 (Simulation time: 0 hr 11 min 35 sec) 
Heartbeat CPU 0 instructions: 340000000 cycles: 659730337 heartbeat IPC: 0.397759 cumulative IPC: 0.401652 (Simulation time: 0 hr 12 min 0 sec) 
Heartbeat CPU 0 instructions: 350000002 cycles: 684835377 heartbeat IPC: 0.398326 cumulative IPC: 0.401518 (Simulation time: 0 hr 12 min 25 sec) 
Heartbeat CPU 0 instructions: 360000000 cycles: 710090833 heartbeat IPC: 0.395954 cumulative IPC: 0.401301 (Simulation time: 0 hr 12 min 50 sec) 
Heartbeat CPU 0 instructions: 370000000 cycles: 735130320 heartbeat IPC: 0.399369 cumulative IPC: 0.401229 (Simulation time: 0 hr 13 min 14 sec) 
Heartbeat CPU 0 instructions: 380000000 cycles: 759975013 heartbeat IPC: 0.4025 cumulative IPC: 0.401274 (Simulation time: 0 hr 13 min 39 sec) 
Heartbeat CPU 0 instructions: 390000002 cycles: 784841173 heartbeat IPC: 0.402153 cumulative IPC: 0.401305 (Simulation time: 0 hr 14 min 3 sec) 
Heartbeat CPU 0 instructions: 400000000 cycles: 809883018 heartbeat IPC: 0.399332 cumulative IPC: 0.401239 (Simulation time: 0 hr 14 min 28 sec) 
Heartbeat CPU 0 instructions: 410000002 cycles: 834813769 heartbeat IPC: 0.401111 cumulative IPC: 0.401234 (Simulation time: 0 hr 14 min 52 sec) 
Heartbeat CPU 0 instructions: 420000000 cycles: 859544896 heartbeat IPC: 0.404349 cumulative IPC: 0.401331 (Simulation time: 0 hr 15 min 17 sec) 
Heartbeat CPU 0 instructions: 430000000 cycles: 884528256 heartbeat IPC: 0.400266 cumulative IPC: 0.401299 (Simulation time: 0 hr 15 min 41 sec) 
Heartbeat CPU 0 instructions: 440000000 cycles: 909210248 heartbeat IPC: 0.405154 cumulative IPC: 0.401411 (Simulation time: 0 hr 16 min 6 sec) 
Heartbeat CPU 0 instructions: 450000000 cycles: 934345698 heartbeat IPC: 0.397844 cumulative IPC: 0.401308 (Simulation time: 0 hr 16 min 32 sec) 
Heartbeat CPU 0 instructions: 460000000 cycles: 959388693 heartbeat IPC: 0.399313 cumulative IPC: 0.401253 (Simulation time: 0 hr 16 min 57 sec) 
Heartbeat CPU 0 instructions: 470000001 cycles: 984226976 heartbeat IPC: 0.402604 cumulative IPC: 0.401289 (Simulation time: 0 hr 17 min 23 sec) 
Heartbeat CPU 0 instructions: 480000000 cycles: 1009244319 heartbeat IPC: 0.399723 cumulative IPC: 0.401248 (Simulation time: 0 hr 17 min 48 sec) 
Heartbeat CPU 0 instructions: 490000000 cycles: 1034374017 heartbeat IPC: 0.397936 cumulative IPC: 0.401162 (Simulation time: 0 hr 18 min 14 sec) 
Heartbeat CPU 0 instructions: 500000000 cycles: 1059796315 heartbeat IPC: 0.393355 cumulative IPC: 0.400963 (Simulation time: 0 hr 18 min 39 sec) 
Heartbeat CPU 0 instructions: 510000003 cycles: 1085111539 heartbeat IPC: 0.395019 cumulative IPC: 0.400816 (Simulation time: 0 hr 19 min 5 sec) 
Heartbeat CPU 0 instructions: 520000000 cycles: 1110589821 heartbeat IPC: 0.392491 cumulative IPC: 0.400614 (Simulation time: 0 hr 19 min 30 sec) 
Heartbeat CPU 0 instructions: 530000003 cycles: 1136094264 heartbeat IPC: 0.392089 cumulative IPC: 0.400411 (Simulation time: 0 hr 19 min 56 sec) 
Heartbeat CPU 0 instructions: 540000000 cycles: 1161506316 heartbeat IPC: 0.393514 cumulative IPC: 0.400252 (Simulation time: 0 hr 20 min 21 sec) 
Heartbeat CPU 0 instructions: 550000000 cycles: 1186930774 heartbeat IPC: 0.393322 cumulative IPC: 0.400095 (Simulation time: 0 hr 20 min 47 sec) 
Heartbeat CPU 0 instructions: 560000000 cycles: 1212684647 heartbeat IPC: 0.388291 cumulative IPC: 0.399831 (Simulation time: 0 hr 21 min 13 sec) 
Heartbeat CPU 0 instructions: 570000001 cycles: 1238350574 heartbeat IPC: 0.389622 cumulative IPC: 0.399608 (Simulation time: 0 hr 21 min 38 sec) 
Heartbeat CPU 0 instructions: 580000000 cycles: 1264029744 heartbeat IPC: 0.389421 cumulative IPC: 0.39939 (Simulation time: 0 hr 22 min 4 sec) 
Heartbeat CPU 0 instructions: 590000000 cycles: 1289885243 heartbeat IPC: 0.386765 cumulative IPC: 0.399125 (Simulation time: 0 hr 22 min 30 sec) 
Heartbeat CPU 0 instructions: 600000000 cycles: 1315814343 heartbeat IPC: 0.385667 cumulative IPC: 0.398846 (Simulation time: 0 hr 22 min 56 sec) 
Finished CPU 0 instructions: 500000003 cycles: 1253616148 cumulative IPC: 0.398846 (Simulation time: 0 hr 22 min 56 sec) 

CPU 0 Branch Prediction Accuracy: 91.1342% MPKI: 18.7968
Number of Branches: 106006945 Number of Mispredictions: 9398408
Number of LOAD Instructions: 207894007
Number of LOAD Instructions (ROI): 207894007
Number of STORE Instructions: 54285997
Number of STORE Instructions (ROI): 54285997
Total Destination Memory Operands: 57463404
Total Destination Memory Operands (ROI): 57463404
Total Source Memory Operands: 207894007
Total Source Memory Operands (ROI): 207894007
Number of DEPENDED LOADS: 18111575
Number of DEPENDED LOADS (ROI): 18111575
Number of SQ_ADDED: 57463404
Number of SQ_ADDED (ROI): 57463404
Number of LQ_ADDED: 209255571
Number of LQ_ADDED (ROI): 209255571
Number of Instructions read from trace: 600000039

ChampSim completed all CPUs

Region of Interest Statistics

CPU 0 cumulative IPC: 0.398846 instructions: 500000003 cycles: 1253616148
ITLB TOTAL     ACCESS:   96409369  HIT:   96409369  MISS:          0
ITLB LOAD      ACCESS:   96409369  HIT:   96409369  MISS:          0
ITLB RFO       ACCESS:          0  HIT:          0  MISS:          0
ITLB PREFETCH  ACCESS:          0  HIT:          0  MISS:          0
ITLB WRITEBACK ACCESS:          0  HIT:          0  MISS:          0
ITLB PREFETCH  REQUESTED:          0  ISSUED:          0  USEFUL:          0  USELESS:          0
ITLB TOTAL MSHR MERGED:          0
ITLB LOAD MSHR MERGED:          0
ITLB RFO MSHR MERGED:          0
ITLB PREFETCH MSHR MERGED:          0
ITLB WRITEBACK MSHR MERGED:          0
ITLB TOTAL ACCESSES:   96409369 HITS:   96409369 MISSES:          0
ITLB LOAD ACCESSES:   96409369 HITS:   96409369 MISSES:          0
ITLB RFO ACCESSES:          0 HITS:          0 MISSES:          0
ITLB PREFETCH ACCESSES:          0 HITS:          0 MISSES:          0
ITLB WRITEBACK ACCESSES:          0 HITS:          0 MISSES:          0
ITLB RQ ACCESS:  499999980
ITLB RQ TO_CACHE:   96409369
ITLB RQ MERGED:  403590611
ITLB RQ FORWARD:          0
ITLB WQ ACCESS:          0
ITLB WQ TO_CACHE:          0
ITLB WQ MERGED:          0
ITLB WQ FORWARD:          0
DTLB TOTAL     ACCESS:  155166815  HIT:  150254741  MISS:    4912074
DTLB LOAD      ACCESS:  117716253  HIT:  113325861  MISS:    4390392
DTLB RFO       ACCESS:   37450562  HIT:   36928880  MISS:     521682
DTLB PREFETCH  ACCESS:          0  HIT:          0  MISS:          0
DTLB WRITEBACK ACCESS:          0  HIT:          0  MISS:          0
DTLB PREFETCH  REQUESTED:          0  ISSUED:          0  USEFUL:          0  USELESS:          0
DTLB TOTAL MSHR MERGED:     452418
DTLB LOAD MSHR MERGED:     161020
DTLB RFO MSHR MERGED:     291398
DTLB PREFETCH MSHR MERGED:          0
DTLB WRITEBACK MSHR MERGED:          0
DTLB TOTAL ACCESSES:  155619233 HITS:  150254741 MISSES:    5364492
DTLB LOAD ACCESSES:  117877273 HITS:  113325861 MISSES:    4551412
DTLB RFO ACCESSES:   37741960 HITS:   36928880 MISSES:     813080
DTLB PREFETCH ACCESSES:          0 HITS:          0 MISSES:          0
DTLB WRITEBACK ACCESSES:          0 HITS:          0 MISSES:          0
DTLB RQ ACCESS:  205971539
DTLB RQ TO_CACHE:  155619233
DTLB RQ MERGED:   50352306
DTLB RQ FORWARD:          0
DTLB WQ ACCESS:          0
DTLB WQ TO_CACHE:          0
DTLB WQ MERGED:          0
DTLB WQ FORWARD:          0
L1D TOTAL     ACCESS:  277146764  HIT:  242324785  MISS:   34821979
L1D LOAD      ACCESS:  125410116  HIT:  107771396  MISS:   17638720
L1D RFO       ACCESS:   41132702  HIT:   38820860  MISS:    2311842
L1D PREFETCH  ACCESS:  110603946  HIT:   95732529  MISS:   14871417
L1D WRITEBACK ACCESS:          0  HIT:          0  MISS:          0
L1D PREFETCH  REQUESTED:  126264499  ISSUED:  124745293  USEFUL:    2705785  USELESS:   12165658
L1D TOTAL MSHR MERGED:    8505105
L1D LOAD MSHR MERGED:    1545213
L1D RFO MSHR MERGED:    3771039
L1D PREFETCH MSHR MERGED:    3188853
L1D WRITEBACK MSHR MERGED:          0
L1D TOTAL ACCESSES:  285739133 HITS:  242412048 MISSES:   43327085
L1D LOAD ACCESSES:  126264529 HITS:  107771426 MISSES:   18493103
L1D RFO ACCESSES:   44903245 HITS:   38820860 MISSES:    6082385
L1D PREFETCH ACCESSES:  114571359 HITS:   95819762 MISSES:   18751597
L1D WRITEBACK ACCESSES:          0 HITS:          0 MISSES:          0
L1D RQ ACCESS:  158424658
L1D RQ TO_CACHE:  126264499
L1D RQ MERGED:   32160129
L1D RQ FORWARD:          0
L1D WQ ACCESS:   47546882
L1D WQ TO_CACHE:   44903245
L1D WQ MERGED:    2643637
L1D WQ FORWARD:      87263
L1I TOTAL     ACCESS:  132817178  HIT:  132817178  MISS:          0
L1I LOAD      ACCESS:  132817178  HIT:  132817178  MISS:          0
L1I RFO       ACCESS:          0  HIT:          0  MISS:          0
L1I PREFETCH  ACCESS:          0  HIT:          0  MISS:          0
L1I WRITEBACK ACCESS:          0  HIT:          0  MISS:          0
L1I PREFETCH  REQUESTED:          0  ISSUED:          0  USEFUL:          0  USELESS:          0
L1I TOTAL MSHR MERGED:          0
L1I LOAD MSHR MERGED:          0
L1I RFO MSHR MERGED:          0
L1I PREFETCH MSHR MERGED:          0
L1I WRITEBACK MSHR MERGED:          0
L1I TOTAL ACCESSES:  132817178 HITS:  132817178 MISSES:          0
L1I LOAD ACCESSES:  132817178 HITS:  132817178 MISSES:          0
L1I RFO ACCESSES:          0 HITS:          0 MISSES:          0
L1I PREFETCH ACCESSES:          0 HITS:          0 MISSES:          0
L1I WRITEBACK ACCESSES:          0 HITS:          0 MISSES:          0
L1I RQ ACCESS:  499999980
L1I RQ TO_CACHE:  132817178
L1I RQ MERGED:  367182802
L1I RQ FORWARD:          0
L1I WQ ACCESS:          0
L1I WQ TO_CACHE:          0
L1I WQ MERGED:          0
L1I WQ FORWARD:          0
L2C TOTAL     ACCESS:   39596171  HIT:   20626955  MISS:   18969216
L2C LOAD      ACCESS:   16947831  HIT:    8567598  MISS:    8380233
L2C RFO       ACCESS:    2311296  HIT:     630842  MISS:    1680454
L2C PREFETCH  ACCESS:   17114616  HIT:    8209836  MISS:    8904780
L2C WRITEBACK ACCESS:    3222428  HIT:    3218679  MISS:       3749
L2C PREFETCH  REQUESTED:    2882054  ISSUED:    2882054  USEFUL:    1306980  USELESS:    7597548
L2C TOTAL MSHR MERGED:     533082
L2C LOAD MSHR MERGED:      89581
L2C RFO MSHR MERGED:          0
L2C PREFETCH MSHR MERGED:     443501
L2C WRITEBACK MSHR MERGED:          0
L2C TOTAL ACCESSES:   40247878 HITS:   20627116 MISSES:   19620762
L2C LOAD ACCESSES:   16947890 HITS:    8567657 MISSES:    8380233
L2C RFO ACCESSES:    2311346 HITS:     630892 MISSES:    1680454
L2C PREFETCH ACCESSES:   17766214 HITS:    8209888 MISSES:    9556326
L2C WRITEBACK ACCESSES:    3222428 HITS:    3218679 MISSES:       3749
L2C RQ ACCESS:   19259236
L2C RQ TO_CACHE:   19259127
L2C RQ MERGED:          0
L2C RQ FORWARD:          0
L2C WQ ACCESS:    3222428
L2C WQ TO_CACHE:    3222428
L2C WQ MERGED:          0
L2C WQ FORWARD:        161
LLC TOTAL     ACCESS:   21200094  HIT:   13827822  MISS:    7372272
LLC LOAD      ACCESS:    8290628  HIT:    5729624  MISS:    2561004
LLC RFO       ACCESS:    1680375  HIT:    1646793  MISS:      33582
LLC PREFETCH  ACCESS:    9053433  HIT:    4306846  MISS:    4746587
LLC WRITEBACK ACCESS:    2175658  HIT:    2144559  MISS:      31099
LLC PREFETCH  REQUESTED:          0  ISSUED:          0  USEFUL:     196301  USELESS:    4552338
LLC TOTAL MSHR MERGED:      50158
LLC LOAD MSHR MERGED:      15714
LLC RFO MSHR MERGED:          0
LLC PREFETCH MSHR MERGED:      34444
LLC WRITEBACK MSHR MERGED:          0
LLC TOTAL ACCESSES:   21250384 HITS:   13827953 MISSES:    7422431
LLC LOAD ACCESSES:    8290652 HITS:    5729648 MISSES:    2561004
LLC RFO ACCESSES:    1680454 HITS:    1646872 MISSES:      33582
LLC PREFETCH ACCESSES:    9103620 HITS:    4306874 MISSES:    4796746
LLC WRITEBACK ACCESSES:    2175658 HITS:    2144559 MISSES:      31099
LLC 0 RQ ACCESS:    9971106
LLC 0 RQ TO_CACHE:    9971003
LLC 0 RQ MERGED:          0
LLC 0 RQ FORWARD:          0
LLC WQ ACCESS:    2175659
LLC WQ TO_CACHE:    2175659
LLC WQ MERGED:          0
LLC WQ FORWARD:        131
Major fault: 0 Minor fault: 56391
CPU 0 L1D next line prefetcher final stats
CPU 0 L2C PC-based stride prefetcher final stats
All Misses: 8675268
All Hits: 15901671
SD Algo Stats - Switches: 0 SRR-Repls: 2696232 BRR-Repls: 0

DRAM Statistics
 CHANNEL 0
 RQ ROW_BUFFER_HIT:    4593035  ROW_BUFFER_MISS:    2714985
 DBUS_CONGESTED:    3410689
 WQ ROW_BUFFER_HIT:       3123  ROW_BUFFER_MISS:      71627  FULL:          0

 AVG_CONGESTED_CYCLE: 12
LOADS RETIRED: 173631671
INSTR RETIRED: 500000000
