
*** ChampSim Multicore Out-of-Order Simulator ***

Warmup Instructions: 100000000
Simulation Instructions: 500000000
Number of CPUs: 1
LLC sets: 2048
LLC ways: 16
Clean RRIP Policies: 2113022021130220 Dirty RRIP Policies: 2123122021231220 PSEL Width: 10 Track Set: 4294967295 PSEL Mask: 1 Demote Mask: 1141402211414022DS Algo: 0Window size: 0
Off-chip DRAM Size: 4096 MB Channels: 1 Width: 64-bit Data Rate: 1600 MT/s

CPU 0 runs /mnt/beegfs/iconst01/spec2017/Xz.trace.gz
NOT SORTED
TRACE STRING: /mnt/beegfs/iconst01/spec2017/Xz.trace.gz
SORTED
TRACE STRING: /mnt/beegfs/iconst01/spec2017/Xz.trace.gz
INITIAL
TRACE STRING: /mnt/beegfs/iconst01/spec2017/Xz.trace.gz

champsim_seed used: 210

CPU 0 L1D next line prefetcher
CPU 0 L2C IP-based stride prefetcher
Initialize DRRIP state
Assign rand_sets[0]: 454  LLC: 2048
rand_sets[0]: 454
Assign rand_sets[1]: 1662  LLC: 2048
rand_sets[1]: 1662
Assign rand_sets[2]: 1921  LLC: 2048
rand_sets[2]: 1921
Assign rand_sets[3]: 1131  LLC: 2048
rand_sets[3]: 1131
Assign rand_sets[4]: 331  LLC: 2048
rand_sets[4]: 331
Assign rand_sets[5]: 1531  LLC: 2048
rand_sets[5]: 1531
Assign rand_sets[6]: 482  LLC: 2048
rand_sets[6]: 482
Assign rand_sets[7]: 1275  LLC: 2048
rand_sets[7]: 1275
Assign rand_sets[8]: 1876  LLC: 2048
rand_sets[8]: 1876
Assign rand_sets[9]: 2038  LLC: 2048
rand_sets[9]: 2038
Assign rand_sets[10]: 701  LLC: 2048
rand_sets[10]: 701
Assign rand_sets[11]: 479  LLC: 2048
rand_sets[11]: 479
Assign rand_sets[12]: 892  LLC: 2048
rand_sets[12]: 892
Assign rand_sets[13]: 1820  LLC: 2048
rand_sets[13]: 1820
Assign rand_sets[14]: 1505  LLC: 2048
rand_sets[14]: 1505
Assign rand_sets[15]: 1159  LLC: 2048
rand_sets[15]: 1159
Assign rand_sets[16]: 513  LLC: 2048
rand_sets[16]: 513
Assign rand_sets[17]: 703  LLC: 2048
rand_sets[17]: 703
Assign rand_sets[18]: 561  LLC: 2048
rand_sets[18]: 561
Assign rand_sets[19]: 990  LLC: 2048
rand_sets[19]: 990
Assign rand_sets[20]: 342  LLC: 2048
rand_sets[20]: 342
Assign rand_sets[21]: 882  LLC: 2048
rand_sets[21]: 882
Assign rand_sets[22]: 15  LLC: 2048
rand_sets[22]: 15
Assign rand_sets[23]: 71  LLC: 2048
rand_sets[23]: 71
Assign rand_sets[24]: 1127  LLC: 2048
rand_sets[24]: 1127
Assign rand_sets[25]: 1382  LLC: 2048
rand_sets[25]: 1382
Assign rand_sets[26]: 647  LLC: 2048
rand_sets[26]: 647
Assign rand_sets[27]: 857  LLC: 2048
rand_sets[27]: 857
Assign rand_sets[28]: 1450  LLC: 2048
rand_sets[28]: 1450
Assign rand_sets[29]: 1160  LLC: 2048
rand_sets[29]: 1160
Assign rand_sets[30]: 1852  LLC: 2048
rand_sets[30]: 1852
Assign rand_sets[31]: 1881  LLC: 2048
rand_sets[31]: 1881
Assign rand_sets[32]: 1770  LLC: 2048
rand_sets[32]: 1770
Assign rand_sets[33]: 1622  LLC: 2048
rand_sets[33]: 1622
Assign rand_sets[34]: 275  LLC: 2048
rand_sets[34]: 275
Assign rand_sets[35]: 635  LLC: 2048
rand_sets[35]: 635
Assign rand_sets[36]: 466  LLC: 2048
rand_sets[36]: 466
Assign rand_sets[37]: 1413  LLC: 2048
rand_sets[37]: 1413
Assign rand_sets[38]: 417  LLC: 2048
rand_sets[38]: 417
Assign rand_sets[39]: 472  LLC: 2048
rand_sets[39]: 472
Assign rand_sets[40]: 1340  LLC: 2048
rand_sets[40]: 1340
Assign rand_sets[41]: 852  LLC: 2048
rand_sets[41]: 852
Assign rand_sets[42]: 1365  LLC: 2048
rand_sets[42]: 1365
Assign rand_sets[43]: 47  LLC: 2048
rand_sets[43]: 47
Assign rand_sets[44]: 823  LLC: 2048
rand_sets[44]: 823
Assign rand_sets[45]: 686  LLC: 2048
rand_sets[45]: 686
Assign rand_sets[46]: 1637  LLC: 2048
rand_sets[46]: 1637
Assign rand_sets[47]: 1115  LLC: 2048
rand_sets[47]: 1115
Assign rand_sets[48]: 986  LLC: 2048
rand_sets[48]: 986
Assign rand_sets[49]: 258  LLC: 2048
rand_sets[49]: 258
Assign rand_sets[50]: 633  LLC: 2048
rand_sets[50]: 633
Assign rand_sets[51]: 920  LLC: 2048
rand_sets[51]: 920
Assign rand_sets[52]: 204  LLC: 2048
rand_sets[52]: 204
Assign rand_sets[53]: 227  LLC: 2048
rand_sets[53]: 227
Assign rand_sets[54]: 1818  LLC: 2048
rand_sets[54]: 1818
Assign rand_sets[55]: 886  LLC: 2048
rand_sets[55]: 886
Assign rand_sets[56]: 1422  LLC: 2048
rand_sets[56]: 1422
Assign rand_sets[57]: 607  LLC: 2048
rand_sets[57]: 607
Assign rand_sets[58]: 217  LLC: 2048
rand_sets[58]: 217
Assign rand_sets[59]: 1945  LLC: 2048
rand_sets[59]: 1945
Assign rand_sets[60]: 143  LLC: 2048
rand_sets[60]: 143
Assign rand_sets[61]: 1311  LLC: 2048
rand_sets[61]: 1311
Assign rand_sets[62]: 319  LLC: 2048
rand_sets[62]: 319
Assign rand_sets[63]: 1846  LLC: 2048
rand_sets[63]: 1846
 CLEAN-RRIP-POLICY-1: 2-1-1-3-0-2-2-0- CLEAN-RRIP-POLICY-2: 2-1-1-3-0-2-2-0-
 DIRTY-RRIP-POLICY-1: 2-1-2-3-1-2-2-0- DIRTY-RRIP-POLICY-2: 2-1-2-3-1-2-2-0-
 PSEL width: 10
Heartbeat CPU 0 instructions: 10000000 cycles: 4305270 heartbeat IPC: 2.32273 cumulative IPC: 2.32273 (Simulation time: 0 hr 0 min 12 sec) 
Heartbeat CPU 0 instructions: 20000000 cycles: 8617099 heartbeat IPC: 2.3192 cumulative IPC: 2.32097 (Simulation time: 0 hr 0 min 24 sec) 
Heartbeat CPU 0 instructions: 30000003 cycles: 13160977 heartbeat IPC: 2.20076 cumulative IPC: 2.27947 (Simulation time: 0 hr 0 min 36 sec) 
Heartbeat CPU 0 instructions: 40000000 cycles: 17515487 heartbeat IPC: 2.29647 cumulative IPC: 2.28369 (Simulation time: 0 hr 0 min 48 sec) 
Heartbeat CPU 0 instructions: 50000001 cycles: 21878359 heartbeat IPC: 2.29207 cumulative IPC: 2.28536 (Simulation time: 0 hr 1 min 0 sec) 
Heartbeat CPU 0 instructions: 60000000 cycles: 26178716 heartbeat IPC: 2.32539 cumulative IPC: 2.29194 (Simulation time: 0 hr 1 min 12 sec) 
Heartbeat CPU 0 instructions: 70000001 cycles: 30244719 heartbeat IPC: 2.45942 cumulative IPC: 2.31445 (Simulation time: 0 hr 1 min 23 sec) 
Heartbeat CPU 0 instructions: 80000000 cycles: 34523767 heartbeat IPC: 2.33697 cumulative IPC: 2.31724 (Simulation time: 0 hr 1 min 34 sec) 
Heartbeat CPU 0 instructions: 90000001 cycles: 38740599 heartbeat IPC: 2.37145 cumulative IPC: 2.32314 (Simulation time: 0 hr 1 min 46 sec) 
Heartbeat CPU 0 instructions: 100000000 cycles: 42981291 heartbeat IPC: 2.35811 cumulative IPC: 2.32659 (Simulation time: 0 hr 1 min 57 sec) 

Warmup complete CPU 0 instructions: 100000001 cycles: 42981292 (Simulation time: 0 hr 1 min 57 sec) 

Heartbeat CPU 0 instructions: 110000000 cycles: 53303445 heartbeat IPC: 0.96879 cumulative IPC: 0.96879 (Simulation time: 0 hr 2 min 14 sec) 
Heartbeat CPU 0 instructions: 120000000 cycles: 64217630 heartbeat IPC: 0.916239 cumulative IPC: 0.941782 (Simulation time: 0 hr 2 min 32 sec) 
Heartbeat CPU 0 instructions: 130000001 cycles: 75073690 heartbeat IPC: 0.921145 cumulative IPC: 0.934801 (Simulation time: 0 hr 2 min 49 sec) 
Heartbeat CPU 0 instructions: 140000000 cycles: 84980537 heartbeat IPC: 1.0094 cumulative IPC: 0.952398 (Simulation time: 0 hr 3 min 6 sec) 
Heartbeat CPU 0 instructions: 150000001 cycles: 95577413 heartbeat IPC: 0.943674 cumulative IPC: 0.95064 (Simulation time: 0 hr 3 min 24 sec) 
Heartbeat CPU 0 instructions: 160000000 cycles: 105912016 heartbeat IPC: 0.967623 cumulative IPC: 0.953429 (Simulation time: 0 hr 3 min 41 sec) 
Heartbeat CPU 0 instructions: 170000000 cycles: 115862688 heartbeat IPC: 1.00496 cumulative IPC: 0.960465 (Simulation time: 0 hr 3 min 58 sec) 
Heartbeat CPU 0 instructions: 180000000 cycles: 126767178 heartbeat IPC: 0.917053 cumulative IPC: 0.954815 (Simulation time: 0 hr 4 min 16 sec) 
Heartbeat CPU 0 instructions: 190000001 cycles: 137341983 heartbeat IPC: 0.945644 cumulative IPC: 0.953787 (Simulation time: 0 hr 4 min 33 sec) 
Heartbeat CPU 0 instructions: 200000000 cycles: 148314258 heartbeat IPC: 0.911388 cumulative IPC: 0.94937 (Simulation time: 0 hr 4 min 51 sec) 
Heartbeat CPU 0 instructions: 210000002 cycles: 161460475 heartbeat IPC: 0.760675 cumulative IPC: 0.928433 (Simulation time: 0 hr 5 min 10 sec) 
Heartbeat CPU 0 instructions: 220000000 cycles: 174771919 heartbeat IPC: 0.751233 cumulative IPC: 0.910535 (Simulation time: 0 hr 5 min 29 sec) 
Heartbeat CPU 0 instructions: 230000000 cycles: 187708832 heartbeat IPC: 0.772982 cumulative IPC: 0.89824 (Simulation time: 0 hr 5 min 48 sec) 
Heartbeat CPU 0 instructions: 240000000 cycles: 200634492 heartbeat IPC: 0.773655 cumulative IPC: 0.888025 (Simulation time: 0 hr 6 min 7 sec) 
Heartbeat CPU 0 instructions: 250000000 cycles: 213349001 heartbeat IPC: 0.786503 cumulative IPC: 0.880449 (Simulation time: 0 hr 6 min 26 sec) 
Heartbeat CPU 0 instructions: 260000000 cycles: 225538343 heartbeat IPC: 0.820389 cumulative IPC: 0.876438 (Simulation time: 0 hr 6 min 45 sec) 
Heartbeat CPU 0 instructions: 270000003 cycles: 238154203 heartbeat IPC: 0.792653 cumulative IPC: 0.871023 (Simulation time: 0 hr 7 min 3 sec) 
Heartbeat CPU 0 instructions: 280000000 cycles: 250356587 heartbeat IPC: 0.819512 cumulative IPC: 0.867992 (Simulation time: 0 hr 7 min 22 sec) 
Heartbeat CPU 0 instructions: 290000002 cycles: 262668776 heartbeat IPC: 0.812203 cumulative IPC: 0.864865 (Simulation time: 0 hr 7 min 41 sec) 
Heartbeat CPU 0 instructions: 300000000 cycles: 275875292 heartbeat IPC: 0.757202 cumulative IPC: 0.85876 (Simulation time: 0 hr 8 min 0 sec) 
Heartbeat CPU 0 instructions: 310000000 cycles: 288892710 heartbeat IPC: 0.768201 cumulative IPC: 0.853966 (Simulation time: 0 hr 8 min 18 sec) 
Heartbeat CPU 0 instructions: 320000000 cycles: 302443480 heartbeat IPC: 0.737965 cumulative IPC: 0.847908 (Simulation time: 0 hr 8 min 38 sec) 
Heartbeat CPU 0 instructions: 330000003 cycles: 315233914 heartbeat IPC: 0.781835 cumulative IPC: 0.844804 (Simulation time: 0 hr 8 min 56 sec) 
Heartbeat CPU 0 instructions: 340000000 cycles: 328252716 heartbeat IPC: 0.76812 cumulative IPC: 0.841304 (Simulation time: 0 hr 9 min 15 sec) 
Heartbeat CPU 0 instructions: 350000001 cycles: 339804072 heartbeat IPC: 0.865699 cumulative IPC: 0.842253 (Simulation time: 0 hr 9 min 33 sec) 
Heartbeat CPU 0 instructions: 360000000 cycles: 352395863 heartbeat IPC: 0.794168 cumulative IPC: 0.840297 (Simulation time: 0 hr 9 min 52 sec) 
Heartbeat CPU 0 instructions: 370000001 cycles: 364258820 heartbeat IPC: 0.84296 cumulative IPC: 0.840395 (Simulation time: 0 hr 10 min 10 sec) 
Heartbeat CPU 0 instructions: 380000000 cycles: 375735777 heartbeat IPC: 0.871311 cumulative IPC: 0.841461 (Simulation time: 0 hr 10 min 29 sec) 
Heartbeat CPU 0 instructions: 390000003 cycles: 386897299 heartbeat IPC: 0.895935 cumulative IPC: 0.843229 (Simulation time: 0 hr 10 min 47 sec) 
Heartbeat CPU 0 instructions: 400000000 cycles: 397528813 heartbeat IPC: 0.9406 cumulative IPC: 0.846149 (Simulation time: 0 hr 11 min 5 sec) 
Heartbeat CPU 0 instructions: 410000000 cycles: 408571386 heartbeat IPC: 0.905586 cumulative IPC: 0.847944 (Simulation time: 0 hr 11 min 23 sec) 
Heartbeat CPU 0 instructions: 420000000 cycles: 418155524 heartbeat IPC: 1.04339 cumulative IPC: 0.852937 (Simulation time: 0 hr 11 min 40 sec) 
Heartbeat CPU 0 instructions: 430000002 cycles: 427347046 heartbeat IPC: 1.08796 cumulative IPC: 0.858557 (Simulation time: 0 hr 11 min 57 sec) 
Heartbeat CPU 0 instructions: 440000000 cycles: 438113240 heartbeat IPC: 0.928833 cumulative IPC: 0.860472 (Simulation time: 0 hr 12 min 15 sec) 
Heartbeat CPU 0 instructions: 450000002 cycles: 449825888 heartbeat IPC: 0.853778 cumulative IPC: 0.860279 (Simulation time: 0 hr 12 min 33 sec) 
Heartbeat CPU 0 instructions: 460000000 cycles: 462034671 heartbeat IPC: 0.819082 cumulative IPC: 0.859079 (Simulation time: 0 hr 12 min 51 sec) 
Heartbeat CPU 0 instructions: 470000003 cycles: 472571069 heartbeat IPC: 0.949091 cumulative IPC: 0.861287 (Simulation time: 0 hr 13 min 9 sec) 
Heartbeat CPU 0 instructions: 480000000 cycles: 483539878 heartbeat IPC: 0.911676 cumulative IPC: 0.862541 (Simulation time: 0 hr 13 min 27 sec) 
Heartbeat CPU 0 instructions: 490000000 cycles: 493777328 heartbeat IPC: 0.976806 cumulative IPC: 0.865136 (Simulation time: 0 hr 13 min 44 sec) 
Heartbeat CPU 0 instructions: 500000000 cycles: 506302409 heartbeat IPC: 0.798398 cumulative IPC: 0.863332 (Simulation time: 0 hr 14 min 3 sec) 
Heartbeat CPU 0 instructions: 510000002 cycles: 519460364 heartbeat IPC: 0.759997 cumulative IPC: 0.860479 (Simulation time: 0 hr 14 min 22 sec) 
Heartbeat CPU 0 instructions: 520000000 cycles: 531933091 heartbeat IPC: 0.801749 cumulative IPC: 0.85898 (Simulation time: 0 hr 14 min 40 sec) 
Heartbeat CPU 0 instructions: 530000001 cycles: 544385029 heartbeat IPC: 0.803088 cumulative IPC: 0.857592 (Simulation time: 0 hr 14 min 59 sec) 
Heartbeat CPU 0 instructions: 540000000 cycles: 556596012 heartbeat IPC: 0.818935 cumulative IPC: 0.856673 (Simulation time: 0 hr 15 min 17 sec) 
Heartbeat CPU 0 instructions: 550000001 cycles: 568592664 heartbeat IPC: 0.833566 cumulative IPC: 0.856146 (Simulation time: 0 hr 15 min 36 sec) 
Heartbeat CPU 0 instructions: 560000000 cycles: 580744412 heartbeat IPC: 0.822927 cumulative IPC: 0.855395 (Simulation time: 0 hr 15 min 54 sec) 
Heartbeat CPU 0 instructions: 570000000 cycles: 592690680 heartbeat IPC: 0.837081 cumulative IPC: 0.854997 (Simulation time: 0 hr 16 min 12 sec) 
Heartbeat CPU 0 instructions: 580000000 cycles: 603872096 heartbeat IPC: 0.894341 cumulative IPC: 0.855782 (Simulation time: 0 hr 16 min 30 sec) 
Heartbeat CPU 0 instructions: 590000003 cycles: 615870512 heartbeat IPC: 0.833444 cumulative IPC: 0.855314 (Simulation time: 0 hr 16 min 48 sec) 
Heartbeat CPU 0 instructions: 600000000 cycles: 626873857 heartbeat IPC: 0.908814 cumulative IPC: 0.856322 (Simulation time: 0 hr 17 min 6 sec) 
Finished CPU 0 instructions: 500000001 cycles: 583892573 cumulative IPC: 0.856322 (Simulation time: 0 hr 17 min 6 sec) 

CPU 0 Branch Prediction Accuracy: 93.0095% MPKI: 10.0046
Number of Branches: 71558147 Number of Mispredictions: 5002285
Number of LOAD Instructions: 145708893
Number of LOAD Instructions (ROI): 145708893
Number of STORE Instructions: 40463820
Number of STORE Instructions (ROI): 40463820
Total Destination Memory Operands: 45240498
Total Destination Memory Operands (ROI): 45240498
Total Source Memory Operands: 145708893
Total Source Memory Operands (ROI): 145708893
Number of DEPENDED LOADS: 10670625
Number of DEPENDED LOADS (ROI): 10670625
Number of SQ_ADDED: 45240498
Number of SQ_ADDED (ROI): 45240498
Number of LQ_ADDED: 193480288
Number of LQ_ADDED (ROI): 193480288
Number of Instructions read from trace: 600000002

ChampSim completed all CPUs

Region of Interest Statistics

CPU 0 cumulative IPC: 0.856322 instructions: 500000001 cycles: 583892573
ITLB TOTAL     ACCESS:   77979877  HIT:   77979876  MISS:          1
ITLB LOAD      ACCESS:   77979877  HIT:   77979876  MISS:          1
ITLB RFO       ACCESS:          0  HIT:          0  MISS:          0
ITLB PREFETCH  ACCESS:          0  HIT:          0  MISS:          0
ITLB WRITEBACK ACCESS:          0  HIT:          0  MISS:          0
ITLB PREFETCH  REQUESTED:          0  ISSUED:          0  USEFUL:          0  USELESS:          0
ITLB TOTAL MSHR MERGED:          0
ITLB LOAD MSHR MERGED:          0
ITLB RFO MSHR MERGED:          0
ITLB PREFETCH MSHR MERGED:          0
ITLB WRITEBACK MSHR MERGED:          0
ITLB TOTAL ACCESSES:   77979877 HITS:   77979876 MISSES:          1
ITLB LOAD ACCESSES:   77979877 HITS:   77979876 MISSES:          1
ITLB RFO ACCESSES:          0 HITS:          0 MISSES:          0
ITLB PREFETCH ACCESSES:          0 HITS:          0 MISSES:          0
ITLB WRITEBACK ACCESSES:          0 HITS:          0 MISSES:          0
ITLB RQ ACCESS:  499999995
ITLB RQ TO_CACHE:   77979877
ITLB RQ MERGED:  422020118
ITLB RQ FORWARD:          0
ITLB WQ ACCESS:          0
ITLB WQ TO_CACHE:          0
ITLB WQ MERGED:          0
ITLB WQ FORWARD:          0
DTLB TOTAL     ACCESS:   98683599  HIT:   97802263  MISS:     881336
DTLB LOAD      ACCESS:   70906725  HIT:   70045192  MISS:     861533
DTLB RFO       ACCESS:   27776874  HIT:   27757071  MISS:      19803
DTLB PREFETCH  ACCESS:          0  HIT:          0  MISS:          0
DTLB WRITEBACK ACCESS:          0  HIT:          0  MISS:          0
DTLB PREFETCH  REQUESTED:          0  ISSUED:          0  USEFUL:          0  USELESS:          0
DTLB TOTAL MSHR MERGED:      87050
DTLB LOAD MSHR MERGED:      65222
DTLB RFO MSHR MERGED:      21828
DTLB PREFETCH MSHR MERGED:          0
DTLB WRITEBACK MSHR MERGED:          0
DTLB TOTAL ACCESSES:   98770649 HITS:   97802263 MISSES:     968386
DTLB LOAD ACCESSES:   70971947 HITS:   70045192 MISSES:     926755
DTLB RFO ACCESSES:   27798702 HITS:   27757071 MISSES:      41631
DTLB PREFETCH ACCESSES:          0 HITS:          0 MISSES:          0
DTLB WRITEBACK ACCESSES:          0 HITS:          0 MISSES:          0
DTLB RQ ACCESS:  150274395
DTLB RQ TO_CACHE:   98770649
DTLB RQ MERGED:   51503746
DTLB RQ FORWARD:          0
DTLB WQ ACCESS:          0
DTLB WQ TO_CACHE:          0
DTLB WQ MERGED:          0
DTLB WQ FORWARD:          0
L1D TOTAL     ACCESS:  173303855  HIT:  169135344  MISS:    4168511
L1D LOAD      ACCESS:   75281919  HIT:   73400146  MISS:    1881773
L1D RFO       ACCESS:   36777400  HIT:   36570644  MISS:     206756
L1D PREFETCH  ACCESS:   61244536  HIT:   59164554  MISS:    2079982
L1D WRITEBACK ACCESS:          0  HIT:          0  MISS:          0
L1D PREFETCH  REQUESTED:   75395938  ISSUED:   74831677  USEFUL:     414498  USELESS:    1665473
L1D TOTAL MSHR MERGED:     421151
L1D LOAD MSHR MERGED:     123279
L1D RFO MSHR MERGED:     133512
L1D PREFETCH MSHR MERGED:     164360
L1D WRITEBACK MSHR MERGED:          0
L1D TOTAL ACCESSES:  173876163 HITS:  169286501 MISSES:    4589662
L1D LOAD ACCESSES:   75398256 HITS:   73402464 MISSES:    1995792
L1D RFO ACCESSES:   36909364 HITS:   36570644 MISSES:     338720
L1D PREFETCH ACCESSES:   61568543 HITS:   59313393 MISSES:    2255150
L1D WRITEBACK ACCESSES:          0 HITS:          0 MISSES:          0
L1D RQ ACCESS:  112611992
L1D RQ TO_CACHE:   75395938
L1D RQ MERGED:   37213736
L1D RQ FORWARD:          0
L1D WQ ACCESS:   37662403
L1D WQ TO_CACHE:   36909364
L1D WQ MERGED:     753039
L1D WQ FORWARD:     151157
L1I TOTAL     ACCESS:  100688972  HIT:  100688947  MISS:         25
L1I LOAD      ACCESS:  100688972  HIT:  100688947  MISS:         25
L1I RFO       ACCESS:          0  HIT:          0  MISS:          0
L1I PREFETCH  ACCESS:          0  HIT:          0  MISS:          0
L1I WRITEBACK ACCESS:          0  HIT:          0  MISS:          0
L1I PREFETCH  REQUESTED:          0  ISSUED:          0  USEFUL:          0  USELESS:          0
L1I TOTAL MSHR MERGED:         10
L1I LOAD MSHR MERGED:         10
L1I RFO MSHR MERGED:          0
L1I PREFETCH MSHR MERGED:          0
L1I WRITEBACK MSHR MERGED:          0
L1I TOTAL ACCESSES:  100688982 HITS:  100688947 MISSES:         35
L1I LOAD ACCESSES:  100688982 HITS:  100688947 MISSES:         35
L1I RFO ACCESSES:          0 HITS:          0 MISSES:          0
L1I PREFETCH ACCESSES:          0 HITS:          0 MISSES:          0
L1I WRITEBACK ACCESSES:          0 HITS:          0 MISSES:          0
L1I RQ ACCESS:  499999995
L1I RQ TO_CACHE:  100688982
L1I RQ MERGED:  399311013
L1I RQ FORWARD:          0
L1I WQ ACCESS:          0
L1I WQ TO_CACHE:          0
L1I WQ MERGED:          0
L1I WQ FORWARD:          0
L2C TOTAL     ACCESS:    5852022  HIT:    4008915  MISS:    1843107
L2C LOAD      ACCESS:    1872414  HIT:    1061377  MISS:     811037
L2C RFO       ACCESS:     205200  HIT:     100560  MISS:     104640
L2C PREFETCH  ACCESS:    2168789  HIT:    1245780  MISS:     923009
L2C WRITEBACK ACCESS:    1605619  HIT:    1601198  MISS:       4421
L2C PREFETCH  REQUESTED:      91696  ISSUED:      91696  USEFUL:      86344  USELESS:     836689
L2C TOTAL MSHR MERGED:       1461
L2C LOAD MSHR MERGED:        361
L2C RFO MSHR MERGED:          0
L2C PREFETCH MSHR MERGED:       1100
L2C WRITEBACK MSHR MERGED:          0
L2C TOTAL ACCESSES:    5853894 HITS:    4009084 MISSES:    1844810
L2C LOAD ACCESSES:    1872538 HITS:    1061501 MISSES:     811037
L2C RFO ACCESSES:     205208 HITS:     100568 MISSES:     104640
L2C PREFETCH ACCESSES:    2170529 HITS:    1245817 MISSES:     924712
L2C WRITEBACK ACCESSES:    1605619 HITS:    1601198 MISSES:       4421
L2C RQ ACCESS:    2077746
L2C RQ TO_CACHE:    2077614
L2C RQ MERGED:          0
L2C RQ FORWARD:          0
L2C WQ ACCESS:    1605619
L2C WQ TO_CACHE:    1605619
L2C WQ MERGED:          0
L2C WQ FORWARD:        169
LLC TOTAL     ACCESS:    2673534  HIT:    1575837  MISS:    1097697
LLC LOAD      ACCESS:     810670  HIT:     421925  MISS:     388745
LLC RFO       ACCESS:     104639  HIT:      52095  MISS:      52544
LLC PREFETCH  ACCESS:     923561  HIT:     393986  MISS:     529575
LLC WRITEBACK ACCESS:     834664  HIT:     707831  MISS:     126833
LLC PREFETCH  REQUESTED:          0  ISSUED:          0  USEFUL:      10148  USELESS:     520032
LLC TOTAL MSHR MERGED:         42
LLC LOAD MSHR MERGED:          9
LLC RFO MSHR MERGED:          0
LLC PREFETCH MSHR MERGED:         33
LLC WRITEBACK MSHR MERGED:          0
LLC TOTAL ACCESSES:    2673586 HITS:    1575847 MISSES:    1097739
LLC LOAD ACCESSES:     810676 HITS:     421931 MISSES:     388745
LLC RFO ACCESSES:     104640 HITS:      52096 MISSES:      52544
LLC PREFETCH ACCESSES:     923606 HITS:     393989 MISSES:     529617
LLC WRITEBACK ACCESSES:     834664 HITS:     707831 MISSES:     126833
LLC 0 RQ ACCESS:     915316
LLC 0 RQ TO_CACHE:     915309
LLC 0 RQ MERGED:          0
LLC 0 RQ FORWARD:          0
LLC WQ ACCESS:     834664
LLC WQ TO_CACHE:     834664
LLC WQ MERGED:          0
LLC WQ FORWARD:         10
Major fault: 0 Minor fault: 11278
CPU 0 L1D next line prefetcher final stats
CPU 0 L2C PC-based stride prefetcher final stats
All Misses: 1227646
All Hits: 1826906
SD Algo Stats - Switches: 0 SRR-Repls: 421653 BRR-Repls: 0

DRAM Statistics
 CHANNEL 0
 RQ ROW_BUFFER_HIT:      55299  ROW_BUFFER_MISS:     914206
 DBUS_CONGESTED:     766997
 WQ ROW_BUFFER_HIT:      39512  ROW_BUFFER_MISS:     382835  FULL:          0

 AVG_CONGESTED_CYCLE: 13
LOADS RETIRED: 121769268
INSTR RETIRED: 500000000
