
*** ChampSim Multicore Out-of-Order Simulator ***

Warmup Instructions: 100000000
Simulation Instructions: 500000000
Number of CPUs: 1
LLC sets: 2048
LLC ways: 16
Clean RRIP Policies: 1012220110122201 Dirty RRIP Policies: 22222100222221 PSEL Width: 10 Track Set: 4294967295 PSEL Mask: 1 Demote Mask: 4013014240130142DS Algo: 0Window size: 0
Off-chip DRAM Size: 4096 MB Channels: 1 Width: 64-bit Data Rate: 1600 MT/s

CPU 0 runs /mnt/beegfs/iconst01/spec2017/Parest.trace.gz
NOT SORTED
TRACE STRING: /mnt/beegfs/iconst01/spec2017/Parest.trace.gz
SORTED
TRACE STRING: /mnt/beegfs/iconst01/spec2017/Parest.trace.gz
INITIAL
TRACE STRING: /mnt/beegfs/iconst01/spec2017/Parest.trace.gz

champsim_seed used: 623

CPU 0 L1D next line prefetcher
CPU 0 L2C IP-based stride prefetcher
Initialize DRRIP state
Assign rand_sets[0]: 454  LLC: 2048
rand_sets[0]: 454
Assign rand_sets[1]: 1662  LLC: 2048
rand_sets[1]: 1662
Assign rand_sets[2]: 1921  LLC: 2048
rand_sets[2]: 1921
Assign rand_sets[3]: 1131  LLC: 2048
rand_sets[3]: 1131
Assign rand_sets[4]: 331  LLC: 2048
rand_sets[4]: 331
Assign rand_sets[5]: 1531  LLC: 2048
rand_sets[5]: 1531
Assign rand_sets[6]: 482  LLC: 2048
rand_sets[6]: 482
Assign rand_sets[7]: 1275  LLC: 2048
rand_sets[7]: 1275
Assign rand_sets[8]: 1876  LLC: 2048
rand_sets[8]: 1876
Assign rand_sets[9]: 2038  LLC: 2048
rand_sets[9]: 2038
Assign rand_sets[10]: 701  LLC: 2048
rand_sets[10]: 701
Assign rand_sets[11]: 479  LLC: 2048
rand_sets[11]: 479
Assign rand_sets[12]: 892  LLC: 2048
rand_sets[12]: 892
Assign rand_sets[13]: 1820  LLC: 2048
rand_sets[13]: 1820
Assign rand_sets[14]: 1505  LLC: 2048
rand_sets[14]: 1505
Assign rand_sets[15]: 1159  LLC: 2048
rand_sets[15]: 1159
Assign rand_sets[16]: 513  LLC: 2048
rand_sets[16]: 513
Assign rand_sets[17]: 703  LLC: 2048
rand_sets[17]: 703
Assign rand_sets[18]: 561  LLC: 2048
rand_sets[18]: 561
Assign rand_sets[19]: 990  LLC: 2048
rand_sets[19]: 990
Assign rand_sets[20]: 342  LLC: 2048
rand_sets[20]: 342
Assign rand_sets[21]: 882  LLC: 2048
rand_sets[21]: 882
Assign rand_sets[22]: 15  LLC: 2048
rand_sets[22]: 15
Assign rand_sets[23]: 71  LLC: 2048
rand_sets[23]: 71
Assign rand_sets[24]: 1127  LLC: 2048
rand_sets[24]: 1127
Assign rand_sets[25]: 1382  LLC: 2048
rand_sets[25]: 1382
Assign rand_sets[26]: 647  LLC: 2048
rand_sets[26]: 647
Assign rand_sets[27]: 857  LLC: 2048
rand_sets[27]: 857
Assign rand_sets[28]: 1450  LLC: 2048
rand_sets[28]: 1450
Assign rand_sets[29]: 1160  LLC: 2048
rand_sets[29]: 1160
Assign rand_sets[30]: 1852  LLC: 2048
rand_sets[30]: 1852
Assign rand_sets[31]: 1881  LLC: 2048
rand_sets[31]: 1881
Assign rand_sets[32]: 1770  LLC: 2048
rand_sets[32]: 1770
Assign rand_sets[33]: 1622  LLC: 2048
rand_sets[33]: 1622
Assign rand_sets[34]: 275  LLC: 2048
rand_sets[34]: 275
Assign rand_sets[35]: 635  LLC: 2048
rand_sets[35]: 635
Assign rand_sets[36]: 466  LLC: 2048
rand_sets[36]: 466
Assign rand_sets[37]: 1413  LLC: 2048
rand_sets[37]: 1413
Assign rand_sets[38]: 417  LLC: 2048
rand_sets[38]: 417
Assign rand_sets[39]: 472  LLC: 2048
rand_sets[39]: 472
Assign rand_sets[40]: 1340  LLC: 2048
rand_sets[40]: 1340
Assign rand_sets[41]: 852  LLC: 2048
rand_sets[41]: 852
Assign rand_sets[42]: 1365  LLC: 2048
rand_sets[42]: 1365
Assign rand_sets[43]: 47  LLC: 2048
rand_sets[43]: 47
Assign rand_sets[44]: 823  LLC: 2048
rand_sets[44]: 823
Assign rand_sets[45]: 686  LLC: 2048
rand_sets[45]: 686
Assign rand_sets[46]: 1637  LLC: 2048
rand_sets[46]: 1637
Assign rand_sets[47]: 1115  LLC: 2048
rand_sets[47]: 1115
Assign rand_sets[48]: 986  LLC: 2048
rand_sets[48]: 986
Assign rand_sets[49]: 258  LLC: 2048
rand_sets[49]: 258
Assign rand_sets[50]: 633  LLC: 2048
rand_sets[50]: 633
Assign rand_sets[51]: 920  LLC: 2048
rand_sets[51]: 920
Assign rand_sets[52]: 204  LLC: 2048
rand_sets[52]: 204
Assign rand_sets[53]: 227  LLC: 2048
rand_sets[53]: 227
Assign rand_sets[54]: 1818  LLC: 2048
rand_sets[54]: 1818
Assign rand_sets[55]: 886  LLC: 2048
rand_sets[55]: 886
Assign rand_sets[56]: 1422  LLC: 2048
rand_sets[56]: 1422
Assign rand_sets[57]: 607  LLC: 2048
rand_sets[57]: 607
Assign rand_sets[58]: 217  LLC: 2048
rand_sets[58]: 217
Assign rand_sets[59]: 1945  LLC: 2048
rand_sets[59]: 1945
Assign rand_sets[60]: 143  LLC: 2048
rand_sets[60]: 143
Assign rand_sets[61]: 1311  LLC: 2048
rand_sets[61]: 1311
Assign rand_sets[62]: 319  LLC: 2048
rand_sets[62]: 319
Assign rand_sets[63]: 1846  LLC: 2048
rand_sets[63]: 1846
 CLEAN-RRIP-POLICY-1: 1-0-1-2-2-2-0-1- CLEAN-RRIP-POLICY-2: 1-0-1-2-2-2-0-1-
 DIRTY-RRIP-POLICY-1: 0-0-2-2-2-2-2-1- DIRTY-RRIP-POLICY-2: 0-0-2-2-2-2-2-1-
 PSEL width: 10
Heartbeat CPU 0 instructions: 10000001 cycles: 4387188 heartbeat IPC: 2.27936 cumulative IPC: 2.27936 (Simulation time: 0 hr 0 min 14 sec) 
Heartbeat CPU 0 instructions: 20000000 cycles: 8781514 heartbeat IPC: 2.27566 cumulative IPC: 2.27751 (Simulation time: 0 hr 0 min 29 sec) 
Heartbeat CPU 0 instructions: 30000003 cycles: 13213737 heartbeat IPC: 2.2562 cumulative IPC: 2.27036 (Simulation time: 0 hr 0 min 43 sec) 
Heartbeat CPU 0 instructions: 40000000 cycles: 17644565 heartbeat IPC: 2.25691 cumulative IPC: 2.26699 (Simulation time: 0 hr 0 min 57 sec) 
Heartbeat CPU 0 instructions: 50000000 cycles: 22052919 heartbeat IPC: 2.26842 cumulative IPC: 2.26727 (Simulation time: 0 hr 1 min 11 sec) 
Heartbeat CPU 0 instructions: 60000000 cycles: 26458651 heartbeat IPC: 2.26977 cumulative IPC: 2.26769 (Simulation time: 0 hr 1 min 25 sec) 
Heartbeat CPU 0 instructions: 70000000 cycles: 30859700 heartbeat IPC: 2.27219 cumulative IPC: 2.26833 (Simulation time: 0 hr 1 min 39 sec) 
Heartbeat CPU 0 instructions: 80000000 cycles: 35255353 heartbeat IPC: 2.27497 cumulative IPC: 2.26916 (Simulation time: 0 hr 1 min 53 sec) 
Heartbeat CPU 0 instructions: 90000000 cycles: 39649682 heartbeat IPC: 2.27566 cumulative IPC: 2.26988 (Simulation time: 0 hr 2 min 7 sec) 
Heartbeat CPU 0 instructions: 100000000 cycles: 44047302 heartbeat IPC: 2.27396 cumulative IPC: 2.27029 (Simulation time: 0 hr 2 min 22 sec) 

Warmup complete CPU 0 instructions: 100000002 cycles: 44047312 (Simulation time: 0 hr 2 min 22 sec) 

Heartbeat CPU 0 instructions: 110000000 cycles: 54639165 heartbeat IPC: 0.944121 cumulative IPC: 0.944122 (Simulation time: 0 hr 2 min 40 sec) 
Heartbeat CPU 0 instructions: 120000000 cycles: 64747044 heartbeat IPC: 0.989327 cumulative IPC: 0.966196 (Simulation time: 0 hr 2 min 59 sec) 
Heartbeat CPU 0 instructions: 130000000 cycles: 74892563 heartbeat IPC: 0.985657 cumulative IPC: 0.972597 (Simulation time: 0 hr 3 min 17 sec) 
Heartbeat CPU 0 instructions: 140000000 cycles: 85182854 heartbeat IPC: 0.97179 cumulative IPC: 0.972395 (Simulation time: 0 hr 3 min 36 sec) 
Heartbeat CPU 0 instructions: 150000000 cycles: 96589656 heartbeat IPC: 0.87667 cumulative IPC: 0.951613 (Simulation time: 0 hr 3 min 54 sec) 
Heartbeat CPU 0 instructions: 160000000 cycles: 107343021 heartbeat IPC: 0.929941 cumulative IPC: 0.947932 (Simulation time: 0 hr 4 min 13 sec) 
Heartbeat CPU 0 instructions: 170000000 cycles: 117846956 heartbeat IPC: 0.952024 cumulative IPC: 0.948514 (Simulation time: 0 hr 4 min 31 sec) 
Heartbeat CPU 0 instructions: 180000000 cycles: 128397784 heartbeat IPC: 0.947793 cumulative IPC: 0.948424 (Simulation time: 0 hr 4 min 50 sec) 
Heartbeat CPU 0 instructions: 190000002 cycles: 139038152 heartbeat IPC: 0.939817 cumulative IPC: 0.94746 (Simulation time: 0 hr 5 min 8 sec) 
Heartbeat CPU 0 instructions: 200000000 cycles: 149183628 heartbeat IPC: 0.985661 cumulative IPC: 0.951146 (Simulation time: 0 hr 5 min 26 sec) 
Heartbeat CPU 0 instructions: 210000000 cycles: 159743277 heartbeat IPC: 0.947001 cumulative IPC: 0.950768 (Simulation time: 0 hr 5 min 45 sec) 
Heartbeat CPU 0 instructions: 220000000 cycles: 169717968 heartbeat IPC: 1.00254 cumulative IPC: 0.954877 (Simulation time: 0 hr 6 min 3 sec) 
Heartbeat CPU 0 instructions: 230000001 cycles: 182052857 heartbeat IPC: 0.810709 cumulative IPC: 0.941991 (Simulation time: 0 hr 6 min 23 sec) 
Heartbeat CPU 0 instructions: 240000000 cycles: 193247949 heartbeat IPC: 0.893248 cumulative IPC: 0.938334 (Simulation time: 0 hr 6 min 42 sec) 
Heartbeat CPU 0 instructions: 250000002 cycles: 203856397 heartbeat IPC: 0.942645 cumulative IPC: 0.93862 (Simulation time: 0 hr 7 min 0 sec) 
Heartbeat CPU 0 instructions: 260000000 cycles: 214343965 heartbeat IPC: 0.95351 cumulative IPC: 0.939537 (Simulation time: 0 hr 7 min 19 sec) 
Heartbeat CPU 0 instructions: 270000001 cycles: 224813222 heartbeat IPC: 0.955178 cumulative IPC: 0.940443 (Simulation time: 0 hr 7 min 37 sec) 
Heartbeat CPU 0 instructions: 280000000 cycles: 235466934 heartbeat IPC: 0.93864 cumulative IPC: 0.940342 (Simulation time: 0 hr 7 min 55 sec) 
Heartbeat CPU 0 instructions: 290000002 cycles: 245513305 heartbeat IPC: 0.995385 cumulative IPC: 0.943087 (Simulation time: 0 hr 8 min 14 sec) 
Heartbeat CPU 0 instructions: 300000000 cycles: 256066150 heartbeat IPC: 0.947612 cumulative IPC: 0.943312 (Simulation time: 0 hr 8 min 32 sec) 
Heartbeat CPU 0 instructions: 310000000 cycles: 266082428 heartbeat IPC: 0.998375 cumulative IPC: 0.945796 (Simulation time: 0 hr 8 min 51 sec) 
Heartbeat CPU 0 instructions: 320000000 cycles: 276124372 heartbeat IPC: 0.995823 cumulative IPC: 0.947961 (Simulation time: 0 hr 9 min 9 sec) 
Heartbeat CPU 0 instructions: 330000003 cycles: 286233370 heartbeat IPC: 0.989218 cumulative IPC: 0.949683 (Simulation time: 0 hr 9 min 28 sec) 
Heartbeat CPU 0 instructions: 340000000 cycles: 297048355 heartbeat IPC: 0.924643 cumulative IPC: 0.948613 (Simulation time: 0 hr 9 min 46 sec) 
Heartbeat CPU 0 instructions: 350000000 cycles: 307887510 heartbeat IPC: 0.922581 cumulative IPC: 0.947543 (Simulation time: 0 hr 10 min 5 sec) 
Heartbeat CPU 0 instructions: 360000000 cycles: 318456091 heartbeat IPC: 0.946201 cumulative IPC: 0.947492 (Simulation time: 0 hr 10 min 23 sec) 
Heartbeat CPU 0 instructions: 370000000 cycles: 328796286 heartbeat IPC: 0.9671 cumulative IPC: 0.948204 (Simulation time: 0 hr 10 min 41 sec) 
Heartbeat CPU 0 instructions: 380000000 cycles: 339041126 heartbeat IPC: 0.976101 cumulative IPC: 0.949172 (Simulation time: 0 hr 11 min 0 sec) 
Heartbeat CPU 0 instructions: 390000002 cycles: 349169922 heartbeat IPC: 0.987284 cumulative IPC: 0.950438 (Simulation time: 0 hr 11 min 18 sec) 
Heartbeat CPU 0 instructions: 400000000 cycles: 359574697 heartbeat IPC: 0.961097 cumulative IPC: 0.950789 (Simulation time: 0 hr 11 min 36 sec) 
Heartbeat CPU 0 instructions: 410000000 cycles: 369480625 heartbeat IPC: 1.0095 cumulative IPC: 0.952576 (Simulation time: 0 hr 11 min 55 sec) 
Heartbeat CPU 0 instructions: 420000000 cycles: 380795736 heartbeat IPC: 0.883774 cumulative IPC: 0.950264 (Simulation time: 0 hr 12 min 14 sec) 
Heartbeat CPU 0 instructions: 430000000 cycles: 392643286 heartbeat IPC: 0.844056 cumulative IPC: 0.946655 (Simulation time: 0 hr 12 min 32 sec) 
Heartbeat CPU 0 instructions: 440000000 cycles: 403424973 heartbeat IPC: 0.927499 cumulative IPC: 0.94608 (Simulation time: 0 hr 12 min 50 sec) 
Heartbeat CPU 0 instructions: 450000000 cycles: 414062195 heartbeat IPC: 0.940095 cumulative IPC: 0.945908 (Simulation time: 0 hr 13 min 8 sec) 
Heartbeat CPU 0 instructions: 460000000 cycles: 424749124 heartbeat IPC: 0.935723 cumulative IPC: 0.945622 (Simulation time: 0 hr 13 min 27 sec) 
Heartbeat CPU 0 instructions: 470000001 cycles: 435434898 heartbeat IPC: 0.935824 cumulative IPC: 0.945354 (Simulation time: 0 hr 13 min 45 sec) 
Heartbeat CPU 0 instructions: 480000000 cycles: 445629707 heartbeat IPC: 0.980891 cumulative IPC: 0.946257 (Simulation time: 0 hr 14 min 3 sec) 
Heartbeat CPU 0 instructions: 490000002 cycles: 456223990 heartbeat IPC: 0.943905 cumulative IPC: 0.946196 (Simulation time: 0 hr 14 min 21 sec) 
Heartbeat CPU 0 instructions: 500000000 cycles: 466497768 heartbeat IPC: 0.973352 cumulative IPC: 0.946857 (Simulation time: 0 hr 14 min 39 sec) 
Heartbeat CPU 0 instructions: 510000000 cycles: 476562887 heartbeat IPC: 0.99353 cumulative IPC: 0.947943 (Simulation time: 0 hr 14 min 57 sec) 
Heartbeat CPU 0 instructions: 520000000 cycles: 486763666 heartbeat IPC: 0.980317 cumulative IPC: 0.948689 (Simulation time: 0 hr 15 min 15 sec) 
Heartbeat CPU 0 instructions: 530000001 cycles: 497760870 heartbeat IPC: 0.909322 cumulative IPC: 0.947735 (Simulation time: 0 hr 15 min 34 sec) 
Heartbeat CPU 0 instructions: 540000000 cycles: 508656729 heartbeat IPC: 0.91778 cumulative IPC: 0.947032 (Simulation time: 0 hr 15 min 51 sec) 
Heartbeat CPU 0 instructions: 550000003 cycles: 519400317 heartbeat IPC: 0.930788 cumulative IPC: 0.946665 (Simulation time: 0 hr 16 min 9 sec) 
Heartbeat CPU 0 instructions: 560000000 cycles: 529870569 heartbeat IPC: 0.955087 cumulative IPC: 0.946846 (Simulation time: 0 hr 16 min 27 sec) 
Heartbeat CPU 0 instructions: 570000002 cycles: 540248232 heartbeat IPC: 0.963608 cumulative IPC: 0.947197 (Simulation time: 0 hr 16 min 45 sec) 
Heartbeat CPU 0 instructions: 580000000 cycles: 550574873 heartbeat IPC: 0.968369 cumulative IPC: 0.947629 (Simulation time: 0 hr 17 min 3 sec) 
Heartbeat CPU 0 instructions: 590000002 cycles: 561021717 heartbeat IPC: 0.957227 cumulative IPC: 0.947823 (Simulation time: 0 hr 17 min 20 sec) 
Heartbeat CPU 0 instructions: 600000000 cycles: 571178754 heartbeat IPC: 0.984539 cumulative IPC: 0.94853 (Simulation time: 0 hr 17 min 38 sec) 
Finished CPU 0 instructions: 500000000 cycles: 527131456 cumulative IPC: 0.94853 (Simulation time: 0 hr 17 min 38 sec) 

CPU 0 Branch Prediction Accuracy: 97.8526% MPKI: 2.66709
Number of Branches: 62099103 Number of Mispredictions: 1333545
Number of LOAD Instructions: 210576465
Number of LOAD Instructions (ROI): 210576465
Number of STORE Instructions: 16915507
Number of STORE Instructions (ROI): 16915507
Total Destination Memory Operands: 16918869
Total Destination Memory Operands (ROI): 16918869
Total Source Memory Operands: 210576465
Total Source Memory Operands (ROI): 210576465
Number of DEPENDED LOADS: 327288
Number of DEPENDED LOADS (ROI): 327288
Number of SQ_ADDED: 16918826
Number of SQ_ADDED (ROI): 16918826
Number of LQ_ADDED: 210623735
Number of LQ_ADDED (ROI): 210623735
Number of Instructions read from trace: 600000257

ChampSim completed all CPUs

Region of Interest Statistics

CPU 0 cumulative IPC: 0.94853 instructions: 500000000 cycles: 527131456
ITLB TOTAL     ACCESS:   76259123  HIT:   76259085  MISS:         38
ITLB LOAD      ACCESS:   76259123  HIT:   76259085  MISS:         38
ITLB RFO       ACCESS:          0  HIT:          0  MISS:          0
ITLB PREFETCH  ACCESS:          0  HIT:          0  MISS:          0
ITLB WRITEBACK ACCESS:          0  HIT:          0  MISS:          0
ITLB PREFETCH  REQUESTED:          0  ISSUED:          0  USEFUL:          0  USELESS:          0
ITLB TOTAL MSHR MERGED:         37
ITLB LOAD MSHR MERGED:         37
ITLB RFO MSHR MERGED:          0
ITLB PREFETCH MSHR MERGED:          0
ITLB WRITEBACK MSHR MERGED:          0
ITLB TOTAL ACCESSES:   76259160 HITS:   76259085 MISSES:         75
ITLB LOAD ACCESSES:   76259160 HITS:   76259085 MISSES:         75
ITLB RFO ACCESSES:          0 HITS:          0 MISSES:          0
ITLB PREFETCH ACCESSES:          0 HITS:          0 MISSES:          0
ITLB WRITEBACK ACCESSES:          0 HITS:          0 MISSES:          0
ITLB RQ ACCESS:  500000188
ITLB RQ TO_CACHE:   76259161
ITLB RQ MERGED:  423741027
ITLB RQ FORWARD:          0
ITLB WQ ACCESS:          0
ITLB WQ TO_CACHE:          0
ITLB WQ MERGED:          0
ITLB WQ FORWARD:          0
DTLB TOTAL     ACCESS:  136959163  HIT:  136756367  MISS:     202796
DTLB LOAD      ACCESS:  128897097  HIT:  128697022  MISS:     200075
DTLB RFO       ACCESS:    8062066  HIT:    8059345  MISS:       2721
DTLB PREFETCH  ACCESS:          0  HIT:          0  MISS:          0
DTLB WRITEBACK ACCESS:          0  HIT:          0  MISS:          0
DTLB PREFETCH  REQUESTED:          0  ISSUED:          0  USEFUL:          0  USELESS:          0
DTLB TOTAL MSHR MERGED:     442261
DTLB LOAD MSHR MERGED:     438671
DTLB RFO MSHR MERGED:       3590
DTLB PREFETCH MSHR MERGED:          0
DTLB WRITEBACK MSHR MERGED:          0
DTLB TOTAL ACCESSES:  137401424 HITS:  136756367 MISSES:     645057
DTLB LOAD ACCESSES:  129335768 HITS:  128697022 MISSES:     638746
DTLB RFO ACCESSES:    8065656 HITS:    8059345 MISSES:       6311
DTLB PREFETCH ACCESSES:          0 HITS:          0 MISSES:          0
DTLB WRITEBACK ACCESSES:          0 HITS:          0 MISSES:          0
DTLB RQ ACCESS:  189436682
DTLB RQ TO_CACHE:  137401424
DTLB RQ MERGED:   52035258
DTLB RQ FORWARD:          0
DTLB WQ ACCESS:          0
DTLB WQ TO_CACHE:          0
DTLB WQ MERGED:          0
DTLB WQ FORWARD:          0
L1D TOTAL     ACCESS:  126923734  HIT:  109366868  MISS:   17556866
L1D LOAD      ACCESS:   72834872  HIT:   62757641  MISS:   10077231
L1D RFO       ACCESS:   14010220  HIT:   13857383  MISS:     152837
L1D PREFETCH  ACCESS:   40078642  HIT:   32751844  MISS:    7326798
L1D WRITEBACK ACCESS:          0  HIT:          0  MISS:          0
L1D PREFETCH  REQUESTED:   85922459  ISSUED:   84595013  USEFUL:    6067593  USELESS:    1259216
L1D TOTAL MSHR MERGED:   30860681
L1D LOAD MSHR MERGED:   18132148
L1D RFO MSHR MERGED:     268374
L1D PREFETCH MSHR MERGED:   12460159
L1D WRITEBACK MSHR MERGED:          0
L1D TOTAL ACCESSES:  157784982 HITS:  109367436 MISSES:   48417546
L1D LOAD ACCESSES:   85922485 HITS:   62757667 MISSES:   23164818
L1D RFO ACCESSES:   14278570 HITS:   13857383 MISSES:     421187
L1D PREFETCH ACCESSES:   57583927 HITS:   32752386 MISSES:   24831541
L1D WRITEBACK ACCESSES:          0 HITS:          0 MISSES:          0
L1D RQ ACCESS:  175147660
L1D RQ TO_CACHE:   85922459
L1D RQ MERGED:   89225175
L1D RQ FORWARD:          0
L1D WQ ACCESS:   14289037
L1D WQ TO_CACHE:   14278570
L1D WQ MERGED:      10467
L1D WQ FORWARD:        568
L1I TOTAL     ACCESS:   93286087  HIT:   93284291  MISS:       1796
L1I LOAD      ACCESS:   93286087  HIT:   93284291  MISS:       1796
L1I RFO       ACCESS:          0  HIT:          0  MISS:          0
L1I PREFETCH  ACCESS:          0  HIT:          0  MISS:          0
L1I WRITEBACK ACCESS:          0  HIT:          0  MISS:          0
L1I PREFETCH  REQUESTED:          0  ISSUED:          0  USEFUL:          0  USELESS:          0
L1I TOTAL MSHR MERGED:       2340
L1I LOAD MSHR MERGED:       2340
L1I RFO MSHR MERGED:          0
L1I PREFETCH MSHR MERGED:          0
L1I WRITEBACK MSHR MERGED:          0
L1I TOTAL ACCESSES:   93288427 HITS:   93284291 MISSES:       4136
L1I LOAD ACCESSES:   93288427 HITS:   93284291 MISSES:       4136
L1I RFO ACCESSES:          0 HITS:          0 MISSES:          0
L1I PREFETCH ACCESSES:          0 HITS:          0 MISSES:          0
L1I WRITEBACK ACCESSES:          0 HITS:          0 MISSES:          0
L1I RQ ACCESS:  500000187
L1I RQ TO_CACHE:   93288427
L1I RQ MERGED:  406711760
L1I RQ FORWARD:          0
L1I WQ ACCESS:          0
L1I WQ TO_CACHE:          0
L1I WQ MERGED:          0
L1I WQ FORWARD:          0
L2C TOTAL     ACCESS:   20885553  HIT:    8657153  MISS:   12228400
L2C LOAD      ACCESS:    5034441  HIT:    2128880  MISS:    2905561
L2C RFO       ACCESS:     152813  HIT:       6496  MISS:     146317
L2C PREFETCH  ACCESS:   13925542  HIT:    4749129  MISS:    9176413
L2C WRITEBACK ACCESS:    1772757  HIT:    1772648  MISS:        109
L2C PREFETCH  REQUESTED:    1773815  ISSUED:    1773815  USEFUL:    1072003  USELESS:    8106022
L2C TOTAL MSHR MERGED:      79535
L2C LOAD MSHR MERGED:      19664
L2C RFO MSHR MERGED:          0
L2C PREFETCH MSHR MERGED:      59871
L2C WRITEBACK MSHR MERGED:          0
L2C TOTAL ACCESSES:   20994342 HITS:    8657192 MISSES:   12337150
L2C LOAD ACCESSES:    5034466 HITS:    2128905 MISSES:    2905561
L2C RFO ACCESSES:     152813 HITS:       6496 MISSES:     146317
L2C PREFETCH ACCESSES:   14034306 HITS:    4749143 MISSES:    9285163
L2C WRITEBACK ACCESSES:    1772757 HITS:    1772648 MISSES:        109
L2C RQ ACCESS:    5187279
L2C RQ TO_CACHE:    5187254
L2C RQ MERGED:          0
L2C RQ FORWARD:          0
L2C WQ ACCESS:    1772757
L2C WQ TO_CACHE:    1772757
L2C WQ MERGED:          0
L2C WQ FORWARD:         39
LLC TOTAL     ACCESS:   12534298  HIT:    5581834  MISS:    6952464
LLC LOAD      ACCESS:    2885880  HIT:    1807761  MISS:    1078119
LLC RFO       ACCESS:     146317  HIT:      22254  MISS:     124063
LLC PREFETCH  ACCESS:    9216118  HIT:    3620617  MISS:    5595501
LLC WRITEBACK ACCESS:     285983  HIT:     131202  MISS:     154781
LLC PREFETCH  REQUESTED:          0  ISSUED:          0  USEFUL:     139672  USELESS:    5464994
LLC TOTAL MSHR MERGED:       4207
LLC LOAD MSHR MERGED:       1097
LLC RFO MSHR MERGED:          0
LLC PREFETCH MSHR MERGED:       3110
LLC WRITEBACK MSHR MERGED:          0
LLC TOTAL ACCESSES:   12538534 HITS:    5581863 MISSES:    6956671
LLC LOAD ACCESSES:    2885897 HITS:    1807778 MISSES:    1078119
LLC RFO ACCESSES:     146317 HITS:      22254 MISSES:     124063
LLC PREFETCH ACCESSES:    9220337 HITS:    3620629 MISSES:    5599708
LLC WRITEBACK ACCESSES:     285983 HITS:     131202 MISSES:     154781
LLC 0 RQ ACCESS:    3032214
LLC 0 RQ TO_CACHE:    3032197
LLC 0 RQ MERGED:          0
LLC 0 RQ FORWARD:          0
LLC WQ ACCESS:     285983
LLC WQ TO_CACHE:     285983
LLC WQ MERGED:          0
LLC WQ FORWARD:         29
Major fault: 0 Minor fault: 6524
CPU 0 L1D next line prefetcher final stats
CPU 0 L2C PC-based stride prefetcher final stats
All Misses: 8419829
All Hits: 6639485
SD Algo Stats - Switches: 0 SRR-Repls: 1133495 BRR-Repls: 0

DRAM Statistics
 CHANNEL 0
 RQ ROW_BUFFER_HIT:    5934991  ROW_BUFFER_MISS:     852707
 DBUS_CONGESTED:    2513755
 WQ ROW_BUFFER_HIT:      71448  ROW_BUFFER_MISS:     152534  FULL:          0

 AVG_CONGESTED_CYCLE: 11
LOADS RETIRED: 175418235
INSTR RETIRED: 500000000
