
*** ChampSim Multicore Out-of-Order Simulator ***

Warmup Instructions: 100000000
Simulation Instructions: 100000000
Number of CPUs: 1
LLC sets: 2048
LLC ways: 16
Clean RRIP Policies: 2627040626270406 Dirty RRIP Policies: 2627241626272416 PSEL Width: 10 Track Set: 4294967295 PSEL Mask: 1 Demote Mask: 4400000044DS Algo: 0Window size: 0
Off-chip DRAM Size: 4096 MB Channels: 1 Width: 64-bit Data Rate: 1600 MT/s

CPU 0 runs /mnt/beegfs/iconst01/spec2017/Gcc.trace.gz
NOT SORTED
TRACE STRING: /mnt/beegfs/iconst01/spec2017/Gcc.trace.gz
SORTED
TRACE STRING: /mnt/beegfs/iconst01/spec2017/Gcc.trace.gz
INITIAL
TRACE STRING: /mnt/beegfs/iconst01/spec2017/Gcc.trace.gz

champsim_seed used: 269

CPU 0 L1D next line prefetcher
CPU 0 L2C IP-based stride prefetcher
Initialize DRRIP state
Assign rand_sets[0]: 454  LLC: 2048
rand_sets[0]: 454
Assign rand_sets[1]: 1662  LLC: 2048
rand_sets[1]: 1662
Assign rand_sets[2]: 1921  LLC: 2048
rand_sets[2]: 1921
Assign rand_sets[3]: 1131  LLC: 2048
rand_sets[3]: 1131
Assign rand_sets[4]: 331  LLC: 2048
rand_sets[4]: 331
Assign rand_sets[5]: 1531  LLC: 2048
rand_sets[5]: 1531
Assign rand_sets[6]: 482  LLC: 2048
rand_sets[6]: 482
Assign rand_sets[7]: 1275  LLC: 2048
rand_sets[7]: 1275
Assign rand_sets[8]: 1876  LLC: 2048
rand_sets[8]: 1876
Assign rand_sets[9]: 2038  LLC: 2048
rand_sets[9]: 2038
Assign rand_sets[10]: 701  LLC: 2048
rand_sets[10]: 701
Assign rand_sets[11]: 479  LLC: 2048
rand_sets[11]: 479
Assign rand_sets[12]: 892  LLC: 2048
rand_sets[12]: 892
Assign rand_sets[13]: 1820  LLC: 2048
rand_sets[13]: 1820
Assign rand_sets[14]: 1505  LLC: 2048
rand_sets[14]: 1505
Assign rand_sets[15]: 1159  LLC: 2048
rand_sets[15]: 1159
Assign rand_sets[16]: 513  LLC: 2048
rand_sets[16]: 513
Assign rand_sets[17]: 703  LLC: 2048
rand_sets[17]: 703
Assign rand_sets[18]: 561  LLC: 2048
rand_sets[18]: 561
Assign rand_sets[19]: 990  LLC: 2048
rand_sets[19]: 990
Assign rand_sets[20]: 342  LLC: 2048
rand_sets[20]: 342
Assign rand_sets[21]: 882  LLC: 2048
rand_sets[21]: 882
Assign rand_sets[22]: 15  LLC: 2048
rand_sets[22]: 15
Assign rand_sets[23]: 71  LLC: 2048
rand_sets[23]: 71
Assign rand_sets[24]: 1127  LLC: 2048
rand_sets[24]: 1127
Assign rand_sets[25]: 1382  LLC: 2048
rand_sets[25]: 1382
Assign rand_sets[26]: 647  LLC: 2048
rand_sets[26]: 647
Assign rand_sets[27]: 857  LLC: 2048
rand_sets[27]: 857
Assign rand_sets[28]: 1450  LLC: 2048
rand_sets[28]: 1450
Assign rand_sets[29]: 1160  LLC: 2048
rand_sets[29]: 1160
Assign rand_sets[30]: 1852  LLC: 2048
rand_sets[30]: 1852
Assign rand_sets[31]: 1881  LLC: 2048
rand_sets[31]: 1881
Assign rand_sets[32]: 1770  LLC: 2048
rand_sets[32]: 1770
Assign rand_sets[33]: 1622  LLC: 2048
rand_sets[33]: 1622
Assign rand_sets[34]: 275  LLC: 2048
rand_sets[34]: 275
Assign rand_sets[35]: 635  LLC: 2048
rand_sets[35]: 635
Assign rand_sets[36]: 466  LLC: 2048
rand_sets[36]: 466
Assign rand_sets[37]: 1413  LLC: 2048
rand_sets[37]: 1413
Assign rand_sets[38]: 417  LLC: 2048
rand_sets[38]: 417
Assign rand_sets[39]: 472  LLC: 2048
rand_sets[39]: 472
Assign rand_sets[40]: 1340  LLC: 2048
rand_sets[40]: 1340
Assign rand_sets[41]: 852  LLC: 2048
rand_sets[41]: 852
Assign rand_sets[42]: 1365  LLC: 2048
rand_sets[42]: 1365
Assign rand_sets[43]: 47  LLC: 2048
rand_sets[43]: 47
Assign rand_sets[44]: 823  LLC: 2048
rand_sets[44]: 823
Assign rand_sets[45]: 686  LLC: 2048
rand_sets[45]: 686
Assign rand_sets[46]: 1637  LLC: 2048
rand_sets[46]: 1637
Assign rand_sets[47]: 1115  LLC: 2048
rand_sets[47]: 1115
Assign rand_sets[48]: 986  LLC: 2048
rand_sets[48]: 986
Assign rand_sets[49]: 258  LLC: 2048
rand_sets[49]: 258
Assign rand_sets[50]: 633  LLC: 2048
rand_sets[50]: 633
Assign rand_sets[51]: 920  LLC: 2048
rand_sets[51]: 920
Assign rand_sets[52]: 204  LLC: 2048
rand_sets[52]: 204
Assign rand_sets[53]: 227  LLC: 2048
rand_sets[53]: 227
Assign rand_sets[54]: 1818  LLC: 2048
rand_sets[54]: 1818
Assign rand_sets[55]: 886  LLC: 2048
rand_sets[55]: 886
Assign rand_sets[56]: 1422  LLC: 2048
rand_sets[56]: 1422
Assign rand_sets[57]: 607  LLC: 2048
rand_sets[57]: 607
Assign rand_sets[58]: 217  LLC: 2048
rand_sets[58]: 217
Assign rand_sets[59]: 1945  LLC: 2048
rand_sets[59]: 1945
Assign rand_sets[60]: 143  LLC: 2048
rand_sets[60]: 143
Assign rand_sets[61]: 1311  LLC: 2048
rand_sets[61]: 1311
Assign rand_sets[62]: 319  LLC: 2048
rand_sets[62]: 319
Assign rand_sets[63]: 1846  LLC: 2048
rand_sets[63]: 1846
 CLEAN-RRIP-POLICY-1: 2-6-2-7-0-4-0-6- CLEAN-RRIP-POLICY-2: 2-6-2-7-0-4-0-6-
 DIRTY-RRIP-POLICY-1: 2-6-2-7-2-4-1-6- DIRTY-RRIP-POLICY-2: 2-6-2-7-2-4-1-6-
 PSEL width: 10
Heartbeat CPU 0 instructions: 10000001 cycles: 7315977 heartbeat IPC: 1.36687 cumulative IPC: 1.36687 (Simulation time: 0 hr 0 min 17 sec) 
Heartbeat CPU 0 instructions: 20000000 cycles: 14307516 heartbeat IPC: 1.4303 cumulative IPC: 1.39787 (Simulation time: 0 hr 0 min 33 sec) 
Heartbeat CPU 0 instructions: 30000001 cycles: 21020303 heartbeat IPC: 1.48969 cumulative IPC: 1.42719 (Simulation time: 0 hr 0 min 52 sec) 
Heartbeat CPU 0 instructions: 40000000 cycles: 27481045 heartbeat IPC: 1.54781 cumulative IPC: 1.45555 (Simulation time: 0 hr 1 min 10 sec) 
Heartbeat CPU 0 instructions: 50000001 cycles: 33582645 heartbeat IPC: 1.63891 cumulative IPC: 1.48886 (Simulation time: 0 hr 1 min 28 sec) 
Heartbeat CPU 0 instructions: 60000000 cycles: 40063733 heartbeat IPC: 1.54295 cumulative IPC: 1.49761 (Simulation time: 0 hr 1 min 46 sec) 
Heartbeat CPU 0 instructions: 70000000 cycles: 47100949 heartbeat IPC: 1.42102 cumulative IPC: 1.48617 (Simulation time: 0 hr 2 min 3 sec) 
Heartbeat CPU 0 instructions: 80000000 cycles: 54190301 heartbeat IPC: 1.41057 cumulative IPC: 1.47628 (Simulation time: 0 hr 2 min 20 sec) 
Heartbeat CPU 0 instructions: 90000003 cycles: 61194442 heartbeat IPC: 1.42773 cumulative IPC: 1.47072 (Simulation time: 0 hr 2 min 37 sec) 
Heartbeat CPU 0 instructions: 100000000 cycles: 68361314 heartbeat IPC: 1.39531 cumulative IPC: 1.46282 (Simulation time: 0 hr 2 min 54 sec) 

Warmup complete CPU 0 instructions: 100000004 cycles: 68361315 (Simulation time: 0 hr 2 min 54 sec) 

Heartbeat CPU 0 instructions: 110000003 cycles: 95918941 heartbeat IPC: 0.362876 cumulative IPC: 0.362876 (Simulation time: 0 hr 3 min 26 sec) 
Heartbeat CPU 0 instructions: 120000000 cycles: 123345552 heartbeat IPC: 0.364609 cumulative IPC: 0.363741 (Simulation time: 0 hr 3 min 58 sec) 
Heartbeat CPU 0 instructions: 130000000 cycles: 148285747 heartbeat IPC: 0.400959 cumulative IPC: 0.375354 (Simulation time: 0 hr 4 min 30 sec) 
Heartbeat CPU 0 instructions: 140000000 cycles: 177590820 heartbeat IPC: 0.341238 cumulative IPC: 0.366201 (Simulation time: 0 hr 5 min 1 sec) 
Heartbeat CPU 0 instructions: 150000000 cycles: 207367430 heartbeat IPC: 0.335834 cumulative IPC: 0.359696 (Simulation time: 0 hr 5 min 33 sec) 
Heartbeat CPU 0 instructions: 160000000 cycles: 234741717 heartbeat IPC: 0.365306 cumulative IPC: 0.360619 (Simulation time: 0 hr 6 min 4 sec) 
Heartbeat CPU 0 instructions: 170000001 cycles: 262664632 heartbeat IPC: 0.358129 cumulative IPC: 0.360261 (Simulation time: 0 hr 6 min 38 sec) 
Heartbeat CPU 0 instructions: 180000000 cycles: 291007677 heartbeat IPC: 0.35282 cumulative IPC: 0.359314 (Simulation time: 0 hr 7 min 10 sec) 
Heartbeat CPU 0 instructions: 190000002 cycles: 318901122 heartbeat IPC: 0.358507 cumulative IPC: 0.359224 (Simulation time: 0 hr 7 min 42 sec) 
Heartbeat CPU 0 instructions: 200000000 cycles: 347175358 heartbeat IPC: 0.353679 cumulative IPC: 0.358662 (Simulation time: 0 hr 8 min 15 sec) 
Finished CPU 0 instructions: 100000000 cycles: 278814056 cumulative IPC: 0.358662 (Simulation time: 0 hr 8 min 15 sec) 

CPU 0 Branch Prediction Accuracy: 87.7062% MPKI: 23.4739
Number of Branches: 19094112 Number of Mispredictions: 2347395
Number of LOAD Instructions: 56201042
Number of LOAD Instructions (ROI): 56201042
Number of STORE Instructions: 26046982
Number of STORE Instructions (ROI): 26046982
Total Destination Memory Operands: 27648705
Total Destination Memory Operands (ROI): 27648705
Total Source Memory Operands: 56216934
Total Source Memory Operands (ROI): 56216934
Number of DEPENDED LOADS: 2548484
Number of DEPENDED LOADS (ROI): 2548484
Number of SQ_ADDED: 27648697
Number of SQ_ADDED (ROI): 27648697
Number of LQ_ADDED: 69722539
Number of LQ_ADDED (ROI): 69722539
Number of Instructions read from trace: 200000144

ChampSim completed all CPUs

Region of Interest Statistics

CPU 0 cumulative IPC: 0.358662 instructions: 100000000 cycles: 278814056
ITLB TOTAL     ACCESS:   20426644  HIT:   20399743  MISS:      26901
ITLB LOAD      ACCESS:   20426644  HIT:   20399743  MISS:      26901
ITLB RFO       ACCESS:          0  HIT:          0  MISS:          0
ITLB PREFETCH  ACCESS:          0  HIT:          0  MISS:          0
ITLB WRITEBACK ACCESS:          0  HIT:          0  MISS:          0
ITLB PREFETCH  REQUESTED:          0  ISSUED:          0  USEFUL:          0  USELESS:          0
ITLB TOTAL MSHR MERGED:      23613
ITLB LOAD MSHR MERGED:      23613
ITLB RFO MSHR MERGED:          0
ITLB PREFETCH MSHR MERGED:          0
ITLB WRITEBACK MSHR MERGED:          0
ITLB TOTAL ACCESSES:   20450257 HITS:   20399743 MISSES:      50514
ITLB LOAD ACCESSES:   20450257 HITS:   20399743 MISSES:      50514
ITLB RFO ACCESSES:          0 HITS:          0 MISSES:          0
ITLB PREFETCH ACCESSES:          0 HITS:          0 MISSES:          0
ITLB WRITEBACK ACCESSES:          0 HITS:          0 MISSES:          0
ITLB RQ ACCESS:  100000135
ITLB RQ TO_CACHE:   20450257
ITLB RQ MERGED:   79549878
ITLB RQ FORWARD:          0
ITLB WQ ACCESS:          0
ITLB WQ TO_CACHE:          0
ITLB WQ MERGED:          0
ITLB WQ FORWARD:          0
DTLB TOTAL     ACCESS:   33490311  HIT:   33385164  MISS:     105147
DTLB LOAD      ACCESS:   21572677  HIT:   21476908  MISS:      95769
DTLB RFO       ACCESS:   11917634  HIT:   11908256  MISS:       9378
DTLB PREFETCH  ACCESS:          0  HIT:          0  MISS:          0
DTLB WRITEBACK ACCESS:          0  HIT:          0  MISS:          0
DTLB PREFETCH  REQUESTED:          0  ISSUED:          0  USEFUL:          0  USELESS:          0
DTLB TOTAL MSHR MERGED:      15533
DTLB LOAD MSHR MERGED:      11009
DTLB RFO MSHR MERGED:       4524
DTLB PREFETCH MSHR MERGED:          0
DTLB WRITEBACK MSHR MERGED:          0
DTLB TOTAL ACCESSES:   33505844 HITS:   33385164 MISSES:     120680
DTLB LOAD ACCESSES:   21583686 HITS:   21476908 MISSES:     106778
DTLB RFO ACCESSES:   11922158 HITS:   11908256 MISSES:      13902
DTLB PREFETCH ACCESSES:          0 HITS:          0 MISSES:          0
DTLB WRITEBACK ACCESSES:          0 HITS:          0 MISSES:          0
DTLB RQ ACCESS:   40707054
DTLB RQ TO_CACHE:   33505844
DTLB RQ MERGED:    7201210
DTLB RQ FORWARD:          0
DTLB WQ ACCESS:          0
DTLB WQ TO_CACHE:          0
DTLB WQ MERGED:          0
DTLB WQ FORWARD:          0
L1D TOTAL     ACCESS:   57405266  HIT:   55930271  MISS:    1474995
L1D LOAD      ACCESS:   22522125  HIT:   21898037  MISS:     624088
L1D RFO       ACCESS:   13569924  HIT:   13444422  MISS:     125502
L1D PREFETCH  ACCESS:   21313217  HIT:   20587812  MISS:     725405
L1D WRITEBACK ACCESS:          0  HIT:          0  MISS:          0
L1D PREFETCH  REQUESTED:   22580104  ISSUED:   22209775  USEFUL:     352626  USELESS:     372776
L1D TOTAL MSHR MERGED:     427768
L1D LOAD MSHR MERGED:      77697
L1D RFO MSHR MERGED:     247846
L1D PREFETCH MSHR MERGED:     102225
L1D WRITEBACK MSHR MERGED:          0
L1D TOTAL ACCESSES:   57838594 HITS:   55935831 MISSES:    1902763
L1D LOAD ACCESSES:   22580449 HITS:   21898382 MISSES:     682067
L1D RFO ACCESSES:   13816005 HITS:   13444422 MISSES:     371583
L1D PREFETCH ACCESSES:   21442140 HITS:   20593027 MISSES:     849113
L1D WRITEBACK ACCESSES:          0 HITS:          0 MISSES:          0
L1D RQ ACCESS:   26774276
L1D RQ TO_CACHE:   22580106
L1D RQ MERGED:    4193825
L1D RQ FORWARD:          0
L1D WQ ACCESS:   13932778
L1D WQ TO_CACHE:   13816005
L1D WQ MERGED:     116773
L1D WQ FORWARD:       5560
L1I TOTAL     ACCESS:   25840207  HIT:   25154394  MISS:     685813
L1I LOAD      ACCESS:   25840207  HIT:   25154394  MISS:     685813
L1I RFO       ACCESS:          0  HIT:          0  MISS:          0
L1I PREFETCH  ACCESS:          0  HIT:          0  MISS:          0
L1I WRITEBACK ACCESS:          0  HIT:          0  MISS:          0
L1I PREFETCH  REQUESTED:          0  ISSUED:          0  USEFUL:          0  USELESS:          0
L1I TOTAL MSHR MERGED:     296772
L1I LOAD MSHR MERGED:     296772
L1I RFO MSHR MERGED:          0
L1I PREFETCH MSHR MERGED:          0
L1I WRITEBACK MSHR MERGED:          0
L1I TOTAL ACCESSES:   26136979 HITS:   25154394 MISSES:     982585
L1I LOAD ACCESSES:   26136979 HITS:   25154394 MISSES:     982585
L1I RFO ACCESSES:          0 HITS:          0 MISSES:          0
L1I PREFETCH ACCESSES:          0 HITS:          0 MISSES:          0
L1I WRITEBACK ACCESSES:          0 HITS:          0 MISSES:          0
L1I RQ ACCESS:  100000135
L1I RQ TO_CACHE:   26136979
L1I RQ MERGED:   73863156
L1I RQ FORWARD:          0
L1I WQ ACCESS:          0
L1I WQ TO_CACHE:          0
L1I WQ MERGED:          0
L1I WQ FORWARD:          0
L2C TOTAL     ACCESS:    2609599  HIT:    2081620  MISS:     527979
L2C LOAD      ACCESS:    1290150  HIT:     967091  MISS:     323059
L2C RFO       ACCESS:     123721  HIT:      64578  MISS:      59143
L2C PREFETCH  ACCESS:     873409  HIT:     729556  MISS:     143853
L2C WRITEBACK ACCESS:     322319  HIT:     320395  MISS:       1924
L2C PREFETCH  REQUESTED:     151186  ISSUED:     151186  USEFUL:      41093  USELESS:     102771
L2C TOTAL MSHR MERGED:       1764
L2C LOAD MSHR MERGED:        171
L2C RFO MSHR MERGED:          0
L2C PREFETCH MSHR MERGED:       1593
L2C WRITEBACK MSHR MERGED:          0
L2C TOTAL ACCESSES:    2611438 HITS:    2081690 MISSES:     529748
L2C LOAD ACCESSES:    1290183 HITS:     967124 MISSES:     323059
L2C RFO ACCESSES:     123737 HITS:      64594 MISSES:      59143
L2C PREFETCH ACCESSES:     875199 HITS:     729577 MISSES:     145622
L2C WRITEBACK ACCESSES:     322319 HITS:     320395 MISSES:       1924
L2C RQ ACCESS:    1413920
L2C RQ TO_CACHE:    1413871
L2C RQ MERGED:          0
L2C RQ FORWARD:          0
L2C WQ ACCESS:     322319
L2C WQ TO_CACHE:     322319
L2C WQ MERGED:          0
L2C WQ FORWARD:         70
LLC TOTAL     ACCESS:     649494  HIT:     562453  MISS:      87041
LLC LOAD      ACCESS:     322885  HIT:     298937  MISS:      23948
LLC RFO       ACCESS:      59143  HIT:      43610  MISS:      15533
LLC PREFETCH  ACCESS:     144028  HIT:     108133  MISS:      35895
LLC WRITEBACK ACCESS:     123438  HIT:     111773  MISS:      11665
LLC PREFETCH  REQUESTED:          0  ISSUED:          0  USEFUL:       3040  USELESS:      33228
LLC TOTAL MSHR MERGED:          1
LLC LOAD MSHR MERGED:          0
LLC RFO MSHR MERGED:          0
LLC PREFETCH MSHR MERGED:          1
LLC WRITEBACK MSHR MERGED:          0
LLC TOTAL ACCESSES:     649498 HITS:     562456 MISSES:      87042
LLC LOAD ACCESSES:     322888 HITS:     298940 MISSES:      23948
LLC RFO ACCESSES:      59143 HITS:      43610 MISSES:      15533
LLC PREFETCH ACCESSES:     144029 HITS:     108133 MISSES:      35896
LLC WRITEBACK ACCESSES:     123438 HITS:     111773 MISSES:      11665
LLC 0 RQ ACCESS:     382031
LLC 0 RQ TO_CACHE:     382028
LLC 0 RQ MERGED:          0
LLC 0 RQ FORWARD:          0
LLC WQ ACCESS:     123438
LLC WQ TO_CACHE:     123438
LLC WQ MERGED:          0
LLC WQ FORWARD:          3
Major fault: 0 Minor fault: 6231
CPU 0 L1D next line prefetcher final stats
CPU 0 L2C PC-based stride prefetcher final stats
All Misses: 207458
All Hits: 1259042
SD Algo Stats - Switches: 0 SRR-Repls: 66931 BRR-Repls: 0

DRAM Statistics
 CHANNEL 0
 RQ ROW_BUFFER_HIT:      19283  ROW_BUFFER_MISS:      55846
 DBUS_CONGESTED:      47696
 WQ ROW_BUFFER_HIT:       2896  ROW_BUFFER_MISS:      31047  FULL:          0

 AVG_CONGESTED_CYCLE: 13
LOADS RETIRED: 28067902
INSTR RETIRED: 100000000
