
*** ChampSim Multicore Out-of-Order Simulator ***

Warmup Instructions: 100000000
Simulation Instructions: 500000000
Number of CPUs: 1
LLC sets: 2048
LLC ways: 16
Clean RRIP Policies: 1122130211221302 Dirty RRIP Policies: 2112132221121322 PSEL Width: 10 Track Set: 4294967295 PSEL Mask: 1 Demote Mask: 2200141022001410DS Algo: 0Window size: 0
Off-chip DRAM Size: 4096 MB Channels: 1 Width: 64-bit Data Rate: 1600 MT/s

CPU 0 runs /mnt/beegfs/iconst01/spec2017/Gcc.trace.gz
NOT SORTED
TRACE STRING: /mnt/beegfs/iconst01/spec2017/Gcc.trace.gz
SORTED
TRACE STRING: /mnt/beegfs/iconst01/spec2017/Gcc.trace.gz
INITIAL
TRACE STRING: /mnt/beegfs/iconst01/spec2017/Gcc.trace.gz

champsim_seed used: 269

CPU 0 L1D next line prefetcher
CPU 0 L2C IP-based stride prefetcher
Initialize DRRIP state
Assign rand_sets[0]: 454  LLC: 2048
rand_sets[0]: 454
Assign rand_sets[1]: 1662  LLC: 2048
rand_sets[1]: 1662
Assign rand_sets[2]: 1921  LLC: 2048
rand_sets[2]: 1921
Assign rand_sets[3]: 1131  LLC: 2048
rand_sets[3]: 1131
Assign rand_sets[4]: 331  LLC: 2048
rand_sets[4]: 331
Assign rand_sets[5]: 1531  LLC: 2048
rand_sets[5]: 1531
Assign rand_sets[6]: 482  LLC: 2048
rand_sets[6]: 482
Assign rand_sets[7]: 1275  LLC: 2048
rand_sets[7]: 1275
Assign rand_sets[8]: 1876  LLC: 2048
rand_sets[8]: 1876
Assign rand_sets[9]: 2038  LLC: 2048
rand_sets[9]: 2038
Assign rand_sets[10]: 701  LLC: 2048
rand_sets[10]: 701
Assign rand_sets[11]: 479  LLC: 2048
rand_sets[11]: 479
Assign rand_sets[12]: 892  LLC: 2048
rand_sets[12]: 892
Assign rand_sets[13]: 1820  LLC: 2048
rand_sets[13]: 1820
Assign rand_sets[14]: 1505  LLC: 2048
rand_sets[14]: 1505
Assign rand_sets[15]: 1159  LLC: 2048
rand_sets[15]: 1159
Assign rand_sets[16]: 513  LLC: 2048
rand_sets[16]: 513
Assign rand_sets[17]: 703  LLC: 2048
rand_sets[17]: 703
Assign rand_sets[18]: 561  LLC: 2048
rand_sets[18]: 561
Assign rand_sets[19]: 990  LLC: 2048
rand_sets[19]: 990
Assign rand_sets[20]: 342  LLC: 2048
rand_sets[20]: 342
Assign rand_sets[21]: 882  LLC: 2048
rand_sets[21]: 882
Assign rand_sets[22]: 15  LLC: 2048
rand_sets[22]: 15
Assign rand_sets[23]: 71  LLC: 2048
rand_sets[23]: 71
Assign rand_sets[24]: 1127  LLC: 2048
rand_sets[24]: 1127
Assign rand_sets[25]: 1382  LLC: 2048
rand_sets[25]: 1382
Assign rand_sets[26]: 647  LLC: 2048
rand_sets[26]: 647
Assign rand_sets[27]: 857  LLC: 2048
rand_sets[27]: 857
Assign rand_sets[28]: 1450  LLC: 2048
rand_sets[28]: 1450
Assign rand_sets[29]: 1160  LLC: 2048
rand_sets[29]: 1160
Assign rand_sets[30]: 1852  LLC: 2048
rand_sets[30]: 1852
Assign rand_sets[31]: 1881  LLC: 2048
rand_sets[31]: 1881
Assign rand_sets[32]: 1770  LLC: 2048
rand_sets[32]: 1770
Assign rand_sets[33]: 1622  LLC: 2048
rand_sets[33]: 1622
Assign rand_sets[34]: 275  LLC: 2048
rand_sets[34]: 275
Assign rand_sets[35]: 635  LLC: 2048
rand_sets[35]: 635
Assign rand_sets[36]: 466  LLC: 2048
rand_sets[36]: 466
Assign rand_sets[37]: 1413  LLC: 2048
rand_sets[37]: 1413
Assign rand_sets[38]: 417  LLC: 2048
rand_sets[38]: 417
Assign rand_sets[39]: 472  LLC: 2048
rand_sets[39]: 472
Assign rand_sets[40]: 1340  LLC: 2048
rand_sets[40]: 1340
Assign rand_sets[41]: 852  LLC: 2048
rand_sets[41]: 852
Assign rand_sets[42]: 1365  LLC: 2048
rand_sets[42]: 1365
Assign rand_sets[43]: 47  LLC: 2048
rand_sets[43]: 47
Assign rand_sets[44]: 823  LLC: 2048
rand_sets[44]: 823
Assign rand_sets[45]: 686  LLC: 2048
rand_sets[45]: 686
Assign rand_sets[46]: 1637  LLC: 2048
rand_sets[46]: 1637
Assign rand_sets[47]: 1115  LLC: 2048
rand_sets[47]: 1115
Assign rand_sets[48]: 986  LLC: 2048
rand_sets[48]: 986
Assign rand_sets[49]: 258  LLC: 2048
rand_sets[49]: 258
Assign rand_sets[50]: 633  LLC: 2048
rand_sets[50]: 633
Assign rand_sets[51]: 920  LLC: 2048
rand_sets[51]: 920
Assign rand_sets[52]: 204  LLC: 2048
rand_sets[52]: 204
Assign rand_sets[53]: 227  LLC: 2048
rand_sets[53]: 227
Assign rand_sets[54]: 1818  LLC: 2048
rand_sets[54]: 1818
Assign rand_sets[55]: 886  LLC: 2048
rand_sets[55]: 886
Assign rand_sets[56]: 1422  LLC: 2048
rand_sets[56]: 1422
Assign rand_sets[57]: 607  LLC: 2048
rand_sets[57]: 607
Assign rand_sets[58]: 217  LLC: 2048
rand_sets[58]: 217
Assign rand_sets[59]: 1945  LLC: 2048
rand_sets[59]: 1945
Assign rand_sets[60]: 143  LLC: 2048
rand_sets[60]: 143
Assign rand_sets[61]: 1311  LLC: 2048
rand_sets[61]: 1311
Assign rand_sets[62]: 319  LLC: 2048
rand_sets[62]: 319
Assign rand_sets[63]: 1846  LLC: 2048
rand_sets[63]: 1846
 CLEAN-RRIP-POLICY-1: 1-1-2-2-1-3-0-2- CLEAN-RRIP-POLICY-2: 1-1-2-2-1-3-0-2-
 DIRTY-RRIP-POLICY-1: 2-1-1-2-1-3-2-2- DIRTY-RRIP-POLICY-2: 2-1-1-2-1-3-2-2-
 PSEL width: 10
Heartbeat CPU 0 instructions: 10000001 cycles: 7315907 heartbeat IPC: 1.36688 cumulative IPC: 1.36688 (Simulation time: 0 hr 0 min 15 sec) 
Heartbeat CPU 0 instructions: 20000000 cycles: 14307744 heartbeat IPC: 1.43024 cumulative IPC: 1.39784 (Simulation time: 0 hr 0 min 29 sec) 
Heartbeat CPU 0 instructions: 30000001 cycles: 21020729 heartbeat IPC: 1.48965 cumulative IPC: 1.42716 (Simulation time: 0 hr 0 min 45 sec) 
Heartbeat CPU 0 instructions: 40000000 cycles: 27481543 heartbeat IPC: 1.54779 cumulative IPC: 1.45552 (Simulation time: 0 hr 1 min 1 sec) 
Heartbeat CPU 0 instructions: 50000001 cycles: 33583242 heartbeat IPC: 1.63889 cumulative IPC: 1.48884 (Simulation time: 0 hr 1 min 17 sec) 
Heartbeat CPU 0 instructions: 60000000 cycles: 40064437 heartbeat IPC: 1.54293 cumulative IPC: 1.49759 (Simulation time: 0 hr 1 min 33 sec) 
Heartbeat CPU 0 instructions: 70000000 cycles: 47102328 heartbeat IPC: 1.42088 cumulative IPC: 1.48613 (Simulation time: 0 hr 1 min 48 sec) 
Heartbeat CPU 0 instructions: 80000000 cycles: 54192119 heartbeat IPC: 1.41048 cumulative IPC: 1.47623 (Simulation time: 0 hr 2 min 3 sec) 
Heartbeat CPU 0 instructions: 90000003 cycles: 61196687 heartbeat IPC: 1.42764 cumulative IPC: 1.47067 (Simulation time: 0 hr 2 min 17 sec) 
Heartbeat CPU 0 instructions: 100000000 cycles: 68364043 heartbeat IPC: 1.39521 cumulative IPC: 1.46276 (Simulation time: 0 hr 2 min 32 sec) 

Warmup complete CPU 0 instructions: 100000004 cycles: 68364044 (Simulation time: 0 hr 2 min 32 sec) 

Heartbeat CPU 0 instructions: 110000003 cycles: 95977277 heartbeat IPC: 0.362145 cumulative IPC: 0.362145 (Simulation time: 0 hr 3 min 0 sec) 
Heartbeat CPU 0 instructions: 120000000 cycles: 123430274 heartbeat IPC: 0.364259 cumulative IPC: 0.363199 (Simulation time: 0 hr 3 min 29 sec) 
Heartbeat CPU 0 instructions: 130000000 cycles: 148403908 heartbeat IPC: 0.400422 cumulative IPC: 0.374813 (Simulation time: 0 hr 3 min 58 sec) 
Heartbeat CPU 0 instructions: 140000000 cycles: 177820823 heartbeat IPC: 0.33994 cumulative IPC: 0.365441 (Simulation time: 0 hr 4 min 26 sec) 
Heartbeat CPU 0 instructions: 150000000 cycles: 207649210 heartbeat IPC: 0.335251 cumulative IPC: 0.358976 (Simulation time: 0 hr 4 min 54 sec) 
Heartbeat CPU 0 instructions: 160000000 cycles: 235050928 heartbeat IPC: 0.364941 cumulative IPC: 0.359956 (Simulation time: 0 hr 5 min 22 sec) 
Heartbeat CPU 0 instructions: 170000001 cycles: 263020331 heartbeat IPC: 0.357534 cumulative IPC: 0.359608 (Simulation time: 0 hr 5 min 52 sec) 
Heartbeat CPU 0 instructions: 180000000 cycles: 291408722 heartbeat IPC: 0.352257 cumulative IPC: 0.358673 (Simulation time: 0 hr 6 min 21 sec) 
Heartbeat CPU 0 instructions: 190000002 cycles: 319368941 heartbeat IPC: 0.357651 cumulative IPC: 0.358559 (Simulation time: 0 hr 6 min 49 sec) 
Heartbeat CPU 0 instructions: 200000000 cycles: 347689674 heartbeat IPC: 0.353098 cumulative IPC: 0.358005 (Simulation time: 0 hr 7 min 18 sec) 
Heartbeat CPU 0 instructions: 210000002 cycles: 375504783 heartbeat IPC: 0.359517 cumulative IPC: 0.358142 (Simulation time: 0 hr 7 min 47 sec) 
Heartbeat CPU 0 instructions: 220000000 cycles: 404609749 heartbeat IPC: 0.343584 cumulative IPC: 0.356882 (Simulation time: 0 hr 8 min 15 sec) 
Heartbeat CPU 0 instructions: 230000000 cycles: 432123130 heartbeat IPC: 0.363459 cumulative IPC: 0.357379 (Simulation time: 0 hr 8 min 42 sec) 
Heartbeat CPU 0 instructions: 240000000 cycles: 458087525 heartbeat IPC: 0.385143 cumulative IPC: 0.359229 (Simulation time: 0 hr 9 min 9 sec) 
Heartbeat CPU 0 instructions: 250000000 cycles: 488165002 heartbeat IPC: 0.332475 cumulative IPC: 0.357312 (Simulation time: 0 hr 9 min 39 sec) 
Heartbeat CPU 0 instructions: 260000000 cycles: 515225740 heartbeat IPC: 0.369539 cumulative IPC: 0.358053 (Simulation time: 0 hr 10 min 7 sec) 
Heartbeat CPU 0 instructions: 270000003 cycles: 543580381 heartbeat IPC: 0.352676 cumulative IPC: 0.357732 (Simulation time: 0 hr 10 min 37 sec) 
Heartbeat CPU 0 instructions: 280000000 cycles: 571693877 heartbeat IPC: 0.355701 cumulative IPC: 0.357618 (Simulation time: 0 hr 11 min 6 sec) 
Heartbeat CPU 0 instructions: 290000000 cycles: 600564675 heartbeat IPC: 0.346371 cumulative IPC: 0.357008 (Simulation time: 0 hr 11 min 36 sec) 
Heartbeat CPU 0 instructions: 300000000 cycles: 630481352 heartbeat IPC: 0.334262 cumulative IPC: 0.355798 (Simulation time: 0 hr 12 min 4 sec) 
Heartbeat CPU 0 instructions: 310000001 cycles: 659872923 heartbeat IPC: 0.340234 cumulative IPC: 0.355024 (Simulation time: 0 hr 12 min 33 sec) 
Heartbeat CPU 0 instructions: 320000000 cycles: 688066175 heartbeat IPC: 0.354695 cumulative IPC: 0.355009 (Simulation time: 0 hr 13 min 0 sec) 
Heartbeat CPU 0 instructions: 330000000 cycles: 716680445 heartbeat IPC: 0.349476 cumulative IPC: 0.354765 (Simulation time: 0 hr 13 min 29 sec) 
Heartbeat CPU 0 instructions: 340000000 cycles: 745928235 heartbeat IPC: 0.341906 cumulative IPC: 0.35421 (Simulation time: 0 hr 13 min 57 sec) 
Heartbeat CPU 0 instructions: 350000003 cycles: 772950320 heartbeat IPC: 0.370068 cumulative IPC: 0.354818 (Simulation time: 0 hr 14 min 25 sec) 
Heartbeat CPU 0 instructions: 360000000 cycles: 801049931 heartbeat IPC: 0.355877 cumulative IPC: 0.354859 (Simulation time: 0 hr 14 min 52 sec) 
Heartbeat CPU 0 instructions: 370000000 cycles: 829217552 heartbeat IPC: 0.355018 cumulative IPC: 0.354865 (Simulation time: 0 hr 15 min 20 sec) 
Heartbeat CPU 0 instructions: 380000000 cycles: 857695912 heartbeat IPC: 0.351144 cumulative IPC: 0.35473 (Simulation time: 0 hr 15 min 47 sec) 
Heartbeat CPU 0 instructions: 390000001 cycles: 885276395 heartbeat IPC: 0.362575 cumulative IPC: 0.354995 (Simulation time: 0 hr 16 min 14 sec) 
Heartbeat CPU 0 instructions: 400000000 cycles: 913880445 heartbeat IPC: 0.349601 cumulative IPC: 0.354813 (Simulation time: 0 hr 16 min 41 sec) 
Heartbeat CPU 0 instructions: 410000001 cycles: 941157119 heartbeat IPC: 0.366614 cumulative IPC: 0.355182 (Simulation time: 0 hr 17 min 8 sec) 
Heartbeat CPU 0 instructions: 420000000 cycles: 968448783 heartbeat IPC: 0.366412 cumulative IPC: 0.355522 (Simulation time: 0 hr 17 min 35 sec) 
Heartbeat CPU 0 instructions: 430000002 cycles: 996117382 heartbeat IPC: 0.361421 cumulative IPC: 0.355698 (Simulation time: 0 hr 18 min 2 sec) 
Heartbeat CPU 0 instructions: 440000000 cycles: 1025645606 heartbeat IPC: 0.338659 cumulative IPC: 0.355172 (Simulation time: 0 hr 18 min 30 sec) 
Heartbeat CPU 0 instructions: 450000002 cycles: 1054875382 heartbeat IPC: 0.342117 cumulative IPC: 0.354786 (Simulation time: 0 hr 18 min 57 sec) 
Heartbeat CPU 0 instructions: 460000000 cycles: 1082543109 heartbeat IPC: 0.361432 cumulative IPC: 0.354967 (Simulation time: 0 hr 19 min 25 sec) 
Heartbeat CPU 0 instructions: 470000000 cycles: 1110152761 heartbeat IPC: 0.362192 cumulative IPC: 0.355158 (Simulation time: 0 hr 19 min 52 sec) 
Heartbeat CPU 0 instructions: 480000000 cycles: 1138011187 heartbeat IPC: 0.358958 cumulative IPC: 0.355257 (Simulation time: 0 hr 20 min 19 sec) 
Heartbeat CPU 0 instructions: 490000000 cycles: 1165572146 heartbeat IPC: 0.362832 cumulative IPC: 0.355448 (Simulation time: 0 hr 20 min 46 sec) 
Heartbeat CPU 0 instructions: 500000000 cycles: 1193863755 heartbeat IPC: 0.353462 cumulative IPC: 0.355398 (Simulation time: 0 hr 21 min 13 sec) 
Heartbeat CPU 0 instructions: 510000000 cycles: 1228275250 heartbeat IPC: 0.290601 cumulative IPC: 0.353475 (Simulation time: 0 hr 21 min 44 sec) 
Heartbeat CPU 0 instructions: 520000000 cycles: 1256254820 heartbeat IPC: 0.357404 cumulative IPC: 0.353568 (Simulation time: 0 hr 22 min 12 sec) 
Heartbeat CPU 0 instructions: 530000001 cycles: 1285683646 heartbeat IPC: 0.339803 cumulative IPC: 0.353235 (Simulation time: 0 hr 22 min 40 sec) 
Heartbeat CPU 0 instructions: 540000000 cycles: 1313744312 heartbeat IPC: 0.356371 cumulative IPC: 0.353306 (Simulation time: 0 hr 23 min 9 sec) 
Heartbeat CPU 0 instructions: 550000001 cycles: 1342920636 heartbeat IPC: 0.342744 cumulative IPC: 0.353064 (Simulation time: 0 hr 23 min 38 sec) 
Heartbeat CPU 0 instructions: 560000000 cycles: 1368303242 heartbeat IPC: 0.393971 cumulative IPC: 0.353863 (Simulation time: 0 hr 24 min 6 sec) 
Heartbeat CPU 0 instructions: 570000000 cycles: 1397704393 heartbeat IPC: 0.340123 cumulative IPC: 0.353559 (Simulation time: 0 hr 24 min 35 sec) 
Heartbeat CPU 0 instructions: 580000000 cycles: 1425608057 heartbeat IPC: 0.358376 cumulative IPC: 0.353658 (Simulation time: 0 hr 25 min 3 sec) 
Heartbeat CPU 0 instructions: 590000001 cycles: 1450394657 heartbeat IPC: 0.403444 cumulative IPC: 0.354551 (Simulation time: 0 hr 25 min 30 sec) 
Heartbeat CPU 0 instructions: 600000000 cycles: 1476571099 heartbeat IPC: 0.382023 cumulative IPC: 0.355061 (Simulation time: 0 hr 25 min 57 sec) 
Finished CPU 0 instructions: 500000000 cycles: 1408207077 cumulative IPC: 0.355061 (Simulation time: 0 hr 25 min 57 sec) 

CPU 0 Branch Prediction Accuracy: 86.4311% MPKI: 26.2662
Number of Branches: 96788573 Number of Mispredictions: 13133102
Number of LOAD Instructions: 164682285
Number of LOAD Instructions (ROI): 164682285
Number of STORE Instructions: 78194750
Number of STORE Instructions (ROI): 78194750
Total Destination Memory Operands: 83268534
Total Destination Memory Operands (ROI): 83268534
Total Source Memory Operands: 164712438
Total Source Memory Operands (ROI): 164712438
Number of DEPENDED LOADS: 7060524
Number of DEPENDED LOADS (ROI): 7060524
Number of SQ_ADDED: 83268522
Number of SQ_ADDED (ROI): 83268522
Number of LQ_ADDED: 236588525
Number of LQ_ADDED (ROI): 236588525
Number of Instructions read from trace: 600000066

ChampSim completed all CPUs

Region of Interest Statistics

CPU 0 cumulative IPC: 0.355061 instructions: 500000000 cycles: 1408207077
ITLB TOTAL     ACCESS:  100513761  HIT:  100309315  MISS:     204446
ITLB LOAD      ACCESS:  100513761  HIT:  100309315  MISS:     204446
ITLB RFO       ACCESS:          0  HIT:          0  MISS:          0
ITLB PREFETCH  ACCESS:          0  HIT:          0  MISS:          0
ITLB WRITEBACK ACCESS:          0  HIT:          0  MISS:          0
ITLB PREFETCH  REQUESTED:          0  ISSUED:          0  USEFUL:          0  USELESS:          0
ITLB TOTAL MSHR MERGED:     172426
ITLB LOAD MSHR MERGED:     172426
ITLB RFO MSHR MERGED:          0
ITLB PREFETCH MSHR MERGED:          0
ITLB WRITEBACK MSHR MERGED:          0
ITLB TOTAL ACCESSES:  100686187 HITS:  100309315 MISSES:     376872
ITLB LOAD ACCESSES:  100686187 HITS:  100309315 MISSES:     376872
ITLB RFO ACCESSES:          0 HITS:          0 MISSES:          0
ITLB PREFETCH ACCESSES:          0 HITS:          0 MISSES:          0
ITLB WRITEBACK ACCESSES:          0 HITS:          0 MISSES:          0
ITLB RQ ACCESS:  500000057
ITLB RQ TO_CACHE:  100686187
ITLB RQ MERGED:  399313870
ITLB RQ FORWARD:          0
ITLB WQ ACCESS:          0
ITLB WQ TO_CACHE:          0
ITLB WQ MERGED:          0
ITLB WQ FORWARD:          0
DTLB TOTAL     ACCESS:  165335595  HIT:  164701248  MISS:     634347
DTLB LOAD      ACCESS:  106291399  HIT:  105721457  MISS:     569942
DTLB RFO       ACCESS:   59044196  HIT:   58979791  MISS:      64405
DTLB PREFETCH  ACCESS:          0  HIT:          0  MISS:          0
DTLB WRITEBACK ACCESS:          0  HIT:          0  MISS:          0
DTLB PREFETCH  REQUESTED:          0  ISSUED:          0  USEFUL:          0  USELESS:          0
DTLB TOTAL MSHR MERGED:      99911
DTLB LOAD MSHR MERGED:      59423
DTLB RFO MSHR MERGED:      40488
DTLB PREFETCH MSHR MERGED:          0
DTLB WRITEBACK MSHR MERGED:          0
DTLB TOTAL ACCESSES:  165435506 HITS:  164701248 MISSES:     734258
DTLB LOAD ACCESSES:  106350822 HITS:  105721457 MISSES:     629365
DTLB RFO ACCESSES:   59084684 HITS:   58979791 MISSES:     104893
DTLB PREFETCH ACCESSES:          0 HITS:          0 MISSES:          0
DTLB WRITEBACK ACCESSES:          0 HITS:          0 MISSES:          0
DTLB RQ ACCESS:  200310410
DTLB RQ TO_CACHE:  165435506
DTLB RQ MERGED:   34874904
DTLB RQ FORWARD:          0
DTLB WQ ACCESS:          0
DTLB WQ TO_CACHE:          0
DTLB WQ MERGED:          0
DTLB WQ FORWARD:          0
L1D TOTAL     ACCESS:  281845123  HIT:  273935768  MISS:    7909355
L1D LOAD      ACCESS:  110425085  HIT:  107149579  MISS:    3275506
L1D RFO       ACCESS:   67111929  HIT:   66221058  MISS:     890871
L1D PREFETCH  ACCESS:  104308109  HIT:  100565131  MISS:    3742978
L1D WRITEBACK ACCESS:          0  HIT:          0  MISS:          0
L1D PREFETCH  REQUESTED:  110815929  ISSUED:  109116627  USEFUL:    1663683  USELESS:    2079259
L1D TOTAL MSHR MERGED:    2856422
L1D LOAD MSHR MERGED:     485816
L1D RFO MSHR MERGED:    1874096
L1D PREFETCH MSHR MERGED:     496510
L1D WRITEBACK MSHR MERGED:          0
L1D TOTAL ACCESSES:  284729036 HITS:  273963259 MISSES:   10765777
L1D LOAD ACCESSES:  110817419 HITS:  107151069 MISSES:    3666350
L1D RFO ACCESSES:   68973945 HITS:   66221058 MISSES:    2752887
L1D PREFETCH ACCESSES:  104937672 HITS:  100591132 MISSES:    4346540
L1D WRITEBACK ACCESSES:          0 HITS:          0 MISSES:          0
L1D RQ ACCESS:  130757807
L1D RQ TO_CACHE:  110815932
L1D RQ MERGED:   19940385
L1D RQ FORWARD:          0
L1D WQ ACCESS:   69552603
L1D WQ TO_CACHE:   68973946
L1D WQ MERGED:     578657
L1D WQ FORWARD:      27491
L1I TOTAL     ACCESS:  126561193  HIT:  122322640  MISS:    4238553
L1I LOAD      ACCESS:  126561193  HIT:  122322640  MISS:    4238553
L1I RFO       ACCESS:          0  HIT:          0  MISS:          0
L1I PREFETCH  ACCESS:          0  HIT:          0  MISS:          0
L1I WRITEBACK ACCESS:          0  HIT:          0  MISS:          0
L1I PREFETCH  REQUESTED:          0  ISSUED:          0  USEFUL:          0  USELESS:          0
L1I TOTAL MSHR MERGED:    1834577
L1I LOAD MSHR MERGED:    1834577
L1I RFO MSHR MERGED:          0
L1I PREFETCH MSHR MERGED:          0
L1I WRITEBACK MSHR MERGED:          0
L1I TOTAL ACCESSES:  128395773 HITS:  122322640 MISSES:    6073133
L1I LOAD ACCESSES:  128395773 HITS:  122322640 MISSES:    6073133
L1I RFO ACCESSES:          0 HITS:          0 MISSES:          0
L1I PREFETCH ACCESSES:          0 HITS:          0 MISSES:          0
L1I WRITEBACK ACCESSES:          0 HITS:          0 MISSES:          0
L1I RQ ACCESS:  500000057
L1I RQ TO_CACHE:  128395773
L1I RQ MERGED:  371604284
L1I RQ FORWARD:          0
L1I WQ ACCESS:          0
L1I WQ TO_CACHE:          0
L1I WQ MERGED:          0
L1I WQ FORWARD:          0
L2C TOTAL     ACCESS:   14905005  HIT:   11158474  MISS:    3746531
L2C LOAD      ACCESS:    7418878  HIT:    5098742  MISS:    2320136
L2C RFO       ACCESS:     878693  HIT:     409894  MISS:     468799
L2C PREFETCH  ACCESS:    4568192  HIT:    3627850  MISS:     940342
L2C WRITEBACK ACCESS:    2039242  HIT:    2021988  MISS:      17254
L2C PREFETCH  REQUESTED:     842748  ISSUED:     842748  USEFUL:     203262  USELESS:     736786
L2C TOTAL MSHR MERGED:       7304
L2C LOAD MSHR MERGED:        892
L2C RFO MSHR MERGED:          0
L2C PREFETCH MSHR MERGED:       6412
L2C WRITEBACK MSHR MERGED:          0
L2C TOTAL ACCESSES:   14913180 HITS:   11158925 MISSES:    3754255
L2C LOAD ACCESSES:    7419087 HITS:    5098951 MISSES:    2320136
L2C RFO ACCESSES:     878791 HITS:     409992 MISSES:     468799
L2C PREFETCH ACCESSES:    4576060 HITS:    3627994 MISSES:     948066
L2C WRITEBACK ACCESSES:    2039242 HITS:    2021988 MISSES:      17254
L2C RQ ACCESS:    8297881
L2C RQ TO_CACHE:    8297574
L2C RQ MERGED:          0
L2C RQ FORWARD:          0
L2C WQ ACCESS:    2039242
L2C WQ TO_CACHE:    2039242
L2C WQ MERGED:          0
L2C WQ FORWARD:        451
LLC TOTAL     ACCESS:    4609875  HIT:    4004720  MISS:     605155
LLC LOAD      ACCESS:    2319229  HIT:    2085183  MISS:     234046
LLC RFO       ACCESS:     468789  HIT:     390781  MISS:      78008
LLC PREFETCH  ACCESS:     941549  HIT:     693644  MISS:     247905
LLC WRITEBACK ACCESS:     880308  HIT:     835112  MISS:      45196
LLC PREFETCH  REQUESTED:          0  ISSUED:          0  USEFUL:      32693  USELESS:     216436
LLC TOTAL MSHR MERGED:         89
LLC LOAD MSHR MERGED:         33
LLC RFO MSHR MERGED:          0
LLC PREFETCH MSHR MERGED:         56
LLC WRITEBACK MSHR MERGED:          0
LLC TOTAL ACCESSES:    4610001 HITS:    4004757 MISSES:     605244
LLC LOAD ACCESSES:    2319244 HITS:    2085198 MISSES:     234046
LLC RFO ACCESSES:     468799 HITS:     390791 MISSES:      78008
LLC PREFETCH ACCESSES:     941650 HITS:     693656 MISSES:     247994
LLC WRITEBACK ACCESSES:     880308 HITS:     835112 MISSES:      45196
LLC 0 RQ ACCESS:    2788043
LLC 0 RQ TO_CACHE:    2788018
LLC 0 RQ MERGED:          0
LLC 0 RQ FORWARD:          0
LLC WQ ACCESS:     880308
LLC WQ TO_CACHE:     880308
LLC WQ MERGED:          0
LLC WQ FORWARD:         37
Major fault: 0 Minor fault: 12862
CPU 0 L1D next line prefetcher final stats
CPU 0 L2C PC-based stride prefetcher final stats
All Misses: 720156
All Hits: 4706725
SD Algo Stats - Switches: 0 SRR-Repls: 276439 BRR-Repls: 0

DRAM Statistics
 CHANNEL 0
 RQ ROW_BUFFER_HIT:     114380  ROW_BUFFER_MISS:     443937
 DBUS_CONGESTED:     364955
 WQ ROW_BUFFER_HIT:      17442  ROW_BUFFER_MISS:     192936  FULL:          0

 AVG_CONGESTED_CYCLE: 13
LOADS RETIRED: 136549171
INSTR RETIRED: 500000000
