
*** ChampSim Multicore Out-of-Order Simulator ***

Warmup Instructions: 100000000
Simulation Instructions: 500000000
Number of CPUs: 1
LLC sets: 2048
LLC ways: 16
Clean RRIP Policies: 2203230122032301 Dirty RRIP Policies: 1203031112030311 PSEL Width: 10 Track Set: 4294967295 PSEL Mask: 1 Demote Mask: 2102011121020111DS Algo: 0Window size: 0
Off-chip DRAM Size: 4096 MB Channels: 1 Width: 64-bit Data Rate: 1600 MT/s

CPU 0 runs /mnt/beegfs/iconst01/spec2017/cactuBSSN.trace.gz
NOT SORTED
TRACE STRING: /mnt/beegfs/iconst01/spec2017/cactuBSSN.trace.gz
SORTED
TRACE STRING: /mnt/beegfs/iconst01/spec2017/cactuBSSN.trace.gz
INITIAL
TRACE STRING: /mnt/beegfs/iconst01/spec2017/cactuBSSN.trace.gz

champsim_seed used: 838

CPU 0 L1D next line prefetcher
CPU 0 L2C IP-based stride prefetcher
Initialize DRRIP state
Assign rand_sets[0]: 454  LLC: 2048
rand_sets[0]: 454
Assign rand_sets[1]: 1662  LLC: 2048
rand_sets[1]: 1662
Assign rand_sets[2]: 1921  LLC: 2048
rand_sets[2]: 1921
Assign rand_sets[3]: 1131  LLC: 2048
rand_sets[3]: 1131
Assign rand_sets[4]: 331  LLC: 2048
rand_sets[4]: 331
Assign rand_sets[5]: 1531  LLC: 2048
rand_sets[5]: 1531
Assign rand_sets[6]: 482  LLC: 2048
rand_sets[6]: 482
Assign rand_sets[7]: 1275  LLC: 2048
rand_sets[7]: 1275
Assign rand_sets[8]: 1876  LLC: 2048
rand_sets[8]: 1876
Assign rand_sets[9]: 2038  LLC: 2048
rand_sets[9]: 2038
Assign rand_sets[10]: 701  LLC: 2048
rand_sets[10]: 701
Assign rand_sets[11]: 479  LLC: 2048
rand_sets[11]: 479
Assign rand_sets[12]: 892  LLC: 2048
rand_sets[12]: 892
Assign rand_sets[13]: 1820  LLC: 2048
rand_sets[13]: 1820
Assign rand_sets[14]: 1505  LLC: 2048
rand_sets[14]: 1505
Assign rand_sets[15]: 1159  LLC: 2048
rand_sets[15]: 1159
Assign rand_sets[16]: 513  LLC: 2048
rand_sets[16]: 513
Assign rand_sets[17]: 703  LLC: 2048
rand_sets[17]: 703
Assign rand_sets[18]: 561  LLC: 2048
rand_sets[18]: 561
Assign rand_sets[19]: 990  LLC: 2048
rand_sets[19]: 990
Assign rand_sets[20]: 342  LLC: 2048
rand_sets[20]: 342
Assign rand_sets[21]: 882  LLC: 2048
rand_sets[21]: 882
Assign rand_sets[22]: 15  LLC: 2048
rand_sets[22]: 15
Assign rand_sets[23]: 71  LLC: 2048
rand_sets[23]: 71
Assign rand_sets[24]: 1127  LLC: 2048
rand_sets[24]: 1127
Assign rand_sets[25]: 1382  LLC: 2048
rand_sets[25]: 1382
Assign rand_sets[26]: 647  LLC: 2048
rand_sets[26]: 647
Assign rand_sets[27]: 857  LLC: 2048
rand_sets[27]: 857
Assign rand_sets[28]: 1450  LLC: 2048
rand_sets[28]: 1450
Assign rand_sets[29]: 1160  LLC: 2048
rand_sets[29]: 1160
Assign rand_sets[30]: 1852  LLC: 2048
rand_sets[30]: 1852
Assign rand_sets[31]: 1881  LLC: 2048
rand_sets[31]: 1881
Assign rand_sets[32]: 1770  LLC: 2048
rand_sets[32]: 1770
Assign rand_sets[33]: 1622  LLC: 2048
rand_sets[33]: 1622
Assign rand_sets[34]: 275  LLC: 2048
rand_sets[34]: 275
Assign rand_sets[35]: 635  LLC: 2048
rand_sets[35]: 635
Assign rand_sets[36]: 466  LLC: 2048
rand_sets[36]: 466
Assign rand_sets[37]: 1413  LLC: 2048
rand_sets[37]: 1413
Assign rand_sets[38]: 417  LLC: 2048
rand_sets[38]: 417
Assign rand_sets[39]: 472  LLC: 2048
rand_sets[39]: 472
Assign rand_sets[40]: 1340  LLC: 2048
rand_sets[40]: 1340
Assign rand_sets[41]: 852  LLC: 2048
rand_sets[41]: 852
Assign rand_sets[42]: 1365  LLC: 2048
rand_sets[42]: 1365
Assign rand_sets[43]: 47  LLC: 2048
rand_sets[43]: 47
Assign rand_sets[44]: 823  LLC: 2048
rand_sets[44]: 823
Assign rand_sets[45]: 686  LLC: 2048
rand_sets[45]: 686
Assign rand_sets[46]: 1637  LLC: 2048
rand_sets[46]: 1637
Assign rand_sets[47]: 1115  LLC: 2048
rand_sets[47]: 1115
Assign rand_sets[48]: 986  LLC: 2048
rand_sets[48]: 986
Assign rand_sets[49]: 258  LLC: 2048
rand_sets[49]: 258
Assign rand_sets[50]: 633  LLC: 2048
rand_sets[50]: 633
Assign rand_sets[51]: 920  LLC: 2048
rand_sets[51]: 920
Assign rand_sets[52]: 204  LLC: 2048
rand_sets[52]: 204
Assign rand_sets[53]: 227  LLC: 2048
rand_sets[53]: 227
Assign rand_sets[54]: 1818  LLC: 2048
rand_sets[54]: 1818
Assign rand_sets[55]: 886  LLC: 2048
rand_sets[55]: 886
Assign rand_sets[56]: 1422  LLC: 2048
rand_sets[56]: 1422
Assign rand_sets[57]: 607  LLC: 2048
rand_sets[57]: 607
Assign rand_sets[58]: 217  LLC: 2048
rand_sets[58]: 217
Assign rand_sets[59]: 1945  LLC: 2048
rand_sets[59]: 1945
Assign rand_sets[60]: 143  LLC: 2048
rand_sets[60]: 143
Assign rand_sets[61]: 1311  LLC: 2048
rand_sets[61]: 1311
Assign rand_sets[62]: 319  LLC: 2048
rand_sets[62]: 319
Assign rand_sets[63]: 1846  LLC: 2048
rand_sets[63]: 1846
 CLEAN-RRIP-POLICY-1: 2-2-0-3-2-3-0-1- CLEAN-RRIP-POLICY-2: 2-2-0-3-2-3-0-1-
 DIRTY-RRIP-POLICY-1: 1-2-0-3-0-3-1-1- DIRTY-RRIP-POLICY-2: 1-2-0-3-0-3-1-1-
 PSEL width: 10
Heartbeat CPU 0 instructions: 10000000 cycles: 6588002 heartbeat IPC: 1.51791 cumulative IPC: 1.51791 (Simulation time: 0 hr 0 min 25 sec) 
Heartbeat CPU 0 instructions: 20000000 cycles: 13179598 heartbeat IPC: 1.51708 cumulative IPC: 1.5175 (Simulation time: 0 hr 0 min 50 sec) 
Heartbeat CPU 0 instructions: 30000003 cycles: 19772918 heartbeat IPC: 1.51669 cumulative IPC: 1.51723 (Simulation time: 0 hr 1 min 15 sec) 
Heartbeat CPU 0 instructions: 40000000 cycles: 26364667 heartbeat IPC: 1.51705 cumulative IPC: 1.51718 (Simulation time: 0 hr 1 min 41 sec) 
Heartbeat CPU 0 instructions: 50000001 cycles: 32957350 heartbeat IPC: 1.51683 cumulative IPC: 1.51711 (Simulation time: 0 hr 2 min 7 sec) 
Heartbeat CPU 0 instructions: 60000000 cycles: 39556133 heartbeat IPC: 1.51543 cumulative IPC: 1.51683 (Simulation time: 0 hr 2 min 32 sec) 
Heartbeat CPU 0 instructions: 70000003 cycles: 46154495 heartbeat IPC: 1.51553 cumulative IPC: 1.51665 (Simulation time: 0 hr 2 min 58 sec) 
Heartbeat CPU 0 instructions: 80000000 cycles: 52752545 heartbeat IPC: 1.5156 cumulative IPC: 1.51651 (Simulation time: 0 hr 3 min 23 sec) 
Heartbeat CPU 0 instructions: 90000002 cycles: 59348195 heartbeat IPC: 1.51615 cumulative IPC: 1.51647 (Simulation time: 0 hr 3 min 49 sec) 
Heartbeat CPU 0 instructions: 100000000 cycles: 65943244 heartbeat IPC: 1.51629 cumulative IPC: 1.51646 (Simulation time: 0 hr 4 min 15 sec) 

Warmup complete CPU 0 instructions: 100000002 cycles: 65943245 (Simulation time: 0 hr 4 min 15 sec) 

Heartbeat CPU 0 instructions: 110000000 cycles: 79181973 heartbeat IPC: 0.75536 cumulative IPC: 0.755359 (Simulation time: 0 hr 4 min 46 sec) 
Heartbeat CPU 0 instructions: 120000000 cycles: 92380773 heartbeat IPC: 0.757645 cumulative IPC: 0.7565 (Simulation time: 0 hr 5 min 18 sec) 
Heartbeat CPU 0 instructions: 130000001 cycles: 105645229 heartbeat IPC: 0.753895 cumulative IPC: 0.75563 (Simulation time: 0 hr 5 min 49 sec) 
Heartbeat CPU 0 instructions: 140000000 cycles: 118823693 heartbeat IPC: 0.758814 cumulative IPC: 0.756423 (Simulation time: 0 hr 6 min 21 sec) 
Heartbeat CPU 0 instructions: 150000001 cycles: 132014452 heartbeat IPC: 0.758107 cumulative IPC: 0.756759 (Simulation time: 0 hr 6 min 52 sec) 
Heartbeat CPU 0 instructions: 160000000 cycles: 145235104 heartbeat IPC: 0.756392 cumulative IPC: 0.756698 (Simulation time: 0 hr 7 min 23 sec) 
Heartbeat CPU 0 instructions: 170000000 cycles: 158441007 heartbeat IPC: 0.757237 cumulative IPC: 0.756775 (Simulation time: 0 hr 7 min 55 sec) 
Heartbeat CPU 0 instructions: 180000000 cycles: 171630496 heartbeat IPC: 0.758179 cumulative IPC: 0.75695 (Simulation time: 0 hr 8 min 26 sec) 
Heartbeat CPU 0 instructions: 190000000 cycles: 184788156 heartbeat IPC: 0.760014 cumulative IPC: 0.757289 (Simulation time: 0 hr 8 min 58 sec) 
Heartbeat CPU 0 instructions: 200000000 cycles: 198035565 heartbeat IPC: 0.754865 cumulative IPC: 0.757046 (Simulation time: 0 hr 9 min 29 sec) 
Heartbeat CPU 0 instructions: 210000002 cycles: 211248494 heartbeat IPC: 0.756835 cumulative IPC: 0.757027 (Simulation time: 0 hr 10 min 1 sec) 
Heartbeat CPU 0 instructions: 220000000 cycles: 224418552 heartbeat IPC: 0.759298 cumulative IPC: 0.757216 (Simulation time: 0 hr 10 min 32 sec) 
Heartbeat CPU 0 instructions: 230000003 cycles: 237655288 heartbeat IPC: 0.755473 cumulative IPC: 0.757081 (Simulation time: 0 hr 11 min 3 sec) 
Heartbeat CPU 0 instructions: 240000000 cycles: 250842138 heartbeat IPC: 0.758331 cumulative IPC: 0.757171 (Simulation time: 0 hr 11 min 35 sec) 
Heartbeat CPU 0 instructions: 250000001 cycles: 264061667 heartbeat IPC: 0.756457 cumulative IPC: 0.757123 (Simulation time: 0 hr 12 min 6 sec) 
Heartbeat CPU 0 instructions: 260000000 cycles: 277261191 heartbeat IPC: 0.757603 cumulative IPC: 0.757153 (Simulation time: 0 hr 12 min 37 sec) 
Heartbeat CPU 0 instructions: 270000003 cycles: 290496712 heartbeat IPC: 0.755543 cumulative IPC: 0.757058 (Simulation time: 0 hr 13 min 8 sec) 
Heartbeat CPU 0 instructions: 280000000 cycles: 303688336 heartbeat IPC: 0.758057 cumulative IPC: 0.757113 (Simulation time: 0 hr 13 min 39 sec) 
Heartbeat CPU 0 instructions: 290000000 cycles: 316853783 heartbeat IPC: 0.759564 cumulative IPC: 0.757242 (Simulation time: 0 hr 14 min 9 sec) 
Heartbeat CPU 0 instructions: 300000000 cycles: 330097461 heartbeat IPC: 0.755077 cumulative IPC: 0.757133 (Simulation time: 0 hr 14 min 40 sec) 
Heartbeat CPU 0 instructions: 310000001 cycles: 343263797 heartbeat IPC: 0.759513 cumulative IPC: 0.757246 (Simulation time: 0 hr 15 min 11 sec) 
Heartbeat CPU 0 instructions: 320000000 cycles: 356452758 heartbeat IPC: 0.75821 cumulative IPC: 0.75729 (Simulation time: 0 hr 15 min 42 sec) 
Heartbeat CPU 0 instructions: 330000002 cycles: 369641457 heartbeat IPC: 0.758225 cumulative IPC: 0.757331 (Simulation time: 0 hr 16 min 12 sec) 
Heartbeat CPU 0 instructions: 340000000 cycles: 382869681 heartbeat IPC: 0.755959 cumulative IPC: 0.757273 (Simulation time: 0 hr 16 min 43 sec) 
Heartbeat CPU 0 instructions: 350000000 cycles: 396106721 heartbeat IPC: 0.755456 cumulative IPC: 0.757201 (Simulation time: 0 hr 17 min 13 sec) 
Heartbeat CPU 0 instructions: 360000000 cycles: 409315847 heartbeat IPC: 0.757052 cumulative IPC: 0.757195 (Simulation time: 0 hr 17 min 43 sec) 
Heartbeat CPU 0 instructions: 370000002 cycles: 422584429 heartbeat IPC: 0.75366 cumulative IPC: 0.757063 (Simulation time: 0 hr 18 min 12 sec) 
Heartbeat CPU 0 instructions: 380000000 cycles: 435780912 heartbeat IPC: 0.757778 cumulative IPC: 0.757089 (Simulation time: 0 hr 18 min 42 sec) 
Heartbeat CPU 0 instructions: 390000000 cycles: 448956023 heartbeat IPC: 0.759007 cumulative IPC: 0.757155 (Simulation time: 0 hr 19 min 12 sec) 
Heartbeat CPU 0 instructions: 400000000 cycles: 462149509 heartbeat IPC: 0.75795 cumulative IPC: 0.757181 (Simulation time: 0 hr 19 min 42 sec) 
Heartbeat CPU 0 instructions: 410000001 cycles: 475392308 heartbeat IPC: 0.755127 cumulative IPC: 0.757115 (Simulation time: 0 hr 20 min 12 sec) 
Heartbeat CPU 0 instructions: 420000000 cycles: 488574113 heartbeat IPC: 0.758621 cumulative IPC: 0.757162 (Simulation time: 0 hr 20 min 42 sec) 
Heartbeat CPU 0 instructions: 430000001 cycles: 501755281 heartbeat IPC: 0.758658 cumulative IPC: 0.757207 (Simulation time: 0 hr 21 min 11 sec) 
Heartbeat CPU 0 instructions: 440000000 cycles: 514921506 heartbeat IPC: 0.759519 cumulative IPC: 0.757275 (Simulation time: 0 hr 21 min 41 sec) 
Heartbeat CPU 0 instructions: 450000002 cycles: 528214155 heartbeat IPC: 0.752296 cumulative IPC: 0.757132 (Simulation time: 0 hr 22 min 11 sec) 
Heartbeat CPU 0 instructions: 460000000 cycles: 541428456 heartbeat IPC: 0.756756 cumulative IPC: 0.757121 (Simulation time: 0 hr 22 min 41 sec) 
Heartbeat CPU 0 instructions: 470000003 cycles: 554622941 heartbeat IPC: 0.757893 cumulative IPC: 0.757142 (Simulation time: 0 hr 23 min 11 sec) 
Heartbeat CPU 0 instructions: 480000000 cycles: 567854757 heartbeat IPC: 0.755754 cumulative IPC: 0.757106 (Simulation time: 0 hr 23 min 40 sec) 
Heartbeat CPU 0 instructions: 490000000 cycles: 581049712 heartbeat IPC: 0.757865 cumulative IPC: 0.757125 (Simulation time: 0 hr 24 min 10 sec) 
Heartbeat CPU 0 instructions: 500000000 cycles: 594231209 heartbeat IPC: 0.758639 cumulative IPC: 0.757163 (Simulation time: 0 hr 24 min 40 sec) 
Heartbeat CPU 0 instructions: 510000001 cycles: 607402444 heartbeat IPC: 0.75923 cumulative IPC: 0.757213 (Simulation time: 0 hr 25 min 10 sec) 
Heartbeat CPU 0 instructions: 520000000 cycles: 620675845 heartbeat IPC: 0.753386 cumulative IPC: 0.757122 (Simulation time: 0 hr 25 min 40 sec) 
Heartbeat CPU 0 instructions: 530000000 cycles: 633912631 heartbeat IPC: 0.75547 cumulative IPC: 0.757083 (Simulation time: 0 hr 26 min 9 sec) 
Heartbeat CPU 0 instructions: 540000000 cycles: 647127811 heartbeat IPC: 0.756706 cumulative IPC: 0.757074 (Simulation time: 0 hr 26 min 39 sec) 
Heartbeat CPU 0 instructions: 550000002 cycles: 660375458 heartbeat IPC: 0.754851 cumulative IPC: 0.757025 (Simulation time: 0 hr 27 min 9 sec) 
Heartbeat CPU 0 instructions: 560000000 cycles: 673564192 heartbeat IPC: 0.758223 cumulative IPC: 0.757051 (Simulation time: 0 hr 27 min 39 sec) 
Heartbeat CPU 0 instructions: 570000001 cycles: 686765068 heartbeat IPC: 0.757526 cumulative IPC: 0.757061 (Simulation time: 0 hr 28 min 8 sec) 
Heartbeat CPU 0 instructions: 580000000 cycles: 699959954 heartbeat IPC: 0.757869 cumulative IPC: 0.757078 (Simulation time: 0 hr 28 min 38 sec) 
Heartbeat CPU 0 instructions: 590000003 cycles: 713181624 heartbeat IPC: 0.756334 cumulative IPC: 0.757063 (Simulation time: 0 hr 29 min 8 sec) 
Heartbeat CPU 0 instructions: 600000000 cycles: 726427753 heartbeat IPC: 0.754937 cumulative IPC: 0.75702 (Simulation time: 0 hr 29 min 38 sec) 
Finished CPU 0 instructions: 500000000 cycles: 660484518 cumulative IPC: 0.75702 (Simulation time: 0 hr 29 min 38 sec) 

CPU 0 Branch Prediction Accuracy: 99.968% MPKI: 0.002246
Number of Branches: 3513331 Number of Mispredictions: 1123
Number of LOAD Instructions: 287251172
Number of LOAD Instructions (ROI): 287251172
Number of STORE Instructions: 51060820
Number of STORE Instructions (ROI): 51060820
Total Destination Memory Operands: 51166221
Total Destination Memory Operands (ROI): 51166221
Total Source Memory Operands: 287251172
Total Source Memory Operands (ROI): 287251172
Number of DEPENDED LOADS: 9555438
Number of DEPENDED LOADS (ROI): 9555438
Number of SQ_ADDED: 51166208
Number of SQ_ADDED (ROI): 51166208
Number of LQ_ADDED: 290420309
Number of LQ_ADDED (ROI): 290420309
Number of Instructions read from trace: 600000257

ChampSim completed all CPUs

Region of Interest Statistics

CPU 0 cumulative IPC: 0.75702 instructions: 500000000 cycles: 660484518
ITLB TOTAL     ACCESS:  108949395  HIT:  108949395  MISS:          0
ITLB LOAD      ACCESS:  108949395  HIT:  108949395  MISS:          0
ITLB RFO       ACCESS:          0  HIT:          0  MISS:          0
ITLB PREFETCH  ACCESS:          0  HIT:          0  MISS:          0
ITLB WRITEBACK ACCESS:          0  HIT:          0  MISS:          0
ITLB PREFETCH  REQUESTED:          0  ISSUED:          0  USEFUL:          0  USELESS:          0
ITLB TOTAL MSHR MERGED:          0
ITLB LOAD MSHR MERGED:          0
ITLB RFO MSHR MERGED:          0
ITLB PREFETCH MSHR MERGED:          0
ITLB WRITEBACK MSHR MERGED:          0
ITLB TOTAL ACCESSES:  108949395 HITS:  108949395 MISSES:          0
ITLB LOAD ACCESSES:  108949395 HITS:  108949395 MISSES:          0
ITLB RFO ACCESSES:          0 HITS:          0 MISSES:          0
ITLB PREFETCH ACCESSES:          0 HITS:          0 MISSES:          0
ITLB WRITEBACK ACCESSES:          0 HITS:          0 MISSES:          0
ITLB RQ ACCESS:  500000001
ITLB RQ TO_CACHE:  108949395
ITLB RQ MERGED:  391050606
ITLB RQ FORWARD:          0
ITLB WQ ACCESS:          0
ITLB WQ TO_CACHE:          0
ITLB WQ MERGED:          0
ITLB WQ FORWARD:          0
DTLB TOTAL     ACCESS:  171130910  HIT:  161114592  MISS:   10016318
DTLB LOAD      ACCESS:  143471825  HIT:  135595757  MISS:    7876068
DTLB RFO       ACCESS:   27659085  HIT:   25518835  MISS:    2140250
DTLB PREFETCH  ACCESS:          0  HIT:          0  MISS:          0
DTLB WRITEBACK ACCESS:          0  HIT:          0  MISS:          0
DTLB PREFETCH  REQUESTED:          0  ISSUED:          0  USEFUL:          0  USELESS:          0
DTLB TOTAL MSHR MERGED:     360427
DTLB LOAD MSHR MERGED:     360427
DTLB RFO MSHR MERGED:          0
DTLB PREFETCH MSHR MERGED:          0
DTLB WRITEBACK MSHR MERGED:          0
DTLB TOTAL ACCESSES:  171491337 HITS:  161114592 MISSES:   10376745
DTLB LOAD ACCESSES:  143832252 HITS:  135595757 MISSES:    8236495
DTLB RFO ACCESSES:   27659085 HITS:   25518835 MISSES:    2140250
DTLB PREFETCH ACCESSES:          0 HITS:          0 MISSES:          0
DTLB WRITEBACK ACCESSES:          0 HITS:          0 MISSES:          0
DTLB RQ ACCESS:  274072379
DTLB RQ TO_CACHE:  171491337
DTLB RQ MERGED:  102581042
DTLB RQ FORWARD:          0
DTLB WQ ACCESS:          0
DTLB WQ TO_CACHE:          0
DTLB WQ MERGED:          0
DTLB WQ FORWARD:          0
L1D TOTAL     ACCESS:  350974669  HIT:  283775376  MISS:   67199293
L1D LOAD      ACCESS:  175627509  HIT:  142588333  MISS:   33039176
L1D RFO       ACCESS:   42020788  HIT:   39215452  MISS:    2805336
L1D PREFETCH  ACCESS:  133326372  HIT:  101971591  MISS:   31354781
L1D WRITEBACK ACCESS:          0  HIT:          0  MISS:          0
L1D PREFETCH  REQUESTED:  176231556  ISSUED:  175293444  USEFUL:    2180842  USELESS:   29173941
L1D TOTAL MSHR MERGED:    1482546
L1D LOAD MSHR MERGED:     704055
L1D RFO MSHR MERGED:     348360
L1D PREFETCH MSHR MERGED:     430131
L1D WRITEBACK MSHR MERGED:          0
L1D TOTAL ACCESSES:  352568866 HITS:  283887027 MISSES:   68681839
L1D LOAD ACCESSES:  176237381 HITS:  142594158 MISSES:   33643223
L1D RFO ACCESSES:   42368478 HITS:   39215452 MISSES:    3153026
L1D PREFETCH ACCESSES:  133963007 HITS:  102077417 MISSES:   31885590
L1D WRITEBACK ACCESSES:          0 HITS:          0 MISSES:          0
L1D RQ ACCESS:  231433906
L1D RQ TO_CACHE:  176231556
L1D RQ MERGED:   55196525
L1D RQ FORWARD:          0
L1D WQ ACCESS:   42638475
L1D WQ TO_CACHE:   42368478
L1D WQ MERGED:     269997
L1D WQ FORWARD:     111651
L1I TOTAL     ACCESS:  109342336  HIT:   77826632  MISS:   31515704
L1I LOAD      ACCESS:  109342336  HIT:   77826632  MISS:   31515704
L1I RFO       ACCESS:          0  HIT:          0  MISS:          0
L1I PREFETCH  ACCESS:          0  HIT:          0  MISS:          0
L1I WRITEBACK ACCESS:          0  HIT:          0  MISS:          0
L1I PREFETCH  REQUESTED:          0  ISSUED:          0  USEFUL:          0  USELESS:          0
L1I TOTAL MSHR MERGED:   30751245
L1I LOAD MSHR MERGED:   30751245
L1I RFO MSHR MERGED:          0
L1I PREFETCH MSHR MERGED:          0
L1I WRITEBACK MSHR MERGED:          0
L1I TOTAL ACCESSES:  140093583 HITS:   77826632 MISSES:   62266951
L1I LOAD ACCESSES:  140093583 HITS:   77826632 MISSES:   62266951
L1I RFO ACCESSES:          0 HITS:          0 MISSES:          0
L1I PREFETCH ACCESSES:          0 HITS:          0 MISSES:          0
L1I WRITEBACK ACCESSES:          0 HITS:          0 MISSES:          0
L1I RQ ACCESS:  500000003
L1I RQ TO_CACHE:  140093583
L1I RQ MERGED:  359906420
L1I RQ FORWARD:          0
L1I WQ ACCESS:          0
L1I WQ TO_CACHE:          0
L1I WQ MERGED:          0
L1I WQ FORWARD:          0
L2C TOTAL     ACCESS:  113708587  HIT:  110705550  MISS:    3003037
L2C LOAD      ACCESS:   64453016  HIT:   63892201  MISS:     560815
L2C RFO       ACCESS:    2802770  HIT:    2193443  MISS:     609327
L2C PREFETCH  ACCESS:   43291808  HIT:   41465196  MISS:    1826612
L2C WRITEBACK ACCESS:    3160993  HIT:    3154710  MISS:       6283
L2C PREFETCH  REQUESTED:   15134451  ISSUED:   14619580  USEFUL:    1701404  USELESS:     125213
L2C TOTAL MSHR MERGED:      12424
L2C LOAD MSHR MERGED:          0
L2C RFO MSHR MERGED:          0
L2C PREFETCH MSHR MERGED:      12424
L2C WRITEBACK MSHR MERGED:          0
L2C TOTAL ACCESSES:  113900348 HITS:  110711411 MISSES:    3188937
L2C LOAD ACCESSES:   64454873 HITS:   63894057 MISSES:     560816
L2C RFO ACCESSES:    2804666 HITS:    2195339 MISSES:     609327
L2C PREFETCH ACCESSES:   43479816 HITS:   41467305 MISSES:    2012511
L2C WRITEBACK ACCESSES:    3160993 HITS:    3154710 MISSES:       6283
L2C RQ ACCESS:   67259540
L2C RQ TO_CACHE:   67255788
L2C RQ MERGED:          0
L2C RQ FORWARD:          0
L2C WQ ACCESS:    3160993
L2C WQ TO_CACHE:    3160993
L2C WQ MERGED:          0
L2C WQ FORWARD:       5861
LLC TOTAL     ACCESS:    3702015  HIT:    1919308  MISS:    1782707
LLC LOAD      ACCESS:     560782  HIT:     499094  MISS:      61688
LLC RFO       ACCESS:     527338  HIT:     238945  MISS:     288393
LLC PREFETCH  ACCESS:    1995527  HIT:     719141  MISS:    1276386
LLC WRITEBACK ACCESS:     618368  HIT:     462128  MISS:     156240
LLC PREFETCH  REQUESTED:          0  ISSUED:          0  USEFUL:      45009  USELESS:    1219527
LLC TOTAL MSHR MERGED:       3900
LLC LOAD MSHR MERGED:          0
LLC RFO MSHR MERGED:          0
LLC PREFETCH MSHR MERGED:       3900
LLC WRITEBACK MSHR MERGED:          0
LLC TOTAL ACCESSES:    3788020 HITS:    2001413 MISSES:    1786607
LLC LOAD ACCESSES:     560815 HITS:     499127 MISSES:      61688
LLC RFO ACCESSES:     609327 HITS:     320934 MISSES:     288393
LLC PREFETCH ACCESSES:    1999510 HITS:     719224 MISSES:    1280286
LLC WRITEBACK ACCESSES:     618368 HITS:     462128 MISSES:     156240
LLC 0 RQ ACCESS:    1170143
LLC 0 RQ TO_CACHE:    1088121
LLC 0 RQ MERGED:          0
LLC 0 RQ FORWARD:          0
LLC WQ ACCESS:     618368
LLC WQ TO_CACHE:     618368
LLC WQ MERGED:          0
LLC WQ FORWARD:      82105
Major fault: 0 Minor fault: 12800
CPU 0 L1D next line prefetcher final stats
CPU 0 L2C PC-based stride prefetcher final stats
All Misses: 2174468
All Hits: 2378500
SD Algo Stats - Switches: 3 SRR-Repls: 78076 BRR-Repls: 706

DRAM Statistics
 CHANNEL 0
 RQ ROW_BUFFER_HIT:     798316  ROW_BUFFER_MISS:     827865
 DBUS_CONGESTED:     872928
 WQ ROW_BUFFER_HIT:      46912  ROW_BUFFER_MISS:     263526  FULL:          0

 AVG_CONGESTED_CYCLE: 13
LOADS RETIRED: 239375970
INSTR RETIRED: 500000000
