
*** ChampSim Multicore Out-of-Order Simulator ***

Warmup Instructions: 100000000
Simulation Instructions: 500000000
Number of CPUs: 1
LLC sets: 2048
LLC ways: 16
Clean RRIP Policies: 1113230111132301 Dirty RRIP Policies: 103030101030301 PSEL Width: 10 Track Set: 4294967295 PSEL Mask: 1 Demote Mask: 3430010034300100DS Algo: 0Window size: 0
Off-chip DRAM Size: 4096 MB Channels: 1 Width: 64-bit Data Rate: 1600 MT/s

CPU 0 runs /mnt/beegfs/iconst01/spec2017/Roms.trace.gz
NOT SORTED
TRACE STRING: /mnt/beegfs/iconst01/spec2017/Roms.trace.gz
SORTED
TRACE STRING: /mnt/beegfs/iconst01/spec2017/Roms.trace.gz
INITIAL
TRACE STRING: /mnt/beegfs/iconst01/spec2017/Roms.trace.gz

champsim_seed used: 417

CPU 0 L1D next line prefetcher
CPU 0 L2C IP-based stride prefetcher
Initialize DRRIP state
Assign rand_sets[0]: 454  LLC: 2048
rand_sets[0]: 454
Assign rand_sets[1]: 1662  LLC: 2048
rand_sets[1]: 1662
Assign rand_sets[2]: 1921  LLC: 2048
rand_sets[2]: 1921
Assign rand_sets[3]: 1131  LLC: 2048
rand_sets[3]: 1131
Assign rand_sets[4]: 331  LLC: 2048
rand_sets[4]: 331
Assign rand_sets[5]: 1531  LLC: 2048
rand_sets[5]: 1531
Assign rand_sets[6]: 482  LLC: 2048
rand_sets[6]: 482
Assign rand_sets[7]: 1275  LLC: 2048
rand_sets[7]: 1275
Assign rand_sets[8]: 1876  LLC: 2048
rand_sets[8]: 1876
Assign rand_sets[9]: 2038  LLC: 2048
rand_sets[9]: 2038
Assign rand_sets[10]: 701  LLC: 2048
rand_sets[10]: 701
Assign rand_sets[11]: 479  LLC: 2048
rand_sets[11]: 479
Assign rand_sets[12]: 892  LLC: 2048
rand_sets[12]: 892
Assign rand_sets[13]: 1820  LLC: 2048
rand_sets[13]: 1820
Assign rand_sets[14]: 1505  LLC: 2048
rand_sets[14]: 1505
Assign rand_sets[15]: 1159  LLC: 2048
rand_sets[15]: 1159
Assign rand_sets[16]: 513  LLC: 2048
rand_sets[16]: 513
Assign rand_sets[17]: 703  LLC: 2048
rand_sets[17]: 703
Assign rand_sets[18]: 561  LLC: 2048
rand_sets[18]: 561
Assign rand_sets[19]: 990  LLC: 2048
rand_sets[19]: 990
Assign rand_sets[20]: 342  LLC: 2048
rand_sets[20]: 342
Assign rand_sets[21]: 882  LLC: 2048
rand_sets[21]: 882
Assign rand_sets[22]: 15  LLC: 2048
rand_sets[22]: 15
Assign rand_sets[23]: 71  LLC: 2048
rand_sets[23]: 71
Assign rand_sets[24]: 1127  LLC: 2048
rand_sets[24]: 1127
Assign rand_sets[25]: 1382  LLC: 2048
rand_sets[25]: 1382
Assign rand_sets[26]: 647  LLC: 2048
rand_sets[26]: 647
Assign rand_sets[27]: 857  LLC: 2048
rand_sets[27]: 857
Assign rand_sets[28]: 1450  LLC: 2048
rand_sets[28]: 1450
Assign rand_sets[29]: 1160  LLC: 2048
rand_sets[29]: 1160
Assign rand_sets[30]: 1852  LLC: 2048
rand_sets[30]: 1852
Assign rand_sets[31]: 1881  LLC: 2048
rand_sets[31]: 1881
Assign rand_sets[32]: 1770  LLC: 2048
rand_sets[32]: 1770
Assign rand_sets[33]: 1622  LLC: 2048
rand_sets[33]: 1622
Assign rand_sets[34]: 275  LLC: 2048
rand_sets[34]: 275
Assign rand_sets[35]: 635  LLC: 2048
rand_sets[35]: 635
Assign rand_sets[36]: 466  LLC: 2048
rand_sets[36]: 466
Assign rand_sets[37]: 1413  LLC: 2048
rand_sets[37]: 1413
Assign rand_sets[38]: 417  LLC: 2048
rand_sets[38]: 417
Assign rand_sets[39]: 472  LLC: 2048
rand_sets[39]: 472
Assign rand_sets[40]: 1340  LLC: 2048
rand_sets[40]: 1340
Assign rand_sets[41]: 852  LLC: 2048
rand_sets[41]: 852
Assign rand_sets[42]: 1365  LLC: 2048
rand_sets[42]: 1365
Assign rand_sets[43]: 47  LLC: 2048
rand_sets[43]: 47
Assign rand_sets[44]: 823  LLC: 2048
rand_sets[44]: 823
Assign rand_sets[45]: 686  LLC: 2048
rand_sets[45]: 686
Assign rand_sets[46]: 1637  LLC: 2048
rand_sets[46]: 1637
Assign rand_sets[47]: 1115  LLC: 2048
rand_sets[47]: 1115
Assign rand_sets[48]: 986  LLC: 2048
rand_sets[48]: 986
Assign rand_sets[49]: 258  LLC: 2048
rand_sets[49]: 258
Assign rand_sets[50]: 633  LLC: 2048
rand_sets[50]: 633
Assign rand_sets[51]: 920  LLC: 2048
rand_sets[51]: 920
Assign rand_sets[52]: 204  LLC: 2048
rand_sets[52]: 204
Assign rand_sets[53]: 227  LLC: 2048
rand_sets[53]: 227
Assign rand_sets[54]: 1818  LLC: 2048
rand_sets[54]: 1818
Assign rand_sets[55]: 886  LLC: 2048
rand_sets[55]: 886
Assign rand_sets[56]: 1422  LLC: 2048
rand_sets[56]: 1422
Assign rand_sets[57]: 607  LLC: 2048
rand_sets[57]: 607
Assign rand_sets[58]: 217  LLC: 2048
rand_sets[58]: 217
Assign rand_sets[59]: 1945  LLC: 2048
rand_sets[59]: 1945
Assign rand_sets[60]: 143  LLC: 2048
rand_sets[60]: 143
Assign rand_sets[61]: 1311  LLC: 2048
rand_sets[61]: 1311
Assign rand_sets[62]: 319  LLC: 2048
rand_sets[62]: 319
Assign rand_sets[63]: 1846  LLC: 2048
rand_sets[63]: 1846
 CLEAN-RRIP-POLICY-1: 1-1-1-3-2-3-0-1- CLEAN-RRIP-POLICY-2: 1-1-1-3-2-3-0-1-
 DIRTY-RRIP-POLICY-1: 0-1-0-3-0-3-0-1- DIRTY-RRIP-POLICY-2: 0-1-0-3-0-3-0-1-
 PSEL width: 10
Heartbeat CPU 0 instructions: 10000000 cycles: 4688066 heartbeat IPC: 2.13308 cumulative IPC: 2.13308 (Simulation time: 0 hr 1 min 26 sec) 
Heartbeat CPU 0 instructions: 20000000 cycles: 9325334 heartbeat IPC: 2.15644 cumulative IPC: 2.1447 (Simulation time: 0 hr 2 min 52 sec) 
Heartbeat CPU 0 instructions: 30000003 cycles: 14019722 heartbeat IPC: 2.1302 cumulative IPC: 2.13984 (Simulation time: 0 hr 4 min 17 sec) 
Heartbeat CPU 0 instructions: 40000000 cycles: 18670140 heartbeat IPC: 2.15034 cumulative IPC: 2.14246 (Simulation time: 0 hr 5 min 42 sec) 
Heartbeat CPU 0 instructions: 50000003 cycles: 23323497 heartbeat IPC: 2.14899 cumulative IPC: 2.14376 (Simulation time: 0 hr 7 min 7 sec) 
Heartbeat CPU 0 instructions: 60000000 cycles: 27976130 heartbeat IPC: 2.14932 cumulative IPC: 2.14469 (Simulation time: 0 hr 8 min 32 sec) 
Heartbeat CPU 0 instructions: 70000002 cycles: 32367280 heartbeat IPC: 2.27731 cumulative IPC: 2.16268 (Simulation time: 0 hr 9 min 46 sec) 
Heartbeat CPU 0 instructions: 80000000 cycles: 36304052 heartbeat IPC: 2.54015 cumulative IPC: 2.20361 (Simulation time: 0 hr 10 min 45 sec) 
Heartbeat CPU 0 instructions: 90000000 cycles: 40249286 heartbeat IPC: 2.5347 cumulative IPC: 2.23606 (Simulation time: 0 hr 11 min 44 sec) 
Heartbeat CPU 0 instructions: 100000000 cycles: 44211557 heartbeat IPC: 2.52381 cumulative IPC: 2.26185 (Simulation time: 0 hr 12 min 44 sec) 

Warmup complete CPU 0 instructions: 100000002 cycles: 44211558 (Simulation time: 0 hr 12 min 44 sec) 

Heartbeat CPU 0 instructions: 110000000 cycles: 52797493 heartbeat IPC: 1.1647 cumulative IPC: 1.1647 (Simulation time: 0 hr 14 min 16 sec) 
Heartbeat CPU 0 instructions: 120000000 cycles: 61437663 heartbeat IPC: 1.15738 cumulative IPC: 1.16103 (Simulation time: 0 hr 15 min 48 sec) 
Heartbeat CPU 0 instructions: 130000002 cycles: 70102159 heartbeat IPC: 1.15414 cumulative IPC: 1.15872 (Simulation time: 0 hr 17 min 21 sec) 
Heartbeat CPU 0 instructions: 140000000 cycles: 78634460 heartbeat IPC: 1.17202 cumulative IPC: 1.16202 (Simulation time: 0 hr 18 min 53 sec) 
Heartbeat CPU 0 instructions: 150000003 cycles: 87337475 heartbeat IPC: 1.14903 cumulative IPC: 1.1594 (Simulation time: 0 hr 20 min 28 sec) 
Heartbeat CPU 0 instructions: 160000000 cycles: 97604850 heartbeat IPC: 0.973958 cumulative IPC: 1.12374 (Simulation time: 0 hr 21 min 42 sec) 
Heartbeat CPU 0 instructions: 170000000 cycles: 110070475 heartbeat IPC: 0.802206 cumulative IPC: 1.06288 (Simulation time: 0 hr 23 min 38 sec) 
Heartbeat CPU 0 instructions: 180000000 cycles: 122559737 heartbeat IPC: 0.800688 cumulative IPC: 1.02108 (Simulation time: 0 hr 25 min 38 sec) 
Heartbeat CPU 0 instructions: 190000000 cycles: 135289152 heartbeat IPC: 0.785582 cumulative IPC: 0.988168 (Simulation time: 0 hr 27 min 37 sec) 
Heartbeat CPU 0 instructions: 200000000 cycles: 149137936 heartbeat IPC: 0.722085 cumulative IPC: 0.953049 (Simulation time: 0 hr 29 min 33 sec) 
Heartbeat CPU 0 instructions: 210000001 cycles: 163022885 heartbeat IPC: 0.720204 cumulative IPC: 0.925838 (Simulation time: 0 hr 31 min 29 sec) 
Heartbeat CPU 0 instructions: 220000000 cycles: 176749777 heartbeat IPC: 0.728497 cumulative IPC: 0.905399 (Simulation time: 0 hr 33 min 22 sec) 
Heartbeat CPU 0 instructions: 230000000 cycles: 190257765 heartbeat IPC: 0.740303 cumulative IPC: 0.890129 (Simulation time: 0 hr 35 min 22 sec) 
Heartbeat CPU 0 instructions: 240000000 cycles: 203859605 heartbeat IPC: 0.735195 cumulative IPC: 0.876929 (Simulation time: 0 hr 37 min 23 sec) 
Heartbeat CPU 0 instructions: 250000003 cycles: 214912102 heartbeat IPC: 0.904773 cumulative IPC: 0.878732 (Simulation time: 0 hr 39 min 13 sec) 
Heartbeat CPU 0 instructions: 260000000 cycles: 222774987 heartbeat IPC: 1.2718 cumulative IPC: 0.89604 (Simulation time: 0 hr 40 min 48 sec) 
Heartbeat CPU 0 instructions: 270000003 cycles: 231147750 heartbeat IPC: 1.19435 cumulative IPC: 0.909401 (Simulation time: 0 hr 42 min 27 sec) 
Heartbeat CPU 0 instructions: 280000000 cycles: 239657648 heartbeat IPC: 1.1751 cumulative IPC: 0.92097 (Simulation time: 0 hr 44 min 6 sec) 
Heartbeat CPU 0 instructions: 290000000 cycles: 248250997 heartbeat IPC: 1.16369 cumulative IPC: 0.931193 (Simulation time: 0 hr 45 min 25 sec) 
Heartbeat CPU 0 instructions: 300000000 cycles: 256853936 heartbeat IPC: 1.16239 cumulative IPC: 0.940546 (Simulation time: 0 hr 46 min 53 sec) 
Heartbeat CPU 0 instructions: 310000000 cycles: 265537891 heartbeat IPC: 1.15155 cumulative IPC: 0.948825 (Simulation time: 0 hr 48 min 26 sec) 
Heartbeat CPU 0 instructions: 320000000 cycles: 274276529 heartbeat IPC: 1.14434 cumulative IPC: 0.956252 (Simulation time: 0 hr 49 min 59 sec) 
Heartbeat CPU 0 instructions: 330000002 cycles: 282972715 heartbeat IPC: 1.14993 cumulative IPC: 0.963306 (Simulation time: 0 hr 51 min 32 sec) 
Heartbeat CPU 0 instructions: 340000000 cycles: 293132365 heartbeat IPC: 0.984286 cumulative IPC: 0.964162 (Simulation time: 0 hr 53 min 10 sec) 
Heartbeat CPU 0 instructions: 350000001 cycles: 301653495 heartbeat IPC: 1.17355 cumulative IPC: 0.971093 (Simulation time: 0 hr 54 min 39 sec) 
Heartbeat CPU 0 instructions: 360000000 cycles: 310104660 heartbeat IPC: 1.18327 cumulative IPC: 0.977837 (Simulation time: 0 hr 56 min 8 sec) 
Heartbeat CPU 0 instructions: 370000001 cycles: 318536778 heartbeat IPC: 1.18594 cumulative IPC: 0.984233 (Simulation time: 0 hr 57 min 37 sec) 
Heartbeat CPU 0 instructions: 380000000 cycles: 326934256 heartbeat IPC: 1.19083 cumulative IPC: 0.99037 (Simulation time: 0 hr 59 min 7 sec) 
Heartbeat CPU 0 instructions: 390000001 cycles: 335158241 heartbeat IPC: 1.21596 cumulative IPC: 0.996746 (Simulation time: 1 hr 0 min 34 sec) 
Heartbeat CPU 0 instructions: 400000000 cycles: 343478978 heartbeat IPC: 1.20182 cumulative IPC: 1.00245 (Simulation time: 1 hr 2 min 2 sec) 
Heartbeat CPU 0 instructions: 410000003 cycles: 351704672 heartbeat IPC: 1.2157 cumulative IPC: 1.00815 (Simulation time: 1 hr 3 min 30 sec) 
Heartbeat CPU 0 instructions: 420000000 cycles: 360014723 heartbeat IPC: 1.20336 cumulative IPC: 1.01329 (Simulation time: 1 hr 4 min 58 sec) 
Heartbeat CPU 0 instructions: 430000001 cycles: 368262347 heartbeat IPC: 1.21247 cumulative IPC: 1.01836 (Simulation time: 1 hr 6 min 25 sec) 
Heartbeat CPU 0 instructions: 440000000 cycles: 376461628 heartbeat IPC: 1.21962 cumulative IPC: 1.02333 (Simulation time: 1 hr 7 min 50 sec) 
Heartbeat CPU 0 instructions: 450000001 cycles: 385935950 heartbeat IPC: 1.05548 cumulative IPC: 1.02422 (Simulation time: 1 hr 9 min 9 sec) 
Heartbeat CPU 0 instructions: 460000000 cycles: 394189967 heartbeat IPC: 1.21153 cumulative IPC: 1.02863 (Simulation time: 1 hr 10 min 30 sec) 
Heartbeat CPU 0 instructions: 470000003 cycles: 402318345 heartbeat IPC: 1.23026 cumulative IPC: 1.03321 (Simulation time: 1 hr 11 min 50 sec) 
Heartbeat CPU 0 instructions: 480000000 cycles: 410478770 heartbeat IPC: 1.22543 cumulative IPC: 1.03749 (Simulation time: 1 hr 13 min 12 sec) 
Heartbeat CPU 0 instructions: 490000000 cycles: 418611734 heartbeat IPC: 1.22956 cumulative IPC: 1.04167 (Simulation time: 1 hr 14 min 33 sec) 
Heartbeat CPU 0 instructions: 500000000 cycles: 426760584 heartbeat IPC: 1.22717 cumulative IPC: 1.04562 (Simulation time: 1 hr 15 min 55 sec) 
Heartbeat CPU 0 instructions: 510000001 cycles: 434858778 heartbeat IPC: 1.23484 cumulative IPC: 1.04954 (Simulation time: 1 hr 17 min 18 sec) 
Heartbeat CPU 0 instructions: 520000000 cycles: 442998857 heartbeat IPC: 1.22849 cumulative IPC: 1.05319 (Simulation time: 1 hr 18 min 40 sec) 
Heartbeat CPU 0 instructions: 530000001 cycles: 451127622 heartbeat IPC: 1.2302 cumulative IPC: 1.05673 (Simulation time: 1 hr 20 min 3 sec) 
Heartbeat CPU 0 instructions: 540000000 cycles: 459438512 heartbeat IPC: 1.20324 cumulative IPC: 1.05966 (Simulation time: 1 hr 21 min 25 sec) 
Heartbeat CPU 0 instructions: 550000000 cycles: 467809107 heartbeat IPC: 1.19466 cumulative IPC: 1.06233 (Simulation time: 1 hr 22 min 49 sec) 
Heartbeat CPU 0 instructions: 560000000 cycles: 475938756 heartbeat IPC: 1.23007 cumulative IPC: 1.06549 (Simulation time: 1 hr 24 min 12 sec) 
Heartbeat CPU 0 instructions: 570000001 cycles: 487025875 heartbeat IPC: 0.901948 cumulative IPC: 1.06139 (Simulation time: 1 hr 25 min 44 sec) 
Heartbeat CPU 0 instructions: 580000000 cycles: 497906109 heartbeat IPC: 0.919098 cumulative IPC: 1.05798 (Simulation time: 1 hr 27 min 13 sec) 
Heartbeat CPU 0 instructions: 590000001 cycles: 508981991 heartbeat IPC: 0.902863 cumulative IPC: 1.05428 (Simulation time: 1 hr 28 min 43 sec) 
Heartbeat CPU 0 instructions: 600000000 cycles: 519795655 heartbeat IPC: 0.924756 cumulative IPC: 1.05134 (Simulation time: 1 hr 30 min 12 sec) 
Finished CPU 0 instructions: 500000001 cycles: 475584110 cumulative IPC: 1.05134 (Simulation time: 1 hr 30 min 12 sec) 

CPU 0 Branch Prediction Accuracy: 99.7422% MPKI: 0.173296
Number of Branches: 33608403 Number of Mispredictions: 86648
Number of LOAD Instructions: 180215231
Number of LOAD Instructions (ROI): 180215231
Number of STORE Instructions: 36067263
Number of STORE Instructions (ROI): 36067263
Total Destination Memory Operands: 38428915
Total Destination Memory Operands (ROI): 38428915
Total Source Memory Operands: 180215231
Total Source Memory Operands (ROI): 180215231
Number of DEPENDED LOADS: 3041375
Number of DEPENDED LOADS (ROI): 3041375
Number of SQ_ADDED: 38428892
Number of SQ_ADDED (ROI): 38428892
Number of LQ_ADDED: 207629118
Number of LQ_ADDED (ROI): 207629118
Number of Instructions read from trace: 600000257

ChampSim completed all CPUs

Region of Interest Statistics

CPU 0 cumulative IPC: 1.05134 instructions: 500000001 cycles: 475584110
ITLB TOTAL     ACCESS:   91793209  HIT:   91793190  MISS:         19
ITLB LOAD      ACCESS:   91793209  HIT:   91793190  MISS:         19
ITLB RFO       ACCESS:          0  HIT:          0  MISS:          0
ITLB PREFETCH  ACCESS:          0  HIT:          0  MISS:          0
ITLB WRITEBACK ACCESS:          0  HIT:          0  MISS:          0
ITLB PREFETCH  REQUESTED:          0  ISSUED:          0  USEFUL:          0  USELESS:          0
ITLB TOTAL MSHR MERGED:         40
ITLB LOAD MSHR MERGED:         40
ITLB RFO MSHR MERGED:          0
ITLB PREFETCH MSHR MERGED:          0
ITLB WRITEBACK MSHR MERGED:          0
ITLB TOTAL ACCESSES:   91793249 HITS:   91793190 MISSES:         59
ITLB LOAD ACCESSES:   91793249 HITS:   91793190 MISSES:         59
ITLB RFO ACCESSES:          0 HITS:          0 MISSES:          0
ITLB PREFETCH ACCESSES:          0 HITS:          0 MISSES:          0
ITLB WRITEBACK ACCESSES:          0 HITS:          0 MISSES:          0
ITLB RQ ACCESS:  500000003
ITLB RQ TO_CACHE:   91793249
ITLB RQ MERGED:  408206754
ITLB RQ FORWARD:          0
ITLB WQ ACCESS:          0
ITLB WQ TO_CACHE:          0
ITLB WQ MERGED:          0
ITLB WQ FORWARD:          0
DTLB TOTAL     ACCESS:  142052882  HIT:  141686421  MISS:     366461
DTLB LOAD      ACCESS:  119411378  HIT:  119097793  MISS:     313585
DTLB RFO       ACCESS:   22641504  HIT:   22588628  MISS:      52876
DTLB PREFETCH  ACCESS:          0  HIT:          0  MISS:          0
DTLB WRITEBACK ACCESS:          0  HIT:          0  MISS:          0
DTLB PREFETCH  REQUESTED:          0  ISSUED:          0  USEFUL:          0  USELESS:          0
DTLB TOTAL MSHR MERGED:     287901
DTLB LOAD MSHR MERGED:     240215
DTLB RFO MSHR MERGED:      47686
DTLB PREFETCH MSHR MERGED:          0
DTLB WRITEBACK MSHR MERGED:          0
DTLB TOTAL ACCESSES:  142340783 HITS:  141686421 MISSES:     654362
DTLB LOAD ACCESSES:  119651593 HITS:  119097793 MISSES:     553800
DTLB RFO ACCESSES:   22689190 HITS:   22588628 MISSES:     100562
DTLB PREFETCH ACCESSES:          0 HITS:          0 MISSES:          0
DTLB WRITEBACK ACCESSES:          0 HITS:          0 MISSES:          0
DTLB RQ ACCESS:  184791602
DTLB RQ TO_CACHE:  142340783
DTLB RQ MERGED:   42450819
DTLB RQ FORWARD:          0
DTLB WQ ACCESS:          0
DTLB WQ TO_CACHE:          0
DTLB WQ MERGED:          0
DTLB WQ FORWARD:          0
L1D TOTAL     ACCESS:  190234106  HIT:  176783774  MISS:   13450332
L1D LOAD      ACCESS:  111961128  HIT:  108706953  MISS:    3254175
L1D RFO       ACCESS:   19003268  HIT:   16221528  MISS:    2781740
L1D PREFETCH  ACCESS:   59269710  HIT:   51855293  MISS:    7414417
L1D WRITEBACK ACCESS:          0  HIT:          0  MISS:          0
L1D PREFETCH  REQUESTED:  116509455  ISSUED:  115148810  USEFUL:    7204731  USELESS:     209686
L1D TOTAL MSHR MERGED:   31425900
L1D LOAD MSHR MERGED:    7246732
L1D RFO MSHR MERGED:    9249471
L1D PREFETCH MSHR MERGED:   14929697
L1D WRITEBACK MSHR MERGED:          0
L1D TOTAL ACCESSES:  221660420 HITS:  176784187 MISSES:   44876233
L1D LOAD ACCESSES:  116509494 HITS:  108706992 MISSES:    7802502
L1D RFO ACCESSES:   28252695 HITS:   16221528 MISSES:   12031167
L1D PREFETCH ACCESSES:   76898231 HITS:   51855667 MISSES:   25042564
L1D WRITEBACK ACCESSES:          0 HITS:          0 MISSES:          0
L1D RQ ACCESS:  156535536
L1D RQ TO_CACHE:  116509458
L1D RQ MERGED:   40026039
L1D RQ FORWARD:          0
L1D WQ ACCESS:   28256066
L1D WQ TO_CACHE:   28252695
L1D WQ MERGED:       3371
L1D WQ FORWARD:        413
L1I TOTAL     ACCESS:  115784222  HIT:  115783274  MISS:        948
L1I LOAD      ACCESS:  115784222  HIT:  115783274  MISS:        948
L1I RFO       ACCESS:          0  HIT:          0  MISS:          0
L1I PREFETCH  ACCESS:          0  HIT:          0  MISS:          0
L1I WRITEBACK ACCESS:          0  HIT:          0  MISS:          0
L1I PREFETCH  REQUESTED:          0  ISSUED:          0  USEFUL:          0  USELESS:          0
L1I TOTAL MSHR MERGED:       1593
L1I LOAD MSHR MERGED:       1593
L1I RFO MSHR MERGED:          0
L1I PREFETCH MSHR MERGED:          0
L1I WRITEBACK MSHR MERGED:          0
L1I TOTAL ACCESSES:  115785815 HITS:  115783274 MISSES:       2541
L1I LOAD ACCESSES:  115785815 HITS:  115783274 MISSES:       2541
L1I RFO ACCESSES:          0 HITS:          0 MISSES:          0
L1I PREFETCH ACCESSES:          0 HITS:          0 MISSES:          0
L1I WRITEBACK ACCESSES:          0 HITS:          0 MISSES:          0
L1I RQ ACCESS:  500000007
L1I RQ TO_CACHE:  115785815
L1I RQ MERGED:  384214192
L1I RQ FORWARD:          0
L1I WQ ACCESS:          0
L1I WQ TO_CACHE:          0
L1I WQ MERGED:          0
L1I WQ FORWARD:          0
L2C TOTAL     ACCESS:   16695975  HIT:    4851459  MISS:   11844516
L2C LOAD      ACCESS:     556687  HIT:      95498  MISS:     461189
L2C RFO       ACCESS:    2781696  HIT:     266744  MISS:    2514952
L2C PREFETCH  ACCESS:   10136953  HIT:    1270854  MISS:    8866099
L2C WRITEBACK ACCESS:    3220639  HIT:    3218363  MISS:       2276
L2C PREFETCH  REQUESTED:      26085  ISSUED:      26085  USEFUL:      93066  USELESS:    8771074
L2C TOTAL MSHR MERGED:        502
L2C LOAD MSHR MERGED:          5
L2C RFO MSHR MERGED:          0
L2C PREFETCH MSHR MERGED:        497
L2C WRITEBACK MSHR MERGED:          0
L2C TOTAL ACCESSES:   16696603 HITS:    4851511 MISSES:   11845092
L2C LOAD ACCESSES:     556718 HITS:      95529 MISSES:     461189
L2C RFO ACCESSES:    2781696 HITS:     266744 MISSES:    2514952
L2C PREFETCH ACCESSES:   10137550 HITS:    1270875 MISSES:    8866675
L2C WRITEBACK ACCESSES:    3220639 HITS:    3218363 MISSES:       2276
L2C RQ ACCESS:    3338414
L2C RQ TO_CACHE:    3338383
L2C RQ MERGED:          0
L2C RQ FORWARD:          0
L2C WQ ACCESS:    3220639
L2C WQ TO_CACHE:    3220639
L2C WQ MERGED:          0
L2C WQ FORWARD:         52
LLC TOTAL     ACCESS:   14742610  HIT:    7599206  MISS:    7143404
LLC LOAD      ACCESS:     461181  HIT:     229882  MISS:     231299
LLC RFO       ACCESS:    2514936  HIT:    1872048  MISS:     642888
LLC PREFETCH  ACCESS:    8866118  HIT:    3295499  MISS:    5570619
LLC WRITEBACK ACCESS:    2900375  HIT:    2201777  MISS:     698598
LLC PREFETCH  REQUESTED:          0  ISSUED:          0  USEFUL:       2848  USELESS:    5570142
LLC TOTAL MSHR MERGED:          1
LLC LOAD MSHR MERGED:          0
LLC RFO MSHR MERGED:          0
LLC PREFETCH MSHR MERGED:          1
LLC WRITEBACK MSHR MERGED:          0
LLC TOTAL ACCESSES:   14742683 HITS:    7599277 MISSES:    7143406
LLC LOAD ACCESSES:     461184 HITS:     229885 MISSES:     231299
LLC RFO ACCESSES:    2514952 HITS:    1872064 MISSES:     642888
LLC PREFETCH ACCESSES:    8866172 HITS:    3295551 MISSES:    5570621
LLC WRITEBACK ACCESSES:    2900375 HITS:    2201777 MISSES:     698598
LLC 0 RQ ACCESS:    2976136
LLC 0 RQ TO_CACHE:    2976117
LLC 0 RQ MERGED:          0
LLC 0 RQ FORWARD:          0
LLC WQ ACCESS:    2900375
LLC WQ TO_CACHE:    2900375
LLC WQ MERGED:          0
LLC WQ FORWARD:         71
Major fault: 0 Minor fault: 57518
CPU 0 L1D next line prefetcher final stats
CPU 0 L2C PC-based stride prefetcher final stats
All Misses: 7737230
All Hits: 8501561
SD Algo Stats - Switches: 0 SRR-Repls: 237575 BRR-Repls: 0

DRAM Statistics
 CHANNEL 0
 RQ ROW_BUFFER_HIT:    3683830  ROW_BUFFER_MISS:    2758328
 DBUS_CONGESTED:    2942537
 WQ ROW_BUFFER_HIT:      83120  ROW_BUFFER_MISS:     824181  FULL:          0

 AVG_CONGESTED_CYCLE: 12
LOADS RETIRED: 157818985
INSTR RETIRED: 500000000
