
*** ChampSim Multicore Out-of-Order Simulator ***

Warmup Instructions: 100000000
Simulation Instructions: 500000000
Number of CPUs: 1
LLC sets: 2048
LLC ways: 16
Clean RRIP Policies: 2213200222132002 Dirty RRIP Policies: 2203100222031002 PSEL Width: 10 Track Set: 4294967295 PSEL Mask: 1 Demote Mask: 3040100030401000DS Algo: 0Window size: 0
Off-chip DRAM Size: 4096 MB Channels: 1 Width: 64-bit Data Rate: 1600 MT/s

CPU 0 runs /mnt/beegfs/iconst01/spec2017/Omnetpp.trace.gz
NOT SORTED
TRACE STRING: /mnt/beegfs/iconst01/spec2017/Omnetpp.trace.gz
SORTED
TRACE STRING: /mnt/beegfs/iconst01/spec2017/Omnetpp.trace.gz
INITIAL
TRACE STRING: /mnt/beegfs/iconst01/spec2017/Omnetpp.trace.gz

champsim_seed used: 739

CPU 0 L1D next line prefetcher
CPU 0 L2C IP-based stride prefetcher
Initialize DRRIP state
Assign rand_sets[0]: 454  LLC: 2048
rand_sets[0]: 454
Assign rand_sets[1]: 1662  LLC: 2048
rand_sets[1]: 1662
Assign rand_sets[2]: 1921  LLC: 2048
rand_sets[2]: 1921
Assign rand_sets[3]: 1131  LLC: 2048
rand_sets[3]: 1131
Assign rand_sets[4]: 331  LLC: 2048
rand_sets[4]: 331
Assign rand_sets[5]: 1531  LLC: 2048
rand_sets[5]: 1531
Assign rand_sets[6]: 482  LLC: 2048
rand_sets[6]: 482
Assign rand_sets[7]: 1275  LLC: 2048
rand_sets[7]: 1275
Assign rand_sets[8]: 1876  LLC: 2048
rand_sets[8]: 1876
Assign rand_sets[9]: 2038  LLC: 2048
rand_sets[9]: 2038
Assign rand_sets[10]: 701  LLC: 2048
rand_sets[10]: 701
Assign rand_sets[11]: 479  LLC: 2048
rand_sets[11]: 479
Assign rand_sets[12]: 892  LLC: 2048
rand_sets[12]: 892
Assign rand_sets[13]: 1820  LLC: 2048
rand_sets[13]: 1820
Assign rand_sets[14]: 1505  LLC: 2048
rand_sets[14]: 1505
Assign rand_sets[15]: 1159  LLC: 2048
rand_sets[15]: 1159
Assign rand_sets[16]: 513  LLC: 2048
rand_sets[16]: 513
Assign rand_sets[17]: 703  LLC: 2048
rand_sets[17]: 703
Assign rand_sets[18]: 561  LLC: 2048
rand_sets[18]: 561
Assign rand_sets[19]: 990  LLC: 2048
rand_sets[19]: 990
Assign rand_sets[20]: 342  LLC: 2048
rand_sets[20]: 342
Assign rand_sets[21]: 882  LLC: 2048
rand_sets[21]: 882
Assign rand_sets[22]: 15  LLC: 2048
rand_sets[22]: 15
Assign rand_sets[23]: 71  LLC: 2048
rand_sets[23]: 71
Assign rand_sets[24]: 1127  LLC: 2048
rand_sets[24]: 1127
Assign rand_sets[25]: 1382  LLC: 2048
rand_sets[25]: 1382
Assign rand_sets[26]: 647  LLC: 2048
rand_sets[26]: 647
Assign rand_sets[27]: 857  LLC: 2048
rand_sets[27]: 857
Assign rand_sets[28]: 1450  LLC: 2048
rand_sets[28]: 1450
Assign rand_sets[29]: 1160  LLC: 2048
rand_sets[29]: 1160
Assign rand_sets[30]: 1852  LLC: 2048
rand_sets[30]: 1852
Assign rand_sets[31]: 1881  LLC: 2048
rand_sets[31]: 1881
Assign rand_sets[32]: 1770  LLC: 2048
rand_sets[32]: 1770
Assign rand_sets[33]: 1622  LLC: 2048
rand_sets[33]: 1622
Assign rand_sets[34]: 275  LLC: 2048
rand_sets[34]: 275
Assign rand_sets[35]: 635  LLC: 2048
rand_sets[35]: 635
Assign rand_sets[36]: 466  LLC: 2048
rand_sets[36]: 466
Assign rand_sets[37]: 1413  LLC: 2048
rand_sets[37]: 1413
Assign rand_sets[38]: 417  LLC: 2048
rand_sets[38]: 417
Assign rand_sets[39]: 472  LLC: 2048
rand_sets[39]: 472
Assign rand_sets[40]: 1340  LLC: 2048
rand_sets[40]: 1340
Assign rand_sets[41]: 852  LLC: 2048
rand_sets[41]: 852
Assign rand_sets[42]: 1365  LLC: 2048
rand_sets[42]: 1365
Assign rand_sets[43]: 47  LLC: 2048
rand_sets[43]: 47
Assign rand_sets[44]: 823  LLC: 2048
rand_sets[44]: 823
Assign rand_sets[45]: 686  LLC: 2048
rand_sets[45]: 686
Assign rand_sets[46]: 1637  LLC: 2048
rand_sets[46]: 1637
Assign rand_sets[47]: 1115  LLC: 2048
rand_sets[47]: 1115
Assign rand_sets[48]: 986  LLC: 2048
rand_sets[48]: 986
Assign rand_sets[49]: 258  LLC: 2048
rand_sets[49]: 258
Assign rand_sets[50]: 633  LLC: 2048
rand_sets[50]: 633
Assign rand_sets[51]: 920  LLC: 2048
rand_sets[51]: 920
Assign rand_sets[52]: 204  LLC: 2048
rand_sets[52]: 204
Assign rand_sets[53]: 227  LLC: 2048
rand_sets[53]: 227
Assign rand_sets[54]: 1818  LLC: 2048
rand_sets[54]: 1818
Assign rand_sets[55]: 886  LLC: 2048
rand_sets[55]: 886
Assign rand_sets[56]: 1422  LLC: 2048
rand_sets[56]: 1422
Assign rand_sets[57]: 607  LLC: 2048
rand_sets[57]: 607
Assign rand_sets[58]: 217  LLC: 2048
rand_sets[58]: 217
Assign rand_sets[59]: 1945  LLC: 2048
rand_sets[59]: 1945
Assign rand_sets[60]: 143  LLC: 2048
rand_sets[60]: 143
Assign rand_sets[61]: 1311  LLC: 2048
rand_sets[61]: 1311
Assign rand_sets[62]: 319  LLC: 2048
rand_sets[62]: 319
Assign rand_sets[63]: 1846  LLC: 2048
rand_sets[63]: 1846
 CLEAN-RRIP-POLICY-1: 2-2-1-3-2-0-0-2- CLEAN-RRIP-POLICY-2: 2-2-1-3-2-0-0-2-
 DIRTY-RRIP-POLICY-1: 2-2-0-3-1-0-0-2- DIRTY-RRIP-POLICY-2: 2-2-0-3-1-0-0-2-
 PSEL width: 10
Heartbeat CPU 0 instructions: 10000000 cycles: 7319958 heartbeat IPC: 1.36613 cumulative IPC: 1.36613 (Simulation time: 0 hr 0 min 19 sec) 
Heartbeat CPU 0 instructions: 20000000 cycles: 14623844 heartbeat IPC: 1.36913 cumulative IPC: 1.36763 (Simulation time: 0 hr 0 min 38 sec) 
Heartbeat CPU 0 instructions: 30000003 cycles: 21925263 heartbeat IPC: 1.3696 cumulative IPC: 1.36828 (Simulation time: 0 hr 0 min 57 sec) 
Heartbeat CPU 0 instructions: 40000000 cycles: 29213524 heartbeat IPC: 1.37207 cumulative IPC: 1.36923 (Simulation time: 0 hr 1 min 17 sec) 
Heartbeat CPU 0 instructions: 50000000 cycles: 36490084 heartbeat IPC: 1.37428 cumulative IPC: 1.37024 (Simulation time: 0 hr 1 min 36 sec) 
Heartbeat CPU 0 instructions: 60000000 cycles: 43770149 heartbeat IPC: 1.37361 cumulative IPC: 1.3708 (Simulation time: 0 hr 1 min 55 sec) 
Heartbeat CPU 0 instructions: 70000001 cycles: 51055479 heartbeat IPC: 1.37262 cumulative IPC: 1.37106 (Simulation time: 0 hr 2 min 15 sec) 
Heartbeat CPU 0 instructions: 80000000 cycles: 58330580 heartbeat IPC: 1.37455 cumulative IPC: 1.37149 (Simulation time: 0 hr 2 min 34 sec) 
Heartbeat CPU 0 instructions: 90000000 cycles: 65636992 heartbeat IPC: 1.36866 cumulative IPC: 1.37118 (Simulation time: 0 hr 2 min 54 sec) 
Heartbeat CPU 0 instructions: 100000000 cycles: 72929155 heartbeat IPC: 1.37134 cumulative IPC: 1.37119 (Simulation time: 0 hr 3 min 13 sec) 

Warmup complete CPU 0 instructions: 100000002 cycles: 72929156 (Simulation time: 0 hr 3 min 13 sec) 

Heartbeat CPU 0 instructions: 110000002 cycles: 113295415 heartbeat IPC: 0.247732 cumulative IPC: 0.247732 (Simulation time: 0 hr 3 min 51 sec) 
Heartbeat CPU 0 instructions: 120000000 cycles: 153351793 heartbeat IPC: 0.249648 cumulative IPC: 0.248686 (Simulation time: 0 hr 4 min 29 sec) 
Heartbeat CPU 0 instructions: 130000002 cycles: 193647412 heartbeat IPC: 0.248166 cumulative IPC: 0.248513 (Simulation time: 0 hr 5 min 7 sec) 
Heartbeat CPU 0 instructions: 140000000 cycles: 234043210 heartbeat IPC: 0.24755 cumulative IPC: 0.248271 (Simulation time: 0 hr 5 min 45 sec) 
Heartbeat CPU 0 instructions: 150000002 cycles: 274017232 heartbeat IPC: 0.250163 cumulative IPC: 0.248647 (Simulation time: 0 hr 6 min 23 sec) 
Heartbeat CPU 0 instructions: 160000000 cycles: 314022403 heartbeat IPC: 0.249968 cumulative IPC: 0.248866 (Simulation time: 0 hr 7 min 1 sec) 
Heartbeat CPU 0 instructions: 170000001 cycles: 353291380 heartbeat IPC: 0.254654 cumulative IPC: 0.249677 (Simulation time: 0 hr 7 min 38 sec) 
Heartbeat CPU 0 instructions: 180000000 cycles: 393281953 heartbeat IPC: 0.250059 cumulative IPC: 0.249725 (Simulation time: 0 hr 8 min 16 sec) 
Heartbeat CPU 0 instructions: 190000002 cycles: 433249938 heartbeat IPC: 0.2502 cumulative IPC: 0.249777 (Simulation time: 0 hr 8 min 54 sec) 
Heartbeat CPU 0 instructions: 200000000 cycles: 474418125 heartbeat IPC: 0.242906 cumulative IPC: 0.249073 (Simulation time: 0 hr 9 min 32 sec) 
Heartbeat CPU 0 instructions: 210000003 cycles: 514438887 heartbeat IPC: 0.24987 cumulative IPC: 0.249145 (Simulation time: 0 hr 10 min 10 sec) 
Heartbeat CPU 0 instructions: 220000000 cycles: 554689163 heartbeat IPC: 0.248445 cumulative IPC: 0.249087 (Simulation time: 0 hr 10 min 48 sec) 
Heartbeat CPU 0 instructions: 230000000 cycles: 594915100 heartbeat IPC: 0.248596 cumulative IPC: 0.249049 (Simulation time: 0 hr 11 min 26 sec) 
Heartbeat CPU 0 instructions: 240000000 cycles: 634875343 heartbeat IPC: 0.250249 cumulative IPC: 0.249134 (Simulation time: 0 hr 12 min 3 sec) 
Heartbeat CPU 0 instructions: 250000000 cycles: 674876533 heartbeat IPC: 0.249993 cumulative IPC: 0.249191 (Simulation time: 0 hr 12 min 40 sec) 
Heartbeat CPU 0 instructions: 260000000 cycles: 714991146 heartbeat IPC: 0.249286 cumulative IPC: 0.249197 (Simulation time: 0 hr 13 min 17 sec) 
Heartbeat CPU 0 instructions: 270000000 cycles: 755136533 heartbeat IPC: 0.249095 cumulative IPC: 0.249191 (Simulation time: 0 hr 13 min 55 sec) 
Heartbeat CPU 0 instructions: 280000000 cycles: 795623085 heartbeat IPC: 0.246996 cumulative IPC: 0.249068 (Simulation time: 0 hr 14 min 33 sec) 
Heartbeat CPU 0 instructions: 290000001 cycles: 835370335 heartbeat IPC: 0.25159 cumulative IPC: 0.2492 (Simulation time: 0 hr 15 min 10 sec) 
Heartbeat CPU 0 instructions: 300000000 cycles: 875753319 heartbeat IPC: 0.247629 cumulative IPC: 0.249121 (Simulation time: 0 hr 15 min 48 sec) 
Heartbeat CPU 0 instructions: 310000000 cycles: 916099170 heartbeat IPC: 0.247857 cumulative IPC: 0.24906 (Simulation time: 0 hr 16 min 26 sec) 
Heartbeat CPU 0 instructions: 320000000 cycles: 956151133 heartbeat IPC: 0.249676 cumulative IPC: 0.249088 (Simulation time: 0 hr 17 min 3 sec) 
Heartbeat CPU 0 instructions: 330000000 cycles: 996189412 heartbeat IPC: 0.249761 cumulative IPC: 0.249117 (Simulation time: 0 hr 17 min 41 sec) 
Heartbeat CPU 0 instructions: 340000000 cycles: 1036829450 heartbeat IPC: 0.246063 cumulative IPC: 0.248988 (Simulation time: 0 hr 18 min 18 sec) 
Heartbeat CPU 0 instructions: 350000001 cycles: 1076969655 heartbeat IPC: 0.249127 cumulative IPC: 0.248994 (Simulation time: 0 hr 18 min 56 sec) 
Heartbeat CPU 0 instructions: 360000000 cycles: 1117389002 heartbeat IPC: 0.247406 cumulative IPC: 0.248932 (Simulation time: 0 hr 19 min 33 sec) 
Heartbeat CPU 0 instructions: 370000000 cycles: 1156886145 heartbeat IPC: 0.253183 cumulative IPC: 0.249087 (Simulation time: 0 hr 20 min 10 sec) 
Heartbeat CPU 0 instructions: 380000000 cycles: 1197284130 heartbeat IPC: 0.247537 cumulative IPC: 0.249032 (Simulation time: 0 hr 20 min 47 sec) 
Heartbeat CPU 0 instructions: 390000001 cycles: 1237225975 heartbeat IPC: 0.250364 cumulative IPC: 0.249077 (Simulation time: 0 hr 21 min 24 sec) 
Heartbeat CPU 0 instructions: 400000000 cycles: 1277284435 heartbeat IPC: 0.249635 cumulative IPC: 0.249096 (Simulation time: 0 hr 22 min 1 sec) 
Heartbeat CPU 0 instructions: 410000000 cycles: 1317175809 heartbeat IPC: 0.250681 cumulative IPC: 0.249147 (Simulation time: 0 hr 22 min 38 sec) 
Heartbeat CPU 0 instructions: 420000000 cycles: 1357105265 heartbeat IPC: 0.250442 cumulative IPC: 0.249187 (Simulation time: 0 hr 23 min 15 sec) 
Heartbeat CPU 0 instructions: 430000000 cycles: 1397092803 heartbeat IPC: 0.250078 cumulative IPC: 0.249214 (Simulation time: 0 hr 23 min 52 sec) 
Heartbeat CPU 0 instructions: 440000000 cycles: 1437115982 heartbeat IPC: 0.249855 cumulative IPC: 0.249233 (Simulation time: 0 hr 24 min 29 sec) 
Heartbeat CPU 0 instructions: 450000002 cycles: 1477013230 heartbeat IPC: 0.250644 cumulative IPC: 0.249273 (Simulation time: 0 hr 25 min 6 sec) 
Heartbeat CPU 0 instructions: 460000000 cycles: 1516332859 heartbeat IPC: 0.254326 cumulative IPC: 0.24941 (Simulation time: 0 hr 25 min 43 sec) 
Heartbeat CPU 0 instructions: 470000000 cycles: 1556504979 heartbeat IPC: 0.248929 cumulative IPC: 0.249397 (Simulation time: 0 hr 26 min 21 sec) 
Heartbeat CPU 0 instructions: 480000000 cycles: 1596308585 heartbeat IPC: 0.251234 cumulative IPC: 0.249445 (Simulation time: 0 hr 26 min 58 sec) 
Heartbeat CPU 0 instructions: 490000001 cycles: 1636264954 heartbeat IPC: 0.250273 cumulative IPC: 0.249467 (Simulation time: 0 hr 27 min 35 sec) 
Heartbeat CPU 0 instructions: 500000000 cycles: 1676468925 heartbeat IPC: 0.248732 cumulative IPC: 0.249448 (Simulation time: 0 hr 28 min 12 sec) 
Heartbeat CPU 0 instructions: 510000000 cycles: 1716121196 heartbeat IPC: 0.252192 cumulative IPC: 0.249514 (Simulation time: 0 hr 28 min 49 sec) 
Heartbeat CPU 0 instructions: 520000000 cycles: 1756511421 heartbeat IPC: 0.247585 cumulative IPC: 0.249468 (Simulation time: 0 hr 29 min 27 sec) 
Heartbeat CPU 0 instructions: 530000000 cycles: 1796383455 heartbeat IPC: 0.250802 cumulative IPC: 0.249499 (Simulation time: 0 hr 30 min 4 sec) 
Heartbeat CPU 0 instructions: 540000000 cycles: 1835997804 heartbeat IPC: 0.252434 cumulative IPC: 0.249565 (Simulation time: 0 hr 30 min 41 sec) 
Heartbeat CPU 0 instructions: 550000001 cycles: 1876321463 heartbeat IPC: 0.247993 cumulative IPC: 0.24953 (Simulation time: 0 hr 31 min 19 sec) 
Heartbeat CPU 0 instructions: 560000000 cycles: 1916746613 heartbeat IPC: 0.247371 cumulative IPC: 0.249482 (Simulation time: 0 hr 31 min 56 sec) 
Heartbeat CPU 0 instructions: 570000003 cycles: 1957142876 heartbeat IPC: 0.247548 cumulative IPC: 0.249441 (Simulation time: 0 hr 32 min 33 sec) 
Heartbeat CPU 0 instructions: 580000000 cycles: 1997360815 heartbeat IPC: 0.248645 cumulative IPC: 0.249424 (Simulation time: 0 hr 33 min 11 sec) 
Heartbeat CPU 0 instructions: 590000001 cycles: 2038002359 heartbeat IPC: 0.246054 cumulative IPC: 0.249355 (Simulation time: 0 hr 33 min 48 sec) 
Heartbeat CPU 0 instructions: 600000000 cycles: 2078391738 heartbeat IPC: 0.24759 cumulative IPC: 0.249319 (Simulation time: 0 hr 34 min 26 sec) 
Finished CPU 0 instructions: 500000000 cycles: 2005462590 cumulative IPC: 0.249319 (Simulation time: 0 hr 34 min 26 sec) 

CPU 0 Branch Prediction Accuracy: 96.2429% MPKI: 5.85335
Number of Branches: 77897976 Number of Mispredictions: 2926674
Number of LOAD Instructions: 193081861
Number of LOAD Instructions (ROI): 193081861
Number of STORE Instructions: 97310749
Number of STORE Instructions (ROI): 97310749
Total Destination Memory Operands: 106368027
Total Destination Memory Operands (ROI): 106368027
Total Source Memory Operands: 193081861
Total Source Memory Operands (ROI): 193081861
Number of DEPENDED LOADS: 6435182
Number of DEPENDED LOADS (ROI): 6435182
Number of SQ_ADDED: 106367982
Number of SQ_ADDED (ROI): 106367982
Number of LQ_ADDED: 426049761
Number of LQ_ADDED (ROI): 426049761
Number of Instructions read from trace: 600000256

ChampSim completed all CPUs

Region of Interest Statistics

CPU 0 cumulative IPC: 0.249319 instructions: 500000000 cycles: 2005462590
ITLB TOTAL     ACCESS:  151271987  HIT:  151256156  MISS:      15831
ITLB LOAD      ACCESS:  151271987  HIT:  151256156  MISS:      15831
ITLB RFO       ACCESS:          0  HIT:          0  MISS:          0
ITLB PREFETCH  ACCESS:          0  HIT:          0  MISS:          0
ITLB WRITEBACK ACCESS:          0  HIT:          0  MISS:          0
ITLB PREFETCH  REQUESTED:          0  ISSUED:          0  USEFUL:          0  USELESS:          0
ITLB TOTAL MSHR MERGED:      17612
ITLB LOAD MSHR MERGED:      17612
ITLB RFO MSHR MERGED:          0
ITLB PREFETCH MSHR MERGED:          0
ITLB WRITEBACK MSHR MERGED:          0
ITLB TOTAL ACCESSES:  151289599 HITS:  151256156 MISSES:      33443
ITLB LOAD ACCESSES:  151289599 HITS:  151256156 MISSES:      33443
ITLB RFO ACCESSES:          0 HITS:          0 MISSES:          0
ITLB PREFETCH ACCESSES:          0 HITS:          0 MISSES:          0
ITLB WRITEBACK ACCESSES:          0 HITS:          0 MISSES:          0
ITLB RQ ACCESS:  500000242
ITLB RQ TO_CACHE:  151289599
ITLB RQ MERGED:  348710643
ITLB RQ FORWARD:          0
ITLB WQ ACCESS:          0
ITLB WQ TO_CACHE:          0
ITLB WQ MERGED:          0
ITLB WQ FORWARD:          0
DTLB TOTAL     ACCESS:  199566210  HIT:  194187142  MISS:    5379068
DTLB LOAD      ACCESS:  123138859  HIT:  118120285  MISS:    5018574
DTLB RFO       ACCESS:   76427351  HIT:   76066857  MISS:     360494
DTLB PREFETCH  ACCESS:          0  HIT:          0  MISS:          0
DTLB WRITEBACK ACCESS:          0  HIT:          0  MISS:          0
DTLB PREFETCH  REQUESTED:          0  ISSUED:          0  USEFUL:          0  USELESS:          0
DTLB TOTAL MSHR MERGED:     917194
DTLB LOAD MSHR MERGED:     807296
DTLB RFO MSHR MERGED:     109898
DTLB PREFETCH MSHR MERGED:          0
DTLB WRITEBACK MSHR MERGED:          0
DTLB TOTAL ACCESSES:  200483404 HITS:  194187142 MISSES:    6296262
DTLB LOAD ACCESSES:  123946155 HITS:  118120285 MISSES:    5825870
DTLB RFO ACCESSES:   76537249 HITS:   76066857 MISSES:     470392
DTLB PREFETCH ACCESSES:          0 HITS:          0 MISSES:          0
DTLB WRITEBACK ACCESSES:          0 HITS:          0 MISSES:          0
DTLB RQ ACCESS:  243890078
DTLB RQ TO_CACHE:  200483404
DTLB RQ MERGED:   43406674
DTLB RQ FORWARD:          0
DTLB WQ ACCESS:          0
DTLB WQ TO_CACHE:          0
DTLB WQ MERGED:          0
DTLB WQ FORWARD:          0
L1D TOTAL     ACCESS:  335644926  HIT:  317548682  MISS:   18096244
L1D LOAD      ACCESS:  127704171  HIT:  118762807  MISS:    8941364
L1D RFO       ACCESS:   87091428  HIT:   86309763  MISS:     781665
L1D PREFETCH  ACCESS:  120849327  HIT:  112476112  MISS:    8373215
L1D WRITEBACK ACCESS:          0  HIT:          0  MISS:          0
L1D PREFETCH  REQUESTED:  128481200  ISSUED:  126883237  USEFUL:    1744392  USELESS:    6628835
L1D TOTAL MSHR MERGED:    3822903
L1D LOAD MSHR MERGED:     939326
L1D RFO MSHR MERGED:    1056141
L1D PREFETCH MSHR MERGED:    1827436
L1D WRITEBACK MSHR MERGED:          0
L1D TOTAL ACCESSES:  339553219 HITS:  317634072 MISSES:   21919147
L1D LOAD ACCESSES:  128481629 HITS:  118763236 MISSES:    9718393
L1D RFO ACCESSES:   88086533 HITS:   86309763 MISSES:    1776770
L1D PREFETCH ACCESSES:  122985057 HITS:  112561073 MISSES:   10423984
L1D WRITEBACK ACCESSES:          0 HITS:          0 MISSES:          0
L1D RQ ACCESS:  155258693
L1D RQ TO_CACHE:  128481200
L1D RQ MERGED:   26777064
L1D RQ FORWARD:          0
L1D WQ ACCESS:   88631385
L1D WQ TO_CACHE:   88086532
L1D WQ MERGED:     544853
L1D WQ FORWARD:      85390
L1I TOTAL     ACCESS:  175574337  HIT:  175307868  MISS:     266469
L1I LOAD      ACCESS:  175574337  HIT:  175307868  MISS:     266469
L1I RFO       ACCESS:          0  HIT:          0  MISS:          0
L1I PREFETCH  ACCESS:          0  HIT:          0  MISS:          0
L1I WRITEBACK ACCESS:          0  HIT:          0  MISS:          0
L1I PREFETCH  REQUESTED:          0  ISSUED:          0  USEFUL:          0  USELESS:          0
L1I TOTAL MSHR MERGED:     213114
L1I LOAD MSHR MERGED:     213114
L1I RFO MSHR MERGED:          0
L1I PREFETCH MSHR MERGED:          0
L1I WRITEBACK MSHR MERGED:          0
L1I TOTAL ACCESSES:  175787451 HITS:  175307868 MISSES:     479583
L1I LOAD ACCESSES:  175787451 HITS:  175307868 MISSES:     479583
L1I RFO ACCESSES:          0 HITS:          0 MISSES:          0
L1I PREFETCH ACCESSES:          0 HITS:          0 MISSES:          0
L1I WRITEBACK ACCESSES:          0 HITS:          0 MISSES:          0
L1I RQ ACCESS:  500000242
L1I RQ TO_CACHE:  175787451
L1I RQ MERGED:  324212791
L1I RQ FORWARD:          0
L1I WQ ACCESS:          0
L1I WQ TO_CACHE:          0
L1I WQ MERGED:          0
L1I WQ FORWARD:          0
L2C TOTAL     ACCESS:   23738826  HIT:   12113028  MISS:   11625798
L2C LOAD      ACCESS:    9044359  HIT:    3564810  MISS:    5479549
L2C RFO       ACCESS:     720571  HIT:     130322  MISS:     590249
L2C PREFETCH  ACCESS:    8613551  HIT:    3086253  MISS:    5527298
L2C WRITEBACK ACCESS:    5360345  HIT:    5331643  MISS:      28702
L2C PREFETCH  REQUESTED:      18047  ISSUED:      18047  USEFUL:     323017  USELESS:    5204456
L2C TOTAL MSHR MERGED:         23
L2C LOAD MSHR MERGED:          2
L2C RFO MSHR MERGED:          0
L2C PREFETCH MSHR MERGED:         21
L2C WRITEBACK MSHR MERGED:          0
L2C TOTAL ACCESSES:   23740644 HITS:   12114821 MISSES:   11625823
L2C LOAD ACCESSES:    9045536 HITS:    3565987 MISSES:    5479549
L2C RFO ACCESSES:     720629 HITS:     130380 MISSES:     590249
L2C PREFETCH ACCESSES:    8614134 HITS:    3086811 MISSES:    5527323
L2C WRITEBACK ACCESSES:    5360345 HITS:    5331643 MISSES:      28702
L2C RQ ACCESS:    9766165
L2C RQ TO_CACHE:    9764930
L2C RQ MERGED:          0
L2C RQ FORWARD:          0
L2C WQ ACCESS:    5360345
L2C WQ TO_CACHE:    5360345
L2C WQ MERGED:          0
L2C WQ FORWARD:       1793
LLC TOTAL     ACCESS:   15448722  HIT:    6867965  MISS:    8580757
LLC LOAD      ACCESS:    5479518  HIT:    2090067  MISS:    3389451
LLC RFO       ACCESS:     590247  HIT:     294690  MISS:     295557
LLC PREFETCH  ACCESS:    5527284  HIT:    1133571  MISS:    4393713
LLC WRITEBACK ACCESS:    3851673  HIT:    3349637  MISS:     502036
LLC PREFETCH  REQUESTED:          0  ISSUED:          0  USEFUL:      26135  USELESS:    4368114
LLC TOTAL MSHR MERGED:          0
LLC LOAD MSHR MERGED:          0
LLC RFO MSHR MERGED:          0
LLC PREFETCH MSHR MERGED:          0
LLC WRITEBACK MSHR MERGED:          0
LLC TOTAL ACCESSES:   15448771 HITS:    6868014 MISSES:    8580757
LLC LOAD ACCESSES:    5479547 HITS:    2090096 MISSES:    3389451
LLC RFO ACCESSES:     590249 HITS:     294692 MISSES:     295557
LLC PREFETCH ACCESSES:    5527302 HITS:    1133589 MISSES:    4393713
LLC WRITEBACK ACCESSES:    3851673 HITS:    3349637 MISSES:     502036
LLC 0 RQ ACCESS:    6069796
LLC 0 RQ TO_CACHE:    6069765
LLC 0 RQ MERGED:          0
LLC 0 RQ FORWARD:          0
LLC WQ ACCESS:    3851673
LLC WQ TO_CACHE:    3851673
LLC WQ MERGED:          0
LLC WQ FORWARD:         49
Major fault: 0 Minor fault: 44814
CPU 0 L1D next line prefetcher final stats
CPU 0 L2C PC-based stride prefetcher final stats
All Misses: 10384483
All Hits: 8236741
SD Algo Stats - Switches: 0 SRR-Repls: 3868223 BRR-Repls: 0

DRAM Statistics
 CHANNEL 0
 RQ ROW_BUFFER_HIT:    1430985  ROW_BUFFER_MISS:    6646434
 DBUS_CONGESTED:    5397100
 WQ ROW_BUFFER_HIT:     169671  ROW_BUFFER_MISS:    2046940  FULL:          0

 AVG_CONGESTED_CYCLE: 13
LOADS RETIRED: 160808997
INSTR RETIRED: 500000000
