
*** ChampSim Multicore Out-of-Order Simulator ***

Warmup Instructions: 100000000
Simulation Instructions: 500000000
Number of CPUs: 1
LLC sets: 2048
LLC ways: 16
Clean RRIP Policies: 2000100020001000 Dirty RRIP Policies: 2000100020001000 PSEL Width: 10 Track Set: 4294967295 PSEL Mask: 1 Demote Mask: 4024144440241444DS Algo: 0Window size: 0
Off-chip DRAM Size: 4096 MB Channels: 1 Width: 64-bit Data Rate: 1600 MT/s

CPU 0 runs /mnt/beegfs/iconst01/spec2017/Gcc.trace.gz
NOT SORTED
TRACE STRING: /mnt/beegfs/iconst01/spec2017/Gcc.trace.gz
SORTED
TRACE STRING: /mnt/beegfs/iconst01/spec2017/Gcc.trace.gz
INITIAL
TRACE STRING: /mnt/beegfs/iconst01/spec2017/Gcc.trace.gz

champsim_seed used: 269

CPU 0 L1D next line prefetcher
CPU 0 L2C IP-based stride prefetcher
Initialize DRRIP state
Assign rand_sets[0]: 454  LLC: 2048
rand_sets[0]: 454
Assign rand_sets[1]: 1662  LLC: 2048
rand_sets[1]: 1662
Assign rand_sets[2]: 1921  LLC: 2048
rand_sets[2]: 1921
Assign rand_sets[3]: 1131  LLC: 2048
rand_sets[3]: 1131
Assign rand_sets[4]: 331  LLC: 2048
rand_sets[4]: 331
Assign rand_sets[5]: 1531  LLC: 2048
rand_sets[5]: 1531
Assign rand_sets[6]: 482  LLC: 2048
rand_sets[6]: 482
Assign rand_sets[7]: 1275  LLC: 2048
rand_sets[7]: 1275
Assign rand_sets[8]: 1876  LLC: 2048
rand_sets[8]: 1876
Assign rand_sets[9]: 2038  LLC: 2048
rand_sets[9]: 2038
Assign rand_sets[10]: 701  LLC: 2048
rand_sets[10]: 701
Assign rand_sets[11]: 479  LLC: 2048
rand_sets[11]: 479
Assign rand_sets[12]: 892  LLC: 2048
rand_sets[12]: 892
Assign rand_sets[13]: 1820  LLC: 2048
rand_sets[13]: 1820
Assign rand_sets[14]: 1505  LLC: 2048
rand_sets[14]: 1505
Assign rand_sets[15]: 1159  LLC: 2048
rand_sets[15]: 1159
Assign rand_sets[16]: 513  LLC: 2048
rand_sets[16]: 513
Assign rand_sets[17]: 703  LLC: 2048
rand_sets[17]: 703
Assign rand_sets[18]: 561  LLC: 2048
rand_sets[18]: 561
Assign rand_sets[19]: 990  LLC: 2048
rand_sets[19]: 990
Assign rand_sets[20]: 342  LLC: 2048
rand_sets[20]: 342
Assign rand_sets[21]: 882  LLC: 2048
rand_sets[21]: 882
Assign rand_sets[22]: 15  LLC: 2048
rand_sets[22]: 15
Assign rand_sets[23]: 71  LLC: 2048
rand_sets[23]: 71
Assign rand_sets[24]: 1127  LLC: 2048
rand_sets[24]: 1127
Assign rand_sets[25]: 1382  LLC: 2048
rand_sets[25]: 1382
Assign rand_sets[26]: 647  LLC: 2048
rand_sets[26]: 647
Assign rand_sets[27]: 857  LLC: 2048
rand_sets[27]: 857
Assign rand_sets[28]: 1450  LLC: 2048
rand_sets[28]: 1450
Assign rand_sets[29]: 1160  LLC: 2048
rand_sets[29]: 1160
Assign rand_sets[30]: 1852  LLC: 2048
rand_sets[30]: 1852
Assign rand_sets[31]: 1881  LLC: 2048
rand_sets[31]: 1881
Assign rand_sets[32]: 1770  LLC: 2048
rand_sets[32]: 1770
Assign rand_sets[33]: 1622  LLC: 2048
rand_sets[33]: 1622
Assign rand_sets[34]: 275  LLC: 2048
rand_sets[34]: 275
Assign rand_sets[35]: 635  LLC: 2048
rand_sets[35]: 635
Assign rand_sets[36]: 466  LLC: 2048
rand_sets[36]: 466
Assign rand_sets[37]: 1413  LLC: 2048
rand_sets[37]: 1413
Assign rand_sets[38]: 417  LLC: 2048
rand_sets[38]: 417
Assign rand_sets[39]: 472  LLC: 2048
rand_sets[39]: 472
Assign rand_sets[40]: 1340  LLC: 2048
rand_sets[40]: 1340
Assign rand_sets[41]: 852  LLC: 2048
rand_sets[41]: 852
Assign rand_sets[42]: 1365  LLC: 2048
rand_sets[42]: 1365
Assign rand_sets[43]: 47  LLC: 2048
rand_sets[43]: 47
Assign rand_sets[44]: 823  LLC: 2048
rand_sets[44]: 823
Assign rand_sets[45]: 686  LLC: 2048
rand_sets[45]: 686
Assign rand_sets[46]: 1637  LLC: 2048
rand_sets[46]: 1637
Assign rand_sets[47]: 1115  LLC: 2048
rand_sets[47]: 1115
Assign rand_sets[48]: 986  LLC: 2048
rand_sets[48]: 986
Assign rand_sets[49]: 258  LLC: 2048
rand_sets[49]: 258
Assign rand_sets[50]: 633  LLC: 2048
rand_sets[50]: 633
Assign rand_sets[51]: 920  LLC: 2048
rand_sets[51]: 920
Assign rand_sets[52]: 204  LLC: 2048
rand_sets[52]: 204
Assign rand_sets[53]: 227  LLC: 2048
rand_sets[53]: 227
Assign rand_sets[54]: 1818  LLC: 2048
rand_sets[54]: 1818
Assign rand_sets[55]: 886  LLC: 2048
rand_sets[55]: 886
Assign rand_sets[56]: 1422  LLC: 2048
rand_sets[56]: 1422
Assign rand_sets[57]: 607  LLC: 2048
rand_sets[57]: 607
Assign rand_sets[58]: 217  LLC: 2048
rand_sets[58]: 217
Assign rand_sets[59]: 1945  LLC: 2048
rand_sets[59]: 1945
Assign rand_sets[60]: 143  LLC: 2048
rand_sets[60]: 143
Assign rand_sets[61]: 1311  LLC: 2048
rand_sets[61]: 1311
Assign rand_sets[62]: 319  LLC: 2048
rand_sets[62]: 319
Assign rand_sets[63]: 1846  LLC: 2048
rand_sets[63]: 1846
 CLEAN-RRIP-POLICY-1: 2-0-0-0-1-0-0-0- CLEAN-RRIP-POLICY-2: 2-0-0-0-1-0-0-0-
 DIRTY-RRIP-POLICY-1: 2-0-0-0-1-0-0-0- DIRTY-RRIP-POLICY-2: 2-0-0-0-1-0-0-0-
 PSEL width: 10
Heartbeat CPU 0 instructions: 10000001 cycles: 7315909 heartbeat IPC: 1.36688 cumulative IPC: 1.36688 (Simulation time: 0 hr 0 min 15 sec) 
Heartbeat CPU 0 instructions: 20000000 cycles: 14307582 heartbeat IPC: 1.43027 cumulative IPC: 1.39786 (Simulation time: 0 hr 0 min 31 sec) 
Heartbeat CPU 0 instructions: 30000001 cycles: 21021125 heartbeat IPC: 1.48953 cumulative IPC: 1.42714 (Simulation time: 0 hr 0 min 48 sec) 
Heartbeat CPU 0 instructions: 40000000 cycles: 27482158 heartbeat IPC: 1.54774 cumulative IPC: 1.45549 (Simulation time: 0 hr 1 min 5 sec) 
Heartbeat CPU 0 instructions: 50000001 cycles: 33584105 heartbeat IPC: 1.63882 cumulative IPC: 1.4888 (Simulation time: 0 hr 1 min 22 sec) 
Heartbeat CPU 0 instructions: 60000000 cycles: 40065379 heartbeat IPC: 1.54291 cumulative IPC: 1.49755 (Simulation time: 0 hr 1 min 39 sec) 
Heartbeat CPU 0 instructions: 70000000 cycles: 47104014 heartbeat IPC: 1.42073 cumulative IPC: 1.48607 (Simulation time: 0 hr 1 min 55 sec) 
Heartbeat CPU 0 instructions: 80000000 cycles: 54193908 heartbeat IPC: 1.41046 cumulative IPC: 1.47618 (Simulation time: 0 hr 2 min 10 sec) 
Heartbeat CPU 0 instructions: 90000003 cycles: 61198604 heartbeat IPC: 1.42761 cumulative IPC: 1.47062 (Simulation time: 0 hr 2 min 26 sec) 
Heartbeat CPU 0 instructions: 100000000 cycles: 68366277 heartbeat IPC: 1.39515 cumulative IPC: 1.46271 (Simulation time: 0 hr 2 min 42 sec) 

Warmup complete CPU 0 instructions: 100000004 cycles: 68366278 (Simulation time: 0 hr 2 min 42 sec) 

Heartbeat CPU 0 instructions: 110000003 cycles: 96191415 heartbeat IPC: 0.359387 cumulative IPC: 0.359387 (Simulation time: 0 hr 3 min 13 sec) 
Heartbeat CPU 0 instructions: 120000000 cycles: 123729687 heartbeat IPC: 0.363131 cumulative IPC: 0.361249 (Simulation time: 0 hr 3 min 44 sec) 
Heartbeat CPU 0 instructions: 130000000 cycles: 148816570 heartbeat IPC: 0.398615 cumulative IPC: 0.372901 (Simulation time: 0 hr 4 min 14 sec) 
Heartbeat CPU 0 instructions: 140000000 cycles: 178443186 heartbeat IPC: 0.337534 cumulative IPC: 0.363382 (Simulation time: 0 hr 4 min 45 sec) 
Heartbeat CPU 0 instructions: 150000000 cycles: 208431749 heartbeat IPC: 0.33346 cumulative IPC: 0.356976 (Simulation time: 0 hr 5 min 16 sec) 
Heartbeat CPU 0 instructions: 160000000 cycles: 235898137 heartbeat IPC: 0.364081 cumulative IPC: 0.358141 (Simulation time: 0 hr 5 min 45 sec) 
Heartbeat CPU 0 instructions: 170000001 cycles: 264063544 heartbeat IPC: 0.355045 cumulative IPC: 0.357695 (Simulation time: 0 hr 6 min 18 sec) 
Heartbeat CPU 0 instructions: 180000000 cycles: 292607916 heartbeat IPC: 0.350332 cumulative IPC: 0.356758 (Simulation time: 0 hr 6 min 49 sec) 
Heartbeat CPU 0 instructions: 190000002 cycles: 320763386 heartbeat IPC: 0.355171 cumulative IPC: 0.356581 (Simulation time: 0 hr 7 min 20 sec) 
Heartbeat CPU 0 instructions: 200000000 cycles: 349172395 heartbeat IPC: 0.352001 cumulative IPC: 0.356118 (Simulation time: 0 hr 7 min 51 sec) 
Heartbeat CPU 0 instructions: 210000002 cycles: 377095955 heartbeat IPC: 0.358121 cumulative IPC: 0.356299 (Simulation time: 0 hr 8 min 22 sec) 
Heartbeat CPU 0 instructions: 220000000 cycles: 406320602 heartbeat IPC: 0.342177 cumulative IPC: 0.355078 (Simulation time: 0 hr 8 min 52 sec) 
Heartbeat CPU 0 instructions: 230000000 cycles: 434020173 heartbeat IPC: 0.361016 cumulative IPC: 0.355527 (Simulation time: 0 hr 9 min 22 sec) 
Heartbeat CPU 0 instructions: 240000000 cycles: 460080948 heartbeat IPC: 0.383718 cumulative IPC: 0.357403 (Simulation time: 0 hr 9 min 51 sec) 
Heartbeat CPU 0 instructions: 250000000 cycles: 490333042 heartbeat IPC: 0.330556 cumulative IPC: 0.355478 (Simulation time: 0 hr 10 min 23 sec) 
Heartbeat CPU 0 instructions: 260000000 cycles: 517565822 heartbeat IPC: 0.367205 cumulative IPC: 0.356189 (Simulation time: 0 hr 10 min 54 sec) 
Heartbeat CPU 0 instructions: 270000003 cycles: 546174814 heartbeat IPC: 0.349541 cumulative IPC: 0.355791 (Simulation time: 0 hr 11 min 26 sec) 
Heartbeat CPU 0 instructions: 280000000 cycles: 574466998 heartbeat IPC: 0.353454 cumulative IPC: 0.35566 (Simulation time: 0 hr 11 min 58 sec) 
Heartbeat CPU 0 instructions: 290000000 cycles: 603406592 heartbeat IPC: 0.345547 cumulative IPC: 0.355113 (Simulation time: 0 hr 12 min 30 sec) 
Heartbeat CPU 0 instructions: 300000000 cycles: 633441349 heartbeat IPC: 0.332948 cumulative IPC: 0.353935 (Simulation time: 0 hr 13 min 0 sec) 
Heartbeat CPU 0 instructions: 310000001 cycles: 662894481 heartbeat IPC: 0.339523 cumulative IPC: 0.353221 (Simulation time: 0 hr 13 min 31 sec) 
Heartbeat CPU 0 instructions: 320000000 cycles: 691270105 heartbeat IPC: 0.352415 cumulative IPC: 0.353185 (Simulation time: 0 hr 14 min 1 sec) 
Heartbeat CPU 0 instructions: 330000000 cycles: 720014361 heartbeat IPC: 0.347896 cumulative IPC: 0.352951 (Simulation time: 0 hr 14 min 32 sec) 
Heartbeat CPU 0 instructions: 340000000 cycles: 749419478 heartbeat IPC: 0.340077 cumulative IPC: 0.352395 (Simulation time: 0 hr 15 min 3 sec) 
Heartbeat CPU 0 instructions: 350000003 cycles: 776517869 heartbeat IPC: 0.369026 cumulative IPC: 0.353032 (Simulation time: 0 hr 15 min 33 sec) 
Heartbeat CPU 0 instructions: 360000000 cycles: 804765286 heartbeat IPC: 0.354015 cumulative IPC: 0.353069 (Simulation time: 0 hr 16 min 2 sec) 
Heartbeat CPU 0 instructions: 370000000 cycles: 833072229 heartbeat IPC: 0.35327 cumulative IPC: 0.353077 (Simulation time: 0 hr 16 min 32 sec) 
Heartbeat CPU 0 instructions: 380000000 cycles: 861696961 heartbeat IPC: 0.349348 cumulative IPC: 0.352942 (Simulation time: 0 hr 17 min 1 sec) 
Heartbeat CPU 0 instructions: 390000001 cycles: 889421734 heartbeat IPC: 0.360688 cumulative IPC: 0.353204 (Simulation time: 0 hr 17 min 30 sec) 
Heartbeat CPU 0 instructions: 400000000 cycles: 918164386 heartbeat IPC: 0.347915 cumulative IPC: 0.353025 (Simulation time: 0 hr 18 min 0 sec) 
Heartbeat CPU 0 instructions: 410000001 cycles: 945536491 heartbeat IPC: 0.365335 cumulative IPC: 0.353409 (Simulation time: 0 hr 18 min 29 sec) 
Heartbeat CPU 0 instructions: 420000000 cycles: 972924343 heartbeat IPC: 0.365125 cumulative IPC: 0.353764 (Simulation time: 0 hr 18 min 58 sec) 
Heartbeat CPU 0 instructions: 430000002 cycles: 1000694242 heartbeat IPC: 0.360102 cumulative IPC: 0.353953 (Simulation time: 0 hr 19 min 27 sec) 
Heartbeat CPU 0 instructions: 440000000 cycles: 1030373361 heartbeat IPC: 0.336937 cumulative IPC: 0.353428 (Simulation time: 0 hr 19 min 56 sec) 
Heartbeat CPU 0 instructions: 450000002 cycles: 1059745104 heartbeat IPC: 0.340463 cumulative IPC: 0.353044 (Simulation time: 0 hr 20 min 25 sec) 
Heartbeat CPU 0 instructions: 460000000 cycles: 1087517956 heartbeat IPC: 0.360064 cumulative IPC: 0.353235 (Simulation time: 0 hr 20 min 53 sec) 
Heartbeat CPU 0 instructions: 470000000 cycles: 1115220907 heartbeat IPC: 0.360972 cumulative IPC: 0.35344 (Simulation time: 0 hr 21 min 22 sec) 
Heartbeat CPU 0 instructions: 480000000 cycles: 1143168217 heartbeat IPC: 0.357816 cumulative IPC: 0.353554 (Simulation time: 0 hr 21 min 50 sec) 
Heartbeat CPU 0 instructions: 490000000 cycles: 1170816302 heartbeat IPC: 0.361689 cumulative IPC: 0.353758 (Simulation time: 0 hr 22 min 17 sec) 
Heartbeat CPU 0 instructions: 500000000 cycles: 1199206957 heartbeat IPC: 0.352229 cumulative IPC: 0.353719 (Simulation time: 0 hr 22 min 45 sec) 
Heartbeat CPU 0 instructions: 510000000 cycles: 1234506405 heartbeat IPC: 0.283291 cumulative IPC: 0.351587 (Simulation time: 0 hr 23 min 17 sec) 
Heartbeat CPU 0 instructions: 520000000 cycles: 1262604664 heartbeat IPC: 0.355894 cumulative IPC: 0.351689 (Simulation time: 0 hr 23 min 46 sec) 
Heartbeat CPU 0 instructions: 530000001 cycles: 1291951244 heartbeat IPC: 0.340755 cumulative IPC: 0.351426 (Simulation time: 0 hr 24 min 14 sec) 
Heartbeat CPU 0 instructions: 540000000 cycles: 1320112792 heartbeat IPC: 0.355094 cumulative IPC: 0.351509 (Simulation time: 0 hr 24 min 43 sec) 
Heartbeat CPU 0 instructions: 550000001 cycles: 1349383929 heartbeat IPC: 0.341633 cumulative IPC: 0.351283 (Simulation time: 0 hr 25 min 13 sec) 
Heartbeat CPU 0 instructions: 560000000 cycles: 1374845407 heartbeat IPC: 0.39275 cumulative IPC: 0.352091 (Simulation time: 0 hr 25 min 41 sec) 
Heartbeat CPU 0 instructions: 570000000 cycles: 1404524989 heartbeat IPC: 0.336932 cumulative IPC: 0.351755 (Simulation time: 0 hr 26 min 11 sec) 
Heartbeat CPU 0 instructions: 580000000 cycles: 1432606749 heartbeat IPC: 0.356103 cumulative IPC: 0.351844 (Simulation time: 0 hr 26 min 40 sec) 
Heartbeat CPU 0 instructions: 590000001 cycles: 1457511796 heartbeat IPC: 0.401525 cumulative IPC: 0.352735 (Simulation time: 0 hr 27 min 7 sec) 
Heartbeat CPU 0 instructions: 600000000 cycles: 1483771840 heartbeat IPC: 0.380807 cumulative IPC: 0.353256 (Simulation time: 0 hr 27 min 35 sec) 
Finished CPU 0 instructions: 500000000 cycles: 1415405584 cumulative IPC: 0.353256 (Simulation time: 0 hr 27 min 35 sec) 

CPU 0 Branch Prediction Accuracy: 86.4311% MPKI: 26.2662
Number of Branches: 96788573 Number of Mispredictions: 13133102
Number of LOAD Instructions: 164682285
Number of LOAD Instructions (ROI): 164682285
Number of STORE Instructions: 78194750
Number of STORE Instructions (ROI): 78194750
Total Destination Memory Operands: 83268534
Total Destination Memory Operands (ROI): 83268534
Total Source Memory Operands: 164712438
Total Source Memory Operands (ROI): 164712438
Number of DEPENDED LOADS: 7065063
Number of DEPENDED LOADS (ROI): 7065063
Number of SQ_ADDED: 83268522
Number of SQ_ADDED (ROI): 83268522
Number of LQ_ADDED: 236694258
Number of LQ_ADDED (ROI): 236694258
Number of Instructions read from trace: 600000066

ChampSim completed all CPUs

Region of Interest Statistics

CPU 0 cumulative IPC: 0.353256 instructions: 500000000 cycles: 1415405584
ITLB TOTAL     ACCESS:  100509958  HIT:  100305512  MISS:     204446
ITLB LOAD      ACCESS:  100509958  HIT:  100305512  MISS:     204446
ITLB RFO       ACCESS:          0  HIT:          0  MISS:          0
ITLB PREFETCH  ACCESS:          0  HIT:          0  MISS:          0
ITLB WRITEBACK ACCESS:          0  HIT:          0  MISS:          0
ITLB PREFETCH  REQUESTED:          0  ISSUED:          0  USEFUL:          0  USELESS:          0
ITLB TOTAL MSHR MERGED:     172424
ITLB LOAD MSHR MERGED:     172424
ITLB RFO MSHR MERGED:          0
ITLB PREFETCH MSHR MERGED:          0
ITLB WRITEBACK MSHR MERGED:          0
ITLB TOTAL ACCESSES:  100682382 HITS:  100305512 MISSES:     376870
ITLB LOAD ACCESSES:  100682382 HITS:  100305512 MISSES:     376870
ITLB RFO ACCESSES:          0 HITS:          0 MISSES:          0
ITLB PREFETCH ACCESSES:          0 HITS:          0 MISSES:          0
ITLB WRITEBACK ACCESSES:          0 HITS:          0 MISSES:          0
ITLB RQ ACCESS:  500000057
ITLB RQ TO_CACHE:  100682382
ITLB RQ MERGED:  399317675
ITLB RQ FORWARD:          0
ITLB WQ ACCESS:          0
ITLB WQ TO_CACHE:          0
ITLB WQ MERGED:          0
ITLB WQ FORWARD:          0
DTLB TOTAL     ACCESS:  165330152  HIT:  164695808  MISS:     634344
DTLB LOAD      ACCESS:  106289051  HIT:  105719051  MISS:     570000
DTLB RFO       ACCESS:   59041101  HIT:   58976757  MISS:      64344
DTLB PREFETCH  ACCESS:          0  HIT:          0  MISS:          0
DTLB WRITEBACK ACCESS:          0  HIT:          0  MISS:          0
DTLB PREFETCH  REQUESTED:          0  ISSUED:          0  USEFUL:          0  USELESS:          0
DTLB TOTAL MSHR MERGED:      99798
DTLB LOAD MSHR MERGED:      59424
DTLB RFO MSHR MERGED:      40374
DTLB PREFETCH MSHR MERGED:          0
DTLB WRITEBACK MSHR MERGED:          0
DTLB TOTAL ACCESSES:  165429950 HITS:  164695808 MISSES:     734142
DTLB LOAD ACCESSES:  106348475 HITS:  105719051 MISSES:     629424
DTLB RFO ACCESSES:   59081475 HITS:   58976757 MISSES:     104718
DTLB PREFETCH ACCESSES:          0 HITS:          0 MISSES:          0
DTLB WRITEBACK ACCESSES:          0 HITS:          0 MISSES:          0
DTLB RQ ACCESS:  200305845
DTLB RQ TO_CACHE:  165429950
DTLB RQ MERGED:   34875895
DTLB RQ FORWARD:          0
DTLB WQ ACCESS:          0
DTLB WQ TO_CACHE:          0
DTLB WQ MERGED:          0
DTLB WQ FORWARD:          0
L1D TOTAL     ACCESS:  281788806  HIT:  273879514  MISS:    7909292
L1D LOAD      ACCESS:  110419261  HIT:  107144449  MISS:    3274812
L1D RFO       ACCESS:   67067573  HIT:   66174527  MISS:     893046
L1D PREFETCH  ACCESS:  104301972  HIT:  100560538  MISS:    3741434
L1D WRITEBACK ACCESS:          0  HIT:          0  MISS:          0
L1D PREFETCH  REQUESTED:  110811602  ISSUED:  109112296  USEFUL:    1662407  USELESS:    2078991
L1D TOTAL MSHR MERGED:    2904451
L1D LOAD MSHR MERGED:     486650
L1D RFO MSHR MERGED:    1920384
L1D PREFETCH MSHR MERGED:     497417
L1D WRITEBACK MSHR MERGED:          0
L1D TOTAL ACCESSES:  284721287 HITS:  273907544 MISSES:   10813743
L1D LOAD ACCESSES:  110813616 HITS:  107146463 MISSES:    3667153
L1D RFO ACCESSES:   68973698 HITS:   66174527 MISSES:    2799171
L1D PREFETCH ACCESSES:  104933973 HITS:  100586554 MISSES:    4347419
L1D WRITEBACK ACCESSES:          0 HITS:          0 MISSES:          0
L1D RQ ACCESS:  130753242
L1D RQ TO_CACHE:  110811605
L1D RQ MERGED:   19939623
L1D RQ FORWARD:          0
L1D WQ ACCESS:   69552603
L1D WQ TO_CACHE:   68973699
L1D WQ MERGED:     578904
L1D WQ FORWARD:      28030
L1I TOTAL     ACCESS:  126558250  HIT:  122319698  MISS:    4238552
L1I LOAD      ACCESS:  126558250  HIT:  122319698  MISS:    4238552
L1I RFO       ACCESS:          0  HIT:          0  MISS:          0
L1I PREFETCH  ACCESS:          0  HIT:          0  MISS:          0
L1I WRITEBACK ACCESS:          0  HIT:          0  MISS:          0
L1I PREFETCH  REQUESTED:          0  ISSUED:          0  USEFUL:          0  USELESS:          0
L1I TOTAL MSHR MERGED:    1834733
L1I LOAD MSHR MERGED:    1834733
L1I RFO MSHR MERGED:          0
L1I PREFETCH MSHR MERGED:          0
L1I WRITEBACK MSHR MERGED:          0
L1I TOTAL ACCESSES:  128392986 HITS:  122319698 MISSES:    6073288
L1I LOAD ACCESSES:  128392986 HITS:  122319698 MISSES:    6073288
L1I RFO ACCESSES:          0 HITS:          0 MISSES:          0
L1I PREFETCH ACCESSES:          0 HITS:          0 MISSES:          0
L1I WRITEBACK ACCESSES:          0 HITS:          0 MISSES:          0
L1I RQ ACCESS:  500000057
L1I RQ TO_CACHE:  128392986
L1I RQ MERGED:  371607071
L1I RQ FORWARD:          0
L1I WQ ACCESS:          0
L1I WQ TO_CACHE:          0
L1I WQ MERGED:          0
L1I WQ FORWARD:          0
L2C TOTAL     ACCESS:   14902886  HIT:   11156368  MISS:    3746518
L2C LOAD      ACCESS:    7418849  HIT:    5098166  MISS:    2320683
L2C RFO       ACCESS:     878687  HIT:     409910  MISS:     468777
L2C PREFETCH  ACCESS:    4566126  HIT:    3626329  MISS:     939797
L2C WRITEBACK ACCESS:    2039224  HIT:    2021963  MISS:      17261
L2C PREFETCH  REQUESTED:     842738  ISSUED:     842738  USEFUL:     202703  USELESS:     736800
L2C TOTAL MSHR MERGED:       9215
L2C LOAD MSHR MERGED:       1430
L2C RFO MSHR MERGED:          0
L2C PREFETCH MSHR MERGED:       7785
L2C WRITEBACK MSHR MERGED:          0
L2C TOTAL ACCESSES:   14913086 HITS:   11156822 MISSES:    3756264
L2C LOAD ACCESSES:    7419055 HITS:    5098372 MISSES:    2320683
L2C RFO ACCESSES:     878787 HITS:     410010 MISSES:     468777
L2C PREFETCH ACCESSES:    4576020 HITS:    3626477 MISSES:     949543
L2C WRITEBACK ACCESSES:    2039224 HITS:    2021963 MISSES:      17261
L2C RQ ACCESS:    8297845
L2C RQ TO_CACHE:    8297539
L2C RQ MERGED:          0
L2C RQ FORWARD:          0
L2C WQ ACCESS:    2039224
L2C WQ TO_CACHE:    2039224
L2C WQ MERGED:          0
L2C WQ FORWARD:        454
LLC TOTAL     ACCESS:    4609916  HIT:    3904110  MISS:     705806
LLC LOAD      ACCESS:    2319240  HIT:    2043614  MISS:     275626
LLC RFO       ACCESS:     468767  HIT:     300412  MISS:     168355
LLC PREFETCH  ACCESS:     941608  HIT:     695460  MISS:     246148
LLC WRITEBACK ACCESS:     880301  HIT:     864624  MISS:      15677
LLC PREFETCH  REQUESTED:          0  ISSUED:          0  USEFUL:      49606  USELESS:     196776
LLC TOTAL MSHR MERGED:        130
LLC LOAD MSHR MERGED:         39
LLC RFO MSHR MERGED:          0
LLC PREFETCH MSHR MERGED:         91
LLC WRITEBACK MSHR MERGED:          0
LLC TOTAL ACCESSES:    4610079 HITS:    3904143 MISSES:     705936
LLC LOAD ACCESSES:    2319253 HITS:    2043627 MISSES:     275626
LLC RFO ACCESSES:     468777 HITS:     300422 MISSES:     168355
LLC PREFETCH ACCESSES:     941748 HITS:     695470 MISSES:     246278
LLC WRITEBACK ACCESSES:     880301 HITS:     864624 MISSES:      15677
LLC 0 RQ ACCESS:    2788030
LLC 0 RQ TO_CACHE:    2788007
LLC 0 RQ MERGED:          0
LLC 0 RQ FORWARD:          0
LLC WQ ACCESS:     880301
LLC WQ TO_CACHE:     880301
LLC WQ MERGED:          0
LLC WQ FORWARD:         33
Major fault: 0 Minor fault: 12862
CPU 0 L1D next line prefetcher final stats
CPU 0 L2C PC-based stride prefetcher final stats
All Misses: 825959
All Hits: 4600962
SD Algo Stats - Switches: 0 SRR-Repls: 321362 BRR-Repls: 0

DRAM Statistics
 CHANNEL 0
 RQ ROW_BUFFER_HIT:     168318  ROW_BUFFER_MISS:     517984
 DBUS_CONGESTED:     554445
 WQ ROW_BUFFER_HIT:      49225  ROW_BUFFER_MISS:     318409  FULL:          0

 AVG_CONGESTED_CYCLE: 13
LOADS RETIRED: 136549171
INSTR RETIRED: 500000000
