
*** ChampSim Multicore Out-of-Order Simulator ***

Warmup Instructions: 100000000
Simulation Instructions: 500000000
Number of CPUs: 1
LLC sets: 2048
LLC ways: 16
Clean RRIP Policies: 2212230222122302 Dirty RRIP Policies: 2202130222021302 PSEL Width: 10 Track Set: 4294967295 PSEL Mask: 1 Demote Mask: 3040100030401000DS Algo: 0Window size: 0
Off-chip DRAM Size: 4096 MB Channels: 1 Width: 64-bit Data Rate: 1600 MT/s

CPU 0 runs /mnt/beegfs/iconst01/spec2017/Roms.trace.gz
NOT SORTED
TRACE STRING: /mnt/beegfs/iconst01/spec2017/Roms.trace.gz
SORTED
TRACE STRING: /mnt/beegfs/iconst01/spec2017/Roms.trace.gz
INITIAL
TRACE STRING: /mnt/beegfs/iconst01/spec2017/Roms.trace.gz

champsim_seed used: 417

CPU 0 L1D next line prefetcher
CPU 0 L2C IP-based stride prefetcher
Initialize DRRIP state
Assign rand_sets[0]: 454  LLC: 2048
rand_sets[0]: 454
Assign rand_sets[1]: 1662  LLC: 2048
rand_sets[1]: 1662
Assign rand_sets[2]: 1921  LLC: 2048
rand_sets[2]: 1921
Assign rand_sets[3]: 1131  LLC: 2048
rand_sets[3]: 1131
Assign rand_sets[4]: 331  LLC: 2048
rand_sets[4]: 331
Assign rand_sets[5]: 1531  LLC: 2048
rand_sets[5]: 1531
Assign rand_sets[6]: 482  LLC: 2048
rand_sets[6]: 482
Assign rand_sets[7]: 1275  LLC: 2048
rand_sets[7]: 1275
Assign rand_sets[8]: 1876  LLC: 2048
rand_sets[8]: 1876
Assign rand_sets[9]: 2038  LLC: 2048
rand_sets[9]: 2038
Assign rand_sets[10]: 701  LLC: 2048
rand_sets[10]: 701
Assign rand_sets[11]: 479  LLC: 2048
rand_sets[11]: 479
Assign rand_sets[12]: 892  LLC: 2048
rand_sets[12]: 892
Assign rand_sets[13]: 1820  LLC: 2048
rand_sets[13]: 1820
Assign rand_sets[14]: 1505  LLC: 2048
rand_sets[14]: 1505
Assign rand_sets[15]: 1159  LLC: 2048
rand_sets[15]: 1159
Assign rand_sets[16]: 513  LLC: 2048
rand_sets[16]: 513
Assign rand_sets[17]: 703  LLC: 2048
rand_sets[17]: 703
Assign rand_sets[18]: 561  LLC: 2048
rand_sets[18]: 561
Assign rand_sets[19]: 990  LLC: 2048
rand_sets[19]: 990
Assign rand_sets[20]: 342  LLC: 2048
rand_sets[20]: 342
Assign rand_sets[21]: 882  LLC: 2048
rand_sets[21]: 882
Assign rand_sets[22]: 15  LLC: 2048
rand_sets[22]: 15
Assign rand_sets[23]: 71  LLC: 2048
rand_sets[23]: 71
Assign rand_sets[24]: 1127  LLC: 2048
rand_sets[24]: 1127
Assign rand_sets[25]: 1382  LLC: 2048
rand_sets[25]: 1382
Assign rand_sets[26]: 647  LLC: 2048
rand_sets[26]: 647
Assign rand_sets[27]: 857  LLC: 2048
rand_sets[27]: 857
Assign rand_sets[28]: 1450  LLC: 2048
rand_sets[28]: 1450
Assign rand_sets[29]: 1160  LLC: 2048
rand_sets[29]: 1160
Assign rand_sets[30]: 1852  LLC: 2048
rand_sets[30]: 1852
Assign rand_sets[31]: 1881  LLC: 2048
rand_sets[31]: 1881
Assign rand_sets[32]: 1770  LLC: 2048
rand_sets[32]: 1770
Assign rand_sets[33]: 1622  LLC: 2048
rand_sets[33]: 1622
Assign rand_sets[34]: 275  LLC: 2048
rand_sets[34]: 275
Assign rand_sets[35]: 635  LLC: 2048
rand_sets[35]: 635
Assign rand_sets[36]: 466  LLC: 2048
rand_sets[36]: 466
Assign rand_sets[37]: 1413  LLC: 2048
rand_sets[37]: 1413
Assign rand_sets[38]: 417  LLC: 2048
rand_sets[38]: 417
Assign rand_sets[39]: 472  LLC: 2048
rand_sets[39]: 472
Assign rand_sets[40]: 1340  LLC: 2048
rand_sets[40]: 1340
Assign rand_sets[41]: 852  LLC: 2048
rand_sets[41]: 852
Assign rand_sets[42]: 1365  LLC: 2048
rand_sets[42]: 1365
Assign rand_sets[43]: 47  LLC: 2048
rand_sets[43]: 47
Assign rand_sets[44]: 823  LLC: 2048
rand_sets[44]: 823
Assign rand_sets[45]: 686  LLC: 2048
rand_sets[45]: 686
Assign rand_sets[46]: 1637  LLC: 2048
rand_sets[46]: 1637
Assign rand_sets[47]: 1115  LLC: 2048
rand_sets[47]: 1115
Assign rand_sets[48]: 986  LLC: 2048
rand_sets[48]: 986
Assign rand_sets[49]: 258  LLC: 2048
rand_sets[49]: 258
Assign rand_sets[50]: 633  LLC: 2048
rand_sets[50]: 633
Assign rand_sets[51]: 920  LLC: 2048
rand_sets[51]: 920
Assign rand_sets[52]: 204  LLC: 2048
rand_sets[52]: 204
Assign rand_sets[53]: 227  LLC: 2048
rand_sets[53]: 227
Assign rand_sets[54]: 1818  LLC: 2048
rand_sets[54]: 1818
Assign rand_sets[55]: 886  LLC: 2048
rand_sets[55]: 886
Assign rand_sets[56]: 1422  LLC: 2048
rand_sets[56]: 1422
Assign rand_sets[57]: 607  LLC: 2048
rand_sets[57]: 607
Assign rand_sets[58]: 217  LLC: 2048
rand_sets[58]: 217
Assign rand_sets[59]: 1945  LLC: 2048
rand_sets[59]: 1945
Assign rand_sets[60]: 143  LLC: 2048
rand_sets[60]: 143
Assign rand_sets[61]: 1311  LLC: 2048
rand_sets[61]: 1311
Assign rand_sets[62]: 319  LLC: 2048
rand_sets[62]: 319
Assign rand_sets[63]: 1846  LLC: 2048
rand_sets[63]: 1846
 CLEAN-RRIP-POLICY-1: 2-2-1-2-2-3-0-2- CLEAN-RRIP-POLICY-2: 2-2-1-2-2-3-0-2-
 DIRTY-RRIP-POLICY-1: 2-2-0-2-1-3-0-2- DIRTY-RRIP-POLICY-2: 2-2-0-2-1-3-0-2-
 PSEL width: 10
Heartbeat CPU 0 instructions: 10000000 cycles: 4688091 heartbeat IPC: 2.13306 cumulative IPC: 2.13306 (Simulation time: 0 hr 0 min 17 sec) 
Heartbeat CPU 0 instructions: 20000000 cycles: 9325361 heartbeat IPC: 2.15644 cumulative IPC: 2.14469 (Simulation time: 0 hr 0 min 34 sec) 
Heartbeat CPU 0 instructions: 30000003 cycles: 14019751 heartbeat IPC: 2.1302 cumulative IPC: 2.13984 (Simulation time: 0 hr 0 min 52 sec) 
Heartbeat CPU 0 instructions: 40000000 cycles: 18670164 heartbeat IPC: 2.15035 cumulative IPC: 2.14246 (Simulation time: 0 hr 1 min 9 sec) 
Heartbeat CPU 0 instructions: 50000003 cycles: 23323529 heartbeat IPC: 2.14898 cumulative IPC: 2.14376 (Simulation time: 0 hr 1 min 26 sec) 
Heartbeat CPU 0 instructions: 60000000 cycles: 27976163 heartbeat IPC: 2.14932 cumulative IPC: 2.14468 (Simulation time: 0 hr 1 min 44 sec) 
Heartbeat CPU 0 instructions: 70000002 cycles: 32367324 heartbeat IPC: 2.2773 cumulative IPC: 2.16267 (Simulation time: 0 hr 1 min 59 sec) 
Heartbeat CPU 0 instructions: 80000000 cycles: 36304088 heartbeat IPC: 2.54016 cumulative IPC: 2.20361 (Simulation time: 0 hr 2 min 11 sec) 
Heartbeat CPU 0 instructions: 90000000 cycles: 40249311 heartbeat IPC: 2.53471 cumulative IPC: 2.23606 (Simulation time: 0 hr 2 min 23 sec) 
Heartbeat CPU 0 instructions: 100000000 cycles: 44211568 heartbeat IPC: 2.52381 cumulative IPC: 2.26185 (Simulation time: 0 hr 2 min 36 sec) 

Warmup complete CPU 0 instructions: 100000002 cycles: 44211569 (Simulation time: 0 hr 2 min 36 sec) 

Heartbeat CPU 0 instructions: 110000000 cycles: 51914351 heartbeat IPC: 1.29823 cumulative IPC: 1.29823 (Simulation time: 0 hr 2 min 54 sec) 
Heartbeat CPU 0 instructions: 120000000 cycles: 59858422 heartbeat IPC: 1.2588 cumulative IPC: 1.27821 (Simulation time: 0 hr 3 min 13 sec) 
Heartbeat CPU 0 instructions: 130000002 cycles: 67861102 heartbeat IPC: 1.24958 cumulative IPC: 1.26852 (Simulation time: 0 hr 3 min 31 sec) 
Heartbeat CPU 0 instructions: 140000000 cycles: 75744328 heartbeat IPC: 1.26852 cumulative IPC: 1.26852 (Simulation time: 0 hr 3 min 50 sec) 
Heartbeat CPU 0 instructions: 150000003 cycles: 83758191 heartbeat IPC: 1.24784 cumulative IPC: 1.26433 (Simulation time: 0 hr 4 min 9 sec) 
Heartbeat CPU 0 instructions: 160000000 cycles: 93624470 heartbeat IPC: 1.01355 cumulative IPC: 1.21426 (Simulation time: 0 hr 4 min 30 sec) 
Heartbeat CPU 0 instructions: 170000000 cycles: 105708411 heartbeat IPC: 0.827545 cumulative IPC: 1.13827 (Simulation time: 0 hr 4 min 54 sec) 
Heartbeat CPU 0 instructions: 180000000 cycles: 117739972 heartbeat IPC: 0.831147 cumulative IPC: 1.08801 (Simulation time: 0 hr 5 min 18 sec) 
Heartbeat CPU 0 instructions: 190000000 cycles: 129864523 heartbeat IPC: 0.824773 cumulative IPC: 1.05075 (Simulation time: 0 hr 5 min 43 sec) 
Heartbeat CPU 0 instructions: 200000000 cycles: 142058107 heartbeat IPC: 0.820103 cumulative IPC: 1.02201 (Simulation time: 0 hr 6 min 6 sec) 
Heartbeat CPU 0 instructions: 210000003 cycles: 154309023 heartbeat IPC: 0.816266 cumulative IPC: 0.999115 (Simulation time: 0 hr 6 min 29 sec) 
Heartbeat CPU 0 instructions: 220000000 cycles: 166151173 heartbeat IPC: 0.844441 cumulative IPC: 0.984094 (Simulation time: 0 hr 6 min 53 sec) 
Heartbeat CPU 0 instructions: 230000000 cycles: 177131873 heartbeat IPC: 0.910689 cumulative IPC: 0.97803 (Simulation time: 0 hr 7 min 17 sec) 
Heartbeat CPU 0 instructions: 240000000 cycles: 188154297 heartbeat IPC: 0.907241 cumulative IPC: 0.972609 (Simulation time: 0 hr 7 min 40 sec) 
Heartbeat CPU 0 instructions: 250000002 cycles: 197683107 heartbeat IPC: 1.04945 cumulative IPC: 0.97738 (Simulation time: 0 hr 8 min 2 sec) 
Heartbeat CPU 0 instructions: 260000000 cycles: 205263587 heartbeat IPC: 1.31918 cumulative IPC: 0.993468 (Simulation time: 0 hr 8 min 23 sec) 
Heartbeat CPU 0 instructions: 270000003 cycles: 213274848 heartbeat IPC: 1.24824 cumulative IPC: 1.00554 (Simulation time: 0 hr 8 min 43 sec) 
Heartbeat CPU 0 instructions: 280000000 cycles: 221599002 heartbeat IPC: 1.20132 cumulative IPC: 1.01473 (Simulation time: 0 hr 9 min 4 sec) 
Heartbeat CPU 0 instructions: 290000000 cycles: 229926442 heartbeat IPC: 1.20085 cumulative IPC: 1.02307 (Simulation time: 0 hr 9 min 25 sec) 
Heartbeat CPU 0 instructions: 300000000 cycles: 238249604 heartbeat IPC: 1.20147 cumulative IPC: 1.03073 (Simulation time: 0 hr 9 min 46 sec) 
Heartbeat CPU 0 instructions: 310000000 cycles: 246524807 heartbeat IPC: 1.20843 cumulative IPC: 1.03799 (Simulation time: 0 hr 10 min 7 sec) 
Heartbeat CPU 0 instructions: 320000000 cycles: 254678030 heartbeat IPC: 1.22651 cumulative IPC: 1.0453 (Simulation time: 0 hr 10 min 29 sec) 
Heartbeat CPU 0 instructions: 330000002 cycles: 262879038 heartbeat IPC: 1.21936 cumulative IPC: 1.05183 (Simulation time: 0 hr 10 min 51 sec) 
Heartbeat CPU 0 instructions: 340000000 cycles: 272290485 heartbeat IPC: 1.06254 cumulative IPC: 1.05227 (Simulation time: 0 hr 11 min 14 sec) 
Heartbeat CPU 0 instructions: 350000001 cycles: 281022019 heartbeat IPC: 1.14527 cumulative IPC: 1.0557 (Simulation time: 0 hr 11 min 35 sec) 
Heartbeat CPU 0 instructions: 360000000 cycles: 289777000 heartbeat IPC: 1.14221 cumulative IPC: 1.05878 (Simulation time: 0 hr 11 min 57 sec) 
Heartbeat CPU 0 instructions: 370000001 cycles: 298478864 heartbeat IPC: 1.14918 cumulative IPC: 1.06187 (Simulation time: 0 hr 12 min 18 sec) 
Heartbeat CPU 0 instructions: 380000000 cycles: 307136536 heartbeat IPC: 1.15504 cumulative IPC: 1.06494 (Simulation time: 0 hr 12 min 39 sec) 
Heartbeat CPU 0 instructions: 390000001 cycles: 315663248 heartbeat IPC: 1.17279 cumulative IPC: 1.06833 (Simulation time: 0 hr 13 min 0 sec) 
Heartbeat CPU 0 instructions: 400000000 cycles: 324267063 heartbeat IPC: 1.16227 cumulative IPC: 1.07122 (Simulation time: 0 hr 13 min 21 sec) 
Heartbeat CPU 0 instructions: 410000003 cycles: 332809994 heartbeat IPC: 1.17056 cumulative IPC: 1.07416 (Simulation time: 0 hr 13 min 42 sec) 
Heartbeat CPU 0 instructions: 420000000 cycles: 341429296 heartbeat IPC: 1.16019 cumulative IPC: 1.07665 (Simulation time: 0 hr 14 min 3 sec) 
Heartbeat CPU 0 instructions: 430000001 cycles: 349978472 heartbeat IPC: 1.1697 cumulative IPC: 1.07925 (Simulation time: 0 hr 14 min 24 sec) 
Heartbeat CPU 0 instructions: 440000000 cycles: 358498672 heartbeat IPC: 1.17368 cumulative IPC: 1.08181 (Simulation time: 0 hr 14 min 45 sec) 
Heartbeat CPU 0 instructions: 450000001 cycles: 368439943 heartbeat IPC: 1.00591 cumulative IPC: 1.07949 (Simulation time: 0 hr 15 min 8 sec) 
Heartbeat CPU 0 instructions: 460000000 cycles: 376980329 heartbeat IPC: 1.17091 cumulative IPC: 1.08183 (Simulation time: 0 hr 15 min 29 sec) 
Heartbeat CPU 0 instructions: 470000003 cycles: 385455103 heartbeat IPC: 1.17997 cumulative IPC: 1.08427 (Simulation time: 0 hr 15 min 50 sec) 
Heartbeat CPU 0 instructions: 480000000 cycles: 393920033 heartbeat IPC: 1.18134 cumulative IPC: 1.08662 (Simulation time: 0 hr 16 min 10 sec) 
Heartbeat CPU 0 instructions: 490000000 cycles: 402389209 heartbeat IPC: 1.18075 cumulative IPC: 1.08885 (Simulation time: 0 hr 16 min 31 sec) 
Heartbeat CPU 0 instructions: 500000000 cycles: 410846922 heartbeat IPC: 1.18235 cumulative IPC: 1.091 (Simulation time: 0 hr 16 min 52 sec) 
Heartbeat CPU 0 instructions: 510000001 cycles: 419294633 heartbeat IPC: 1.18375 cumulative IPC: 1.09309 (Simulation time: 0 hr 17 min 12 sec) 
Heartbeat CPU 0 instructions: 520000000 cycles: 427762709 heartbeat IPC: 1.18091 cumulative IPC: 1.09503 (Simulation time: 0 hr 17 min 33 sec) 
Heartbeat CPU 0 instructions: 530000001 cycles: 436232853 heartbeat IPC: 1.18062 cumulative IPC: 1.09688 (Simulation time: 0 hr 17 min 53 sec) 
Heartbeat CPU 0 instructions: 540000000 cycles: 444927711 heartbeat IPC: 1.1501 cumulative IPC: 1.09803 (Simulation time: 0 hr 18 min 14 sec) 
Heartbeat CPU 0 instructions: 550000001 cycles: 453634000 heartbeat IPC: 1.1486 cumulative IPC: 1.09911 (Simulation time: 0 hr 18 min 35 sec) 
Heartbeat CPU 0 instructions: 560000000 cycles: 462128143 heartbeat IPC: 1.17728 cumulative IPC: 1.1007 (Simulation time: 0 hr 18 min 55 sec) 
Heartbeat CPU 0 instructions: 570000001 cycles: 473030621 heartbeat IPC: 0.917223 cumulative IPC: 1.09603 (Simulation time: 0 hr 19 min 17 sec) 
Heartbeat CPU 0 instructions: 580000000 cycles: 483397483 heartbeat IPC: 0.964612 cumulative IPC: 1.09293 (Simulation time: 0 hr 19 min 39 sec) 
Heartbeat CPU 0 instructions: 590000001 cycles: 494460779 heartbeat IPC: 0.90389 cumulative IPC: 1.08829 (Simulation time: 0 hr 20 min 1 sec) 
Heartbeat CPU 0 instructions: 600000000 cycles: 504936331 heartbeat IPC: 0.954604 cumulative IPC: 1.08525 (Simulation time: 0 hr 20 min 22 sec) 
Finished CPU 0 instructions: 500000001 cycles: 460724775 cumulative IPC: 1.08525 (Simulation time: 0 hr 20 min 22 sec) 

CPU 0 Branch Prediction Accuracy: 99.7422% MPKI: 0.173296
Number of Branches: 33608403 Number of Mispredictions: 86648
Number of LOAD Instructions: 180215231
Number of LOAD Instructions (ROI): 180215231
Number of STORE Instructions: 36067263
Number of STORE Instructions (ROI): 36067263
Total Destination Memory Operands: 38428915
Total Destination Memory Operands (ROI): 38428915
Total Source Memory Operands: 180215231
Total Source Memory Operands (ROI): 180215231
Number of DEPENDED LOADS: 3042963
Number of DEPENDED LOADS (ROI): 3042963
Number of SQ_ADDED: 38428892
Number of SQ_ADDED (ROI): 38428892
Number of LQ_ADDED: 207381589
Number of LQ_ADDED (ROI): 207381589
Number of Instructions read from trace: 600000257

ChampSim completed all CPUs

Region of Interest Statistics

CPU 0 cumulative IPC: 1.08525 instructions: 500000001 cycles: 460724775
ITLB TOTAL     ACCESS:   91317953  HIT:   91317934  MISS:         19
ITLB LOAD      ACCESS:   91317953  HIT:   91317934  MISS:         19
ITLB RFO       ACCESS:          0  HIT:          0  MISS:          0
ITLB PREFETCH  ACCESS:          0  HIT:          0  MISS:          0
ITLB WRITEBACK ACCESS:          0  HIT:          0  MISS:          0
ITLB PREFETCH  REQUESTED:          0  ISSUED:          0  USEFUL:          0  USELESS:          0
ITLB TOTAL MSHR MERGED:         40
ITLB LOAD MSHR MERGED:         40
ITLB RFO MSHR MERGED:          0
ITLB PREFETCH MSHR MERGED:          0
ITLB WRITEBACK MSHR MERGED:          0
ITLB TOTAL ACCESSES:   91317993 HITS:   91317934 MISSES:         59
ITLB LOAD ACCESSES:   91317993 HITS:   91317934 MISSES:         59
ITLB RFO ACCESSES:          0 HITS:          0 MISSES:          0
ITLB PREFETCH ACCESSES:          0 HITS:          0 MISSES:          0
ITLB WRITEBACK ACCESSES:          0 HITS:          0 MISSES:          0
ITLB RQ ACCESS:  500000003
ITLB RQ TO_CACHE:   91317993
ITLB RQ MERGED:  408682010
ITLB RQ FORWARD:          0
ITLB WQ ACCESS:          0
ITLB WQ TO_CACHE:          0
ITLB WQ MERGED:          0
ITLB WQ FORWARD:          0
DTLB TOTAL     ACCESS:  142703897  HIT:  142337435  MISS:     366462
DTLB LOAD      ACCESS:  119935246  HIT:  119621660  MISS:     313586
DTLB RFO       ACCESS:   22768651  HIT:   22715775  MISS:      52876
DTLB PREFETCH  ACCESS:          0  HIT:          0  MISS:          0
DTLB WRITEBACK ACCESS:          0  HIT:          0  MISS:          0
DTLB PREFETCH  REQUESTED:          0  ISSUED:          0  USEFUL:          0  USELESS:          0
DTLB TOTAL MSHR MERGED:     294748
DTLB LOAD MSHR MERGED:     245814
DTLB RFO MSHR MERGED:      48934
DTLB PREFETCH MSHR MERGED:          0
DTLB WRITEBACK MSHR MERGED:          0
DTLB TOTAL ACCESSES:  142998645 HITS:  142337435 MISSES:     661210
DTLB LOAD ACCESSES:  120181060 HITS:  119621660 MISSES:     559400
DTLB RFO ACCESSES:   22817585 HITS:   22715775 MISSES:     101810
DTLB PREFETCH ACCESSES:          0 HITS:          0 MISSES:          0
DTLB WRITEBACK ACCESSES:          0 HITS:          0 MISSES:          0
DTLB RQ ACCESS:  184790014
DTLB RQ TO_CACHE:  142998645
DTLB RQ MERGED:   41791369
DTLB RQ FORWARD:          0
DTLB WQ ACCESS:          0
DTLB WQ TO_CACHE:          0
DTLB WQ MERGED:          0
DTLB WQ FORWARD:          0
L1D TOTAL     ACCESS:  190670314  HIT:  177177837  MISS:   13492477
L1D LOAD      ACCESS:  113415025  HIT:  110606431  MISS:    2808594
L1D RFO       ACCESS:   17487323  HIT:   14705568  MISS:    2781755
L1D PREFETCH  ACCESS:   59767966  HIT:   51865838  MISS:    7902128
L1D WRITEBACK ACCESS:          0  HIT:          0  MISS:          0
L1D PREFETCH  REQUESTED:  117067801  ISSUED:  115705928  USEFUL:    7690944  USELESS:     211184
L1D TOTAL MSHR MERGED:   30287201
L1D LOAD MSHR MERGED:    5879200
L1D RFO MSHR MERGED:   10765431
L1D PREFETCH MSHR MERGED:   13642570
L1D WRITEBACK MSHR MERGED:          0
L1D TOTAL ACCESSES:  220958037 HITS:  177178358 MISSES:   43779679
L1D LOAD ACCESSES:  117067973 HITS:  110606603 MISSES:    6461370
L1D RFO ACCESSES:   28252692 HITS:   14705568 MISSES:   13547124
L1D PREFETCH ACCESSES:   75637372 HITS:   51866187 MISSES:   23771185
L1D WRITEBACK ACCESSES:          0 HITS:          0 MISSES:          0
L1D RQ ACCESS:  156533948
L1D RQ TO_CACHE:  117067804
L1D RQ MERGED:   39465972
L1D RQ FORWARD:          0
L1D WQ ACCESS:   28256066
L1D WQ TO_CACHE:   28252692
L1D WQ MERGED:       3374
L1D WQ FORWARD:        521
L1I TOTAL     ACCESS:  115364118  HIT:  115363170  MISS:        948
L1I LOAD      ACCESS:  115364118  HIT:  115363170  MISS:        948
L1I RFO       ACCESS:          0  HIT:          0  MISS:          0
L1I PREFETCH  ACCESS:          0  HIT:          0  MISS:          0
L1I WRITEBACK ACCESS:          0  HIT:          0  MISS:          0
L1I PREFETCH  REQUESTED:          0  ISSUED:          0  USEFUL:          0  USELESS:          0
L1I TOTAL MSHR MERGED:       1563
L1I LOAD MSHR MERGED:       1563
L1I RFO MSHR MERGED:          0
L1I PREFETCH MSHR MERGED:          0
L1I WRITEBACK MSHR MERGED:          0
L1I TOTAL ACCESSES:  115365681 HITS:  115363170 MISSES:       2511
L1I LOAD ACCESSES:  115365681 HITS:  115363170 MISSES:       2511
L1I RFO ACCESSES:          0 HITS:          0 MISSES:          0
L1I PREFETCH ACCESSES:          0 HITS:          0 MISSES:          0
L1I WRITEBACK ACCESSES:          0 HITS:          0 MISSES:          0
L1I RQ ACCESS:  500000007
L1I RQ TO_CACHE:  115365681
L1I RQ MERGED:  384634326
L1I RQ FORWARD:          0
L1I WQ ACCESS:          0
L1I WQ TO_CACHE:          0
L1I WQ MERGED:          0
L1I WQ FORWARD:          0
L2C TOTAL     ACCESS:   16743757  HIT:    4898914  MISS:   11844843
L2C LOAD      ACCESS:     583088  HIT:     100951  MISS:     482137
L2C RFO       ACCESS:    2781693  HIT:     266731  MISS:    2514962
L2C PREFETCH  ACCESS:   10158317  HIT:    1312854  MISS:    8845463
L2C WRITEBACK ACCESS:    3220659  HIT:    3218378  MISS:       2281
L2C PREFETCH  REQUESTED:      32001  ISSUED:      32001  USEFUL:      96190  USELESS:    8747348
L2C TOTAL MSHR MERGED:        302
L2C LOAD MSHR MERGED:          3
L2C RFO MSHR MERGED:          0
L2C PREFETCH MSHR MERGED:        299
L2C WRITEBACK MSHR MERGED:          0
L2C TOTAL ACCESSES:   16744478 HITS:    4898968 MISSES:   11845510
L2C LOAD ACCESSES:     583118 HITS:     100981 MISSES:     482137
L2C RFO ACCESSES:    2781693 HITS:     266731 MISSES:    2514962
L2C PREFETCH ACCESSES:   10159008 HITS:    1312878 MISSES:    8846130
L2C WRITEBACK ACCESSES:    3220659 HITS:    3218378 MISSES:       2281
L2C RQ ACCESS:    3364811
L2C RQ TO_CACHE:    3364781
L2C RQ MERGED:          0
L2C RQ FORWARD:          0
L2C WQ ACCESS:    3220659
L2C WQ TO_CACHE:    3220659
L2C WQ MERGED:          0
L2C WQ FORWARD:         54
LLC TOTAL     ACCESS:   14743037  HIT:    8241399  MISS:    6501638
LLC LOAD      ACCESS:     482130  HIT:     258216  MISS:     223914
LLC RFO       ACCESS:    2514932  HIT:    1474486  MISS:    1040446
LLC PREFETCH  ACCESS:    8845715  HIT:    4363967  MISS:    4481748
LLC WRITEBACK ACCESS:    2900260  HIT:    2144730  MISS:     755530
LLC PREFETCH  REQUESTED:          0  ISSUED:          0  USEFUL:     252171  USELESS:    4240289
LLC TOTAL MSHR MERGED:          4
LLC LOAD MSHR MERGED:          1
LLC RFO MSHR MERGED:          0
LLC PREFETCH MSHR MERGED:          3
LLC WRITEBACK MSHR MERGED:          0
LLC TOTAL ACCESSES:   14743164 HITS:    8241521 MISSES:    6501643
LLC LOAD ACCESSES:     482134 HITS:     258220 MISSES:     223914
LLC RFO ACCESSES:    2514962 HITS:    1474516 MISSES:    1040446
LLC PREFETCH ACCESSES:    8845808 HITS:    4364055 MISSES:    4481753
LLC WRITEBACK ACCESSES:    2900260 HITS:    2144730 MISSES:     755530
LLC 0 RQ ACCESS:    2997096
LLC 0 RQ TO_CACHE:    2997062
LLC 0 RQ MERGED:          0
LLC 0 RQ FORWARD:          0
LLC WQ ACCESS:    2900260
LLC WQ TO_CACHE:    2900260
LLC WQ MERGED:          0
LLC WQ FORWARD:        122
Major fault: 0 Minor fault: 57518
CPU 0 L1D next line prefetcher final stats
CPU 0 L2C PC-based stride prefetcher final stats
All Misses: 6877175
All Hits: 9362044
SD Algo Stats - Switches: 0 SRR-Repls: 230481 BRR-Repls: 0

DRAM Statistics
 CHANNEL 0
 RQ ROW_BUFFER_HIT:    3133033  ROW_BUFFER_MISS:    2609265
 DBUS_CONGESTED:    3072617
 WQ ROW_BUFFER_HIT:     175483  ROW_BUFFER_MISS:    1341333  FULL:          0

 AVG_CONGESTED_CYCLE: 13
LOADS RETIRED: 157818985
INSTR RETIRED: 500000000
