
*** ChampSim Multicore Out-of-Order Simulator ***

Warmup Instructions: 100000000
Simulation Instructions: 500000000
Number of CPUs: 1
LLC sets: 2048
LLC ways: 16
Clean RRIP Policies: 2212230222122302 Dirty RRIP Policies: 2202130222021302 PSEL Width: 10 Track Set: 4294967295 PSEL Mask: 1 Demote Mask: 3040100030401000DS Algo: 0Window size: 0
Off-chip DRAM Size: 4096 MB Channels: 1 Width: 64-bit Data Rate: 1600 MT/s

CPU 0 runs /mnt/beegfs/iconst01/spec2017/Wrf.trace.gz
NOT SORTED
TRACE STRING: /mnt/beegfs/iconst01/spec2017/Wrf.trace.gz
SORTED
TRACE STRING: /mnt/beegfs/iconst01/spec2017/Wrf.trace.gz
INITIAL
TRACE STRING: /mnt/beegfs/iconst01/spec2017/Wrf.trace.gz

champsim_seed used: 303

CPU 0 L1D next line prefetcher
CPU 0 L2C IP-based stride prefetcher
Initialize DRRIP state
Assign rand_sets[0]: 454  LLC: 2048
rand_sets[0]: 454
Assign rand_sets[1]: 1662  LLC: 2048
rand_sets[1]: 1662
Assign rand_sets[2]: 1921  LLC: 2048
rand_sets[2]: 1921
Assign rand_sets[3]: 1131  LLC: 2048
rand_sets[3]: 1131
Assign rand_sets[4]: 331  LLC: 2048
rand_sets[4]: 331
Assign rand_sets[5]: 1531  LLC: 2048
rand_sets[5]: 1531
Assign rand_sets[6]: 482  LLC: 2048
rand_sets[6]: 482
Assign rand_sets[7]: 1275  LLC: 2048
rand_sets[7]: 1275
Assign rand_sets[8]: 1876  LLC: 2048
rand_sets[8]: 1876
Assign rand_sets[9]: 2038  LLC: 2048
rand_sets[9]: 2038
Assign rand_sets[10]: 701  LLC: 2048
rand_sets[10]: 701
Assign rand_sets[11]: 479  LLC: 2048
rand_sets[11]: 479
Assign rand_sets[12]: 892  LLC: 2048
rand_sets[12]: 892
Assign rand_sets[13]: 1820  LLC: 2048
rand_sets[13]: 1820
Assign rand_sets[14]: 1505  LLC: 2048
rand_sets[14]: 1505
Assign rand_sets[15]: 1159  LLC: 2048
rand_sets[15]: 1159
Assign rand_sets[16]: 513  LLC: 2048
rand_sets[16]: 513
Assign rand_sets[17]: 703  LLC: 2048
rand_sets[17]: 703
Assign rand_sets[18]: 561  LLC: 2048
rand_sets[18]: 561
Assign rand_sets[19]: 990  LLC: 2048
rand_sets[19]: 990
Assign rand_sets[20]: 342  LLC: 2048
rand_sets[20]: 342
Assign rand_sets[21]: 882  LLC: 2048
rand_sets[21]: 882
Assign rand_sets[22]: 15  LLC: 2048
rand_sets[22]: 15
Assign rand_sets[23]: 71  LLC: 2048
rand_sets[23]: 71
Assign rand_sets[24]: 1127  LLC: 2048
rand_sets[24]: 1127
Assign rand_sets[25]: 1382  LLC: 2048
rand_sets[25]: 1382
Assign rand_sets[26]: 647  LLC: 2048
rand_sets[26]: 647
Assign rand_sets[27]: 857  LLC: 2048
rand_sets[27]: 857
Assign rand_sets[28]: 1450  LLC: 2048
rand_sets[28]: 1450
Assign rand_sets[29]: 1160  LLC: 2048
rand_sets[29]: 1160
Assign rand_sets[30]: 1852  LLC: 2048
rand_sets[30]: 1852
Assign rand_sets[31]: 1881  LLC: 2048
rand_sets[31]: 1881
Assign rand_sets[32]: 1770  LLC: 2048
rand_sets[32]: 1770
Assign rand_sets[33]: 1622  LLC: 2048
rand_sets[33]: 1622
Assign rand_sets[34]: 275  LLC: 2048
rand_sets[34]: 275
Assign rand_sets[35]: 635  LLC: 2048
rand_sets[35]: 635
Assign rand_sets[36]: 466  LLC: 2048
rand_sets[36]: 466
Assign rand_sets[37]: 1413  LLC: 2048
rand_sets[37]: 1413
Assign rand_sets[38]: 417  LLC: 2048
rand_sets[38]: 417
Assign rand_sets[39]: 472  LLC: 2048
rand_sets[39]: 472
Assign rand_sets[40]: 1340  LLC: 2048
rand_sets[40]: 1340
Assign rand_sets[41]: 852  LLC: 2048
rand_sets[41]: 852
Assign rand_sets[42]: 1365  LLC: 2048
rand_sets[42]: 1365
Assign rand_sets[43]: 47  LLC: 2048
rand_sets[43]: 47
Assign rand_sets[44]: 823  LLC: 2048
rand_sets[44]: 823
Assign rand_sets[45]: 686  LLC: 2048
rand_sets[45]: 686
Assign rand_sets[46]: 1637  LLC: 2048
rand_sets[46]: 1637
Assign rand_sets[47]: 1115  LLC: 2048
rand_sets[47]: 1115
Assign rand_sets[48]: 986  LLC: 2048
rand_sets[48]: 986
Assign rand_sets[49]: 258  LLC: 2048
rand_sets[49]: 258
Assign rand_sets[50]: 633  LLC: 2048
rand_sets[50]: 633
Assign rand_sets[51]: 920  LLC: 2048
rand_sets[51]: 920
Assign rand_sets[52]: 204  LLC: 2048
rand_sets[52]: 204
Assign rand_sets[53]: 227  LLC: 2048
rand_sets[53]: 227
Assign rand_sets[54]: 1818  LLC: 2048
rand_sets[54]: 1818
Assign rand_sets[55]: 886  LLC: 2048
rand_sets[55]: 886
Assign rand_sets[56]: 1422  LLC: 2048
rand_sets[56]: 1422
Assign rand_sets[57]: 607  LLC: 2048
rand_sets[57]: 607
Assign rand_sets[58]: 217  LLC: 2048
rand_sets[58]: 217
Assign rand_sets[59]: 1945  LLC: 2048
rand_sets[59]: 1945
Assign rand_sets[60]: 143  LLC: 2048
rand_sets[60]: 143
Assign rand_sets[61]: 1311  LLC: 2048
rand_sets[61]: 1311
Assign rand_sets[62]: 319  LLC: 2048
rand_sets[62]: 319
Assign rand_sets[63]: 1846  LLC: 2048
rand_sets[63]: 1846
 CLEAN-RRIP-POLICY-1: 2-2-1-2-2-3-0-2- CLEAN-RRIP-POLICY-2: 2-2-1-2-2-3-0-2-
 DIRTY-RRIP-POLICY-1: 2-2-0-2-1-3-0-2- DIRTY-RRIP-POLICY-2: 2-2-0-2-1-3-0-2-
 PSEL width: 10
Heartbeat CPU 0 instructions: 10000002 cycles: 6559548 heartbeat IPC: 1.5245 cumulative IPC: 1.5245 (Simulation time: 0 hr 0 min 22 sec) 
Heartbeat CPU 0 instructions: 20000000 cycles: 12222211 heartbeat IPC: 1.76595 cumulative IPC: 1.63637 (Simulation time: 0 hr 0 min 42 sec) 
Heartbeat CPU 0 instructions: 30000003 cycles: 18204070 heartbeat IPC: 1.67172 cumulative IPC: 1.64798 (Simulation time: 0 hr 1 min 3 sec) 
Heartbeat CPU 0 instructions: 40000000 cycles: 24059392 heartbeat IPC: 1.70785 cumulative IPC: 1.66255 (Simulation time: 0 hr 1 min 25 sec) 
Heartbeat CPU 0 instructions: 50000000 cycles: 29527732 heartbeat IPC: 1.82871 cumulative IPC: 1.69332 (Simulation time: 0 hr 1 min 45 sec) 
Heartbeat CPU 0 instructions: 60000000 cycles: 35640525 heartbeat IPC: 1.63591 cumulative IPC: 1.68348 (Simulation time: 0 hr 2 min 7 sec) 
Heartbeat CPU 0 instructions: 70000000 cycles: 41360190 heartbeat IPC: 1.74835 cumulative IPC: 1.69245 (Simulation time: 0 hr 2 min 28 sec) 
Heartbeat CPU 0 instructions: 80000000 cycles: 47231143 heartbeat IPC: 1.7033 cumulative IPC: 1.6938 (Simulation time: 0 hr 2 min 50 sec) 
Heartbeat CPU 0 instructions: 90000000 cycles: 52984698 heartbeat IPC: 1.73806 cumulative IPC: 1.6986 (Simulation time: 0 hr 3 min 11 sec) 
Heartbeat CPU 0 instructions: 100000000 cycles: 58537150 heartbeat IPC: 1.80101 cumulative IPC: 1.70832 (Simulation time: 0 hr 3 min 32 sec) 

Warmup complete CPU 0 instructions: 100000004 cycles: 58537152 (Simulation time: 0 hr 3 min 32 sec) 

Heartbeat CPU 0 instructions: 110000001 cycles: 72809844 heartbeat IPC: 0.700639 cumulative IPC: 0.700638 (Simulation time: 0 hr 3 min 59 sec) 
Heartbeat CPU 0 instructions: 120000000 cycles: 83159859 heartbeat IPC: 0.966182 cumulative IPC: 0.812258 (Simulation time: 0 hr 4 min 24 sec) 
Heartbeat CPU 0 instructions: 130000000 cycles: 93471637 heartbeat IPC: 0.969765 cumulative IPC: 0.85875 (Simulation time: 0 hr 4 min 47 sec) 
Heartbeat CPU 0 instructions: 140000000 cycles: 104593797 heartbeat IPC: 0.899106 cumulative IPC: 0.868496 (Simulation time: 0 hr 5 min 12 sec) 
Heartbeat CPU 0 instructions: 150000002 cycles: 115615915 heartbeat IPC: 0.907267 cumulative IPC: 0.875983 (Simulation time: 0 hr 5 min 37 sec) 
Heartbeat CPU 0 instructions: 160000000 cycles: 125002131 heartbeat IPC: 1.06539 cumulative IPC: 0.902731 (Simulation time: 0 hr 6 min 0 sec) 
Heartbeat CPU 0 instructions: 170000003 cycles: 135969703 heartbeat IPC: 0.911779 cumulative IPC: 0.904013 (Simulation time: 0 hr 6 min 24 sec) 
Heartbeat CPU 0 instructions: 180000000 cycles: 148491691 heartbeat IPC: 0.798595 cumulative IPC: 0.889338 (Simulation time: 0 hr 6 min 49 sec) 
Heartbeat CPU 0 instructions: 190000000 cycles: 163682684 heartbeat IPC: 0.658285 cumulative IPC: 0.855956 (Simulation time: 0 hr 7 min 15 sec) 
Heartbeat CPU 0 instructions: 200000000 cycles: 178880374 heartbeat IPC: 0.657995 cumulative IPC: 0.830957 (Simulation time: 0 hr 7 min 40 sec) 
Heartbeat CPU 0 instructions: 210000000 cycles: 194005499 heartbeat IPC: 0.661152 cumulative IPC: 0.811998 (Simulation time: 0 hr 8 min 5 sec) 
Heartbeat CPU 0 instructions: 220000000 cycles: 209901448 heartbeat IPC: 0.629091 cumulative IPC: 0.792789 (Simulation time: 0 hr 8 min 32 sec) 
Heartbeat CPU 0 instructions: 230000003 cycles: 228515159 heartbeat IPC: 0.537239 cumulative IPC: 0.764805 (Simulation time: 0 hr 9 min 2 sec) 
Heartbeat CPU 0 instructions: 240000000 cycles: 238306546 heartbeat IPC: 1.02131 cumulative IPC: 0.778775 (Simulation time: 0 hr 9 min 25 sec) 
Heartbeat CPU 0 instructions: 250000000 cycles: 247299594 heartbeat IPC: 1.11197 cumulative IPC: 0.79465 (Simulation time: 0 hr 9 min 48 sec) 
Heartbeat CPU 0 instructions: 260000000 cycles: 256613571 heartbeat IPC: 1.07366 cumulative IPC: 0.807769 (Simulation time: 0 hr 10 min 11 sec) 
Heartbeat CPU 0 instructions: 270000000 cycles: 266291737 heartbeat IPC: 1.03325 cumulative IPC: 0.818273 (Simulation time: 0 hr 10 min 34 sec) 
Heartbeat CPU 0 instructions: 280000000 cycles: 275913186 heartbeat IPC: 1.03934 cumulative IPC: 0.828058 (Simulation time: 0 hr 10 min 59 sec) 
Heartbeat CPU 0 instructions: 290000000 cycles: 285916185 heartbeat IPC: 0.9997 cumulative IPC: 0.835609 (Simulation time: 0 hr 11 min 25 sec) 
Heartbeat CPU 0 instructions: 300000000 cycles: 294915710 heartbeat IPC: 1.11117 cumulative IPC: 0.8461 (Simulation time: 0 hr 11 min 48 sec) 
Heartbeat CPU 0 instructions: 310000002 cycles: 309790290 heartbeat IPC: 0.672288 cumulative IPC: 0.83581 (Simulation time: 0 hr 12 min 16 sec) 
Heartbeat CPU 0 instructions: 320000000 cycles: 326358182 heartbeat IPC: 0.603577 cumulative IPC: 0.821444 (Simulation time: 0 hr 12 min 46 sec) 
Heartbeat CPU 0 instructions: 330000002 cycles: 337121181 heartbeat IPC: 0.929109 cumulative IPC: 0.825604 (Simulation time: 0 hr 13 min 10 sec) 
Heartbeat CPU 0 instructions: 340000000 cycles: 347917705 heartbeat IPC: 0.926224 cumulative IPC: 0.829358 (Simulation time: 0 hr 13 min 34 sec) 
Heartbeat CPU 0 instructions: 350000002 cycles: 361257502 heartbeat IPC: 0.749637 cumulative IPC: 0.825845 (Simulation time: 0 hr 14 min 1 sec) 
Heartbeat CPU 0 instructions: 360000000 cycles: 372722709 heartbeat IPC: 0.872204 cumulative IPC: 0.827536 (Simulation time: 0 hr 14 min 26 sec) 
Heartbeat CPU 0 instructions: 370000000 cycles: 383667785 heartbeat IPC: 0.913653 cumulative IPC: 0.830435 (Simulation time: 0 hr 14 min 51 sec) 
Heartbeat CPU 0 instructions: 380000000 cycles: 394477093 heartbeat IPC: 0.925129 cumulative IPC: 0.833482 (Simulation time: 0 hr 15 min 16 sec) 
Heartbeat CPU 0 instructions: 390000003 cycles: 412092766 heartbeat IPC: 0.567676 cumulative IPC: 0.820239 (Simulation time: 0 hr 15 min 45 sec) 
Heartbeat CPU 0 instructions: 400000000 cycles: 422769860 heartbeat IPC: 0.936584 cumulative IPC: 0.823649 (Simulation time: 0 hr 16 min 8 sec) 
Heartbeat CPU 0 instructions: 410000002 cycles: 433210692 heartbeat IPC: 0.957778 cumulative IPC: 0.827387 (Simulation time: 0 hr 16 min 31 sec) 
Heartbeat CPU 0 instructions: 420000000 cycles: 443432249 heartbeat IPC: 0.978324 cumulative IPC: 0.831395 (Simulation time: 0 hr 16 min 53 sec) 
Heartbeat CPU 0 instructions: 430000003 cycles: 453725686 heartbeat IPC: 0.971493 cumulative IPC: 0.835044 (Simulation time: 0 hr 17 min 15 sec) 
Heartbeat CPU 0 instructions: 440000000 cycles: 465393990 heartbeat IPC: 0.857022 cumulative IPC: 0.835675 (Simulation time: 0 hr 17 min 38 sec) 
Heartbeat CPU 0 instructions: 450000002 cycles: 480582830 heartbeat IPC: 0.658378 cumulative IPC: 0.829294 (Simulation time: 0 hr 18 min 3 sec) 
Heartbeat CPU 0 instructions: 460000000 cycles: 495781076 heartbeat IPC: 0.657971 cumulative IPC: 0.823339 (Simulation time: 0 hr 18 min 27 sec) 
Heartbeat CPU 0 instructions: 470000003 cycles: 510907297 heartbeat IPC: 0.661104 cumulative IPC: 0.817914 (Simulation time: 0 hr 18 min 51 sec) 
Heartbeat CPU 0 instructions: 480000000 cycles: 526807804 heartbeat IPC: 0.628911 cumulative IPC: 0.811496 (Simulation time: 0 hr 19 min 17 sec) 
Heartbeat CPU 0 instructions: 490000002 cycles: 545484174 heartbeat IPC: 0.535436 cumulative IPC: 0.800909 (Simulation time: 0 hr 19 min 46 sec) 
Heartbeat CPU 0 instructions: 500000000 cycles: 555256733 heartbeat IPC: 1.02327 cumulative IPC: 0.805283 (Simulation time: 0 hr 20 min 8 sec) 
Heartbeat CPU 0 instructions: 510000002 cycles: 564294957 heartbeat IPC: 1.10641 cumulative IPC: 0.810665 (Simulation time: 0 hr 20 min 30 sec) 
Heartbeat CPU 0 instructions: 520000000 cycles: 573588644 heartbeat IPC: 1.076 cumulative IPC: 0.815452 (Simulation time: 0 hr 20 min 51 sec) 
Heartbeat CPU 0 instructions: 530000002 cycles: 583279202 heartbeat IPC: 1.03193 cumulative IPC: 0.81945 (Simulation time: 0 hr 21 min 14 sec) 
Heartbeat CPU 0 instructions: 540000000 cycles: 592854894 heartbeat IPC: 1.04431 cumulative IPC: 0.82348 (Simulation time: 0 hr 21 min 38 sec) 
Heartbeat CPU 0 instructions: 550000002 cycles: 602895001 heartbeat IPC: 0.996006 cumulative IPC: 0.826662 (Simulation time: 0 hr 22 min 2 sec) 
Heartbeat CPU 0 instructions: 560000000 cycles: 611891552 heartbeat IPC: 1.11154 cumulative IPC: 0.831294 (Simulation time: 0 hr 22 min 25 sec) 
Heartbeat CPU 0 instructions: 570000003 cycles: 626628263 heartbeat IPC: 0.678578 cumulative IPC: 0.827332 (Simulation time: 0 hr 22 min 52 sec) 
Heartbeat CPU 0 instructions: 580000000 cycles: 643297441 heartbeat IPC: 0.599909 cumulative IPC: 0.820849 (Simulation time: 0 hr 23 min 21 sec) 
Heartbeat CPU 0 instructions: 590000002 cycles: 653661776 heartbeat IPC: 0.964847 cumulative IPC: 0.823357 (Simulation time: 0 hr 23 min 44 sec) 
Heartbeat CPU 0 instructions: 600000000 cycles: 664875012 heartbeat IPC: 0.891803 cumulative IPC: 0.824623 (Simulation time: 0 hr 24 min 9 sec) 
Finished CPU 0 instructions: 500000000 cycles: 606337879 cumulative IPC: 0.824623 (Simulation time: 0 hr 24 min 9 sec) 

CPU 0 Branch Prediction Accuracy: 99.5219% MPKI: 0.251582
Number of Branches: 26312578 Number of Mispredictions: 125791
Number of LOAD Instructions: 235643083
Number of LOAD Instructions (ROI): 235643083
Number of STORE Instructions: 37593550
Number of STORE Instructions (ROI): 37593550
Total Destination Memory Operands: 40480968
Total Destination Memory Operands (ROI): 40480968
Total Source Memory Operands: 235643083
Total Source Memory Operands (ROI): 235643083
Number of DEPENDED LOADS: 6699716
Number of DEPENDED LOADS (ROI): 6699716
Number of SQ_ADDED: 40480950
Number of SQ_ADDED (ROI): 40480950
Number of LQ_ADDED: 394105181
Number of LQ_ADDED (ROI): 394105181
Number of Instructions read from trace: 600000259

ChampSim completed all CPUs

Region of Interest Statistics

CPU 0 cumulative IPC: 0.824623 instructions: 500000000 cycles: 606337879
ITLB TOTAL     ACCESS:  109361643  HIT:  109361130  MISS:        513
ITLB LOAD      ACCESS:  109361643  HIT:  109361130  MISS:        513
ITLB RFO       ACCESS:          0  HIT:          0  MISS:          0
ITLB PREFETCH  ACCESS:          0  HIT:          0  MISS:          0
ITLB WRITEBACK ACCESS:          0  HIT:          0  MISS:          0
ITLB PREFETCH  REQUESTED:          0  ISSUED:          0  USEFUL:          0  USELESS:          0
ITLB TOTAL MSHR MERGED:        980
ITLB LOAD MSHR MERGED:        980
ITLB RFO MSHR MERGED:          0
ITLB PREFETCH MSHR MERGED:          0
ITLB WRITEBACK MSHR MERGED:          0
ITLB TOTAL ACCESSES:  109362623 HITS:  109361130 MISSES:       1493
ITLB LOAD ACCESSES:  109362623 HITS:  109361130 MISSES:       1493
ITLB RFO ACCESSES:          0 HITS:          0 MISSES:          0
ITLB PREFETCH ACCESSES:          0 HITS:          0 MISSES:          0
ITLB WRITEBACK ACCESSES:          0 HITS:          0 MISSES:          0
ITLB RQ ACCESS:  500000003
ITLB RQ TO_CACHE:  109362623
ITLB RQ MERGED:  390637380
ITLB RQ FORWARD:          0
ITLB WQ ACCESS:          0
ITLB WQ TO_CACHE:          0
ITLB WQ MERGED:          0
ITLB WQ FORWARD:          0
DTLB TOTAL     ACCESS:  130408596  HIT:  130150883  MISS:     257713
DTLB LOAD      ACCESS:  109037916  HIT:  108817069  MISS:     220847
DTLB RFO       ACCESS:   21370680  HIT:   21333814  MISS:      36866
DTLB PREFETCH  ACCESS:          0  HIT:          0  MISS:          0
DTLB WRITEBACK ACCESS:          0  HIT:          0  MISS:          0
DTLB PREFETCH  REQUESTED:          0  ISSUED:          0  USEFUL:          0  USELESS:          0
DTLB TOTAL MSHR MERGED:     122693
DTLB LOAD MSHR MERGED:      84767
DTLB RFO MSHR MERGED:      37926
DTLB PREFETCH MSHR MERGED:          0
DTLB WRITEBACK MSHR MERGED:          0
DTLB TOTAL ACCESSES:  130531289 HITS:  130150883 MISSES:     380406
DTLB LOAD ACCESSES:  109122683 HITS:  108817069 MISSES:     305614
DTLB RFO ACCESSES:   21408606 HITS:   21333814 MISSES:      74792
DTLB PREFETCH ACCESSES:          0 HITS:          0 MISSES:          0
DTLB WRITEBACK ACCESSES:          0 HITS:          0 MISSES:          0
DTLB RQ ACCESS:  218634701
DTLB RQ TO_CACHE:  130531290
DTLB RQ MERGED:   88103411
DTLB RQ FORWARD:          0
DTLB WQ ACCESS:          0
DTLB WQ TO_CACHE:          0
DTLB WQ MERGED:          0
DTLB WQ FORWARD:          0
L1D TOTAL     ACCESS:  204658456  HIT:  193588148  MISS:   11070308
L1D LOAD      ACCESS:  106219632  HIT:  103006135  MISS:    3213497
L1D RFO       ACCESS:   26956752  HIT:   25205292  MISS:    1751460
L1D PREFETCH  ACCESS:   71482072  HIT:   65376721  MISS:    6105351
L1D WRITEBACK ACCESS:          0  HIT:          0  MISS:          0
L1D PREFETCH  REQUESTED:  108938136  ISSUED:  107283194  USEFUL:    5653732  USELESS:     451613
L1D TOTAL MSHR MERGED:   18360569
L1D LOAD MSHR MERGED:    4773206
L1D RFO MSHR MERGED:    6474416
L1D PREFETCH MSHR MERGED:    7112947
L1D WRITEBACK MSHR MERGED:          0
L1D TOTAL ACCESSES:  223083185 HITS:  193652308 MISSES:   29430877
L1D LOAD ACCESSES:  108966061 HITS:  103034060 MISSES:    5932001
L1D RFO ACCESSES:   33428389 HITS:   25205292 MISSES:    8223097
L1D PREFETCH ACCESSES:   80688735 HITS:   65412956 MISSES:   15275779
L1D WRITEBACK ACCESSES:          0 HITS:          0 MISSES:          0
L1D RQ ACCESS:  184991263
L1D RQ TO_CACHE:  108938136
L1D RQ MERGED:   76025202
L1D RQ FORWARD:          0
L1D WQ ACCESS:   33643426
L1D WQ TO_CACHE:   33428388
L1D WQ MERGED:     215038
L1D WQ FORWARD:      64160
L1I TOTAL     ACCESS:  134037803  HIT:  134013225  MISS:      24578
L1I LOAD      ACCESS:  134037803  HIT:  134013225  MISS:      24578
L1I RFO       ACCESS:          0  HIT:          0  MISS:          0
L1I PREFETCH  ACCESS:          0  HIT:          0  MISS:          0
L1I WRITEBACK ACCESS:          0  HIT:          0  MISS:          0
L1I PREFETCH  REQUESTED:          0  ISSUED:          0  USEFUL:          0  USELESS:          0
L1I TOTAL MSHR MERGED:      30638
L1I LOAD MSHR MERGED:      30638
L1I RFO MSHR MERGED:          0
L1I PREFETCH MSHR MERGED:          0
L1I WRITEBACK MSHR MERGED:          0
L1I TOTAL ACCESSES:  134068441 HITS:  134013225 MISSES:      55216
L1I LOAD ACCESSES:  134068441 HITS:  134013225 MISSES:      55216
L1I RFO ACCESSES:          0 HITS:          0 MISSES:          0
L1I PREFETCH ACCESSES:          0 HITS:          0 MISSES:          0
L1I WRITEBACK ACCESSES:          0 HITS:          0 MISSES:          0
L1I RQ ACCESS:  500000005
L1I RQ TO_CACHE:  134068441
L1I RQ MERGED:  365931564
L1I RQ FORWARD:          0
L1I WQ ACCESS:          0
L1I WQ TO_CACHE:          0
L1I WQ MERGED:          0
L1I WQ FORWARD:          0
L2C TOTAL     ACCESS:   14942582  HIT:    6947074  MISS:    7995508
L2C LOAD      ACCESS:    1183192  HIT:     298706  MISS:     884486
L2C RFO       ACCESS:    1748474  HIT:     369323  MISS:    1379151
L2C PREFETCH  ACCESS:    8328960  HIT:    2605774  MISS:    5723186
L2C WRITEBACK ACCESS:    3681956  HIT:    3673271  MISS:       8685
L2C PREFETCH  REQUESTED:     387555  ISSUED:     387550  USEFUL:     113941  USELESS:    5610080
L2C TOTAL MSHR MERGED:      42482
L2C LOAD MSHR MERGED:       2168
L2C RFO MSHR MERGED:       1316
L2C PREFETCH MSHR MERGED:      38998
L2C WRITEBACK MSHR MERGED:          0
L2C TOTAL ACCESSES:   15098613 HITS:    6947737 MISSES:    8150876
L2C LOAD ACCESSES:    1183373 HITS:     298887 MISSES:     884486
L2C RFO ACCESSES:    1748681 HITS:     369530 MISSES:    1379151
L2C PREFETCH ACCESSES:    8484603 HITS:    2606049 MISSES:    5878554
L2C WRITEBACK ACCESSES:    3681956 HITS:    3673271 MISSES:       8685
L2C RQ ACCESS:    2932054
L2C RQ TO_CACHE:    2931666
L2C RQ MERGED:          0
L2C RQ FORWARD:          0
L2C WQ ACCESS:    3681956
L2C WQ TO_CACHE:    3681956
L2C WQ MERGED:          0
L2C WQ FORWARD:        663
LLC TOTAL     ACCESS:   11177998  HIT:    3658953  MISS:    7519045
LLC LOAD      ACCESS:     882314  HIT:     273130  MISS:     609184
LLC RFO       ACCESS:    1377831  HIT:     192163  MISS:    1185668
LLC PREFETCH  ACCESS:    5814196  HIT:    1212354  MISS:    4601842
LLC WRITEBACK ACCESS:    3103657  HIT:    1981306  MISS:    1122351
LLC PREFETCH  REQUESTED:          0  ISSUED:          0  USEFUL:     163660  USELESS:    4433272
LLC TOTAL MSHR MERGED:      18016
LLC LOAD MSHR MERGED:       5209
LLC RFO MSHR MERGED:        626
LLC PREFETCH MSHR MERGED:      12181
LLC WRITEBACK MSHR MERGED:          0
LLC TOTAL ACCESSES:   11196033 HITS:    3658972 MISSES:    7537061
LLC LOAD ACCESSES:     882318 HITS:     273134 MISSES:     609184
LLC RFO ACCESSES:    1377835 HITS:     192167 MISSES:    1185668
LLC PREFETCH ACCESSES:    5832223 HITS:    1212365 MISSES:    4619858
LLC WRITEBACK ACCESSES:    3103657 HITS:    1981306 MISSES:    1122351
LLC 0 RQ ACCESS:    2260153
LLC 0 RQ TO_CACHE:    2260145
LLC 0 RQ MERGED:          0
LLC 0 RQ FORWARD:          0
LLC WQ ACCESS:    3103657
LLC WQ TO_CACHE:    3103657
LLC WQ MERGED:          0
LLC WQ FORWARD:         19
Major fault: 0 Minor fault: 11519
CPU 0 L1D next line prefetcher final stats
CPU 0 L2C PC-based stride prefetcher final stats
All Misses: 9401874
All Hits: 4387400
SD Algo Stats - Switches: 0 SRR-Repls: 685027 BRR-Repls: 0

DRAM Statistics
 CHANNEL 0
 RQ ROW_BUFFER_HIT:    3738326  ROW_BUFFER_MISS:    2656423
 DBUS_CONGESTED:    4704754
 WQ ROW_BUFFER_HIT:     454088  ROW_BUFFER_MISS:    1940216  FULL:          0

 AVG_CONGESTED_CYCLE: 13
LOADS RETIRED: 190375692
INSTR RETIRED: 500000000
