
*** ChampSim Multicore Out-of-Order Simulator ***

Warmup Instructions: 100000000
Simulation Instructions: 500000000
Number of CPUs: 1
LLC sets: 2048
LLC ways: 16
Clean RRIP Policies: 1122030111220301 Dirty RRIP Policies: 2112130121121301 PSEL Width: 10 Track Set: 4294967295 PSEL Mask: 1 Demote Mask: 2230141022301410DS Algo: 0Window size: 0
Off-chip DRAM Size: 4096 MB Channels: 1 Width: 64-bit Data Rate: 1600 MT/s

CPU 0 runs /mnt/beegfs/iconst01/spec2017/Gcc.trace.gz
NOT SORTED
TRACE STRING: /mnt/beegfs/iconst01/spec2017/Gcc.trace.gz
SORTED
TRACE STRING: /mnt/beegfs/iconst01/spec2017/Gcc.trace.gz
INITIAL
TRACE STRING: /mnt/beegfs/iconst01/spec2017/Gcc.trace.gz

champsim_seed used: 269

CPU 0 L1D next line prefetcher
CPU 0 L2C IP-based stride prefetcher
Initialize DRRIP state
Assign rand_sets[0]: 454  LLC: 2048
rand_sets[0]: 454
Assign rand_sets[1]: 1662  LLC: 2048
rand_sets[1]: 1662
Assign rand_sets[2]: 1921  LLC: 2048
rand_sets[2]: 1921
Assign rand_sets[3]: 1131  LLC: 2048
rand_sets[3]: 1131
Assign rand_sets[4]: 331  LLC: 2048
rand_sets[4]: 331
Assign rand_sets[5]: 1531  LLC: 2048
rand_sets[5]: 1531
Assign rand_sets[6]: 482  LLC: 2048
rand_sets[6]: 482
Assign rand_sets[7]: 1275  LLC: 2048
rand_sets[7]: 1275
Assign rand_sets[8]: 1876  LLC: 2048
rand_sets[8]: 1876
Assign rand_sets[9]: 2038  LLC: 2048
rand_sets[9]: 2038
Assign rand_sets[10]: 701  LLC: 2048
rand_sets[10]: 701
Assign rand_sets[11]: 479  LLC: 2048
rand_sets[11]: 479
Assign rand_sets[12]: 892  LLC: 2048
rand_sets[12]: 892
Assign rand_sets[13]: 1820  LLC: 2048
rand_sets[13]: 1820
Assign rand_sets[14]: 1505  LLC: 2048
rand_sets[14]: 1505
Assign rand_sets[15]: 1159  LLC: 2048
rand_sets[15]: 1159
Assign rand_sets[16]: 513  LLC: 2048
rand_sets[16]: 513
Assign rand_sets[17]: 703  LLC: 2048
rand_sets[17]: 703
Assign rand_sets[18]: 561  LLC: 2048
rand_sets[18]: 561
Assign rand_sets[19]: 990  LLC: 2048
rand_sets[19]: 990
Assign rand_sets[20]: 342  LLC: 2048
rand_sets[20]: 342
Assign rand_sets[21]: 882  LLC: 2048
rand_sets[21]: 882
Assign rand_sets[22]: 15  LLC: 2048
rand_sets[22]: 15
Assign rand_sets[23]: 71  LLC: 2048
rand_sets[23]: 71
Assign rand_sets[24]: 1127  LLC: 2048
rand_sets[24]: 1127
Assign rand_sets[25]: 1382  LLC: 2048
rand_sets[25]: 1382
Assign rand_sets[26]: 647  LLC: 2048
rand_sets[26]: 647
Assign rand_sets[27]: 857  LLC: 2048
rand_sets[27]: 857
Assign rand_sets[28]: 1450  LLC: 2048
rand_sets[28]: 1450
Assign rand_sets[29]: 1160  LLC: 2048
rand_sets[29]: 1160
Assign rand_sets[30]: 1852  LLC: 2048
rand_sets[30]: 1852
Assign rand_sets[31]: 1881  LLC: 2048
rand_sets[31]: 1881
Assign rand_sets[32]: 1770  LLC: 2048
rand_sets[32]: 1770
Assign rand_sets[33]: 1622  LLC: 2048
rand_sets[33]: 1622
Assign rand_sets[34]: 275  LLC: 2048
rand_sets[34]: 275
Assign rand_sets[35]: 635  LLC: 2048
rand_sets[35]: 635
Assign rand_sets[36]: 466  LLC: 2048
rand_sets[36]: 466
Assign rand_sets[37]: 1413  LLC: 2048
rand_sets[37]: 1413
Assign rand_sets[38]: 417  LLC: 2048
rand_sets[38]: 417
Assign rand_sets[39]: 472  LLC: 2048
rand_sets[39]: 472
Assign rand_sets[40]: 1340  LLC: 2048
rand_sets[40]: 1340
Assign rand_sets[41]: 852  LLC: 2048
rand_sets[41]: 852
Assign rand_sets[42]: 1365  LLC: 2048
rand_sets[42]: 1365
Assign rand_sets[43]: 47  LLC: 2048
rand_sets[43]: 47
Assign rand_sets[44]: 823  LLC: 2048
rand_sets[44]: 823
Assign rand_sets[45]: 686  LLC: 2048
rand_sets[45]: 686
Assign rand_sets[46]: 1637  LLC: 2048
rand_sets[46]: 1637
Assign rand_sets[47]: 1115  LLC: 2048
rand_sets[47]: 1115
Assign rand_sets[48]: 986  LLC: 2048
rand_sets[48]: 986
Assign rand_sets[49]: 258  LLC: 2048
rand_sets[49]: 258
Assign rand_sets[50]: 633  LLC: 2048
rand_sets[50]: 633
Assign rand_sets[51]: 920  LLC: 2048
rand_sets[51]: 920
Assign rand_sets[52]: 204  LLC: 2048
rand_sets[52]: 204
Assign rand_sets[53]: 227  LLC: 2048
rand_sets[53]: 227
Assign rand_sets[54]: 1818  LLC: 2048
rand_sets[54]: 1818
Assign rand_sets[55]: 886  LLC: 2048
rand_sets[55]: 886
Assign rand_sets[56]: 1422  LLC: 2048
rand_sets[56]: 1422
Assign rand_sets[57]: 607  LLC: 2048
rand_sets[57]: 607
Assign rand_sets[58]: 217  LLC: 2048
rand_sets[58]: 217
Assign rand_sets[59]: 1945  LLC: 2048
rand_sets[59]: 1945
Assign rand_sets[60]: 143  LLC: 2048
rand_sets[60]: 143
Assign rand_sets[61]: 1311  LLC: 2048
rand_sets[61]: 1311
Assign rand_sets[62]: 319  LLC: 2048
rand_sets[62]: 319
Assign rand_sets[63]: 1846  LLC: 2048
rand_sets[63]: 1846
 CLEAN-RRIP-POLICY-1: 1-1-2-2-0-3-0-1- CLEAN-RRIP-POLICY-2: 1-1-2-2-0-3-0-1-
 DIRTY-RRIP-POLICY-1: 2-1-1-2-1-3-0-1- DIRTY-RRIP-POLICY-2: 2-1-1-2-1-3-0-1-
 PSEL width: 10
Heartbeat CPU 0 instructions: 10000001 cycles: 7315913 heartbeat IPC: 1.36688 cumulative IPC: 1.36688 (Simulation time: 0 hr 0 min 14 sec) 
Heartbeat CPU 0 instructions: 20000000 cycles: 14307379 heartbeat IPC: 1.43032 cumulative IPC: 1.39788 (Simulation time: 0 hr 0 min 29 sec) 
Heartbeat CPU 0 instructions: 30000001 cycles: 21020286 heartbeat IPC: 1.48967 cumulative IPC: 1.42719 (Simulation time: 0 hr 0 min 45 sec) 
Heartbeat CPU 0 instructions: 40000000 cycles: 27481153 heartbeat IPC: 1.54778 cumulative IPC: 1.45554 (Simulation time: 0 hr 1 min 2 sec) 
Heartbeat CPU 0 instructions: 50000001 cycles: 33582910 heartbeat IPC: 1.63887 cumulative IPC: 1.48885 (Simulation time: 0 hr 1 min 17 sec) 
Heartbeat CPU 0 instructions: 60000000 cycles: 40064114 heartbeat IPC: 1.54292 cumulative IPC: 1.4976 (Simulation time: 0 hr 1 min 34 sec) 
Heartbeat CPU 0 instructions: 70000000 cycles: 47102239 heartbeat IPC: 1.42083 cumulative IPC: 1.48613 (Simulation time: 0 hr 1 min 49 sec) 
Heartbeat CPU 0 instructions: 80000000 cycles: 54191795 heartbeat IPC: 1.41053 cumulative IPC: 1.47624 (Simulation time: 0 hr 2 min 4 sec) 
Heartbeat CPU 0 instructions: 90000003 cycles: 61196116 heartbeat IPC: 1.42769 cumulative IPC: 1.47068 (Simulation time: 0 hr 2 min 19 sec) 
Heartbeat CPU 0 instructions: 100000000 cycles: 68363333 heartbeat IPC: 1.39524 cumulative IPC: 1.46277 (Simulation time: 0 hr 2 min 34 sec) 

Warmup complete CPU 0 instructions: 100000004 cycles: 68363334 (Simulation time: 0 hr 2 min 34 sec) 

Heartbeat CPU 0 instructions: 110000003 cycles: 96000047 heartbeat IPC: 0.361838 cumulative IPC: 0.361838 (Simulation time: 0 hr 3 min 3 sec) 
Heartbeat CPU 0 instructions: 120000000 cycles: 123464244 heartbeat IPC: 0.36411 cumulative IPC: 0.36297 (Simulation time: 0 hr 3 min 33 sec) 
Heartbeat CPU 0 instructions: 130000000 cycles: 148451586 heartbeat IPC: 0.400203 cumulative IPC: 0.374587 (Simulation time: 0 hr 4 min 2 sec) 
Heartbeat CPU 0 instructions: 140000000 cycles: 177878639 heartbeat IPC: 0.339823 cumulative IPC: 0.365246 (Simulation time: 0 hr 4 min 31 sec) 
Heartbeat CPU 0 instructions: 150000000 cycles: 207707881 heartbeat IPC: 0.335241 cumulative IPC: 0.358823 (Simulation time: 0 hr 5 min 0 sec) 
Heartbeat CPU 0 instructions: 160000000 cycles: 235102706 heartbeat IPC: 0.365032 cumulative IPC: 0.359843 (Simulation time: 0 hr 5 min 28 sec) 
Heartbeat CPU 0 instructions: 170000001 cycles: 263122937 heartbeat IPC: 0.356885 cumulative IPC: 0.359417 (Simulation time: 0 hr 5 min 58 sec) 
Heartbeat CPU 0 instructions: 180000000 cycles: 291560451 heartbeat IPC: 0.351648 cumulative IPC: 0.358428 (Simulation time: 0 hr 6 min 28 sec) 
Heartbeat CPU 0 instructions: 190000002 cycles: 319561829 heartbeat IPC: 0.357125 cumulative IPC: 0.358282 (Simulation time: 0 hr 6 min 57 sec) 
Heartbeat CPU 0 instructions: 200000000 cycles: 347884365 heartbeat IPC: 0.353076 cumulative IPC: 0.357755 (Simulation time: 0 hr 7 min 27 sec) 
Heartbeat CPU 0 instructions: 210000002 cycles: 375715267 heartbeat IPC: 0.359313 cumulative IPC: 0.357896 (Simulation time: 0 hr 7 min 56 sec) 
Heartbeat CPU 0 instructions: 220000000 cycles: 404809424 heartbeat IPC: 0.343712 cumulative IPC: 0.356669 (Simulation time: 0 hr 8 min 24 sec) 
Heartbeat CPU 0 instructions: 230000000 cycles: 432333932 heartbeat IPC: 0.363313 cumulative IPC: 0.357172 (Simulation time: 0 hr 8 min 52 sec) 
Heartbeat CPU 0 instructions: 240000000 cycles: 458256217 heartbeat IPC: 0.385768 cumulative IPC: 0.359073 (Simulation time: 0 hr 9 min 20 sec) 
Heartbeat CPU 0 instructions: 250000000 cycles: 488373732 heartbeat IPC: 0.332033 cumulative IPC: 0.357134 (Simulation time: 0 hr 9 min 50 sec) 
Heartbeat CPU 0 instructions: 260000000 cycles: 515463038 heartbeat IPC: 0.369149 cumulative IPC: 0.357862 (Simulation time: 0 hr 10 min 19 sec) 
Heartbeat CPU 0 instructions: 270000003 cycles: 543921550 heartbeat IPC: 0.351389 cumulative IPC: 0.357475 (Simulation time: 0 hr 10 min 49 sec) 
Heartbeat CPU 0 instructions: 280000000 cycles: 572110102 heartbeat IPC: 0.354754 cumulative IPC: 0.357322 (Simulation time: 0 hr 11 min 19 sec) 
Heartbeat CPU 0 instructions: 290000000 cycles: 601006049 heartbeat IPC: 0.346069 cumulative IPC: 0.356712 (Simulation time: 0 hr 11 min 49 sec) 
Heartbeat CPU 0 instructions: 300000000 cycles: 630908377 heartbeat IPC: 0.334422 cumulative IPC: 0.355527 (Simulation time: 0 hr 12 min 18 sec) 
Heartbeat CPU 0 instructions: 310000001 cycles: 660267986 heartbeat IPC: 0.340604 cumulative IPC: 0.354787 (Simulation time: 0 hr 12 min 47 sec) 
Heartbeat CPU 0 instructions: 320000000 cycles: 688452432 heartbeat IPC: 0.354806 cumulative IPC: 0.354788 (Simulation time: 0 hr 13 min 15 sec) 
Heartbeat CPU 0 instructions: 330000000 cycles: 717062471 heartbeat IPC: 0.349528 cumulative IPC: 0.354556 (Simulation time: 0 hr 13 min 44 sec) 
Heartbeat CPU 0 instructions: 340000000 cycles: 746326043 heartbeat IPC: 0.341722 cumulative IPC: 0.354002 (Simulation time: 0 hr 14 min 13 sec) 
Heartbeat CPU 0 instructions: 350000003 cycles: 773327764 heartbeat IPC: 0.370347 cumulative IPC: 0.354628 (Simulation time: 0 hr 14 min 41 sec) 
Heartbeat CPU 0 instructions: 360000000 cycles: 801404905 heartbeat IPC: 0.356162 cumulative IPC: 0.354687 (Simulation time: 0 hr 15 min 9 sec) 
Heartbeat CPU 0 instructions: 370000000 cycles: 829562572 heartbeat IPC: 0.355143 cumulative IPC: 0.354703 (Simulation time: 0 hr 15 min 37 sec) 
Heartbeat CPU 0 instructions: 380000000 cycles: 858037141 heartbeat IPC: 0.351191 cumulative IPC: 0.354577 (Simulation time: 0 hr 16 min 5 sec) 
Heartbeat CPU 0 instructions: 390000001 cycles: 885619341 heartbeat IPC: 0.362553 cumulative IPC: 0.354846 (Simulation time: 0 hr 16 min 32 sec) 
Heartbeat CPU 0 instructions: 400000000 cycles: 914215805 heartbeat IPC: 0.349694 cumulative IPC: 0.354672 (Simulation time: 0 hr 17 min 0 sec) 
Heartbeat CPU 0 instructions: 410000001 cycles: 941484046 heartbeat IPC: 0.366727 cumulative IPC: 0.355048 (Simulation time: 0 hr 17 min 27 sec) 
Heartbeat CPU 0 instructions: 420000000 cycles: 968759960 heartbeat IPC: 0.366624 cumulative IPC: 0.355399 (Simulation time: 0 hr 17 min 55 sec) 
Heartbeat CPU 0 instructions: 430000002 cycles: 996422815 heartbeat IPC: 0.361496 cumulative IPC: 0.355581 (Simulation time: 0 hr 18 min 22 sec) 
Heartbeat CPU 0 instructions: 440000000 cycles: 1025944072 heartbeat IPC: 0.338739 cumulative IPC: 0.355061 (Simulation time: 0 hr 18 min 50 sec) 
Heartbeat CPU 0 instructions: 450000002 cycles: 1055148834 heartbeat IPC: 0.34241 cumulative IPC: 0.354687 (Simulation time: 0 hr 19 min 17 sec) 
Heartbeat CPU 0 instructions: 460000000 cycles: 1082814565 heartbeat IPC: 0.361458 cumulative IPC: 0.354872 (Simulation time: 0 hr 19 min 44 sec) 
Heartbeat CPU 0 instructions: 470000000 cycles: 1110419974 heartbeat IPC: 0.362248 cumulative IPC: 0.355067 (Simulation time: 0 hr 20 min 11 sec) 
Heartbeat CPU 0 instructions: 480000000 cycles: 1138277225 heartbeat IPC: 0.358973 cumulative IPC: 0.355169 (Simulation time: 0 hr 20 min 38 sec) 
Heartbeat CPU 0 instructions: 490000000 cycles: 1165836139 heartbeat IPC: 0.362859 cumulative IPC: 0.355362 (Simulation time: 0 hr 21 min 5 sec) 
Heartbeat CPU 0 instructions: 500000000 cycles: 1194122984 heartbeat IPC: 0.353521 cumulative IPC: 0.355316 (Simulation time: 0 hr 21 min 32 sec) 
Heartbeat CPU 0 instructions: 510000000 cycles: 1228689577 heartbeat IPC: 0.289297 cumulative IPC: 0.353349 (Simulation time: 0 hr 22 min 3 sec) 
Heartbeat CPU 0 instructions: 520000000 cycles: 1256672949 heartbeat IPC: 0.357355 cumulative IPC: 0.353443 (Simulation time: 0 hr 22 min 31 sec) 
Heartbeat CPU 0 instructions: 530000001 cycles: 1285929249 heartbeat IPC: 0.341807 cumulative IPC: 0.353164 (Simulation time: 0 hr 22 min 59 sec) 
Heartbeat CPU 0 instructions: 540000000 cycles: 1313944264 heartbeat IPC: 0.356951 cumulative IPC: 0.353249 (Simulation time: 0 hr 23 min 26 sec) 
Heartbeat CPU 0 instructions: 550000001 cycles: 1343131533 heartbeat IPC: 0.342615 cumulative IPC: 0.353005 (Simulation time: 0 hr 23 min 56 sec) 
Heartbeat CPU 0 instructions: 560000000 cycles: 1368497794 heartbeat IPC: 0.394224 cumulative IPC: 0.35381 (Simulation time: 0 hr 24 min 23 sec) 
Heartbeat CPU 0 instructions: 570000000 cycles: 1397939150 heartbeat IPC: 0.339658 cumulative IPC: 0.353496 (Simulation time: 0 hr 24 min 52 sec) 
Heartbeat CPU 0 instructions: 580000000 cycles: 1425871843 heartbeat IPC: 0.358003 cumulative IPC: 0.353589 (Simulation time: 0 hr 25 min 20 sec) 
Heartbeat CPU 0 instructions: 590000001 cycles: 1450657971 heartbeat IPC: 0.403452 cumulative IPC: 0.354483 (Simulation time: 0 hr 25 min 47 sec) 
Heartbeat CPU 0 instructions: 600000000 cycles: 1476774142 heartbeat IPC: 0.382904 cumulative IPC: 0.35501 (Simulation time: 0 hr 26 min 14 sec) 
Finished CPU 0 instructions: 500000000 cycles: 1408410830 cumulative IPC: 0.35501 (Simulation time: 0 hr 26 min 14 sec) 

CPU 0 Branch Prediction Accuracy: 86.4311% MPKI: 26.2662
Number of Branches: 96788573 Number of Mispredictions: 13133102
Number of LOAD Instructions: 164682285
Number of LOAD Instructions (ROI): 164682285
Number of STORE Instructions: 78194750
Number of STORE Instructions (ROI): 78194750
Total Destination Memory Operands: 83268534
Total Destination Memory Operands (ROI): 83268534
Total Source Memory Operands: 164712438
Total Source Memory Operands (ROI): 164712438
Number of DEPENDED LOADS: 7060326
Number of DEPENDED LOADS (ROI): 7060326
Number of SQ_ADDED: 83268522
Number of SQ_ADDED (ROI): 83268522
Number of LQ_ADDED: 236596979
Number of LQ_ADDED (ROI): 236596979
Number of Instructions read from trace: 600000066

ChampSim completed all CPUs

Region of Interest Statistics

CPU 0 cumulative IPC: 0.35501 instructions: 500000000 cycles: 1408410830
ITLB TOTAL     ACCESS:  100514574  HIT:  100310128  MISS:     204446
ITLB LOAD      ACCESS:  100514574  HIT:  100310128  MISS:     204446
ITLB RFO       ACCESS:          0  HIT:          0  MISS:          0
ITLB PREFETCH  ACCESS:          0  HIT:          0  MISS:          0
ITLB WRITEBACK ACCESS:          0  HIT:          0  MISS:          0
ITLB PREFETCH  REQUESTED:          0  ISSUED:          0  USEFUL:          0  USELESS:          0
ITLB TOTAL MSHR MERGED:     172424
ITLB LOAD MSHR MERGED:     172424
ITLB RFO MSHR MERGED:          0
ITLB PREFETCH MSHR MERGED:          0
ITLB WRITEBACK MSHR MERGED:          0
ITLB TOTAL ACCESSES:  100686998 HITS:  100310128 MISSES:     376870
ITLB LOAD ACCESSES:  100686998 HITS:  100310128 MISSES:     376870
ITLB RFO ACCESSES:          0 HITS:          0 MISSES:          0
ITLB PREFETCH ACCESSES:          0 HITS:          0 MISSES:          0
ITLB WRITEBACK ACCESSES:          0 HITS:          0 MISSES:          0
ITLB RQ ACCESS:  500000057
ITLB RQ TO_CACHE:  100686998
ITLB RQ MERGED:  399313059
ITLB RQ FORWARD:          0
ITLB WQ ACCESS:          0
ITLB WQ TO_CACHE:          0
ITLB WQ MERGED:          0
ITLB WQ FORWARD:          0
DTLB TOTAL     ACCESS:  165335734  HIT:  164701384  MISS:     634350
DTLB LOAD      ACCESS:  106291580  HIT:  105721644  MISS:     569936
DTLB RFO       ACCESS:   59044154  HIT:   58979740  MISS:      64414
DTLB PREFETCH  ACCESS:          0  HIT:          0  MISS:          0
DTLB WRITEBACK ACCESS:          0  HIT:          0  MISS:          0
DTLB PREFETCH  REQUESTED:          0  ISSUED:          0  USEFUL:          0  USELESS:          0
DTLB TOTAL MSHR MERGED:      99943
DTLB LOAD MSHR MERGED:      59447
DTLB RFO MSHR MERGED:      40496
DTLB PREFETCH MSHR MERGED:          0
DTLB WRITEBACK MSHR MERGED:          0
DTLB TOTAL ACCESSES:  165435677 HITS:  164701384 MISSES:     734293
DTLB LOAD ACCESSES:  106351027 HITS:  105721644 MISSES:     629383
DTLB RFO ACCESSES:   59084650 HITS:   58979740 MISSES:     104910
DTLB PREFETCH ACCESSES:          0 HITS:          0 MISSES:          0
DTLB WRITEBACK ACCESSES:          0 HITS:          0 MISSES:          0
DTLB RQ ACCESS:  200310604
DTLB RQ TO_CACHE:  165435677
DTLB RQ MERGED:   34874927
DTLB RQ FORWARD:          0
DTLB WQ ACCESS:          0
DTLB WQ TO_CACHE:          0
DTLB WQ MERGED:          0
DTLB WQ FORWARD:          0
L1D TOTAL     ACCESS:  281834842  HIT:  273925503  MISS:    7909339
L1D LOAD      ACCESS:  110423431  HIT:  107146964  MISS:    3276467
L1D RFO       ACCESS:   67109417  HIT:   66218383  MISS:     891034
L1D PREFETCH  ACCESS:  104301994  HIT:  100560156  MISS:    3741838
L1D WRITEBACK ACCESS:          0  HIT:          0  MISS:          0
L1D PREFETCH  REQUESTED:  110816226  ISSUED:  109116957  USEFUL:    1662594  USELESS:    2079208
L1D TOTAL MSHR MERGED:    2867514
L1D LOAD MSHR MERGED:     488742
L1D RFO MSHR MERGED:    1876921
L1D PREFETCH MSHR MERGED:     501851
L1D WRITEBACK MSHR MERGED:          0
L1D TOTAL ACCESSES:  284729883 HITS:  273953030 MISSES:   10776853
L1D LOAD ACCESSES:  110817747 HITS:  107148485 MISSES:    3669262
L1D RFO ACCESSES:   68974101 HITS:   66218383 MISSES:    2755718
L1D PREFETCH ACCESSES:  104938035 HITS:  100586162 MISSES:    4351873
L1D WRITEBACK ACCESSES:          0 HITS:          0 MISSES:          0
L1D RQ ACCESS:  130758001
L1D RQ TO_CACHE:  110816229
L1D RQ MERGED:   19940251
L1D RQ FORWARD:          0
L1D WQ ACCESS:   69552603
L1D WQ TO_CACHE:   68974102
L1D WQ MERGED:     578501
L1D WQ FORWARD:      27527
L1I TOTAL     ACCESS:  126561948  HIT:  122323395  MISS:    4238553
L1I LOAD      ACCESS:  126561948  HIT:  122323395  MISS:    4238553
L1I RFO       ACCESS:          0  HIT:          0  MISS:          0
L1I PREFETCH  ACCESS:          0  HIT:          0  MISS:          0
L1I WRITEBACK ACCESS:          0  HIT:          0  MISS:          0
L1I PREFETCH  REQUESTED:          0  ISSUED:          0  USEFUL:          0  USELESS:          0
L1I TOTAL MSHR MERGED:    1834601
L1I LOAD MSHR MERGED:    1834601
L1I RFO MSHR MERGED:          0
L1I PREFETCH MSHR MERGED:          0
L1I WRITEBACK MSHR MERGED:          0
L1I TOTAL ACCESSES:  128396552 HITS:  122323395 MISSES:    6073157
L1I LOAD ACCESSES:  128396552 HITS:  122323395 MISSES:    6073157
L1I RFO ACCESSES:          0 HITS:          0 MISSES:          0
L1I PREFETCH ACCESSES:          0 HITS:          0 MISSES:          0
L1I WRITEBACK ACCESSES:          0 HITS:          0 MISSES:          0
L1I RQ ACCESS:  500000057
L1I RQ TO_CACHE:  128396552
L1I RQ MERGED:  371603505
L1I RQ FORWARD:          0
L1I WQ ACCESS:          0
L1I WQ TO_CACHE:          0
L1I WQ MERGED:          0
L1I WQ FORWARD:          0
L2C TOTAL     ACCESS:   14904646  HIT:   11158214  MISS:    3746432
L2C LOAD      ACCESS:    7418865  HIT:    5098710  MISS:    2320155
L2C RFO       ACCESS:     878698  HIT:     409911  MISS:     468787
L2C PREFETCH  ACCESS:    4567843  HIT:    3627606  MISS:     940237
L2C WRITEBACK ACCESS:    2039240  HIT:    2021987  MISS:      17253
L2C PREFETCH  REQUESTED:     842799  ISSUED:     842799  USEFUL:     203195  USELESS:     736749
L2C TOTAL MSHR MERGED:       7649
L2C LOAD MSHR MERGED:        979
L2C RFO MSHR MERGED:          0
L2C PREFETCH MSHR MERGED:       6670
L2C WRITEBACK MSHR MERGED:          0
L2C TOTAL ACCESSES:   14913202 HITS:   11158666 MISSES:    3754536
L2C LOAD ACCESSES:    7419073 HITS:    5098918 MISSES:    2320155
L2C RFO ACCESSES:     878797 HITS:     410010 MISSES:     468787
L2C PREFETCH ACCESSES:    4576092 HITS:    3627751 MISSES:     948341
L2C WRITEBACK ACCESSES:    2039240 HITS:    2021987 MISSES:      17253
L2C RQ ACCESS:    8297873
L2C RQ TO_CACHE:    8297566
L2C RQ MERGED:          0
L2C RQ FORWARD:          0
L2C WQ ACCESS:    2039240
L2C WQ TO_CACHE:    2039240
L2C WQ MERGED:          0
L2C WQ FORWARD:        452
LLC TOTAL     ACCESS:    4609740  HIT:    3980151  MISS:     629589
LLC LOAD      ACCESS:    2319162  HIT:    2085545  MISS:     233617
LLC RFO       ACCESS:     468776  HIT:     385657  MISS:      83119
LLC PREFETCH  ACCESS:     941541  HIT:     677436  MISS:     264105
LLC WRITEBACK ACCESS:     880261  HIT:     831513  MISS:      48748
LLC PREFETCH  REQUESTED:          0  ISSUED:          0  USEFUL:      29733  USELESS:     235292
LLC TOTAL MSHR MERGED:        115
LLC LOAD MSHR MERGED:         38
LLC RFO MSHR MERGED:          0
LLC PREFETCH MSHR MERGED:         77
LLC WRITEBACK MSHR MERGED:          0
LLC TOTAL ACCESSES:    4609890 HITS:    3980186 MISSES:     629704
LLC LOAD ACCESSES:    2319176 HITS:    2085559 MISSES:     233617
LLC RFO ACCESSES:     468787 HITS:     385668 MISSES:      83119
LLC PREFETCH ACCESSES:     941666 HITS:     677446 MISSES:     264220
LLC WRITEBACK ACCESSES:     880261 HITS:     831513 MISSES:      48748
LLC 0 RQ ACCESS:    2787963
LLC 0 RQ TO_CACHE:    2787938
LLC 0 RQ MERGED:          0
LLC 0 RQ FORWARD:          0
LLC WQ ACCESS:     880261
LLC WQ TO_CACHE:     880261
LLC WQ MERGED:          0
LLC WQ FORWARD:         35
Major fault: 0 Minor fault: 12862
CPU 0 L1D next line prefetcher final stats
CPU 0 L2C PC-based stride prefetcher final stats
All Misses: 750408
All Hits: 4676338
SD Algo Stats - Switches: 0 SRR-Repls: 274241 BRR-Repls: 0

DRAM Statistics
 CHANNEL 0
 RQ ROW_BUFFER_HIT:     118785  ROW_BUFFER_MISS:     460186
 DBUS_CONGESTED:     372850
 WQ ROW_BUFFER_HIT:      17925  ROW_BUFFER_MISS:     196586  FULL:          0

 AVG_CONGESTED_CYCLE: 13
LOADS RETIRED: 136549171
INSTR RETIRED: 500000000
