
*** ChampSim Multicore Out-of-Order Simulator ***

Warmup Instructions: 100000000
Simulation Instructions: 500000000
Number of CPUs: 1
LLC sets: 2048
LLC ways: 16
Clean RRIP Policies: 2221030122210301 Dirty RRIP Policies: 2221132122211321 PSEL Width: 10 Track Set: 4294967295 PSEL Mask: 1 Demote Mask: 2233211022332110DS Algo: 0Window size: 0
Off-chip DRAM Size: 4096 MB Channels: 1 Width: 64-bit Data Rate: 1600 MT/s

CPU 0 runs /mnt/beegfs/iconst01/spec2017/Gcc.trace.gz
NOT SORTED
TRACE STRING: /mnt/beegfs/iconst01/spec2017/Gcc.trace.gz
SORTED
TRACE STRING: /mnt/beegfs/iconst01/spec2017/Gcc.trace.gz
INITIAL
TRACE STRING: /mnt/beegfs/iconst01/spec2017/Gcc.trace.gz

champsim_seed used: 269

CPU 0 L1D next line prefetcher
CPU 0 L2C IP-based stride prefetcher
Initialize DRRIP state
Assign rand_sets[0]: 454  LLC: 2048
rand_sets[0]: 454
Assign rand_sets[1]: 1662  LLC: 2048
rand_sets[1]: 1662
Assign rand_sets[2]: 1921  LLC: 2048
rand_sets[2]: 1921
Assign rand_sets[3]: 1131  LLC: 2048
rand_sets[3]: 1131
Assign rand_sets[4]: 331  LLC: 2048
rand_sets[4]: 331
Assign rand_sets[5]: 1531  LLC: 2048
rand_sets[5]: 1531
Assign rand_sets[6]: 482  LLC: 2048
rand_sets[6]: 482
Assign rand_sets[7]: 1275  LLC: 2048
rand_sets[7]: 1275
Assign rand_sets[8]: 1876  LLC: 2048
rand_sets[8]: 1876
Assign rand_sets[9]: 2038  LLC: 2048
rand_sets[9]: 2038
Assign rand_sets[10]: 701  LLC: 2048
rand_sets[10]: 701
Assign rand_sets[11]: 479  LLC: 2048
rand_sets[11]: 479
Assign rand_sets[12]: 892  LLC: 2048
rand_sets[12]: 892
Assign rand_sets[13]: 1820  LLC: 2048
rand_sets[13]: 1820
Assign rand_sets[14]: 1505  LLC: 2048
rand_sets[14]: 1505
Assign rand_sets[15]: 1159  LLC: 2048
rand_sets[15]: 1159
Assign rand_sets[16]: 513  LLC: 2048
rand_sets[16]: 513
Assign rand_sets[17]: 703  LLC: 2048
rand_sets[17]: 703
Assign rand_sets[18]: 561  LLC: 2048
rand_sets[18]: 561
Assign rand_sets[19]: 990  LLC: 2048
rand_sets[19]: 990
Assign rand_sets[20]: 342  LLC: 2048
rand_sets[20]: 342
Assign rand_sets[21]: 882  LLC: 2048
rand_sets[21]: 882
Assign rand_sets[22]: 15  LLC: 2048
rand_sets[22]: 15
Assign rand_sets[23]: 71  LLC: 2048
rand_sets[23]: 71
Assign rand_sets[24]: 1127  LLC: 2048
rand_sets[24]: 1127
Assign rand_sets[25]: 1382  LLC: 2048
rand_sets[25]: 1382
Assign rand_sets[26]: 647  LLC: 2048
rand_sets[26]: 647
Assign rand_sets[27]: 857  LLC: 2048
rand_sets[27]: 857
Assign rand_sets[28]: 1450  LLC: 2048
rand_sets[28]: 1450
Assign rand_sets[29]: 1160  LLC: 2048
rand_sets[29]: 1160
Assign rand_sets[30]: 1852  LLC: 2048
rand_sets[30]: 1852
Assign rand_sets[31]: 1881  LLC: 2048
rand_sets[31]: 1881
Assign rand_sets[32]: 1770  LLC: 2048
rand_sets[32]: 1770
Assign rand_sets[33]: 1622  LLC: 2048
rand_sets[33]: 1622
Assign rand_sets[34]: 275  LLC: 2048
rand_sets[34]: 275
Assign rand_sets[35]: 635  LLC: 2048
rand_sets[35]: 635
Assign rand_sets[36]: 466  LLC: 2048
rand_sets[36]: 466
Assign rand_sets[37]: 1413  LLC: 2048
rand_sets[37]: 1413
Assign rand_sets[38]: 417  LLC: 2048
rand_sets[38]: 417
Assign rand_sets[39]: 472  LLC: 2048
rand_sets[39]: 472
Assign rand_sets[40]: 1340  LLC: 2048
rand_sets[40]: 1340
Assign rand_sets[41]: 852  LLC: 2048
rand_sets[41]: 852
Assign rand_sets[42]: 1365  LLC: 2048
rand_sets[42]: 1365
Assign rand_sets[43]: 47  LLC: 2048
rand_sets[43]: 47
Assign rand_sets[44]: 823  LLC: 2048
rand_sets[44]: 823
Assign rand_sets[45]: 686  LLC: 2048
rand_sets[45]: 686
Assign rand_sets[46]: 1637  LLC: 2048
rand_sets[46]: 1637
Assign rand_sets[47]: 1115  LLC: 2048
rand_sets[47]: 1115
Assign rand_sets[48]: 986  LLC: 2048
rand_sets[48]: 986
Assign rand_sets[49]: 258  LLC: 2048
rand_sets[49]: 258
Assign rand_sets[50]: 633  LLC: 2048
rand_sets[50]: 633
Assign rand_sets[51]: 920  LLC: 2048
rand_sets[51]: 920
Assign rand_sets[52]: 204  LLC: 2048
rand_sets[52]: 204
Assign rand_sets[53]: 227  LLC: 2048
rand_sets[53]: 227
Assign rand_sets[54]: 1818  LLC: 2048
rand_sets[54]: 1818
Assign rand_sets[55]: 886  LLC: 2048
rand_sets[55]: 886
Assign rand_sets[56]: 1422  LLC: 2048
rand_sets[56]: 1422
Assign rand_sets[57]: 607  LLC: 2048
rand_sets[57]: 607
Assign rand_sets[58]: 217  LLC: 2048
rand_sets[58]: 217
Assign rand_sets[59]: 1945  LLC: 2048
rand_sets[59]: 1945
Assign rand_sets[60]: 143  LLC: 2048
rand_sets[60]: 143
Assign rand_sets[61]: 1311  LLC: 2048
rand_sets[61]: 1311
Assign rand_sets[62]: 319  LLC: 2048
rand_sets[62]: 319
Assign rand_sets[63]: 1846  LLC: 2048
rand_sets[63]: 1846
 CLEAN-RRIP-POLICY-1: 2-2-2-1-0-3-0-1- CLEAN-RRIP-POLICY-2: 2-2-2-1-0-3-0-1-
 DIRTY-RRIP-POLICY-1: 2-2-2-1-1-3-2-1- DIRTY-RRIP-POLICY-2: 2-2-2-1-1-3-2-1-
 PSEL width: 10
Heartbeat CPU 0 instructions: 10000001 cycles: 7315916 heartbeat IPC: 1.36688 cumulative IPC: 1.36688 (Simulation time: 0 hr 0 min 15 sec) 
Heartbeat CPU 0 instructions: 20000000 cycles: 14307703 heartbeat IPC: 1.43025 cumulative IPC: 1.39785 (Simulation time: 0 hr 0 min 29 sec) 
Heartbeat CPU 0 instructions: 30000001 cycles: 21020987 heartbeat IPC: 1.48958 cumulative IPC: 1.42715 (Simulation time: 0 hr 0 min 45 sec) 
Heartbeat CPU 0 instructions: 40000000 cycles: 27482030 heartbeat IPC: 1.54774 cumulative IPC: 1.4555 (Simulation time: 0 hr 1 min 1 sec) 
Heartbeat CPU 0 instructions: 50000001 cycles: 33584036 heartbeat IPC: 1.63881 cumulative IPC: 1.4888 (Simulation time: 0 hr 1 min 17 sec) 
Heartbeat CPU 0 instructions: 60000000 cycles: 40065450 heartbeat IPC: 1.54287 cumulative IPC: 1.49755 (Simulation time: 0 hr 1 min 33 sec) 
Heartbeat CPU 0 instructions: 70000000 cycles: 47105829 heartbeat IPC: 1.42038 cumulative IPC: 1.48602 (Simulation time: 0 hr 1 min 48 sec) 
Heartbeat CPU 0 instructions: 80000000 cycles: 54197830 heartbeat IPC: 1.41004 cumulative IPC: 1.47607 (Simulation time: 0 hr 2 min 2 sec) 
Heartbeat CPU 0 instructions: 90000003 cycles: 61205086 heartbeat IPC: 1.42709 cumulative IPC: 1.47047 (Simulation time: 0 hr 2 min 17 sec) 
Heartbeat CPU 0 instructions: 100000000 cycles: 68375289 heartbeat IPC: 1.39466 cumulative IPC: 1.46252 (Simulation time: 0 hr 2 min 31 sec) 

Warmup complete CPU 0 instructions: 100000004 cycles: 68375290 (Simulation time: 0 hr 2 min 31 sec) 

Heartbeat CPU 0 instructions: 110000003 cycles: 96459663 heartbeat IPC: 0.35607 cumulative IPC: 0.35607 (Simulation time: 0 hr 3 min 0 sec) 
Heartbeat CPU 0 instructions: 120000000 cycles: 124072089 heartbeat IPC: 0.362156 cumulative IPC: 0.359087 (Simulation time: 0 hr 3 min 29 sec) 
Heartbeat CPU 0 instructions: 130000000 cycles: 149211022 heartbeat IPC: 0.397789 cumulative IPC: 0.371123 (Simulation time: 0 hr 3 min 58 sec) 
Heartbeat CPU 0 instructions: 140000000 cycles: 179639345 heartbeat IPC: 0.328641 cumulative IPC: 0.359505 (Simulation time: 0 hr 4 min 26 sec) 
Heartbeat CPU 0 instructions: 150000000 cycles: 210057715 heartbeat IPC: 0.328749 cumulative IPC: 0.352902 (Simulation time: 0 hr 4 min 55 sec) 
Heartbeat CPU 0 instructions: 160000000 cycles: 237650210 heartbeat IPC: 0.362417 cumulative IPC: 0.354453 (Simulation time: 0 hr 5 min 22 sec) 
Heartbeat CPU 0 instructions: 170000001 cycles: 265976802 heartbeat IPC: 0.353025 cumulative IPC: 0.354248 (Simulation time: 0 hr 5 min 52 sec) 
Heartbeat CPU 0 instructions: 180000000 cycles: 294706071 heartbeat IPC: 0.348077 cumulative IPC: 0.353465 (Simulation time: 0 hr 6 min 21 sec) 
Heartbeat CPU 0 instructions: 190000002 cycles: 323191800 heartbeat IPC: 0.351053 cumulative IPC: 0.353195 (Simulation time: 0 hr 6 min 50 sec) 
Heartbeat CPU 0 instructions: 200000000 cycles: 351871536 heartbeat IPC: 0.348678 cumulative IPC: 0.352738 (Simulation time: 0 hr 7 min 19 sec) 
Heartbeat CPU 0 instructions: 210000002 cycles: 380163214 heartbeat IPC: 0.353461 cumulative IPC: 0.352804 (Simulation time: 0 hr 7 min 48 sec) 
Heartbeat CPU 0 instructions: 220000000 cycles: 410309008 heartbeat IPC: 0.331721 cumulative IPC: 0.350945 (Simulation time: 0 hr 8 min 16 sec) 
Heartbeat CPU 0 instructions: 230000000 cycles: 438271736 heartbeat IPC: 0.357619 cumulative IPC: 0.35145 (Simulation time: 0 hr 8 min 44 sec) 
Heartbeat CPU 0 instructions: 240000000 cycles: 464418576 heartbeat IPC: 0.382455 cumulative IPC: 0.353497 (Simulation time: 0 hr 9 min 11 sec) 
Heartbeat CPU 0 instructions: 250000000 cycles: 494763297 heartbeat IPC: 0.329547 cumulative IPC: 0.351792 (Simulation time: 0 hr 9 min 41 sec) 
Heartbeat CPU 0 instructions: 260000000 cycles: 521995789 heartbeat IPC: 0.367208 cumulative IPC: 0.352718 (Simulation time: 0 hr 10 min 9 sec) 
Heartbeat CPU 0 instructions: 270000003 cycles: 550679506 heartbeat IPC: 0.34863 cumulative IPC: 0.352475 (Simulation time: 0 hr 10 min 38 sec) 
Heartbeat CPU 0 instructions: 280000000 cycles: 579217222 heartbeat IPC: 0.350413 cumulative IPC: 0.352359 (Simulation time: 0 hr 11 min 8 sec) 
Heartbeat CPU 0 instructions: 290000000 cycles: 608396900 heartbeat IPC: 0.342704 cumulative IPC: 0.351838 (Simulation time: 0 hr 11 min 38 sec) 
Heartbeat CPU 0 instructions: 300000000 cycles: 639426450 heartbeat IPC: 0.322273 cumulative IPC: 0.350231 (Simulation time: 0 hr 12 min 6 sec) 
Heartbeat CPU 0 instructions: 310000001 cycles: 669525186 heartbeat IPC: 0.33224 cumulative IPC: 0.349331 (Simulation time: 0 hr 12 min 35 sec) 
Heartbeat CPU 0 instructions: 320000000 cycles: 698585123 heartbeat IPC: 0.344116 cumulative IPC: 0.34909 (Simulation time: 0 hr 13 min 3 sec) 
Heartbeat CPU 0 instructions: 330000000 cycles: 727853687 heartbeat IPC: 0.341664 cumulative IPC: 0.34876 (Simulation time: 0 hr 13 min 32 sec) 
Heartbeat CPU 0 instructions: 340000000 cycles: 757742691 heartbeat IPC: 0.334571 cumulative IPC: 0.348145 (Simulation time: 0 hr 14 min 0 sec) 
Heartbeat CPU 0 instructions: 350000003 cycles: 785183384 heartbeat IPC: 0.364422 cumulative IPC: 0.348768 (Simulation time: 0 hr 14 min 28 sec) 
Heartbeat CPU 0 instructions: 360000000 cycles: 815012127 heartbeat IPC: 0.335247 cumulative IPC: 0.348228 (Simulation time: 0 hr 14 min 56 sec) 
Heartbeat CPU 0 instructions: 370000000 cycles: 844707118 heartbeat IPC: 0.336757 cumulative IPC: 0.347789 (Simulation time: 0 hr 15 min 24 sec) 
Heartbeat CPU 0 instructions: 380000000 cycles: 874596899 heartbeat IPC: 0.334563 cumulative IPC: 0.347299 (Simulation time: 0 hr 15 min 52 sec) 
Heartbeat CPU 0 instructions: 390000001 cycles: 903455387 heartbeat IPC: 0.346519 cumulative IPC: 0.347272 (Simulation time: 0 hr 16 min 19 sec) 
Heartbeat CPU 0 instructions: 400000000 cycles: 933339424 heartbeat IPC: 0.334627 cumulative IPC: 0.346835 (Simulation time: 0 hr 16 min 47 sec) 
Heartbeat CPU 0 instructions: 410000001 cycles: 961712262 heartbeat IPC: 0.35245 cumulative IPC: 0.347014 (Simulation time: 0 hr 17 min 15 sec) 
Heartbeat CPU 0 instructions: 420000000 cycles: 990045997 heartbeat IPC: 0.352936 cumulative IPC: 0.347196 (Simulation time: 0 hr 17 min 42 sec) 
Heartbeat CPU 0 instructions: 430000002 cycles: 1018817026 heartbeat IPC: 0.347572 cumulative IPC: 0.347207 (Simulation time: 0 hr 18 min 9 sec) 
Heartbeat CPU 0 instructions: 440000000 cycles: 1049375101 heartbeat IPC: 0.327246 cumulative IPC: 0.346585 (Simulation time: 0 hr 18 min 37 sec) 
Heartbeat CPU 0 instructions: 450000002 cycles: 1079674996 heartbeat IPC: 0.330034 cumulative IPC: 0.346089 (Simulation time: 0 hr 19 min 5 sec) 
Heartbeat CPU 0 instructions: 460000000 cycles: 1108363634 heartbeat IPC: 0.34857 cumulative IPC: 0.346158 (Simulation time: 0 hr 19 min 33 sec) 
Heartbeat CPU 0 instructions: 470000000 cycles: 1136795699 heartbeat IPC: 0.351716 cumulative IPC: 0.346306 (Simulation time: 0 hr 20 min 0 sec) 
Heartbeat CPU 0 instructions: 480000000 cycles: 1165438734 heartbeat IPC: 0.349125 cumulative IPC: 0.346379 (Simulation time: 0 hr 20 min 28 sec) 
Heartbeat CPU 0 instructions: 490000000 cycles: 1193775136 heartbeat IPC: 0.352903 cumulative IPC: 0.346543 (Simulation time: 0 hr 20 min 55 sec) 
Heartbeat CPU 0 instructions: 500000000 cycles: 1222768278 heartbeat IPC: 0.344909 cumulative IPC: 0.346502 (Simulation time: 0 hr 21 min 22 sec) 
Heartbeat CPU 0 instructions: 510000000 cycles: 1257436780 heartbeat IPC: 0.288446 cumulative IPC: 0.34481 (Simulation time: 0 hr 21 min 53 sec) 
Heartbeat CPU 0 instructions: 520000000 cycles: 1285538178 heartbeat IPC: 0.355854 cumulative IPC: 0.345065 (Simulation time: 0 hr 22 min 21 sec) 
Heartbeat CPU 0 instructions: 530000001 cycles: 1315859041 heartbeat IPC: 0.329806 cumulative IPC: 0.344694 (Simulation time: 0 hr 22 min 50 sec) 
Heartbeat CPU 0 instructions: 540000000 cycles: 1344559041 heartbeat IPC: 0.348432 cumulative IPC: 0.344778 (Simulation time: 0 hr 23 min 18 sec) 
Heartbeat CPU 0 instructions: 550000001 cycles: 1374034205 heartbeat IPC: 0.339269 cumulative IPC: 0.344654 (Simulation time: 0 hr 23 min 48 sec) 
Heartbeat CPU 0 instructions: 560000000 cycles: 1399674508 heartbeat IPC: 0.390011 cumulative IPC: 0.345527 (Simulation time: 0 hr 24 min 16 sec) 
Heartbeat CPU 0 instructions: 570000000 cycles: 1430004651 heartbeat IPC: 0.329705 cumulative IPC: 0.345175 (Simulation time: 0 hr 24 min 45 sec) 
Heartbeat CPU 0 instructions: 580000000 cycles: 1458561712 heartbeat IPC: 0.350176 cumulative IPC: 0.345277 (Simulation time: 0 hr 25 min 13 sec) 
Heartbeat CPU 0 instructions: 590000001 cycles: 1483536323 heartbeat IPC: 0.400407 cumulative IPC: 0.34625 (Simulation time: 0 hr 25 min 40 sec) 
Heartbeat CPU 0 instructions: 600000000 cycles: 1510052312 heartbeat IPC: 0.377131 cumulative IPC: 0.346818 (Simulation time: 0 hr 26 min 8 sec) 
Finished CPU 0 instructions: 500000000 cycles: 1441677044 cumulative IPC: 0.346818 (Simulation time: 0 hr 26 min 8 sec) 

CPU 0 Branch Prediction Accuracy: 86.4311% MPKI: 26.2662
Number of Branches: 96788573 Number of Mispredictions: 13133102
Number of LOAD Instructions: 164682285
Number of LOAD Instructions (ROI): 164682285
Number of STORE Instructions: 78194750
Number of STORE Instructions (ROI): 78194750
Total Destination Memory Operands: 83268534
Total Destination Memory Operands (ROI): 83268534
Total Source Memory Operands: 164712438
Total Source Memory Operands (ROI): 164712438
Number of DEPENDED LOADS: 7054929
Number of DEPENDED LOADS (ROI): 7054929
Number of SQ_ADDED: 83268522
Number of SQ_ADDED (ROI): 83268522
Number of LQ_ADDED: 236726887
Number of LQ_ADDED (ROI): 236726887
Number of Instructions read from trace: 600000066

ChampSim completed all CPUs

Region of Interest Statistics

CPU 0 cumulative IPC: 0.346818 instructions: 500000000 cycles: 1441677044
ITLB TOTAL     ACCESS:  100528449  HIT:  100324003  MISS:     204446
ITLB LOAD      ACCESS:  100528449  HIT:  100324003  MISS:     204446
ITLB RFO       ACCESS:          0  HIT:          0  MISS:          0
ITLB PREFETCH  ACCESS:          0  HIT:          0  MISS:          0
ITLB WRITEBACK ACCESS:          0  HIT:          0  MISS:          0
ITLB PREFETCH  REQUESTED:          0  ISSUED:          0  USEFUL:          0  USELESS:          0
ITLB TOTAL MSHR MERGED:     172423
ITLB LOAD MSHR MERGED:     172423
ITLB RFO MSHR MERGED:          0
ITLB PREFETCH MSHR MERGED:          0
ITLB WRITEBACK MSHR MERGED:          0
ITLB TOTAL ACCESSES:  100700872 HITS:  100324003 MISSES:     376869
ITLB LOAD ACCESSES:  100700872 HITS:  100324003 MISSES:     376869
ITLB RFO ACCESSES:          0 HITS:          0 MISSES:          0
ITLB PREFETCH ACCESSES:          0 HITS:          0 MISSES:          0
ITLB WRITEBACK ACCESSES:          0 HITS:          0 MISSES:          0
ITLB RQ ACCESS:  500000057
ITLB RQ TO_CACHE:  100700872
ITLB RQ MERGED:  399299185
ITLB RQ FORWARD:          0
ITLB WQ ACCESS:          0
ITLB WQ TO_CACHE:          0
ITLB WQ MERGED:          0
ITLB WQ FORWARD:          0
DTLB TOTAL     ACCESS:  165349229  HIT:  164714873  MISS:     634356
DTLB LOAD      ACCESS:  106301122  HIT:  105731172  MISS:     569950
DTLB RFO       ACCESS:   59048107  HIT:   58983701  MISS:      64406
DTLB PREFETCH  ACCESS:          0  HIT:          0  MISS:          0
DTLB WRITEBACK ACCESS:          0  HIT:          0  MISS:          0
DTLB PREFETCH  REQUESTED:          0  ISSUED:          0  USEFUL:          0  USELESS:          0
DTLB TOTAL MSHR MERGED:      99647
DTLB LOAD MSHR MERGED:      59287
DTLB RFO MSHR MERGED:      40360
DTLB PREFETCH MSHR MERGED:          0
DTLB WRITEBACK MSHR MERGED:          0
DTLB TOTAL ACCESSES:  165448876 HITS:  164714873 MISSES:     734003
DTLB LOAD ACCESSES:  106360409 HITS:  105731172 MISSES:     629237
DTLB RFO ACCESSES:   59088467 HITS:   58983701 MISSES:     104766
DTLB PREFETCH ACCESSES:          0 HITS:          0 MISSES:          0
DTLB WRITEBACK ACCESSES:          0 HITS:          0 MISSES:          0
DTLB RQ ACCESS:  200315970
DTLB RQ TO_CACHE:  165448876
DTLB RQ MERGED:   34867094
DTLB RQ FORWARD:          0
DTLB WQ ACCESS:          0
DTLB WQ TO_CACHE:          0
DTLB WQ MERGED:          0
DTLB WQ FORWARD:          0
L1D TOTAL     ACCESS:  281869907  HIT:  273960486  MISS:    7909421
L1D LOAD      ACCESS:  110434184  HIT:  107156227  MISS:    3277957
L1D RFO       ACCESS:   67125698  HIT:   66235463  MISS:     890235
L1D PREFETCH  ACCESS:  104310025  HIT:  100568796  MISS:    3741229
L1D WRITEBACK ACCESS:          0  HIT:          0  MISS:          0
L1D PREFETCH  REQUESTED:  110828359  ISSUED:  109129056  USEFUL:    1661823  USELESS:    2079370
L1D TOTAL MSHR MERGED:    2859734
L1D LOAD MSHR MERGED:     491821
L1D RFO MSHR MERGED:    1859511
L1D PREFETCH MSHR MERGED:     508402
L1D WRITEBACK MSHR MERGED:          0
L1D TOTAL ACCESSES:  284757020 HITS:  273987865 MISSES:   10769155
L1D LOAD ACCESSES:  110829830 HITS:  107157698 MISSES:    3672132
L1D RFO ACCESSES:   68973707 HITS:   66235463 MISSES:    2738244
L1D PREFETCH ACCESSES:  104953483 HITS:  100594704 MISSES:    4358779
L1D WRITEBACK ACCESSES:          0 HITS:          0 MISSES:          0
L1D RQ ACCESS:  130763367
L1D RQ TO_CACHE:  110828362
L1D RQ MERGED:   19933534
L1D RQ FORWARD:          0
L1D WQ ACCESS:   69552603
L1D WQ TO_CACHE:   68973708
L1D WQ MERGED:     578895
L1D WQ FORWARD:      27379
L1I TOTAL     ACCESS:  126574609  HIT:  122336054  MISS:    4238555
L1I LOAD      ACCESS:  126574609  HIT:  122336054  MISS:    4238555
L1I RFO       ACCESS:          0  HIT:          0  MISS:          0
L1I PREFETCH  ACCESS:          0  HIT:          0  MISS:          0
L1I WRITEBACK ACCESS:          0  HIT:          0  MISS:          0
L1I PREFETCH  REQUESTED:          0  ISSUED:          0  USEFUL:          0  USELESS:          0
L1I TOTAL MSHR MERGED:    1835782
L1I LOAD MSHR MERGED:    1835782
L1I RFO MSHR MERGED:          0
L1I PREFETCH MSHR MERGED:          0
L1I WRITEBACK MSHR MERGED:          0
L1I TOTAL ACCESSES:  128410394 HITS:  122336054 MISSES:    6074340
L1I LOAD ACCESSES:  128410394 HITS:  122336054 MISSES:    6074340
L1I RFO ACCESSES:          0 HITS:          0 MISSES:          0
L1I PREFETCH ACCESSES:          0 HITS:          0 MISSES:          0
L1I WRITEBACK ACCESSES:          0 HITS:          0 MISSES:          0
L1I RQ ACCESS:  500000057
L1I RQ TO_CACHE:  128410394
L1I RQ MERGED:  371589663
L1I RQ FORWARD:          0
L1I WQ ACCESS:          0
L1I WQ TO_CACHE:          0
L1I WQ MERGED:          0
L1I WQ FORWARD:          0
L2C TOTAL     ACCESS:   14905518  HIT:   11159007  MISS:    3746511
L2C LOAD      ACCESS:    7418661  HIT:    5098772  MISS:    2319889
L2C RFO       ACCESS:     878637  HIT:     409922  MISS:     468715
L2C PREFETCH  ACCESS:    4568968  HIT:    3628319  MISS:     940649
L2C WRITEBACK ACCESS:    2039252  HIT:    2021994  MISS:      17258
L2C PREFETCH  REQUESTED:     842683  ISSUED:     842683  USEFUL:     203464  USELESS:     736891
L2C TOTAL MSHR MERGED:       6724
L2C LOAD MSHR MERGED:        736
L2C RFO MSHR MERGED:          1
L2C PREFETCH MSHR MERGED:       5987
L2C WRITEBACK MSHR MERGED:          0
L2C TOTAL ACCESSES:   14913191 HITS:   11159450 MISSES:    3753741
L2C LOAD ACCESSES:    7418866 HITS:    5098977 MISSES:    2319889
L2C RFO ACCESSES:     878733 HITS:     410018 MISSES:     468715
L2C PREFETCH ACCESSES:    4576340 HITS:    3628461 MISSES:     947879
L2C WRITEBACK ACCESSES:    2039252 HITS:    2021994 MISSES:      17258
L2C RQ ACCESS:    8297602
L2C RQ TO_CACHE:    8297301
L2C RQ MERGED:          0
L2C RQ FORWARD:          0
L2C WQ ACCESS:    2039252
L2C WQ TO_CACHE:    2039252
L2C WQ MERGED:          0
L2C WQ FORWARD:        443
LLC TOTAL     ACCESS:    4609903  HIT:    3636152  MISS:     973751
LLC LOAD      ACCESS:    2319138  HIT:    1765883  MISS:     553255
LLC RFO       ACCESS:     468707  HIT:     408279  MISS:      60428
LLC PREFETCH  ACCESS:     941757  HIT:     629461  MISS:     312296
LLC WRITEBACK ACCESS:     880301  HIT:     832529  MISS:      47772
LLC PREFETCH  REQUESTED:          0  ISSUED:          0  USEFUL:      29892  USELESS:     281572
LLC TOTAL MSHR MERGED:        119
LLC LOAD MSHR MERGED:         35
LLC RFO MSHR MERGED:          0
LLC PREFETCH MSHR MERGED:         84
LLC WRITEBACK MSHR MERGED:          0
LLC TOTAL ACCESSES:    4610055 HITS:    3636185 MISSES:     973870
LLC LOAD ACCESSES:    2319153 HITS:    1765898 MISSES:     553255
LLC RFO ACCESSES:     468714 HITS:     408286 MISSES:      60428
LLC PREFETCH ACCESSES:     941887 HITS:     629472 MISSES:     312415
LLC WRITEBACK ACCESSES:     880301 HITS:     832529 MISSES:      47772
LLC 0 RQ ACCESS:    2787867
LLC 0 RQ TO_CACHE:    2787845
LLC 0 RQ MERGED:          0
LLC 0 RQ FORWARD:          0
LLC WQ ACCESS:     880301
LLC WQ TO_CACHE:     880301
LLC WQ MERGED:          0
LLC WQ FORWARD:         33
Major fault: 0 Minor fault: 12862
CPU 0 L1D next line prefetcher final stats
CPU 0 L2C PC-based stride prefetcher final stats
All Misses: 1115341
All Hits: 4311563
SD Algo Stats - Switches: 0 SRR-Repls: 608607 BRR-Repls: 0

DRAM Statistics
 CHANNEL 0
 RQ ROW_BUFFER_HIT:     234545  ROW_BUFFER_MISS:     688235
 DBUS_CONGESTED:     399111
 WQ ROW_BUFFER_HIT:      12182  ROW_BUFFER_MISS:     174883  FULL:          0

 AVG_CONGESTED_CYCLE: 13
LOADS RETIRED: 136549171
INSTR RETIRED: 500000000
