
*** ChampSim Multicore Out-of-Order Simulator ***

Warmup Instructions: 100000000
Simulation Instructions: 500000000
Number of CPUs: 1
LLC sets: 2048
LLC ways: 16
Clean RRIP Policies: 2213230222132302 Dirty RRIP Policies: 2203030222030302 PSEL Width: 10 Track Set: 4294967295 PSEL Mask: 1 Demote Mask: 4040100340401003DS Algo: 0Window size: 0
Off-chip DRAM Size: 4096 MB Channels: 1 Width: 64-bit Data Rate: 1600 MT/s

CPU 0 runs /mnt/beegfs/iconst01/spec2017/Xalancbmk.trace.gz
NOT SORTED
TRACE STRING: /mnt/beegfs/iconst01/spec2017/Xalancbmk.trace.gz
SORTED
TRACE STRING: /mnt/beegfs/iconst01/spec2017/Xalancbmk.trace.gz
INITIAL
TRACE STRING: /mnt/beegfs/iconst01/spec2017/Xalancbmk.trace.gz

champsim_seed used: 913

CPU 0 L1D next line prefetcher
CPU 0 L2C IP-based stride prefetcher
Initialize DRRIP state
Assign rand_sets[0]: 454  LLC: 2048
rand_sets[0]: 454
Assign rand_sets[1]: 1662  LLC: 2048
rand_sets[1]: 1662
Assign rand_sets[2]: 1921  LLC: 2048
rand_sets[2]: 1921
Assign rand_sets[3]: 1131  LLC: 2048
rand_sets[3]: 1131
Assign rand_sets[4]: 331  LLC: 2048
rand_sets[4]: 331
Assign rand_sets[5]: 1531  LLC: 2048
rand_sets[5]: 1531
Assign rand_sets[6]: 482  LLC: 2048
rand_sets[6]: 482
Assign rand_sets[7]: 1275  LLC: 2048
rand_sets[7]: 1275
Assign rand_sets[8]: 1876  LLC: 2048
rand_sets[8]: 1876
Assign rand_sets[9]: 2038  LLC: 2048
rand_sets[9]: 2038
Assign rand_sets[10]: 701  LLC: 2048
rand_sets[10]: 701
Assign rand_sets[11]: 479  LLC: 2048
rand_sets[11]: 479
Assign rand_sets[12]: 892  LLC: 2048
rand_sets[12]: 892
Assign rand_sets[13]: 1820  LLC: 2048
rand_sets[13]: 1820
Assign rand_sets[14]: 1505  LLC: 2048
rand_sets[14]: 1505
Assign rand_sets[15]: 1159  LLC: 2048
rand_sets[15]: 1159
Assign rand_sets[16]: 513  LLC: 2048
rand_sets[16]: 513
Assign rand_sets[17]: 703  LLC: 2048
rand_sets[17]: 703
Assign rand_sets[18]: 561  LLC: 2048
rand_sets[18]: 561
Assign rand_sets[19]: 990  LLC: 2048
rand_sets[19]: 990
Assign rand_sets[20]: 342  LLC: 2048
rand_sets[20]: 342
Assign rand_sets[21]: 882  LLC: 2048
rand_sets[21]: 882
Assign rand_sets[22]: 15  LLC: 2048
rand_sets[22]: 15
Assign rand_sets[23]: 71  LLC: 2048
rand_sets[23]: 71
Assign rand_sets[24]: 1127  LLC: 2048
rand_sets[24]: 1127
Assign rand_sets[25]: 1382  LLC: 2048
rand_sets[25]: 1382
Assign rand_sets[26]: 647  LLC: 2048
rand_sets[26]: 647
Assign rand_sets[27]: 857  LLC: 2048
rand_sets[27]: 857
Assign rand_sets[28]: 1450  LLC: 2048
rand_sets[28]: 1450
Assign rand_sets[29]: 1160  LLC: 2048
rand_sets[29]: 1160
Assign rand_sets[30]: 1852  LLC: 2048
rand_sets[30]: 1852
Assign rand_sets[31]: 1881  LLC: 2048
rand_sets[31]: 1881
Assign rand_sets[32]: 1770  LLC: 2048
rand_sets[32]: 1770
Assign rand_sets[33]: 1622  LLC: 2048
rand_sets[33]: 1622
Assign rand_sets[34]: 275  LLC: 2048
rand_sets[34]: 275
Assign rand_sets[35]: 635  LLC: 2048
rand_sets[35]: 635
Assign rand_sets[36]: 466  LLC: 2048
rand_sets[36]: 466
Assign rand_sets[37]: 1413  LLC: 2048
rand_sets[37]: 1413
Assign rand_sets[38]: 417  LLC: 2048
rand_sets[38]: 417
Assign rand_sets[39]: 472  LLC: 2048
rand_sets[39]: 472
Assign rand_sets[40]: 1340  LLC: 2048
rand_sets[40]: 1340
Assign rand_sets[41]: 852  LLC: 2048
rand_sets[41]: 852
Assign rand_sets[42]: 1365  LLC: 2048
rand_sets[42]: 1365
Assign rand_sets[43]: 47  LLC: 2048
rand_sets[43]: 47
Assign rand_sets[44]: 823  LLC: 2048
rand_sets[44]: 823
Assign rand_sets[45]: 686  LLC: 2048
rand_sets[45]: 686
Assign rand_sets[46]: 1637  LLC: 2048
rand_sets[46]: 1637
Assign rand_sets[47]: 1115  LLC: 2048
rand_sets[47]: 1115
Assign rand_sets[48]: 986  LLC: 2048
rand_sets[48]: 986
Assign rand_sets[49]: 258  LLC: 2048
rand_sets[49]: 258
Assign rand_sets[50]: 633  LLC: 2048
rand_sets[50]: 633
Assign rand_sets[51]: 920  LLC: 2048
rand_sets[51]: 920
Assign rand_sets[52]: 204  LLC: 2048
rand_sets[52]: 204
Assign rand_sets[53]: 227  LLC: 2048
rand_sets[53]: 227
Assign rand_sets[54]: 1818  LLC: 2048
rand_sets[54]: 1818
Assign rand_sets[55]: 886  LLC: 2048
rand_sets[55]: 886
Assign rand_sets[56]: 1422  LLC: 2048
rand_sets[56]: 1422
Assign rand_sets[57]: 607  LLC: 2048
rand_sets[57]: 607
Assign rand_sets[58]: 217  LLC: 2048
rand_sets[58]: 217
Assign rand_sets[59]: 1945  LLC: 2048
rand_sets[59]: 1945
Assign rand_sets[60]: 143  LLC: 2048
rand_sets[60]: 143
Assign rand_sets[61]: 1311  LLC: 2048
rand_sets[61]: 1311
Assign rand_sets[62]: 319  LLC: 2048
rand_sets[62]: 319
Assign rand_sets[63]: 1846  LLC: 2048
rand_sets[63]: 1846
 CLEAN-RRIP-POLICY-1: 2-2-1-3-2-3-0-2- CLEAN-RRIP-POLICY-2: 2-2-1-3-2-3-0-2-
 DIRTY-RRIP-POLICY-1: 2-2-0-3-0-3-0-2- DIRTY-RRIP-POLICY-2: 2-2-0-3-0-3-0-2-
 PSEL width: 10
Heartbeat CPU 0 instructions: 10000003 cycles: 4589196 heartbeat IPC: 2.17903 cumulative IPC: 2.17903 (Simulation time: 0 hr 0 min 16 sec) 
Heartbeat CPU 0 instructions: 20000000 cycles: 8981746 heartbeat IPC: 2.27658 cumulative IPC: 2.22674 (Simulation time: 0 hr 0 min 31 sec) 
Heartbeat CPU 0 instructions: 30000000 cycles: 13390985 heartbeat IPC: 2.26797 cumulative IPC: 2.24031 (Simulation time: 0 hr 0 min 46 sec) 
Heartbeat CPU 0 instructions: 40000000 cycles: 18016234 heartbeat IPC: 2.16205 cumulative IPC: 2.22022 (Simulation time: 0 hr 1 min 2 sec) 
Heartbeat CPU 0 instructions: 50000002 cycles: 22432326 heartbeat IPC: 2.26445 cumulative IPC: 2.22893 (Simulation time: 0 hr 1 min 16 sec) 
Heartbeat CPU 0 instructions: 60000000 cycles: 27085186 heartbeat IPC: 2.14922 cumulative IPC: 2.21523 (Simulation time: 0 hr 1 min 33 sec) 
Heartbeat CPU 0 instructions: 70000003 cycles: 31490200 heartbeat IPC: 2.27014 cumulative IPC: 2.22291 (Simulation time: 0 hr 1 min 47 sec) 
Heartbeat CPU 0 instructions: 80000000 cycles: 35912432 heartbeat IPC: 2.2613 cumulative IPC: 2.22764 (Simulation time: 0 hr 2 min 1 sec) 
Heartbeat CPU 0 instructions: 90000002 cycles: 40367729 heartbeat IPC: 2.24452 cumulative IPC: 2.2295 (Simulation time: 0 hr 2 min 16 sec) 
Heartbeat CPU 0 instructions: 100000000 cycles: 44839737 heartbeat IPC: 2.23613 cumulative IPC: 2.23016 (Simulation time: 0 hr 2 min 31 sec) 

Warmup complete CPU 0 instructions: 100000003 cycles: 44839738 (Simulation time: 0 hr 2 min 31 sec) 

Heartbeat CPU 0 instructions: 110000000 cycles: 71462914 heartbeat IPC: 0.375613 cumulative IPC: 0.375612 (Simulation time: 0 hr 3 min 3 sec) 
Heartbeat CPU 0 instructions: 120000000 cycles: 99167848 heartbeat IPC: 0.360947 cumulative IPC: 0.368133 (Simulation time: 0 hr 3 min 36 sec) 
Heartbeat CPU 0 instructions: 130000000 cycles: 122380254 heartbeat IPC: 0.430804 cumulative IPC: 0.386894 (Simulation time: 0 hr 4 min 6 sec) 
Heartbeat CPU 0 instructions: 140000000 cycles: 144921686 heartbeat IPC: 0.443628 cumulative IPC: 0.399672 (Simulation time: 0 hr 4 min 35 sec) 
Heartbeat CPU 0 instructions: 150000000 cycles: 169149645 heartbeat IPC: 0.412746 cumulative IPC: 0.402221 (Simulation time: 0 hr 5 min 5 sec) 
Heartbeat CPU 0 instructions: 160000000 cycles: 193821785 heartbeat IPC: 0.405315 cumulative IPC: 0.402733 (Simulation time: 0 hr 5 min 36 sec) 
Heartbeat CPU 0 instructions: 170000002 cycles: 215043352 heartbeat IPC: 0.471219 cumulative IPC: 0.411272 (Simulation time: 0 hr 6 min 4 sec) 
Heartbeat CPU 0 instructions: 180000000 cycles: 237584289 heartbeat IPC: 0.443637 cumulative IPC: 0.415057 (Simulation time: 0 hr 6 min 33 sec) 
Heartbeat CPU 0 instructions: 190000000 cycles: 256558704 heartbeat IPC: 0.527025 cumulative IPC: 0.425092 (Simulation time: 0 hr 6 min 59 sec) 
Heartbeat CPU 0 instructions: 200000000 cycles: 277556078 heartbeat IPC: 0.47625 cumulative IPC: 0.429708 (Simulation time: 0 hr 7 min 27 sec) 
Heartbeat CPU 0 instructions: 210000001 cycles: 303613175 heartbeat IPC: 0.383773 cumulative IPC: 0.425082 (Simulation time: 0 hr 7 min 59 sec) 
Heartbeat CPU 0 instructions: 220000000 cycles: 329168254 heartbeat IPC: 0.391312 cumulative IPC: 0.422047 (Simulation time: 0 hr 8 min 30 sec) 
Heartbeat CPU 0 instructions: 230000000 cycles: 351281656 heartbeat IPC: 0.452214 cumulative IPC: 0.424224 (Simulation time: 0 hr 8 min 59 sec) 
Heartbeat CPU 0 instructions: 240000000 cycles: 376758394 heartbeat IPC: 0.392515 cumulative IPC: 0.42179 (Simulation time: 0 hr 9 min 30 sec) 
Heartbeat CPU 0 instructions: 250000001 cycles: 401308042 heartbeat IPC: 0.407338 cumulative IPC: 0.420795 (Simulation time: 0 hr 10 min 1 sec) 
Heartbeat CPU 0 instructions: 260000000 cycles: 422259248 heartbeat IPC: 0.477299 cumulative IPC: 0.423931 (Simulation time: 0 hr 10 min 29 sec) 
Heartbeat CPU 0 instructions: 270000000 cycles: 443872223 heartbeat IPC: 0.462685 cumulative IPC: 0.42603 (Simulation time: 0 hr 10 min 57 sec) 
Heartbeat CPU 0 instructions: 280000000 cycles: 471115680 heartbeat IPC: 0.367061 cumulative IPC: 0.422262 (Simulation time: 0 hr 11 min 30 sec) 
Heartbeat CPU 0 instructions: 290000000 cycles: 492234635 heartbeat IPC: 0.473508 cumulative IPC: 0.424681 (Simulation time: 0 hr 11 min 58 sec) 
Heartbeat CPU 0 instructions: 300000000 cycles: 512687812 heartbeat IPC: 0.488922 cumulative IPC: 0.427489 (Simulation time: 0 hr 12 min 25 sec) 
Heartbeat CPU 0 instructions: 310000000 cycles: 531841677 heartbeat IPC: 0.522088 cumulative IPC: 0.43121 (Simulation time: 0 hr 12 min 52 sec) 
Heartbeat CPU 0 instructions: 320000000 cycles: 560703044 heartbeat IPC: 0.346484 cumulative IPC: 0.42647 (Simulation time: 0 hr 13 min 26 sec) 
Heartbeat CPU 0 instructions: 330000001 cycles: 580131123 heartbeat IPC: 0.514719 cumulative IPC: 0.429673 (Simulation time: 0 hr 13 min 52 sec) 
Heartbeat CPU 0 instructions: 340000000 cycles: 599407021 heartbeat IPC: 0.518782 cumulative IPC: 0.43277 (Simulation time: 0 hr 14 min 19 sec) 
Heartbeat CPU 0 instructions: 350000001 cycles: 624220713 heartbeat IPC: 0.403003 cumulative IPC: 0.431495 (Simulation time: 0 hr 14 min 50 sec) 
Heartbeat CPU 0 instructions: 360000000 cycles: 646424976 heartbeat IPC: 0.450364 cumulative IPC: 0.432191 (Simulation time: 0 hr 15 min 19 sec) 
Heartbeat CPU 0 instructions: 370000001 cycles: 671287650 heartbeat IPC: 0.402209 cumulative IPC: 0.431002 (Simulation time: 0 hr 15 min 50 sec) 
Heartbeat CPU 0 instructions: 380000000 cycles: 694256219 heartbeat IPC: 0.435378 cumulative IPC: 0.431156 (Simulation time: 0 hr 16 min 19 sec) 
Heartbeat CPU 0 instructions: 390000000 cycles: 713068204 heartbeat IPC: 0.531576 cumulative IPC: 0.433983 (Simulation time: 0 hr 16 min 46 sec) 
Heartbeat CPU 0 instructions: 400000000 cycles: 732842197 heartbeat IPC: 0.505715 cumulative IPC: 0.436045 (Simulation time: 0 hr 17 min 13 sec) 
Heartbeat CPU 0 instructions: 410000001 cycles: 758665625 heartbeat IPC: 0.387245 cumulative IPC: 0.43428 (Simulation time: 0 hr 17 min 44 sec) 
Heartbeat CPU 0 instructions: 420000000 cycles: 783085310 heartbeat IPC: 0.409506 cumulative IPC: 0.43346 (Simulation time: 0 hr 18 min 13 sec) 
Heartbeat CPU 0 instructions: 430000002 cycles: 804283290 heartbeat IPC: 0.471743 cumulative IPC: 0.434529 (Simulation time: 0 hr 18 min 40 sec) 
Heartbeat CPU 0 instructions: 440000000 cycles: 824485676 heartbeat IPC: 0.494991 cumulative IPC: 0.436095 (Simulation time: 0 hr 19 min 6 sec) 
Heartbeat CPU 0 instructions: 450000002 cycles: 850853067 heartbeat IPC: 0.379256 cumulative IPC: 0.434236 (Simulation time: 0 hr 19 min 36 sec) 
Heartbeat CPU 0 instructions: 460000000 cycles: 876332976 heartbeat IPC: 0.392466 cumulative IPC: 0.432956 (Simulation time: 0 hr 20 min 6 sec) 
Heartbeat CPU 0 instructions: 470000002 cycles: 901972094 heartbeat IPC: 0.390029 cumulative IPC: 0.431672 (Simulation time: 0 hr 20 min 36 sec) 
Heartbeat CPU 0 instructions: 480000000 cycles: 926206191 heartbeat IPC: 0.412642 cumulative IPC: 0.431149 (Simulation time: 0 hr 21 min 5 sec) 
Heartbeat CPU 0 instructions: 490000000 cycles: 947041014 heartbeat IPC: 0.479966 cumulative IPC: 0.432276 (Simulation time: 0 hr 21 min 31 sec) 
Heartbeat CPU 0 instructions: 500000000 cycles: 971616906 heartbeat IPC: 0.406903 cumulative IPC: 0.431603 (Simulation time: 0 hr 22 min 1 sec) 
Heartbeat CPU 0 instructions: 510000000 cycles: 996450401 heartbeat IPC: 0.402682 cumulative IPC: 0.430848 (Simulation time: 0 hr 22 min 30 sec) 
Heartbeat CPU 0 instructions: 520000000 cycles: 1017439361 heartbeat IPC: 0.476441 cumulative IPC: 0.431832 (Simulation time: 0 hr 22 min 57 sec) 
Heartbeat CPU 0 instructions: 530000003 cycles: 1042795656 heartbeat IPC: 0.394379 cumulative IPC: 0.430881 (Simulation time: 0 hr 23 min 26 sec) 
Heartbeat CPU 0 instructions: 540000000 cycles: 1065605148 heartbeat IPC: 0.438414 cumulative IPC: 0.431049 (Simulation time: 0 hr 23 min 54 sec) 
Heartbeat CPU 0 instructions: 550000000 cycles: 1090758984 heartbeat IPC: 0.397554 cumulative IPC: 0.430244 (Simulation time: 0 hr 24 min 24 sec) 
Heartbeat CPU 0 instructions: 560000000 cycles: 1113949230 heartbeat IPC: 0.431216 cumulative IPC: 0.430265 (Simulation time: 0 hr 24 min 52 sec) 
Heartbeat CPU 0 instructions: 570000002 cycles: 1137308576 heartbeat IPC: 0.428094 cumulative IPC: 0.430218 (Simulation time: 0 hr 25 min 20 sec) 
Heartbeat CPU 0 instructions: 580000000 cycles: 1158261577 heartbeat IPC: 0.477259 cumulative IPC: 0.431103 (Simulation time: 0 hr 25 min 47 sec) 
Heartbeat CPU 0 instructions: 590000001 cycles: 1182038453 heartbeat IPC: 0.420577 cumulative IPC: 0.430883 (Simulation time: 0 hr 26 min 15 sec) 
Heartbeat CPU 0 instructions: 600000000 cycles: 1201256324 heartbeat IPC: 0.520349 cumulative IPC: 0.43237 (Simulation time: 0 hr 26 min 41 sec) 
Finished CPU 0 instructions: 500000000 cycles: 1156416607 cumulative IPC: 0.43237 (Simulation time: 0 hr 26 min 41 sec) 

CPU 0 Branch Prediction Accuracy: 99.5434% MPKI: 1.33026
Number of Branches: 145676990 Number of Mispredictions: 665128
Number of LOAD Instructions: 188863207
Number of LOAD Instructions (ROI): 188863207
Number of STORE Instructions: 7332002
Number of STORE Instructions (ROI): 7332002
Total Destination Memory Operands: 10029285
Total Destination Memory Operands (ROI): 10029285
Total Source Memory Operands: 188863207
Total Source Memory Operands (ROI): 188863207
Number of DEPENDED LOADS: 292274
Number of DEPENDED LOADS (ROI): 292274
Number of SQ_ADDED: 10029285
Number of SQ_ADDED (ROI): 10029285
Number of LQ_ADDED: 200755209
Number of LQ_ADDED (ROI): 200755209
Number of Instructions read from trace: 600000010

ChampSim completed all CPUs

Region of Interest Statistics

CPU 0 cumulative IPC: 0.43237 instructions: 500000000 cycles: 1156416607
ITLB TOTAL     ACCESS:  145812816  HIT:  145773289  MISS:      39527
ITLB LOAD      ACCESS:  145812816  HIT:  145773289  MISS:      39527
ITLB RFO       ACCESS:          0  HIT:          0  MISS:          0
ITLB PREFETCH  ACCESS:          0  HIT:          0  MISS:          0
ITLB WRITEBACK ACCESS:          0  HIT:          0  MISS:          0
ITLB PREFETCH  REQUESTED:          0  ISSUED:          0  USEFUL:          0  USELESS:          0
ITLB TOTAL MSHR MERGED:      57349
ITLB LOAD MSHR MERGED:      57349
ITLB RFO MSHR MERGED:          0
ITLB PREFETCH MSHR MERGED:          0
ITLB WRITEBACK MSHR MERGED:          0
ITLB TOTAL ACCESSES:  145870165 HITS:  145773289 MISSES:      96876
ITLB LOAD ACCESSES:  145870165 HITS:  145773289 MISSES:      96876
ITLB RFO ACCESSES:          0 HITS:          0 MISSES:          0
ITLB PREFETCH ACCESSES:          0 HITS:          0 MISSES:          0
ITLB WRITEBACK ACCESSES:          0 HITS:          0 MISSES:          0
ITLB RQ ACCESS:  499999754
ITLB RQ TO_CACHE:  145870165
ITLB RQ MERGED:  354129589
ITLB RQ FORWARD:          0
ITLB WQ ACCESS:          0
ITLB WQ TO_CACHE:          0
ITLB WQ MERGED:          0
ITLB WQ FORWARD:          0
DTLB TOTAL     ACCESS:  135185858  HIT:  134017499  MISS:    1168359
DTLB LOAD      ACCESS:  127144820  HIT:  125985567  MISS:    1159253
DTLB RFO       ACCESS:    8041038  HIT:    8031932  MISS:       9106
DTLB PREFETCH  ACCESS:          0  HIT:          0  MISS:          0
DTLB WRITEBACK ACCESS:          0  HIT:          0  MISS:          0
DTLB PREFETCH  REQUESTED:          0  ISSUED:          0  USEFUL:          0  USELESS:          0
DTLB TOTAL MSHR MERGED:     582007
DTLB LOAD MSHR MERGED:     577625
DTLB RFO MSHR MERGED:       4382
DTLB PREFETCH MSHR MERGED:          0
DTLB WRITEBACK MSHR MERGED:          0
DTLB TOTAL ACCESSES:  135767865 HITS:  134017499 MISSES:    1750366
DTLB LOAD ACCESSES:  127722445 HITS:  125985567 MISSES:    1736878
DTLB RFO ACCESSES:    8045420 HITS:    8031932 MISSES:      13488
DTLB PREFETCH ACCESSES:          0 HITS:          0 MISSES:          0
DTLB WRITEBACK ACCESSES:          0 HITS:          0 MISSES:          0
DTLB RQ ACCESS:  165762060
DTLB RQ TO_CACHE:  135767865
DTLB RQ MERGED:   29994195
DTLB RQ FORWARD:          0
DTLB WQ ACCESS:          0
DTLB WQ TO_CACHE:          0
DTLB WQ MERGED:          0
DTLB WQ FORWARD:          0
L1D TOTAL     ACCESS:  157053067  HIT:  139737388  MISS:   17315679
L1D LOAD      ACCESS:   90006500  HIT:   78870135  MISS:   11136365
L1D RFO       ACCESS:    8498090  HIT:    8410923  MISS:      87167
L1D PREFETCH  ACCESS:   58548477  HIT:   52456330  MISS:    6092147
L1D WRITEBACK ACCESS:          0  HIT:          0  MISS:          0
L1D PREFETCH  REQUESTED:   93715017  ISSUED:   92847264  USEFUL:    2010735  USELESS:    4081485
L1D TOTAL MSHR MERGED:   15006356
L1D LOAD MSHR MERGED:    7097990
L1D RFO MSHR MERGED:     126443
L1D PREFETCH MSHR MERGED:    7781923
L1D WRITEBACK MSHR MERGED:          0
L1D TOTAL ACCESSES:  172059578 HITS:  139737543 MISSES:   32322035
L1D LOAD ACCESSES:   93715021 HITS:   78870139 MISSES:   14844882
L1D RFO ACCESSES:    8622684 HITS:    8410923 MISSES:     211761
L1D PREFETCH ACCESSES:   69721873 HITS:   52456481 MISSES:   17265392
L1D WRITEBACK ACCESSES:          0 HITS:          0 MISSES:          0
L1D RQ ACCESS:  157122854
L1D RQ TO_CACHE:   93715017
L1D RQ MERGED:   63407833
L1D RQ FORWARD:          0
L1D WQ ACCESS:    8639208
L1D WQ TO_CACHE:    8622684
L1D WQ MERGED:      16524
L1D WQ FORWARD:        155
L1I TOTAL     ACCESS:  178803631  HIT:  178139940  MISS:     663691
L1I LOAD      ACCESS:  178803631  HIT:  178139940  MISS:     663691
L1I RFO       ACCESS:          0  HIT:          0  MISS:          0
L1I PREFETCH  ACCESS:          0  HIT:          0  MISS:          0
L1I WRITEBACK ACCESS:          0  HIT:          0  MISS:          0
L1I PREFETCH  REQUESTED:          0  ISSUED:          0  USEFUL:          0  USELESS:          0
L1I TOTAL MSHR MERGED:     597491
L1I LOAD MSHR MERGED:     597491
L1I RFO MSHR MERGED:          0
L1I PREFETCH MSHR MERGED:          0
L1I WRITEBACK MSHR MERGED:          0
L1I TOTAL ACCESSES:  179401122 HITS:  178139940 MISSES:    1261182
L1I LOAD ACCESSES:  179401122 HITS:  178139940 MISSES:    1261182
L1I RFO ACCESSES:          0 HITS:          0 MISSES:          0
L1I PREFETCH ACCESSES:          0 HITS:          0 MISSES:          0
L1I WRITEBACK ACCESSES:          0 HITS:          0 MISSES:          0
L1I RQ ACCESS:  499999757
L1I RQ TO_CACHE:  179401122
L1I RQ MERGED:  320598635
L1I RQ FORWARD:          0
L1I WQ ACCESS:          0
L1I WQ TO_CACHE:          0
L1I WQ MERGED:          0
L1I WQ FORWARD:          0
L2C TOTAL     ACCESS:   19277134  HIT:    2057599  MISS:   17219535
L2C LOAD      ACCESS:    8410478  HIT:     951316  MISS:    7459162
L2C RFO       ACCESS:      85295  HIT:      53739  MISS:      31556
L2C PREFETCH  ACCESS:   10496348  HIT:     770340  MISS:    9726008
L2C WRITEBACK ACCESS:     285013  HIT:     282204  MISS:       2809
L2C PREFETCH  REQUESTED:    1017215  ISSUED:    1017215  USEFUL:     274909  USELESS:    9450188
L2C TOTAL MSHR MERGED:       1022
L2C LOAD MSHR MERGED:        217
L2C RFO MSHR MERGED:          1
L2C PREFETCH MSHR MERGED:        804
L2C WRITEBACK MSHR MERGED:          0
L2C TOTAL ACCESSES:   19280337 HITS:    2057793 MISSES:   17222544
L2C LOAD ACCESSES:    8410583 HITS:     951421 MISSES:    7459162
L2C RFO ACCESSES:      85318 HITS:      53762 MISSES:      31556
L2C PREFETCH ACCESSES:   10499423 HITS:     770406 MISSES:    9729017
L2C WRITEBACK ACCESSES:     285013 HITS:     282204 MISSES:       2809
L2C RQ ACCESS:    8495901
L2C RQ TO_CACHE:    8495773
L2C RQ MERGED:          0
L2C RQ FORWARD:          0
L2C WQ ACCESS:     285013
L2C WQ TO_CACHE:     285013
L2C WQ MERGED:          0
L2C WQ FORWARD:        194
LLC TOTAL     ACCESS:   17324769  HIT:    5189728  MISS:   12135041
LLC LOAD      ACCESS:    7458945  HIT:    4149038  MISS:    3309907
LLC RFO       ACCESS:      31555  HIT:      15169  MISS:      16386
LLC PREFETCH  ACCESS:    9728212  HIT:     944584  MISS:    8783628
LLC WRITEBACK ACCESS:     106057  HIT:      80937  MISS:      25120
LLC PREFETCH  REQUESTED:          0  ISSUED:          0  USEFUL:       1971  USELESS:    8780944
LLC TOTAL MSHR MERGED:          1
LLC LOAD MSHR MERGED:          0
LLC RFO MSHR MERGED:          0
LLC PREFETCH MSHR MERGED:          1
LLC WRITEBACK MSHR MERGED:          0
LLC TOTAL ACCESSES:   17324770 HITS:    5189728 MISSES:   12135042
LLC LOAD ACCESSES:    7458945 HITS:    4149038 MISSES:    3309907
LLC RFO ACCESSES:      31555 HITS:      15169 MISSES:      16386
LLC PREFETCH ACCESSES:    9728213 HITS:     944584 MISSES:    8783629
LLC WRITEBACK ACCESSES:     106057 HITS:      80937 MISSES:      25120
LLC 0 RQ ACCESS:    7490500
LLC 0 RQ TO_CACHE:    7490500
LLC 0 RQ MERGED:          0
LLC 0 RQ FORWARD:          0
LLC WQ ACCESS:     106057
LLC WQ TO_CACHE:     106057
LLC WQ MERGED:          0
LLC WQ FORWARD:          0
Major fault: 0 Minor fault: 6432
CPU 0 L1D next line prefetcher final stats
CPU 0 L2C PC-based stride prefetcher final stats
All Misses: 14346650
All Hits: 6197844
SD Algo Stats - Switches: 0 SRR-Repls: 3546167 BRR-Repls: 0

DRAM Statistics
 CHANNEL 0
 RQ ROW_BUFFER_HIT:    9097850  ROW_BUFFER_MISS:    3006236
 DBUS_CONGESTED:    5599094
 WQ ROW_BUFFER_HIT:       1587  ROW_BUFFER_MISS:      49238  FULL:          0

 AVG_CONGESTED_CYCLE: 12
LOADS RETIRED: 157382665
INSTR RETIRED: 500000000
