
*** ChampSim Multicore Out-of-Order Simulator ***

Warmup Instructions: 100000000
Simulation Instructions: 500000000
Number of CPUs: 1
LLC sets: 2048
LLC ways: 16
Clean RRIP Policies: 2213230222132302 Dirty RRIP Policies: 2203030222030302 PSEL Width: 10 Track Set: 4294967295 PSEL Mask: 1 Demote Mask: 4040100340401003DS Algo: 0Window size: 0
Off-chip DRAM Size: 4096 MB Channels: 1 Width: 64-bit Data Rate: 1600 MT/s

CPU 0 runs /mnt/beegfs/iconst01/spec2017/Xz.trace.gz
NOT SORTED
TRACE STRING: /mnt/beegfs/iconst01/spec2017/Xz.trace.gz
SORTED
TRACE STRING: /mnt/beegfs/iconst01/spec2017/Xz.trace.gz
INITIAL
TRACE STRING: /mnt/beegfs/iconst01/spec2017/Xz.trace.gz

champsim_seed used: 210

CPU 0 L1D next line prefetcher
CPU 0 L2C IP-based stride prefetcher
Initialize DRRIP state
Assign rand_sets[0]: 454  LLC: 2048
rand_sets[0]: 454
Assign rand_sets[1]: 1662  LLC: 2048
rand_sets[1]: 1662
Assign rand_sets[2]: 1921  LLC: 2048
rand_sets[2]: 1921
Assign rand_sets[3]: 1131  LLC: 2048
rand_sets[3]: 1131
Assign rand_sets[4]: 331  LLC: 2048
rand_sets[4]: 331
Assign rand_sets[5]: 1531  LLC: 2048
rand_sets[5]: 1531
Assign rand_sets[6]: 482  LLC: 2048
rand_sets[6]: 482
Assign rand_sets[7]: 1275  LLC: 2048
rand_sets[7]: 1275
Assign rand_sets[8]: 1876  LLC: 2048
rand_sets[8]: 1876
Assign rand_sets[9]: 2038  LLC: 2048
rand_sets[9]: 2038
Assign rand_sets[10]: 701  LLC: 2048
rand_sets[10]: 701
Assign rand_sets[11]: 479  LLC: 2048
rand_sets[11]: 479
Assign rand_sets[12]: 892  LLC: 2048
rand_sets[12]: 892
Assign rand_sets[13]: 1820  LLC: 2048
rand_sets[13]: 1820
Assign rand_sets[14]: 1505  LLC: 2048
rand_sets[14]: 1505
Assign rand_sets[15]: 1159  LLC: 2048
rand_sets[15]: 1159
Assign rand_sets[16]: 513  LLC: 2048
rand_sets[16]: 513
Assign rand_sets[17]: 703  LLC: 2048
rand_sets[17]: 703
Assign rand_sets[18]: 561  LLC: 2048
rand_sets[18]: 561
Assign rand_sets[19]: 990  LLC: 2048
rand_sets[19]: 990
Assign rand_sets[20]: 342  LLC: 2048
rand_sets[20]: 342
Assign rand_sets[21]: 882  LLC: 2048
rand_sets[21]: 882
Assign rand_sets[22]: 15  LLC: 2048
rand_sets[22]: 15
Assign rand_sets[23]: 71  LLC: 2048
rand_sets[23]: 71
Assign rand_sets[24]: 1127  LLC: 2048
rand_sets[24]: 1127
Assign rand_sets[25]: 1382  LLC: 2048
rand_sets[25]: 1382
Assign rand_sets[26]: 647  LLC: 2048
rand_sets[26]: 647
Assign rand_sets[27]: 857  LLC: 2048
rand_sets[27]: 857
Assign rand_sets[28]: 1450  LLC: 2048
rand_sets[28]: 1450
Assign rand_sets[29]: 1160  LLC: 2048
rand_sets[29]: 1160
Assign rand_sets[30]: 1852  LLC: 2048
rand_sets[30]: 1852
Assign rand_sets[31]: 1881  LLC: 2048
rand_sets[31]: 1881
Assign rand_sets[32]: 1770  LLC: 2048
rand_sets[32]: 1770
Assign rand_sets[33]: 1622  LLC: 2048
rand_sets[33]: 1622
Assign rand_sets[34]: 275  LLC: 2048
rand_sets[34]: 275
Assign rand_sets[35]: 635  LLC: 2048
rand_sets[35]: 635
Assign rand_sets[36]: 466  LLC: 2048
rand_sets[36]: 466
Assign rand_sets[37]: 1413  LLC: 2048
rand_sets[37]: 1413
Assign rand_sets[38]: 417  LLC: 2048
rand_sets[38]: 417
Assign rand_sets[39]: 472  LLC: 2048
rand_sets[39]: 472
Assign rand_sets[40]: 1340  LLC: 2048
rand_sets[40]: 1340
Assign rand_sets[41]: 852  LLC: 2048
rand_sets[41]: 852
Assign rand_sets[42]: 1365  LLC: 2048
rand_sets[42]: 1365
Assign rand_sets[43]: 47  LLC: 2048
rand_sets[43]: 47
Assign rand_sets[44]: 823  LLC: 2048
rand_sets[44]: 823
Assign rand_sets[45]: 686  LLC: 2048
rand_sets[45]: 686
Assign rand_sets[46]: 1637  LLC: 2048
rand_sets[46]: 1637
Assign rand_sets[47]: 1115  LLC: 2048
rand_sets[47]: 1115
Assign rand_sets[48]: 986  LLC: 2048
rand_sets[48]: 986
Assign rand_sets[49]: 258  LLC: 2048
rand_sets[49]: 258
Assign rand_sets[50]: 633  LLC: 2048
rand_sets[50]: 633
Assign rand_sets[51]: 920  LLC: 2048
rand_sets[51]: 920
Assign rand_sets[52]: 204  LLC: 2048
rand_sets[52]: 204
Assign rand_sets[53]: 227  LLC: 2048
rand_sets[53]: 227
Assign rand_sets[54]: 1818  LLC: 2048
rand_sets[54]: 1818
Assign rand_sets[55]: 886  LLC: 2048
rand_sets[55]: 886
Assign rand_sets[56]: 1422  LLC: 2048
rand_sets[56]: 1422
Assign rand_sets[57]: 607  LLC: 2048
rand_sets[57]: 607
Assign rand_sets[58]: 217  LLC: 2048
rand_sets[58]: 217
Assign rand_sets[59]: 1945  LLC: 2048
rand_sets[59]: 1945
Assign rand_sets[60]: 143  LLC: 2048
rand_sets[60]: 143
Assign rand_sets[61]: 1311  LLC: 2048
rand_sets[61]: 1311
Assign rand_sets[62]: 319  LLC: 2048
rand_sets[62]: 319
Assign rand_sets[63]: 1846  LLC: 2048
rand_sets[63]: 1846
 CLEAN-RRIP-POLICY-1: 2-2-1-3-2-3-0-2- CLEAN-RRIP-POLICY-2: 2-2-1-3-2-3-0-2-
 DIRTY-RRIP-POLICY-1: 2-2-0-3-0-3-0-2- DIRTY-RRIP-POLICY-2: 2-2-0-3-0-3-0-2-
 PSEL width: 10
Heartbeat CPU 0 instructions: 10000000 cycles: 4305270 heartbeat IPC: 2.32273 cumulative IPC: 2.32273 (Simulation time: 0 hr 0 min 13 sec) 
Heartbeat CPU 0 instructions: 20000000 cycles: 8617101 heartbeat IPC: 2.3192 cumulative IPC: 2.32097 (Simulation time: 0 hr 0 min 25 sec) 
Heartbeat CPU 0 instructions: 30000003 cycles: 13160977 heartbeat IPC: 2.20076 cumulative IPC: 2.27947 (Simulation time: 0 hr 0 min 38 sec) 
Heartbeat CPU 0 instructions: 40000000 cycles: 17515447 heartbeat IPC: 2.29649 cumulative IPC: 2.2837 (Simulation time: 0 hr 0 min 51 sec) 
Heartbeat CPU 0 instructions: 50000001 cycles: 21878249 heartbeat IPC: 2.29211 cumulative IPC: 2.28537 (Simulation time: 0 hr 1 min 3 sec) 
Heartbeat CPU 0 instructions: 60000000 cycles: 26178425 heartbeat IPC: 2.32549 cumulative IPC: 2.29196 (Simulation time: 0 hr 1 min 15 sec) 
Heartbeat CPU 0 instructions: 70000001 cycles: 30244297 heartbeat IPC: 2.4595 cumulative IPC: 2.31449 (Simulation time: 0 hr 1 min 27 sec) 
Heartbeat CPU 0 instructions: 80000000 cycles: 34523055 heartbeat IPC: 2.33713 cumulative IPC: 2.31729 (Simulation time: 0 hr 1 min 39 sec) 
Heartbeat CPU 0 instructions: 90000001 cycles: 38739660 heartbeat IPC: 2.37158 cumulative IPC: 2.3232 (Simulation time: 0 hr 1 min 50 sec) 
Heartbeat CPU 0 instructions: 100000000 cycles: 42980045 heartbeat IPC: 2.35828 cumulative IPC: 2.32666 (Simulation time: 0 hr 2 min 2 sec) 

Warmup complete CPU 0 instructions: 100000001 cycles: 42980046 (Simulation time: 0 hr 2 min 2 sec) 

Heartbeat CPU 0 instructions: 110000000 cycles: 53111295 heartbeat IPC: 0.987045 cumulative IPC: 0.987045 (Simulation time: 0 hr 2 min 20 sec) 
Heartbeat CPU 0 instructions: 120000000 cycles: 63746917 heartbeat IPC: 0.940237 cumulative IPC: 0.963072 (Simulation time: 0 hr 2 min 38 sec) 
Heartbeat CPU 0 instructions: 130000001 cycles: 74350462 heartbeat IPC: 0.943081 cumulative IPC: 0.956315 (Simulation time: 0 hr 2 min 56 sec) 
Heartbeat CPU 0 instructions: 140000000 cycles: 84040656 heartbeat IPC: 1.03197 cumulative IPC: 0.97417 (Simulation time: 0 hr 3 min 14 sec) 
Heartbeat CPU 0 instructions: 150000001 cycles: 94356116 heartbeat IPC: 0.969419 cumulative IPC: 0.973216 (Simulation time: 0 hr 3 min 32 sec) 
Heartbeat CPU 0 instructions: 160000000 cycles: 104419270 heartbeat IPC: 0.993724 cumulative IPC: 0.976575 (Simulation time: 0 hr 3 min 50 sec) 
Heartbeat CPU 0 instructions: 170000000 cycles: 114096085 heartbeat IPC: 1.0334 cumulative IPC: 0.984307 (Simulation time: 0 hr 4 min 7 sec) 
Heartbeat CPU 0 instructions: 180000000 cycles: 124653944 heartbeat IPC: 0.947162 cumulative IPC: 0.979505 (Simulation time: 0 hr 4 min 26 sec) 
Heartbeat CPU 0 instructions: 190000001 cycles: 134918836 heartbeat IPC: 0.974194 cumulative IPC: 0.978912 (Simulation time: 0 hr 4 min 44 sec) 
Heartbeat CPU 0 instructions: 200000000 cycles: 145494141 heartbeat IPC: 0.945599 cumulative IPC: 0.975476 (Simulation time: 0 hr 5 min 2 sec) 
Heartbeat CPU 0 instructions: 210000002 cycles: 157949144 heartbeat IPC: 0.80289 cumulative IPC: 0.956779 (Simulation time: 0 hr 5 min 21 sec) 
Heartbeat CPU 0 instructions: 220000000 cycles: 170498389 heartbeat IPC: 0.796861 cumulative IPC: 0.941041 (Simulation time: 0 hr 5 min 41 sec) 
Heartbeat CPU 0 instructions: 230000000 cycles: 182686704 heartbeat IPC: 0.820458 cumulative IPC: 0.930521 (Simulation time: 0 hr 6 min 0 sec) 
Heartbeat CPU 0 instructions: 240000000 cycles: 194846649 heartbeat IPC: 0.822372 cumulative IPC: 0.921862 (Simulation time: 0 hr 6 min 19 sec) 
Heartbeat CPU 0 instructions: 250000000 cycles: 206839507 heartbeat IPC: 0.83383 cumulative IPC: 0.915419 (Simulation time: 0 hr 6 min 39 sec) 
Heartbeat CPU 0 instructions: 260000000 cycles: 218410089 heartbeat IPC: 0.864261 cumulative IPC: 0.912044 (Simulation time: 0 hr 6 min 58 sec) 
Heartbeat CPU 0 instructions: 270000003 cycles: 230301618 heartbeat IPC: 0.840935 cumulative IPC: 0.90753 (Simulation time: 0 hr 7 min 17 sec) 
Heartbeat CPU 0 instructions: 280000000 cycles: 241857743 heartbeat IPC: 0.865342 cumulative IPC: 0.905079 (Simulation time: 0 hr 7 min 36 sec) 
Heartbeat CPU 0 instructions: 290000002 cycles: 253400880 heartbeat IPC: 0.866316 cumulative IPC: 0.902952 (Simulation time: 0 hr 7 min 55 sec) 
Heartbeat CPU 0 instructions: 300000000 cycles: 265854693 heartbeat IPC: 0.802967 cumulative IPC: 0.897365 (Simulation time: 0 hr 8 min 14 sec) 
Heartbeat CPU 0 instructions: 310000000 cycles: 278041947 heartbeat IPC: 0.820529 cumulative IPC: 0.893382 (Simulation time: 0 hr 8 min 33 sec) 
Heartbeat CPU 0 instructions: 320000000 cycles: 290706590 heartbeat IPC: 0.7896 cumulative IPC: 0.888076 (Simulation time: 0 hr 8 min 53 sec) 
Heartbeat CPU 0 instructions: 330000003 cycles: 302674058 heartbeat IPC: 0.835599 cumulative IPC: 0.885658 (Simulation time: 0 hr 9 min 12 sec) 
Heartbeat CPU 0 instructions: 340000000 cycles: 314816857 heartbeat IPC: 0.823533 cumulative IPC: 0.882883 (Simulation time: 0 hr 9 min 31 sec) 
Heartbeat CPU 0 instructions: 350000001 cycles: 325821804 heartbeat IPC: 0.908682 cumulative IPC: 0.883886 (Simulation time: 0 hr 9 min 50 sec) 
Heartbeat CPU 0 instructions: 360000000 cycles: 337636387 heartbeat IPC: 0.846412 cumulative IPC: 0.882384 (Simulation time: 0 hr 10 min 9 sec) 
Heartbeat CPU 0 instructions: 370000001 cycles: 349056842 heartbeat IPC: 0.875622 cumulative IPC: 0.882132 (Simulation time: 0 hr 10 min 28 sec) 
Heartbeat CPU 0 instructions: 380000000 cycles: 360073566 heartbeat IPC: 0.907711 cumulative IPC: 0.88302 (Simulation time: 0 hr 10 min 47 sec) 
Heartbeat CPU 0 instructions: 390000003 cycles: 370710500 heartbeat IPC: 0.940121 cumulative IPC: 0.884874 (Simulation time: 0 hr 11 min 5 sec) 
Heartbeat CPU 0 instructions: 400000000 cycles: 380946305 heartbeat IPC: 0.976962 cumulative IPC: 0.887663 (Simulation time: 0 hr 11 min 24 sec) 
Heartbeat CPU 0 instructions: 410000000 cycles: 391488472 heartbeat IPC: 0.948572 cumulative IPC: 0.889505 (Simulation time: 0 hr 11 min 42 sec) 
Heartbeat CPU 0 instructions: 420000000 cycles: 400885894 heartbeat IPC: 1.06412 cumulative IPC: 0.89409 (Simulation time: 0 hr 12 min 0 sec) 
Heartbeat CPU 0 instructions: 430000002 cycles: 409978702 heartbeat IPC: 1.09977 cumulative IPC: 0.899186 (Simulation time: 0 hr 12 min 18 sec) 
Heartbeat CPU 0 instructions: 440000000 cycles: 420254929 heartbeat IPC: 0.97312 cumulative IPC: 0.9012 (Simulation time: 0 hr 12 min 36 sec) 
Heartbeat CPU 0 instructions: 450000002 cycles: 431351947 heartbeat IPC: 0.901143 cumulative IPC: 0.901198 (Simulation time: 0 hr 12 min 55 sec) 
Heartbeat CPU 0 instructions: 460000000 cycles: 442910938 heartbeat IPC: 0.865127 cumulative IPC: 0.900156 (Simulation time: 0 hr 13 min 14 sec) 
Heartbeat CPU 0 instructions: 470000003 cycles: 453116038 heartbeat IPC: 0.979903 cumulative IPC: 0.90214 (Simulation time: 0 hr 13 min 32 sec) 
Heartbeat CPU 0 instructions: 480000000 cycles: 463663747 heartbeat IPC: 0.948073 cumulative IPC: 0.903291 (Simulation time: 0 hr 13 min 51 sec) 
Heartbeat CPU 0 instructions: 490000000 cycles: 473629814 heartbeat IPC: 1.0034 cumulative IPC: 0.905608 (Simulation time: 0 hr 14 min 9 sec) 
Heartbeat CPU 0 instructions: 500000000 cycles: 485425742 heartbeat IPC: 0.84775 cumulative IPC: 0.904066 (Simulation time: 0 hr 14 min 28 sec) 
Heartbeat CPU 0 instructions: 510000002 cycles: 497843437 heartbeat IPC: 0.805303 cumulative IPC: 0.90137 (Simulation time: 0 hr 14 min 48 sec) 
Heartbeat CPU 0 instructions: 520000000 cycles: 509709361 heartbeat IPC: 0.842749 cumulative IPC: 0.899879 (Simulation time: 0 hr 15 min 7 sec) 
Heartbeat CPU 0 instructions: 530000001 cycles: 521564288 heartbeat IPC: 0.843531 cumulative IPC: 0.898483 (Simulation time: 0 hr 15 min 26 sec) 
Heartbeat CPU 0 instructions: 540000000 cycles: 533178149 heartbeat IPC: 0.86104 cumulative IPC: 0.897596 (Simulation time: 0 hr 15 min 45 sec) 
Heartbeat CPU 0 instructions: 550000001 cycles: 544582775 heartbeat IPC: 0.876837 cumulative IPC: 0.897124 (Simulation time: 0 hr 16 min 4 sec) 
Heartbeat CPU 0 instructions: 560000000 cycles: 556150867 heartbeat IPC: 0.864447 cumulative IPC: 0.896388 (Simulation time: 0 hr 16 min 23 sec) 
Heartbeat CPU 0 instructions: 570000000 cycles: 567569538 heartbeat IPC: 0.875759 cumulative IPC: 0.895939 (Simulation time: 0 hr 16 min 42 sec) 
Heartbeat CPU 0 instructions: 580000000 cycles: 578336965 heartbeat IPC: 0.928727 cumulative IPC: 0.896598 (Simulation time: 0 hr 17 min 0 sec) 
Heartbeat CPU 0 instructions: 590000003 cycles: 589746306 heartbeat IPC: 0.876475 cumulative IPC: 0.896178 (Simulation time: 0 hr 17 min 19 sec) 
Heartbeat CPU 0 instructions: 600000000 cycles: 600337025 heartbeat IPC: 0.944223 cumulative IPC: 0.897091 (Simulation time: 0 hr 17 min 37 sec) 
Finished CPU 0 instructions: 500000001 cycles: 557356987 cumulative IPC: 0.897091 (Simulation time: 0 hr 17 min 37 sec) 

CPU 0 Branch Prediction Accuracy: 93.0095% MPKI: 10.0046
Number of Branches: 71558147 Number of Mispredictions: 5002285
Number of LOAD Instructions: 145708893
Number of LOAD Instructions (ROI): 145708893
Number of STORE Instructions: 40463820
Number of STORE Instructions (ROI): 40463820
Total Destination Memory Operands: 45240498
Total Destination Memory Operands (ROI): 45240498
Total Source Memory Operands: 145708893
Total Source Memory Operands (ROI): 145708893
Number of DEPENDED LOADS: 10675434
Number of DEPENDED LOADS (ROI): 10675434
Number of SQ_ADDED: 45240498
Number of SQ_ADDED (ROI): 45240498
Number of LQ_ADDED: 193323571
Number of LQ_ADDED (ROI): 193323571
Number of Instructions read from trace: 600000002

ChampSim completed all CPUs

Region of Interest Statistics

CPU 0 cumulative IPC: 0.897091 instructions: 500000001 cycles: 557356987
ITLB TOTAL     ACCESS:   77991904  HIT:   77991903  MISS:          1
ITLB LOAD      ACCESS:   77991904  HIT:   77991903  MISS:          1
ITLB RFO       ACCESS:          0  HIT:          0  MISS:          0
ITLB PREFETCH  ACCESS:          0  HIT:          0  MISS:          0
ITLB WRITEBACK ACCESS:          0  HIT:          0  MISS:          0
ITLB PREFETCH  REQUESTED:          0  ISSUED:          0  USEFUL:          0  USELESS:          0
ITLB TOTAL MSHR MERGED:          0
ITLB LOAD MSHR MERGED:          0
ITLB RFO MSHR MERGED:          0
ITLB PREFETCH MSHR MERGED:          0
ITLB WRITEBACK MSHR MERGED:          0
ITLB TOTAL ACCESSES:   77991904 HITS:   77991903 MISSES:          1
ITLB LOAD ACCESSES:   77991904 HITS:   77991903 MISSES:          1
ITLB RFO ACCESSES:          0 HITS:          0 MISSES:          0
ITLB PREFETCH ACCESSES:          0 HITS:          0 MISSES:          0
ITLB WRITEBACK ACCESSES:          0 HITS:          0 MISSES:          0
ITLB RQ ACCESS:  499999995
ITLB RQ TO_CACHE:   77991904
ITLB RQ MERGED:  422008091
ITLB RQ FORWARD:          0
ITLB WQ ACCESS:          0
ITLB WQ TO_CACHE:          0
ITLB WQ MERGED:          0
ITLB WQ FORWARD:          0
DTLB TOTAL     ACCESS:   98671413  HIT:   97790076  MISS:     881337
DTLB LOAD      ACCESS:   70891420  HIT:   70029886  MISS:     861534
DTLB RFO       ACCESS:   27779993  HIT:   27760190  MISS:      19803
DTLB PREFETCH  ACCESS:          0  HIT:          0  MISS:          0
DTLB WRITEBACK ACCESS:          0  HIT:          0  MISS:          0
DTLB PREFETCH  REQUESTED:          0  ISSUED:          0  USEFUL:          0  USELESS:          0
DTLB TOTAL MSHR MERGED:      87397
DTLB LOAD MSHR MERGED:      65654
DTLB RFO MSHR MERGED:      21743
DTLB PREFETCH MSHR MERGED:          0
DTLB WRITEBACK MSHR MERGED:          0
DTLB TOTAL ACCESSES:   98758810 HITS:   97790076 MISSES:     968734
DTLB LOAD ACCESSES:   70957074 HITS:   70029886 MISSES:     927188
DTLB RFO ACCESSES:   27801736 HITS:   27760190 MISSES:      41546
DTLB PREFETCH ACCESSES:          0 HITS:          0 MISSES:          0
DTLB WRITEBACK ACCESSES:          0 HITS:          0 MISSES:          0
DTLB RQ ACCESS:  150269622
DTLB RQ TO_CACHE:   98758810
DTLB RQ MERGED:   51510812
DTLB RQ FORWARD:          0
DTLB WQ ACCESS:          0
DTLB WQ TO_CACHE:          0
DTLB WQ MERGED:          0
DTLB WQ FORWARD:          0
L1D TOTAL     ACCESS:  173324097  HIT:  169155467  MISS:    4168630
L1D LOAD      ACCESS:   75278644  HIT:   73397313  MISS:    1881331
L1D RFO       ACCESS:   36778332  HIT:   36571718  MISS:     206614
L1D PREFETCH  ACCESS:   61267121  HIT:   59186436  MISS:    2080685
L1D WRITEBACK ACCESS:          0  HIT:          0  MISS:          0
L1D PREFETCH  REQUESTED:   75381643  ISSUED:   74817458  USEFUL:     415129  USELESS:    1665545
L1D TOTAL MSHR MERGED:     371345
L1D LOAD MSHR MERGED:     111763
L1D RFO MSHR MERGED:     133058
L1D PREFETCH MSHR MERGED:     126524
L1D WRITEBACK MSHR MERGED:          0
L1D TOTAL ACCESSES:  173847292 HITS:  169307317 MISSES:    4539975
L1D LOAD ACCESSES:   75384784 HITS:   73400454 MISSES:    1984330
L1D RFO ACCESSES:   36909985 HITS:   36571718 MISSES:     338267
L1D PREFETCH ACCESSES:   61552523 HITS:   59335145 MISSES:    2217378
L1D WRITEBACK ACCESSES:          0 HITS:          0 MISSES:          0
L1D RQ ACCESS:  112607219
L1D RQ TO_CACHE:   75381643
L1D RQ MERGED:   37222435
L1D RQ FORWARD:          0
L1D WQ ACCESS:   37662403
L1D WQ TO_CACHE:   36909985
L1D WQ MERGED:     752418
L1D WQ FORWARD:     151850
L1I TOTAL     ACCESS:  100699841  HIT:  100699816  MISS:         25
L1I LOAD      ACCESS:  100699841  HIT:  100699816  MISS:         25
L1I RFO       ACCESS:          0  HIT:          0  MISS:          0
L1I PREFETCH  ACCESS:          0  HIT:          0  MISS:          0
L1I WRITEBACK ACCESS:          0  HIT:          0  MISS:          0
L1I PREFETCH  REQUESTED:          0  ISSUED:          0  USEFUL:          0  USELESS:          0
L1I TOTAL MSHR MERGED:         10
L1I LOAD MSHR MERGED:         10
L1I RFO MSHR MERGED:          0
L1I PREFETCH MSHR MERGED:          0
L1I WRITEBACK MSHR MERGED:          0
L1I TOTAL ACCESSES:  100699851 HITS:  100699816 MISSES:         35
L1I LOAD ACCESSES:  100699851 HITS:  100699816 MISSES:         35
L1I RFO ACCESSES:          0 HITS:          0 MISSES:          0
L1I PREFETCH ACCESSES:          0 HITS:          0 MISSES:          0
L1I WRITEBACK ACCESSES:          0 HITS:          0 MISSES:          0
L1I RQ ACCESS:  499999995
L1I RQ TO_CACHE:  100699851
L1I RQ MERGED:  399300144
L1I RQ FORWARD:          0
L1I WQ ACCESS:          0
L1I WQ TO_CACHE:          0
L1I WQ MERGED:          0
L1I WQ FORWARD:          0
L2C TOTAL     ACCESS:    5852628  HIT:    4009433  MISS:    1843195
L2C LOAD      ACCESS:    1872467  HIT:    1061521  MISS:     810946
L2C RFO       ACCESS:     205200  HIT:     100560  MISS:     104640
L2C PREFETCH  ACCESS:    2169327  HIT:    1246138  MISS:     923189
L2C WRITEBACK ACCESS:    1605634  HIT:    1601214  MISS:       4420
L2C PREFETCH  REQUESTED:      91709  ISSUED:      91709  USEFUL:      86462  USELESS:     836750
L2C TOTAL MSHR MERGED:        968
L2C LOAD MSHR MERGED:        246
L2C RFO MSHR MERGED:          0
L2C PREFETCH MSHR MERGED:        722
L2C WRITEBACK MSHR MERGED:          0
L2C TOTAL ACCESSES:    5853927 HITS:    4009604 MISSES:    1844323
L2C LOAD ACCESSES:    1872592 HITS:    1061646 MISSES:     810946
L2C RFO ACCESSES:     205209 HITS:     100569 MISSES:     104640
L2C PREFETCH ACCESSES:    2170492 HITS:    1246175 MISSES:     924317
L2C WRITEBACK ACCESSES:    1605634 HITS:    1601214 MISSES:       4420
L2C RQ ACCESS:    2077801
L2C RQ TO_CACHE:    2077667
L2C RQ MERGED:          0
L2C RQ FORWARD:          0
L2C WQ ACCESS:    1605634
L2C WQ TO_CACHE:    1605634
L2C WQ MERGED:          0
L2C WQ FORWARD:        171
LLC TOTAL     ACCESS:    2673581  HIT:    2189927  MISS:     483654
LLC LOAD      ACCESS:     810691  HIT:     633942  MISS:     176749
LLC RFO       ACCESS:     104640  HIT:      59761  MISS:      44879
LLC PREFETCH  ACCESS:     923576  HIT:     691450  MISS:     232126
LLC WRITEBACK ACCESS:     834674  HIT:     804774  MISS:      29900
LLC PREFETCH  REQUESTED:          0  ISSUED:          0  USEFUL:       8740  USELESS:     223411
LLC TOTAL MSHR MERGED:          5
LLC LOAD MSHR MERGED:          2
LLC RFO MSHR MERGED:          0
LLC PREFETCH MSHR MERGED:          3
LLC WRITEBACK MSHR MERGED:          0
LLC TOTAL ACCESSES:    2673597 HITS:    2189938 MISSES:     483659
LLC LOAD ACCESSES:     810700 HITS:     633951 MISSES:     176749
LLC RFO ACCESSES:     104640 HITS:      59761 MISSES:      44879
LLC PREFETCH ACCESSES:     923583 HITS:     691452 MISSES:     232131
LLC WRITEBACK ACCESSES:     834674 HITS:     804774 MISSES:      29900
LLC 0 RQ ACCESS:     915340
LLC 0 RQ TO_CACHE:     915331
LLC 0 RQ MERGED:          0
LLC 0 RQ FORWARD:          0
LLC WQ ACCESS:     834674
LLC WQ TO_CACHE:     834674
LLC WQ MERGED:          0
LLC WQ FORWARD:         11
Major fault: 0 Minor fault: 11278
CPU 0 L1D next line prefetcher final stats
CPU 0 L2C PC-based stride prefetcher final stats
All Misses: 595900
All Hits: 2458699
SD Algo Stats - Switches: 0 SRR-Repls: 209693 BRR-Repls: 0

DRAM Statistics
 CHANNEL 0
 RQ ROW_BUFFER_HIT:      28548  ROW_BUFFER_MISS:     424750
 DBUS_CONGESTED:     358787
 WQ ROW_BUFFER_HIT:      15629  ROW_BUFFER_MISS:     215670  FULL:          0

 AVG_CONGESTED_CYCLE: 13
LOADS RETIRED: 121769268
INSTR RETIRED: 500000000
