
*** ChampSim Multicore Out-of-Order Simulator ***

Warmup Instructions: 100000000
Simulation Instructions: 500000000
Number of CPUs: 1
LLC sets: 2048
LLC ways: 16
Clean RRIP Policies: 1013010110130101 Dirty RRIP Policies: 1013010110130101 PSEL Width: 10 Track Set: 4294967295 PSEL Mask: 1 Demote Mask: 4000211440002114DS Algo: 0Window size: 0
Off-chip DRAM Size: 4096 MB Channels: 1 Width: 64-bit Data Rate: 1600 MT/s

CPU 0 runs /mnt/beegfs/iconst01/spec2017/Gcc.trace.gz
NOT SORTED
TRACE STRING: /mnt/beegfs/iconst01/spec2017/Gcc.trace.gz
SORTED
TRACE STRING: /mnt/beegfs/iconst01/spec2017/Gcc.trace.gz
INITIAL
TRACE STRING: /mnt/beegfs/iconst01/spec2017/Gcc.trace.gz

champsim_seed used: 269

CPU 0 L1D next line prefetcher
CPU 0 L2C IP-based stride prefetcher
Initialize DRRIP state
Assign rand_sets[0]: 454  LLC: 2048
rand_sets[0]: 454
Assign rand_sets[1]: 1662  LLC: 2048
rand_sets[1]: 1662
Assign rand_sets[2]: 1921  LLC: 2048
rand_sets[2]: 1921
Assign rand_sets[3]: 1131  LLC: 2048
rand_sets[3]: 1131
Assign rand_sets[4]: 331  LLC: 2048
rand_sets[4]: 331
Assign rand_sets[5]: 1531  LLC: 2048
rand_sets[5]: 1531
Assign rand_sets[6]: 482  LLC: 2048
rand_sets[6]: 482
Assign rand_sets[7]: 1275  LLC: 2048
rand_sets[7]: 1275
Assign rand_sets[8]: 1876  LLC: 2048
rand_sets[8]: 1876
Assign rand_sets[9]: 2038  LLC: 2048
rand_sets[9]: 2038
Assign rand_sets[10]: 701  LLC: 2048
rand_sets[10]: 701
Assign rand_sets[11]: 479  LLC: 2048
rand_sets[11]: 479
Assign rand_sets[12]: 892  LLC: 2048
rand_sets[12]: 892
Assign rand_sets[13]: 1820  LLC: 2048
rand_sets[13]: 1820
Assign rand_sets[14]: 1505  LLC: 2048
rand_sets[14]: 1505
Assign rand_sets[15]: 1159  LLC: 2048
rand_sets[15]: 1159
Assign rand_sets[16]: 513  LLC: 2048
rand_sets[16]: 513
Assign rand_sets[17]: 703  LLC: 2048
rand_sets[17]: 703
Assign rand_sets[18]: 561  LLC: 2048
rand_sets[18]: 561
Assign rand_sets[19]: 990  LLC: 2048
rand_sets[19]: 990
Assign rand_sets[20]: 342  LLC: 2048
rand_sets[20]: 342
Assign rand_sets[21]: 882  LLC: 2048
rand_sets[21]: 882
Assign rand_sets[22]: 15  LLC: 2048
rand_sets[22]: 15
Assign rand_sets[23]: 71  LLC: 2048
rand_sets[23]: 71
Assign rand_sets[24]: 1127  LLC: 2048
rand_sets[24]: 1127
Assign rand_sets[25]: 1382  LLC: 2048
rand_sets[25]: 1382
Assign rand_sets[26]: 647  LLC: 2048
rand_sets[26]: 647
Assign rand_sets[27]: 857  LLC: 2048
rand_sets[27]: 857
Assign rand_sets[28]: 1450  LLC: 2048
rand_sets[28]: 1450
Assign rand_sets[29]: 1160  LLC: 2048
rand_sets[29]: 1160
Assign rand_sets[30]: 1852  LLC: 2048
rand_sets[30]: 1852
Assign rand_sets[31]: 1881  LLC: 2048
rand_sets[31]: 1881
Assign rand_sets[32]: 1770  LLC: 2048
rand_sets[32]: 1770
Assign rand_sets[33]: 1622  LLC: 2048
rand_sets[33]: 1622
Assign rand_sets[34]: 275  LLC: 2048
rand_sets[34]: 275
Assign rand_sets[35]: 635  LLC: 2048
rand_sets[35]: 635
Assign rand_sets[36]: 466  LLC: 2048
rand_sets[36]: 466
Assign rand_sets[37]: 1413  LLC: 2048
rand_sets[37]: 1413
Assign rand_sets[38]: 417  LLC: 2048
rand_sets[38]: 417
Assign rand_sets[39]: 472  LLC: 2048
rand_sets[39]: 472
Assign rand_sets[40]: 1340  LLC: 2048
rand_sets[40]: 1340
Assign rand_sets[41]: 852  LLC: 2048
rand_sets[41]: 852
Assign rand_sets[42]: 1365  LLC: 2048
rand_sets[42]: 1365
Assign rand_sets[43]: 47  LLC: 2048
rand_sets[43]: 47
Assign rand_sets[44]: 823  LLC: 2048
rand_sets[44]: 823
Assign rand_sets[45]: 686  LLC: 2048
rand_sets[45]: 686
Assign rand_sets[46]: 1637  LLC: 2048
rand_sets[46]: 1637
Assign rand_sets[47]: 1115  LLC: 2048
rand_sets[47]: 1115
Assign rand_sets[48]: 986  LLC: 2048
rand_sets[48]: 986
Assign rand_sets[49]: 258  LLC: 2048
rand_sets[49]: 258
Assign rand_sets[50]: 633  LLC: 2048
rand_sets[50]: 633
Assign rand_sets[51]: 920  LLC: 2048
rand_sets[51]: 920
Assign rand_sets[52]: 204  LLC: 2048
rand_sets[52]: 204
Assign rand_sets[53]: 227  LLC: 2048
rand_sets[53]: 227
Assign rand_sets[54]: 1818  LLC: 2048
rand_sets[54]: 1818
Assign rand_sets[55]: 886  LLC: 2048
rand_sets[55]: 886
Assign rand_sets[56]: 1422  LLC: 2048
rand_sets[56]: 1422
Assign rand_sets[57]: 607  LLC: 2048
rand_sets[57]: 607
Assign rand_sets[58]: 217  LLC: 2048
rand_sets[58]: 217
Assign rand_sets[59]: 1945  LLC: 2048
rand_sets[59]: 1945
Assign rand_sets[60]: 143  LLC: 2048
rand_sets[60]: 143
Assign rand_sets[61]: 1311  LLC: 2048
rand_sets[61]: 1311
Assign rand_sets[62]: 319  LLC: 2048
rand_sets[62]: 319
Assign rand_sets[63]: 1846  LLC: 2048
rand_sets[63]: 1846
 CLEAN-RRIP-POLICY-1: 1-0-1-3-0-1-0-1- CLEAN-RRIP-POLICY-2: 1-0-1-3-0-1-0-1-
 DIRTY-RRIP-POLICY-1: 1-0-1-3-0-1-0-1- DIRTY-RRIP-POLICY-2: 1-0-1-3-0-1-0-1-
 PSEL width: 10
Heartbeat CPU 0 instructions: 10000001 cycles: 7315980 heartbeat IPC: 1.36687 cumulative IPC: 1.36687 (Simulation time: 0 hr 0 min 15 sec) 
Heartbeat CPU 0 instructions: 20000000 cycles: 14307439 heartbeat IPC: 1.43032 cumulative IPC: 1.39787 (Simulation time: 0 hr 0 min 30 sec) 
Heartbeat CPU 0 instructions: 30000001 cycles: 21020255 heartbeat IPC: 1.48969 cumulative IPC: 1.42719 (Simulation time: 0 hr 0 min 47 sec) 
Heartbeat CPU 0 instructions: 40000000 cycles: 27481024 heartbeat IPC: 1.5478 cumulative IPC: 1.45555 (Simulation time: 0 hr 1 min 3 sec) 
Heartbeat CPU 0 instructions: 50000001 cycles: 33582605 heartbeat IPC: 1.63892 cumulative IPC: 1.48887 (Simulation time: 0 hr 1 min 19 sec) 
Heartbeat CPU 0 instructions: 60000000 cycles: 40063662 heartbeat IPC: 1.54296 cumulative IPC: 1.49762 (Simulation time: 0 hr 1 min 36 sec) 
Heartbeat CPU 0 instructions: 70000000 cycles: 47100815 heartbeat IPC: 1.42103 cumulative IPC: 1.48617 (Simulation time: 0 hr 1 min 51 sec) 
Heartbeat CPU 0 instructions: 80000000 cycles: 54190107 heartbeat IPC: 1.41058 cumulative IPC: 1.47628 (Simulation time: 0 hr 2 min 6 sec) 
Heartbeat CPU 0 instructions: 90000003 cycles: 61194218 heartbeat IPC: 1.42773 cumulative IPC: 1.47073 (Simulation time: 0 hr 2 min 21 sec) 
Heartbeat CPU 0 instructions: 100000000 cycles: 68361108 heartbeat IPC: 1.3953 cumulative IPC: 1.46282 (Simulation time: 0 hr 2 min 36 sec) 

Warmup complete CPU 0 instructions: 100000004 cycles: 68361109 (Simulation time: 0 hr 2 min 36 sec) 

Heartbeat CPU 0 instructions: 110000003 cycles: 95952125 heartbeat IPC: 0.362437 cumulative IPC: 0.362437 (Simulation time: 0 hr 3 min 6 sec) 
Heartbeat CPU 0 instructions: 120000000 cycles: 123381878 heartbeat IPC: 0.364568 cumulative IPC: 0.363499 (Simulation time: 0 hr 3 min 36 sec) 
Heartbeat CPU 0 instructions: 130000000 cycles: 148336747 heartbeat IPC: 0.400723 cumulative IPC: 0.375114 (Simulation time: 0 hr 4 min 6 sec) 
Heartbeat CPU 0 instructions: 140000000 cycles: 177661477 heartbeat IPC: 0.341009 cumulative IPC: 0.365964 (Simulation time: 0 hr 4 min 35 sec) 
Heartbeat CPU 0 instructions: 150000000 cycles: 207447168 heartbeat IPC: 0.335732 cumulative IPC: 0.35949 (Simulation time: 0 hr 5 min 5 sec) 
Heartbeat CPU 0 instructions: 160000000 cycles: 234822022 heartbeat IPC: 0.365299 cumulative IPC: 0.360445 (Simulation time: 0 hr 5 min 34 sec) 
Heartbeat CPU 0 instructions: 170000001 cycles: 262786558 heartbeat IPC: 0.357596 cumulative IPC: 0.360035 (Simulation time: 0 hr 6 min 5 sec) 
Heartbeat CPU 0 instructions: 180000000 cycles: 291159771 heartbeat IPC: 0.352445 cumulative IPC: 0.359069 (Simulation time: 0 hr 6 min 36 sec) 
Heartbeat CPU 0 instructions: 190000002 cycles: 319075885 heartbeat IPC: 0.358216 cumulative IPC: 0.358974 (Simulation time: 0 hr 7 min 6 sec) 
Heartbeat CPU 0 instructions: 200000000 cycles: 347360800 heartbeat IPC: 0.353545 cumulative IPC: 0.358423 (Simulation time: 0 hr 7 min 36 sec) 
Heartbeat CPU 0 instructions: 210000002 cycles: 375117193 heartbeat IPC: 0.360277 cumulative IPC: 0.358591 (Simulation time: 0 hr 8 min 6 sec) 
Heartbeat CPU 0 instructions: 220000000 cycles: 404112096 heartbeat IPC: 0.344888 cumulative IPC: 0.357408 (Simulation time: 0 hr 8 min 35 sec) 
Heartbeat CPU 0 instructions: 230000000 cycles: 431596299 heartbeat IPC: 0.363845 cumulative IPC: 0.357895 (Simulation time: 0 hr 9 min 4 sec) 
Heartbeat CPU 0 instructions: 240000000 cycles: 457519558 heartbeat IPC: 0.385754 cumulative IPC: 0.359751 (Simulation time: 0 hr 9 min 32 sec) 
Heartbeat CPU 0 instructions: 250000000 cycles: 487580985 heartbeat IPC: 0.332652 cumulative IPC: 0.357807 (Simulation time: 0 hr 10 min 4 sec) 
Heartbeat CPU 0 instructions: 260000000 cycles: 514647583 heartbeat IPC: 0.369459 cumulative IPC: 0.358514 (Simulation time: 0 hr 10 min 33 sec) 
Heartbeat CPU 0 instructions: 270000003 cycles: 542959777 heartbeat IPC: 0.353205 cumulative IPC: 0.358197 (Simulation time: 0 hr 11 min 4 sec) 
Heartbeat CPU 0 instructions: 280000000 cycles: 571022453 heartbeat IPC: 0.356345 cumulative IPC: 0.358094 (Simulation time: 0 hr 11 min 35 sec) 
Heartbeat CPU 0 instructions: 290000000 cycles: 599809842 heartbeat IPC: 0.347374 cumulative IPC: 0.357513 (Simulation time: 0 hr 12 min 6 sec) 
Heartbeat CPU 0 instructions: 300000000 cycles: 629510140 heartbeat IPC: 0.336697 cumulative IPC: 0.356412 (Simulation time: 0 hr 12 min 36 sec) 
Heartbeat CPU 0 instructions: 310000001 cycles: 658792023 heartbeat IPC: 0.341508 cumulative IPC: 0.355672 (Simulation time: 0 hr 13 min 5 sec) 
Heartbeat CPU 0 instructions: 320000000 cycles: 686883977 heartbeat IPC: 0.355974 cumulative IPC: 0.355686 (Simulation time: 0 hr 13 min 34 sec) 
Heartbeat CPU 0 instructions: 330000000 cycles: 715430582 heartbeat IPC: 0.350304 cumulative IPC: 0.355449 (Simulation time: 0 hr 14 min 4 sec) 
Heartbeat CPU 0 instructions: 340000000 cycles: 744624767 heartbeat IPC: 0.342534 cumulative IPC: 0.354891 (Simulation time: 0 hr 14 min 34 sec) 
Heartbeat CPU 0 instructions: 350000003 cycles: 771570730 heartbeat IPC: 0.371113 cumulative IPC: 0.355513 (Simulation time: 0 hr 15 min 3 sec) 
Heartbeat CPU 0 instructions: 360000000 cycles: 799610758 heartbeat IPC: 0.356633 cumulative IPC: 0.355556 (Simulation time: 0 hr 15 min 32 sec) 
Heartbeat CPU 0 instructions: 370000000 cycles: 827769414 heartbeat IPC: 0.355131 cumulative IPC: 0.35554 (Simulation time: 0 hr 16 min 0 sec) 
Heartbeat CPU 0 instructions: 380000000 cycles: 856255972 heartbeat IPC: 0.351043 cumulative IPC: 0.355377 (Simulation time: 0 hr 16 min 29 sec) 
Heartbeat CPU 0 instructions: 390000001 cycles: 883854518 heartbeat IPC: 0.362338 cumulative IPC: 0.355613 (Simulation time: 0 hr 16 min 57 sec) 
Heartbeat CPU 0 instructions: 400000000 cycles: 912479139 heartbeat IPC: 0.34935 cumulative IPC: 0.355401 (Simulation time: 0 hr 17 min 26 sec) 
Heartbeat CPU 0 instructions: 410000001 cycles: 939785117 heartbeat IPC: 0.36622 cumulative IPC: 0.35574 (Simulation time: 0 hr 17 min 54 sec) 
Heartbeat CPU 0 instructions: 420000000 cycles: 967098149 heartbeat IPC: 0.366126 cumulative IPC: 0.356055 (Simulation time: 0 hr 18 min 22 sec) 
Heartbeat CPU 0 instructions: 430000002 cycles: 994765243 heartbeat IPC: 0.36144 cumulative IPC: 0.356216 (Simulation time: 0 hr 18 min 51 sec) 
Heartbeat CPU 0 instructions: 440000000 cycles: 1024220794 heartbeat IPC: 0.339495 cumulative IPC: 0.355701 (Simulation time: 0 hr 19 min 19 sec) 
Heartbeat CPU 0 instructions: 450000002 cycles: 1053434908 heartbeat IPC: 0.3423 cumulative IPC: 0.355303 (Simulation time: 0 hr 19 min 48 sec) 
Heartbeat CPU 0 instructions: 460000000 cycles: 1081120001 heartbeat IPC: 0.361205 cumulative IPC: 0.355465 (Simulation time: 0 hr 20 min 17 sec) 
Heartbeat CPU 0 instructions: 470000000 cycles: 1108748679 heartbeat IPC: 0.361943 cumulative IPC: 0.355637 (Simulation time: 0 hr 20 min 45 sec) 
Heartbeat CPU 0 instructions: 480000000 cycles: 1136628882 heartbeat IPC: 0.358677 cumulative IPC: 0.355716 (Simulation time: 0 hr 21 min 14 sec) 
Heartbeat CPU 0 instructions: 490000000 cycles: 1164223281 heartbeat IPC: 0.362392 cumulative IPC: 0.355884 (Simulation time: 0 hr 21 min 42 sec) 
Heartbeat CPU 0 instructions: 500000000 cycles: 1192482466 heartbeat IPC: 0.353867 cumulative IPC: 0.355833 (Simulation time: 0 hr 22 min 11 sec) 
Heartbeat CPU 0 instructions: 510000000 cycles: 1227637425 heartbeat IPC: 0.284455 cumulative IPC: 0.353669 (Simulation time: 0 hr 22 min 43 sec) 
Heartbeat CPU 0 instructions: 520000000 cycles: 1255639743 heartbeat IPC: 0.357113 cumulative IPC: 0.35375 (Simulation time: 0 hr 23 min 13 sec) 
Heartbeat CPU 0 instructions: 530000001 cycles: 1284953371 heartbeat IPC: 0.341138 cumulative IPC: 0.353446 (Simulation time: 0 hr 23 min 43 sec) 
Heartbeat CPU 0 instructions: 540000000 cycles: 1312961003 heartbeat IPC: 0.357046 cumulative IPC: 0.353527 (Simulation time: 0 hr 24 min 12 sec) 
Heartbeat CPU 0 instructions: 550000001 cycles: 1342133809 heartbeat IPC: 0.342785 cumulative IPC: 0.353281 (Simulation time: 0 hr 24 min 43 sec) 
Heartbeat CPU 0 instructions: 560000000 cycles: 1367484899 heartbeat IPC: 0.39446 cumulative IPC: 0.354085 (Simulation time: 0 hr 25 min 12 sec) 
Heartbeat CPU 0 instructions: 570000000 cycles: 1396835970 heartbeat IPC: 0.340703 cumulative IPC: 0.353789 (Simulation time: 0 hr 25 min 42 sec) 
Heartbeat CPU 0 instructions: 580000000 cycles: 1424715908 heartbeat IPC: 0.358681 cumulative IPC: 0.35389 (Simulation time: 0 hr 26 min 12 sec) 
Heartbeat CPU 0 instructions: 590000001 cycles: 1449502131 heartbeat IPC: 0.40345 cumulative IPC: 0.354779 (Simulation time: 0 hr 26 min 40 sec) 
Heartbeat CPU 0 instructions: 600000000 cycles: 1475645021 heartbeat IPC: 0.382513 cumulative IPC: 0.355294 (Simulation time: 0 hr 27 min 9 sec) 
Finished CPU 0 instructions: 500000000 cycles: 1407283934 cumulative IPC: 0.355294 (Simulation time: 0 hr 27 min 9 sec) 

CPU 0 Branch Prediction Accuracy: 86.4311% MPKI: 26.2662
Number of Branches: 96788573 Number of Mispredictions: 13133102
Number of LOAD Instructions: 164682285
Number of LOAD Instructions (ROI): 164682285
Number of STORE Instructions: 78194750
Number of STORE Instructions (ROI): 78194750
Total Destination Memory Operands: 83268534
Total Destination Memory Operands (ROI): 83268534
Total Source Memory Operands: 164712438
Total Source Memory Operands (ROI): 164712438
Number of DEPENDED LOADS: 7061946
Number of DEPENDED LOADS (ROI): 7061946
Number of SQ_ADDED: 83268522
Number of SQ_ADDED (ROI): 83268522
Number of LQ_ADDED: 236694746
Number of LQ_ADDED (ROI): 236694746
Number of Instructions read from trace: 600000066

ChampSim completed all CPUs

Region of Interest Statistics

CPU 0 cumulative IPC: 0.355294 instructions: 500000000 cycles: 1407283934
ITLB TOTAL     ACCESS:  100508463  HIT:  100304017  MISS:     204446
ITLB LOAD      ACCESS:  100508463  HIT:  100304017  MISS:     204446
ITLB RFO       ACCESS:          0  HIT:          0  MISS:          0
ITLB PREFETCH  ACCESS:          0  HIT:          0  MISS:          0
ITLB WRITEBACK ACCESS:          0  HIT:          0  MISS:          0
ITLB PREFETCH  REQUESTED:          0  ISSUED:          0  USEFUL:          0  USELESS:          0
ITLB TOTAL MSHR MERGED:     172424
ITLB LOAD MSHR MERGED:     172424
ITLB RFO MSHR MERGED:          0
ITLB PREFETCH MSHR MERGED:          0
ITLB WRITEBACK MSHR MERGED:          0
ITLB TOTAL ACCESSES:  100680887 HITS:  100304017 MISSES:     376870
ITLB LOAD ACCESSES:  100680887 HITS:  100304017 MISSES:     376870
ITLB RFO ACCESSES:          0 HITS:          0 MISSES:          0
ITLB PREFETCH ACCESSES:          0 HITS:          0 MISSES:          0
ITLB WRITEBACK ACCESSES:          0 HITS:          0 MISSES:          0
ITLB RQ ACCESS:  500000057
ITLB RQ TO_CACHE:  100680887
ITLB RQ MERGED:  399319170
ITLB RQ FORWARD:          0
ITLB WQ ACCESS:          0
ITLB WQ TO_CACHE:          0
ITLB WQ MERGED:          0
ITLB WQ FORWARD:          0
DTLB TOTAL     ACCESS:  165333665  HIT:  164699316  MISS:     634349
DTLB LOAD      ACCESS:  106290051  HIT:  105720070  MISS:     569981
DTLB RFO       ACCESS:   59043614  HIT:   58979246  MISS:      64368
DTLB PREFETCH  ACCESS:          0  HIT:          0  MISS:          0
DTLB WRITEBACK ACCESS:          0  HIT:          0  MISS:          0
DTLB PREFETCH  REQUESTED:          0  ISSUED:          0  USEFUL:          0  USELESS:          0
DTLB TOTAL MSHR MERGED:      99975
DTLB LOAD MSHR MERGED:      59450
DTLB RFO MSHR MERGED:      40525
DTLB PREFETCH MSHR MERGED:          0
DTLB WRITEBACK MSHR MERGED:          0
DTLB TOTAL ACCESSES:  165433640 HITS:  164699316 MISSES:     734324
DTLB LOAD ACCESSES:  106349501 HITS:  105720070 MISSES:     629431
DTLB RFO ACCESSES:   59084139 HITS:   58979246 MISSES:     104893
DTLB PREFETCH ACCESSES:          0 HITS:          0 MISSES:          0
DTLB WRITEBACK ACCESSES:          0 HITS:          0 MISSES:          0
DTLB RQ ACCESS:  200308959
DTLB RQ TO_CACHE:  165433640
DTLB RQ MERGED:   34875319
DTLB RQ FORWARD:          0
DTLB WQ ACCESS:          0
DTLB WQ TO_CACHE:          0
DTLB WQ MERGED:          0
DTLB WQ FORWARD:          0
L1D TOTAL     ACCESS:  281807718  HIT:  273898430  MISS:    7909288
L1D LOAD      ACCESS:  110413683  HIT:  107135218  MISS:    3278465
L1D RFO       ACCESS:   67104400  HIT:   66213290  MISS:     891110
L1D PREFETCH  ACCESS:  104289635  HIT:  100549922  MISS:    3739713
L1D WRITEBACK ACCESS:          0  HIT:          0  MISS:          0
L1D PREFETCH  REQUESTED:  110814568  ISSUED:  109115285  USEFUL:    1660519  USELESS:    2079158
L1D TOTAL MSHR MERGED:    2891369
L1D LOAD MSHR MERGED:     498811
L1D RFO MSHR MERGED:    1882008
L1D PREFETCH MSHR MERGED:     510550
L1D WRITEBACK MSHR MERGED:          0
L1D TOTAL ACCESSES:  284726597 HITS:  273925940 MISSES:   10800657
L1D LOAD ACCESSES:  110816089 HITS:  107136739 MISSES:    3679350
L1D RFO ACCESSES:   68974109 HITS:   66213290 MISSES:    2760819
L1D PREFETCH ACCESSES:  104936399 HITS:  100575911 MISSES:    4360488
L1D WRITEBACK ACCESSES:          0 HITS:          0 MISSES:          0
L1D RQ ACCESS:  130756356
L1D RQ TO_CACHE:  110814571
L1D RQ MERGED:   19940264
L1D RQ FORWARD:          0
L1D WQ ACCESS:   69552603
L1D WQ TO_CACHE:   68974110
L1D WQ MERGED:     578493
L1D WQ FORWARD:      27510
L1I TOTAL     ACCESS:  126556268  HIT:  122317715  MISS:    4238553
L1I LOAD      ACCESS:  126556268  HIT:  122317715  MISS:    4238553
L1I RFO       ACCESS:          0  HIT:          0  MISS:          0
L1I PREFETCH  ACCESS:          0  HIT:          0  MISS:          0
L1I WRITEBACK ACCESS:          0  HIT:          0  MISS:          0
L1I PREFETCH  REQUESTED:          0  ISSUED:          0  USEFUL:          0  USELESS:          0
L1I TOTAL MSHR MERGED:    1834434
L1I LOAD MSHR MERGED:    1834434
L1I RFO MSHR MERGED:          0
L1I PREFETCH MSHR MERGED:          0
L1I WRITEBACK MSHR MERGED:          0
L1I TOTAL ACCESSES:  128390705 HITS:  122317715 MISSES:    6072990
L1I LOAD ACCESSES:  128390705 HITS:  122317715 MISSES:    6072990
L1I RFO ACCESSES:          0 HITS:          0 MISSES:          0
L1I PREFETCH ACCESSES:          0 HITS:          0 MISSES:          0
L1I WRITEBACK ACCESSES:          0 HITS:          0 MISSES:          0
L1I RQ ACCESS:  500000057
L1I RQ TO_CACHE:  128390705
L1I RQ MERGED:  371609352
L1I RQ FORWARD:          0
L1I WQ ACCESS:          0
L1I WQ TO_CACHE:          0
L1I WQ MERGED:          0
L1I WQ FORWARD:          0
L2C TOTAL     ACCESS:   14904679  HIT:   11158138  MISS:    3746541
L2C LOAD      ACCESS:    7418885  HIT:    5098722  MISS:    2320163
L2C RFO       ACCESS:     878714  HIT:     409907  MISS:     468807
L2C PREFETCH  ACCESS:    4567848  HIT:    3627536  MISS:     940312
L2C WRITEBACK ACCESS:    2039232  HIT:    2021973  MISS:      17259
L2C PREFETCH  REQUESTED:     842713  ISSUED:     842713  USEFUL:     203248  USELESS:     736770
L2C TOTAL MSHR MERGED:       7463
L2C LOAD MSHR MERGED:        872
L2C RFO MSHR MERGED:          0
L2C PREFETCH MSHR MERGED:       6591
L2C WRITEBACK MSHR MERGED:          0
L2C TOTAL ACCESSES:   14913089 HITS:   11158584 MISSES:    3754505
L2C LOAD ACCESSES:    7419092 HITS:    5098929 MISSES:    2320163
L2C RFO ACCESSES:     878811 HITS:     410004 MISSES:     468807
L2C PREFETCH ACCESSES:    4575954 HITS:    3627678 MISSES:     948276
L2C WRITEBACK ACCESSES:    2039232 HITS:    2021973 MISSES:      17259
L2C RQ ACCESS:    8297906
L2C RQ TO_CACHE:    8297602
L2C RQ MERGED:          0
L2C RQ FORWARD:          0
L2C WQ ACCESS:    2039232
L2C WQ TO_CACHE:    2039232
L2C WQ MERGED:          0
L2C WQ FORWARD:        446
LLC TOTAL     ACCESS:    4609926  HIT:    3969354  MISS:     640572
LLC LOAD      ACCESS:    2319278  HIT:    2102170  MISS:     217108
LLC RFO       ACCESS:     468797  HIT:     383157  MISS:      85640
LLC PREFETCH  ACCESS:     941533  HIT:     641423  MISS:     300110
LLC WRITEBACK ACCESS:     880318  HIT:     842604  MISS:      37714
LLC PREFETCH  REQUESTED:          0  ISSUED:          0  USEFUL:      17128  USELESS:     283758
LLC TOTAL MSHR MERGED:        134
LLC LOAD MSHR MERGED:         42
LLC RFO MSHR MERGED:          0
LLC PREFETCH MSHR MERGED:         92
LLC WRITEBACK MSHR MERGED:          0
LLC TOTAL ACCESSES:    4610094 HITS:    3969388 MISSES:     640706
LLC LOAD ACCESSES:    2319291 HITS:    2102183 MISSES:     217108
LLC RFO ACCESSES:     468807 HITS:     383167 MISSES:      85640
LLC PREFETCH ACCESSES:     941678 HITS:     641434 MISSES:     300244
LLC WRITEBACK ACCESSES:     880318 HITS:     842604 MISSES:      37714
LLC 0 RQ ACCESS:    2788098
LLC 0 RQ TO_CACHE:    2788075
LLC 0 RQ MERGED:          0
LLC 0 RQ FORWARD:          0
LLC WQ ACCESS:     880318
LLC WQ TO_CACHE:     880318
LLC WQ MERGED:          0
LLC WQ FORWARD:         34
Major fault: 0 Minor fault: 12862
CPU 0 L1D next line prefetcher final stats
CPU 0 L2C PC-based stride prefetcher final stats
All Misses: 753499
All Hits: 4673433
SD Algo Stats - Switches: 0 SRR-Repls: 253519 BRR-Repls: 0

DRAM Statistics
 CHANNEL 0
 RQ ROW_BUFFER_HIT:     118411  ROW_BUFFER_MISS:     483129
 DBUS_CONGESTED:     397614
 WQ ROW_BUFFER_HIT:      20755  ROW_BUFFER_MISS:     208647  FULL:          0

 AVG_CONGESTED_CYCLE: 13
LOADS RETIRED: 136549171
INSTR RETIRED: 500000000
