
*** ChampSim Multicore Out-of-Order Simulator ***

Warmup Instructions: 100000000
Simulation Instructions: 500000000
Number of CPUs: 1
LLC sets: 2048
LLC ways: 16
Clean RRIP Policies: 1013230110132301 Dirty RRIP Policies: 2013031120130311 PSEL Width: 10 Track Set: 4294967295 PSEL Mask: 1 Demote Mask: 4340011043400110DS Algo: 0Window size: 0
Off-chip DRAM Size: 4096 MB Channels: 1 Width: 64-bit Data Rate: 1600 MT/s

CPU 0 runs /mnt/beegfs/iconst01/spec2017/Parest.trace.gz
NOT SORTED
TRACE STRING: /mnt/beegfs/iconst01/spec2017/Parest.trace.gz
SORTED
TRACE STRING: /mnt/beegfs/iconst01/spec2017/Parest.trace.gz
INITIAL
TRACE STRING: /mnt/beegfs/iconst01/spec2017/Parest.trace.gz

champsim_seed used: 623

CPU 0 L1D next line prefetcher
CPU 0 L2C IP-based stride prefetcher
Initialize DRRIP state
Assign rand_sets[0]: 454  LLC: 2048
rand_sets[0]: 454
Assign rand_sets[1]: 1662  LLC: 2048
rand_sets[1]: 1662
Assign rand_sets[2]: 1921  LLC: 2048
rand_sets[2]: 1921
Assign rand_sets[3]: 1131  LLC: 2048
rand_sets[3]: 1131
Assign rand_sets[4]: 331  LLC: 2048
rand_sets[4]: 331
Assign rand_sets[5]: 1531  LLC: 2048
rand_sets[5]: 1531
Assign rand_sets[6]: 482  LLC: 2048
rand_sets[6]: 482
Assign rand_sets[7]: 1275  LLC: 2048
rand_sets[7]: 1275
Assign rand_sets[8]: 1876  LLC: 2048
rand_sets[8]: 1876
Assign rand_sets[9]: 2038  LLC: 2048
rand_sets[9]: 2038
Assign rand_sets[10]: 701  LLC: 2048
rand_sets[10]: 701
Assign rand_sets[11]: 479  LLC: 2048
rand_sets[11]: 479
Assign rand_sets[12]: 892  LLC: 2048
rand_sets[12]: 892
Assign rand_sets[13]: 1820  LLC: 2048
rand_sets[13]: 1820
Assign rand_sets[14]: 1505  LLC: 2048
rand_sets[14]: 1505
Assign rand_sets[15]: 1159  LLC: 2048
rand_sets[15]: 1159
Assign rand_sets[16]: 513  LLC: 2048
rand_sets[16]: 513
Assign rand_sets[17]: 703  LLC: 2048
rand_sets[17]: 703
Assign rand_sets[18]: 561  LLC: 2048
rand_sets[18]: 561
Assign rand_sets[19]: 990  LLC: 2048
rand_sets[19]: 990
Assign rand_sets[20]: 342  LLC: 2048
rand_sets[20]: 342
Assign rand_sets[21]: 882  LLC: 2048
rand_sets[21]: 882
Assign rand_sets[22]: 15  LLC: 2048
rand_sets[22]: 15
Assign rand_sets[23]: 71  LLC: 2048
rand_sets[23]: 71
Assign rand_sets[24]: 1127  LLC: 2048
rand_sets[24]: 1127
Assign rand_sets[25]: 1382  LLC: 2048
rand_sets[25]: 1382
Assign rand_sets[26]: 647  LLC: 2048
rand_sets[26]: 647
Assign rand_sets[27]: 857  LLC: 2048
rand_sets[27]: 857
Assign rand_sets[28]: 1450  LLC: 2048
rand_sets[28]: 1450
Assign rand_sets[29]: 1160  LLC: 2048
rand_sets[29]: 1160
Assign rand_sets[30]: 1852  LLC: 2048
rand_sets[30]: 1852
Assign rand_sets[31]: 1881  LLC: 2048
rand_sets[31]: 1881
Assign rand_sets[32]: 1770  LLC: 2048
rand_sets[32]: 1770
Assign rand_sets[33]: 1622  LLC: 2048
rand_sets[33]: 1622
Assign rand_sets[34]: 275  LLC: 2048
rand_sets[34]: 275
Assign rand_sets[35]: 635  LLC: 2048
rand_sets[35]: 635
Assign rand_sets[36]: 466  LLC: 2048
rand_sets[36]: 466
Assign rand_sets[37]: 1413  LLC: 2048
rand_sets[37]: 1413
Assign rand_sets[38]: 417  LLC: 2048
rand_sets[38]: 417
Assign rand_sets[39]: 472  LLC: 2048
rand_sets[39]: 472
Assign rand_sets[40]: 1340  LLC: 2048
rand_sets[40]: 1340
Assign rand_sets[41]: 852  LLC: 2048
rand_sets[41]: 852
Assign rand_sets[42]: 1365  LLC: 2048
rand_sets[42]: 1365
Assign rand_sets[43]: 47  LLC: 2048
rand_sets[43]: 47
Assign rand_sets[44]: 823  LLC: 2048
rand_sets[44]: 823
Assign rand_sets[45]: 686  LLC: 2048
rand_sets[45]: 686
Assign rand_sets[46]: 1637  LLC: 2048
rand_sets[46]: 1637
Assign rand_sets[47]: 1115  LLC: 2048
rand_sets[47]: 1115
Assign rand_sets[48]: 986  LLC: 2048
rand_sets[48]: 986
Assign rand_sets[49]: 258  LLC: 2048
rand_sets[49]: 258
Assign rand_sets[50]: 633  LLC: 2048
rand_sets[50]: 633
Assign rand_sets[51]: 920  LLC: 2048
rand_sets[51]: 920
Assign rand_sets[52]: 204  LLC: 2048
rand_sets[52]: 204
Assign rand_sets[53]: 227  LLC: 2048
rand_sets[53]: 227
Assign rand_sets[54]: 1818  LLC: 2048
rand_sets[54]: 1818
Assign rand_sets[55]: 886  LLC: 2048
rand_sets[55]: 886
Assign rand_sets[56]: 1422  LLC: 2048
rand_sets[56]: 1422
Assign rand_sets[57]: 607  LLC: 2048
rand_sets[57]: 607
Assign rand_sets[58]: 217  LLC: 2048
rand_sets[58]: 217
Assign rand_sets[59]: 1945  LLC: 2048
rand_sets[59]: 1945
Assign rand_sets[60]: 143  LLC: 2048
rand_sets[60]: 143
Assign rand_sets[61]: 1311  LLC: 2048
rand_sets[61]: 1311
Assign rand_sets[62]: 319  LLC: 2048
rand_sets[62]: 319
Assign rand_sets[63]: 1846  LLC: 2048
rand_sets[63]: 1846
 CLEAN-RRIP-POLICY-1: 1-0-1-3-2-3-0-1- CLEAN-RRIP-POLICY-2: 1-0-1-3-2-3-0-1-
 DIRTY-RRIP-POLICY-1: 2-0-1-3-0-3-1-1- DIRTY-RRIP-POLICY-2: 2-0-1-3-0-3-1-1-
 PSEL width: 10
Heartbeat CPU 0 instructions: 10000001 cycles: 4387119 heartbeat IPC: 2.2794 cumulative IPC: 2.2794 (Simulation time: 0 hr 0 min 14 sec) 
Heartbeat CPU 0 instructions: 20000000 cycles: 8781243 heartbeat IPC: 2.27577 cumulative IPC: 2.27758 (Simulation time: 0 hr 0 min 28 sec) 
Heartbeat CPU 0 instructions: 30000003 cycles: 13213190 heartbeat IPC: 2.25635 cumulative IPC: 2.27046 (Simulation time: 0 hr 0 min 42 sec) 
Heartbeat CPU 0 instructions: 40000000 cycles: 17643763 heartbeat IPC: 2.25704 cumulative IPC: 2.26709 (Simulation time: 0 hr 0 min 56 sec) 
Heartbeat CPU 0 instructions: 50000000 cycles: 22051945 heartbeat IPC: 2.26851 cumulative IPC: 2.26737 (Simulation time: 0 hr 1 min 10 sec) 
Heartbeat CPU 0 instructions: 60000000 cycles: 26457619 heartbeat IPC: 2.2698 cumulative IPC: 2.26778 (Simulation time: 0 hr 1 min 24 sec) 
Heartbeat CPU 0 instructions: 70000000 cycles: 30858443 heartbeat IPC: 2.2723 cumulative IPC: 2.26842 (Simulation time: 0 hr 1 min 38 sec) 
Heartbeat CPU 0 instructions: 80000000 cycles: 35254014 heartbeat IPC: 2.27502 cumulative IPC: 2.26925 (Simulation time: 0 hr 1 min 52 sec) 
Heartbeat CPU 0 instructions: 90000000 cycles: 39648280 heartbeat IPC: 2.27569 cumulative IPC: 2.26996 (Simulation time: 0 hr 2 min 6 sec) 
Heartbeat CPU 0 instructions: 100000000 cycles: 44045597 heartbeat IPC: 2.27411 cumulative IPC: 2.27037 (Simulation time: 0 hr 2 min 21 sec) 

Warmup complete CPU 0 instructions: 100000002 cycles: 44045607 (Simulation time: 0 hr 2 min 21 sec) 

Heartbeat CPU 0 instructions: 110000000 cycles: 54453604 heartbeat IPC: 0.960799 cumulative IPC: 0.960799 (Simulation time: 0 hr 2 min 39 sec) 
Heartbeat CPU 0 instructions: 120000000 cycles: 64048591 heartbeat IPC: 1.04221 cumulative IPC: 0.999851 (Simulation time: 0 hr 2 min 58 sec) 
Heartbeat CPU 0 instructions: 130000000 cycles: 73560619 heartbeat IPC: 1.0513 cumulative IPC: 1.01643 (Simulation time: 0 hr 3 min 16 sec) 
Heartbeat CPU 0 instructions: 140000000 cycles: 83311087 heartbeat IPC: 1.02559 cumulative IPC: 1.01871 (Simulation time: 0 hr 3 min 34 sec) 
Heartbeat CPU 0 instructions: 150000000 cycles: 94222084 heartbeat IPC: 0.916507 cumulative IPC: 0.996483 (Simulation time: 0 hr 3 min 52 sec) 
Heartbeat CPU 0 instructions: 160000000 cycles: 104270235 heartbeat IPC: 0.995208 cumulative IPC: 0.99627 (Simulation time: 0 hr 4 min 10 sec) 
Heartbeat CPU 0 instructions: 170000000 cycles: 114253686 heartbeat IPC: 1.00166 cumulative IPC: 0.997036 (Simulation time: 0 hr 4 min 28 sec) 
Heartbeat CPU 0 instructions: 180000000 cycles: 124241194 heartbeat IPC: 1.00125 cumulative IPC: 0.997561 (Simulation time: 0 hr 4 min 46 sec) 
Heartbeat CPU 0 instructions: 190000002 cycles: 134362701 heartbeat IPC: 0.987995 cumulative IPC: 0.996489 (Simulation time: 0 hr 5 min 4 sec) 
Heartbeat CPU 0 instructions: 200000000 cycles: 144071838 heartbeat IPC: 1.02996 cumulative IPC: 0.999738 (Simulation time: 0 hr 5 min 23 sec) 
Heartbeat CPU 0 instructions: 210000000 cycles: 154086717 heartbeat IPC: 0.998514 cumulative IPC: 0.999626 (Simulation time: 0 hr 5 min 41 sec) 
Heartbeat CPU 0 instructions: 220000000 cycles: 163643173 heartbeat IPC: 1.04641 cumulative IPC: 1.00336 (Simulation time: 0 hr 5 min 59 sec) 
Heartbeat CPU 0 instructions: 230000001 cycles: 175891507 heartbeat IPC: 0.816438 cumulative IPC: 0.986 (Simulation time: 0 hr 6 min 19 sec) 
Heartbeat CPU 0 instructions: 240000000 cycles: 186413612 heartbeat IPC: 0.95038 cumulative IPC: 0.983367 (Simulation time: 0 hr 6 min 37 sec) 
Heartbeat CPU 0 instructions: 250000002 cycles: 196370719 heartbeat IPC: 1.00431 cumulative IPC: 0.984736 (Simulation time: 0 hr 6 min 55 sec) 
Heartbeat CPU 0 instructions: 260000000 cycles: 206168266 heartbeat IPC: 1.02066 cumulative IPC: 0.986907 (Simulation time: 0 hr 7 min 13 sec) 
Heartbeat CPU 0 instructions: 270000001 cycles: 215909481 heartbeat IPC: 1.02657 cumulative IPC: 0.989155 (Simulation time: 0 hr 7 min 31 sec) 
Heartbeat CPU 0 instructions: 280000000 cycles: 225908424 heartbeat IPC: 1.00011 cumulative IPC: 0.989757 (Simulation time: 0 hr 7 min 49 sec) 
Heartbeat CPU 0 instructions: 290000002 cycles: 235446397 heartbeat IPC: 1.04844 cumulative IPC: 0.992681 (Simulation time: 0 hr 8 min 7 sec) 
Heartbeat CPU 0 instructions: 300000000 cycles: 245307477 heartbeat IPC: 1.01409 cumulative IPC: 0.99373 (Simulation time: 0 hr 8 min 25 sec) 
Heartbeat CPU 0 instructions: 310000000 cycles: 254787829 heartbeat IPC: 1.05481 cumulative IPC: 0.996478 (Simulation time: 0 hr 8 min 43 sec) 
Heartbeat CPU 0 instructions: 320000000 cycles: 264311299 heartbeat IPC: 1.05004 cumulative IPC: 0.998794 (Simulation time: 0 hr 9 min 1 sec) 
Heartbeat CPU 0 instructions: 330000003 cycles: 273924271 heartbeat IPC: 1.04026 cumulative IPC: 1.00053 (Simulation time: 0 hr 9 min 19 sec) 
Heartbeat CPU 0 instructions: 340000000 cycles: 284043673 heartbeat IPC: 0.9882 cumulative IPC: 1.00001 (Simulation time: 0 hr 9 min 38 sec) 
Heartbeat CPU 0 instructions: 350000000 cycles: 294222773 heartbeat IPC: 0.982405 cumulative IPC: 0.999292 (Simulation time: 0 hr 9 min 56 sec) 
Heartbeat CPU 0 instructions: 360000000 cycles: 304062532 heartbeat IPC: 1.01629 cumulative IPC: 0.999935 (Simulation time: 0 hr 10 min 13 sec) 
Heartbeat CPU 0 instructions: 370000000 cycles: 313785514 heartbeat IPC: 1.02849 cumulative IPC: 1.00096 (Simulation time: 0 hr 10 min 31 sec) 
Heartbeat CPU 0 instructions: 380000000 cycles: 323509714 heartbeat IPC: 1.02836 cumulative IPC: 1.00192 (Simulation time: 0 hr 10 min 49 sec) 
Heartbeat CPU 0 instructions: 390000002 cycles: 333090777 heartbeat IPC: 1.04373 cumulative IPC: 1.0033 (Simulation time: 0 hr 11 min 7 sec) 
Heartbeat CPU 0 instructions: 400000000 cycles: 342956633 heartbeat IPC: 1.0136 cumulative IPC: 1.00364 (Simulation time: 0 hr 11 min 25 sec) 
Heartbeat CPU 0 instructions: 410000000 cycles: 352429752 heartbeat IPC: 1.05562 cumulative IPC: 1.00524 (Simulation time: 0 hr 11 min 44 sec) 
Heartbeat CPU 0 instructions: 420000000 cycles: 363557863 heartbeat IPC: 0.898625 cumulative IPC: 1.00153 (Simulation time: 0 hr 12 min 2 sec) 
Heartbeat CPU 0 instructions: 430000000 cycles: 374375512 heartbeat IPC: 0.924415 cumulative IPC: 0.999001 (Simulation time: 0 hr 12 min 20 sec) 
Heartbeat CPU 0 instructions: 440000000 cycles: 384399757 heartbeat IPC: 0.997581 cumulative IPC: 0.998959 (Simulation time: 0 hr 12 min 38 sec) 
Heartbeat CPU 0 instructions: 450000000 cycles: 394406631 heartbeat IPC: 0.999313 cumulative IPC: 0.99897 (Simulation time: 0 hr 12 min 56 sec) 
Heartbeat CPU 0 instructions: 460000000 cycles: 404422289 heartbeat IPC: 0.998437 cumulative IPC: 0.998955 (Simulation time: 0 hr 13 min 13 sec) 
Heartbeat CPU 0 instructions: 470000001 cycles: 414505474 heartbeat IPC: 0.99175 cumulative IPC: 0.998759 (Simulation time: 0 hr 13 min 31 sec) 
Heartbeat CPU 0 instructions: 480000000 cycles: 424159267 heartbeat IPC: 1.03586 cumulative IPC: 0.999701 (Simulation time: 0 hr 13 min 49 sec) 
Heartbeat CPU 0 instructions: 490000002 cycles: 434176435 heartbeat IPC: 0.998286 cumulative IPC: 0.999665 (Simulation time: 0 hr 14 min 7 sec) 
Heartbeat CPU 0 instructions: 500000000 cycles: 443913860 heartbeat IPC: 1.02697 cumulative IPC: 1.00033 (Simulation time: 0 hr 14 min 25 sec) 
Heartbeat CPU 0 instructions: 510000000 cycles: 453461048 heartbeat IPC: 1.04743 cumulative IPC: 1.00143 (Simulation time: 0 hr 14 min 43 sec) 
Heartbeat CPU 0 instructions: 520000000 cycles: 463160930 heartbeat IPC: 1.03094 cumulative IPC: 1.00211 (Simulation time: 0 hr 15 min 0 sec) 
Heartbeat CPU 0 instructions: 530000001 cycles: 473521974 heartbeat IPC: 0.965154 cumulative IPC: 1.00122 (Simulation time: 0 hr 15 min 19 sec) 
Heartbeat CPU 0 instructions: 540000000 cycles: 483883222 heartbeat IPC: 0.965135 cumulative IPC: 1.00037 (Simulation time: 0 hr 15 min 36 sec) 
Heartbeat CPU 0 instructions: 550000003 cycles: 493931390 heartbeat IPC: 0.995207 cumulative IPC: 1.00025 (Simulation time: 0 hr 15 min 54 sec) 
Heartbeat CPU 0 instructions: 560000000 cycles: 503838421 heartbeat IPC: 1.00938 cumulative IPC: 1.00045 (Simulation time: 0 hr 16 min 11 sec) 
Heartbeat CPU 0 instructions: 570000002 cycles: 513733248 heartbeat IPC: 1.01063 cumulative IPC: 1.00067 (Simulation time: 0 hr 16 min 29 sec) 
Heartbeat CPU 0 instructions: 580000000 cycles: 523491060 heartbeat IPC: 1.02482 cumulative IPC: 1.00116 (Simulation time: 0 hr 16 min 46 sec) 
Heartbeat CPU 0 instructions: 590000002 cycles: 533479132 heartbeat IPC: 1.00119 cumulative IPC: 1.00116 (Simulation time: 0 hr 17 min 4 sec) 
Heartbeat CPU 0 instructions: 600000000 cycles: 543177949 heartbeat IPC: 1.03105 cumulative IPC: 1.00174 (Simulation time: 0 hr 17 min 21 sec) 
Finished CPU 0 instructions: 500000000 cycles: 499132356 cumulative IPC: 1.00174 (Simulation time: 0 hr 17 min 21 sec) 

CPU 0 Branch Prediction Accuracy: 97.8526% MPKI: 2.66709
Number of Branches: 62099103 Number of Mispredictions: 1333545
Number of LOAD Instructions: 210576465
Number of LOAD Instructions (ROI): 210576465
Number of STORE Instructions: 16915507
Number of STORE Instructions (ROI): 16915507
Total Destination Memory Operands: 16918869
Total Destination Memory Operands (ROI): 16918869
Total Source Memory Operands: 210576465
Total Source Memory Operands (ROI): 210576465
Number of DEPENDED LOADS: 345107
Number of DEPENDED LOADS (ROI): 345107
Number of SQ_ADDED: 16918826
Number of SQ_ADDED (ROI): 16918826
Number of LQ_ADDED: 210610453
Number of LQ_ADDED (ROI): 210610453
Number of Instructions read from trace: 600000257

ChampSim completed all CPUs

Region of Interest Statistics

CPU 0 cumulative IPC: 1.00174 instructions: 500000000 cycles: 499132356
ITLB TOTAL     ACCESS:   76262182  HIT:   76262144  MISS:         38
ITLB LOAD      ACCESS:   76262182  HIT:   76262144  MISS:         38
ITLB RFO       ACCESS:          0  HIT:          0  MISS:          0
ITLB PREFETCH  ACCESS:          0  HIT:          0  MISS:          0
ITLB WRITEBACK ACCESS:          0  HIT:          0  MISS:          0
ITLB PREFETCH  REQUESTED:          0  ISSUED:          0  USEFUL:          0  USELESS:          0
ITLB TOTAL MSHR MERGED:         37
ITLB LOAD MSHR MERGED:         37
ITLB RFO MSHR MERGED:          0
ITLB PREFETCH MSHR MERGED:          0
ITLB WRITEBACK MSHR MERGED:          0
ITLB TOTAL ACCESSES:   76262219 HITS:   76262144 MISSES:         75
ITLB LOAD ACCESSES:   76262219 HITS:   76262144 MISSES:         75
ITLB RFO ACCESSES:          0 HITS:          0 MISSES:          0
ITLB PREFETCH ACCESSES:          0 HITS:          0 MISSES:          0
ITLB WRITEBACK ACCESSES:          0 HITS:          0 MISSES:          0
ITLB RQ ACCESS:  500000188
ITLB RQ TO_CACHE:   76262220
ITLB RQ MERGED:  423737968
ITLB RQ FORWARD:          0
ITLB WQ ACCESS:          0
ITLB WQ TO_CACHE:          0
ITLB WQ MERGED:          0
ITLB WQ FORWARD:          0
DTLB TOTAL     ACCESS:  136866136  HIT:  136663342  MISS:     202794
DTLB LOAD      ACCESS:  128804246  HIT:  128604173  MISS:     200073
DTLB RFO       ACCESS:    8061890  HIT:    8059169  MISS:       2721
DTLB PREFETCH  ACCESS:          0  HIT:          0  MISS:          0
DTLB WRITEBACK ACCESS:          0  HIT:          0  MISS:          0
DTLB PREFETCH  REQUESTED:          0  ISSUED:          0  USEFUL:          0  USELESS:          0
DTLB TOTAL MSHR MERGED:     448049
DTLB LOAD MSHR MERGED:     444240
DTLB RFO MSHR MERGED:       3809
DTLB PREFETCH MSHR MERGED:          0
DTLB WRITEBACK MSHR MERGED:          0
DTLB TOTAL ACCESSES:  137314185 HITS:  136663342 MISSES:     650843
DTLB LOAD ACCESSES:  129248486 HITS:  128604173 MISSES:     644313
DTLB RFO ACCESSES:    8065699 HITS:    8059169 MISSES:       6530
DTLB PREFETCH ACCESSES:          0 HITS:          0 MISSES:          0
DTLB WRITEBACK ACCESSES:          0 HITS:          0 MISSES:          0
DTLB RQ ACCESS:  189419460
DTLB RQ TO_CACHE:  137314185
DTLB RQ MERGED:   52105275
DTLB RQ FORWARD:          0
DTLB WQ ACCESS:          0
DTLB WQ TO_CACHE:          0
DTLB WQ MERGED:          0
DTLB WQ FORWARD:          0
L1D TOTAL     ACCESS:  125482891  HIT:  107926045  MISS:   17556846
L1D LOAD      ACCESS:   72327993  HIT:   62066886  MISS:   10261107
L1D RFO       ACCESS:   14016138  HIT:   13863298  MISS:     152840
L1D PREFETCH  ACCESS:   39138760  HIT:   31995861  MISS:    7142899
L1D WRITEBACK ACCESS:          0  HIT:          0  MISS:          0
L1D PREFETCH  REQUESTED:   85573342  ISSUED:   84251065  USEFUL:    5883637  USELESS:    1259273
L1D TOTAL MSHR MERGED:   31486792
L1D LOAD MSHR MERGED:   18403507
L1D RFO MSHR MERGED:     265093
L1D PREFETCH MSHR MERGED:   12818192
L1D WRITEBACK MSHR MERGED:          0
L1D TOTAL ACCESSES:  156970191 HITS:  107926554 MISSES:   49043637
L1D LOAD ACCESSES:   85573361 HITS:   62066905 MISSES:   23506456
L1D RFO ACCESSES:   14281200 HITS:   13863298 MISSES:     417902
L1D PREFETCH ACCESSES:   57115630 HITS:   31996351 MISSES:   25119279
L1D WRITEBACK ACCESSES:          0 HITS:          0 MISSES:          0
L1D RQ ACCESS:  175130438
L1D RQ TO_CACHE:   85573342
L1D RQ MERGED:   89557077
L1D RQ FORWARD:          0
L1D WQ ACCESS:   14289037
L1D WQ TO_CACHE:   14281200
L1D WQ MERGED:       7837
L1D WQ FORWARD:        509
L1I TOTAL     ACCESS:   93283954  HIT:   93282158  MISS:       1796
L1I LOAD      ACCESS:   93283954  HIT:   93282158  MISS:       1796
L1I RFO       ACCESS:          0  HIT:          0  MISS:          0
L1I PREFETCH  ACCESS:          0  HIT:          0  MISS:          0
L1I WRITEBACK ACCESS:          0  HIT:          0  MISS:          0
L1I PREFETCH  REQUESTED:          0  ISSUED:          0  USEFUL:          0  USELESS:          0
L1I TOTAL MSHR MERGED:       2291
L1I LOAD MSHR MERGED:       2291
L1I RFO MSHR MERGED:          0
L1I PREFETCH MSHR MERGED:          0
L1I WRITEBACK MSHR MERGED:          0
L1I TOTAL ACCESSES:   93286245 HITS:   93282158 MISSES:       4087
L1I LOAD ACCESSES:   93286245 HITS:   93282158 MISSES:       4087
L1I RFO ACCESSES:          0 HITS:          0 MISSES:          0
L1I PREFETCH ACCESSES:          0 HITS:          0 MISSES:          0
L1I WRITEBACK ACCESSES:          0 HITS:          0 MISSES:          0
L1I RQ ACCESS:  500000187
L1I RQ TO_CACHE:   93286245
L1I RQ MERGED:  406713942
L1I RQ FORWARD:          0
L1I WQ ACCESS:          0
L1I WQ TO_CACHE:          0
L1I WQ MERGED:          0
L1I WQ FORWARD:          0
L2C TOTAL     ACCESS:   20892845  HIT:    8663566  MISS:   12229279
L2C LOAD      ACCESS:    5104722  HIT:    2140035  MISS:    2964687
L2C RFO       ACCESS:     152809  HIT:       6502  MISS:     146307
L2C PREFETCH  ACCESS:   13862560  HIT:    4744386  MISS:    9118174
L2C WRITEBACK ACCESS:    1772754  HIT:    1772643  MISS:        111
L2C PREFETCH  REQUESTED:    1799652  ISSUED:    1799652  USEFUL:    1069746  USELESS:    8050040
L2C TOTAL MSHR MERGED:      97336
L2C LOAD MSHR MERGED:      22169
L2C RFO MSHR MERGED:          0
L2C PREFETCH MSHR MERGED:      75167
L2C WRITEBACK MSHR MERGED:          0
L2C TOTAL ACCESSES:   21012753 HITS:    8663603 MISSES:   12349150
L2C LOAD ACCESSES:    5104745 HITS:    2140058 MISSES:    2964687
L2C RFO ACCESSES:     152809 HITS:       6502 MISSES:     146307
L2C PREFETCH ACCESSES:   13982445 HITS:    4744400 MISSES:    9238045
L2C WRITEBACK ACCESSES:    1772754 HITS:    1772643 MISSES:        111
L2C RQ ACCESS:    5257554
L2C RQ TO_CACHE:    5257531
L2C RQ MERGED:          0
L2C RQ FORWARD:          0
L2C WQ ACCESS:    1772754
L2C WQ TO_CACHE:    1772754
L2C WQ MERGED:          0
L2C WQ FORWARD:         37
LLC TOTAL     ACCESS:   12532317  HIT:    6551790  MISS:    5980527
LLC LOAD      ACCESS:    2942497  HIT:    2444614  MISS:     497883
LLC RFO       ACCESS:     146307  HIT:      68508  MISS:      77799
LLC PREFETCH  ACCESS:    9157533  HIT:    3825753  MISS:    5331780
LLC WRITEBACK ACCESS:     285980  HIT:     212915  MISS:      73065
LLC PREFETCH  REQUESTED:          0  ISSUED:          0  USEFUL:      15622  USELESS:    5315830
LLC TOTAL MSHR MERGED:       1439
LLC LOAD MSHR MERGED:        318
LLC RFO MSHR MERGED:          0
LLC PREFETCH MSHR MERGED:       1121
LLC WRITEBACK MSHR MERGED:          0
LLC TOTAL ACCESSES:   12533790 HITS:    6551824 MISSES:    5981966
LLC LOAD ACCESSES:    2942518 HITS:    2444635 MISSES:     497883
LLC RFO ACCESSES:     146307 HITS:      68508 MISSES:      77799
LLC PREFETCH ACCESSES:    9158985 HITS:    3825766 MISSES:    5333219
LLC WRITEBACK ACCESSES:     285980 HITS:     212915 MISSES:      73065
LLC 0 RQ ACCESS:    3088825
LLC 0 RQ TO_CACHE:    3088804
LLC 0 RQ MERGED:          0
LLC 0 RQ FORWARD:          0
LLC WQ ACCESS:     285980
LLC WQ TO_CACHE:     285980
LLC WQ MERGED:          0
LLC WQ FORWARD:         34
Major fault: 0 Minor fault: 6524
CPU 0 L1D next line prefetcher final stats
CPU 0 L2C PC-based stride prefetcher final stats
All Misses: 7783207
All Hits: 7274123
SD Algo Stats - Switches: 0 SRR-Repls: 530769 BRR-Repls: 0

DRAM Statistics
 CHANNEL 0
 RQ ROW_BUFFER_HIT:    5047762  ROW_BUFFER_MISS:     850760
 DBUS_CONGESTED:    1999619
 WQ ROW_BUFFER_HIT:      12317  ROW_BUFFER_MISS:     101843  FULL:          0

 AVG_CONGESTED_CYCLE: 11
LOADS RETIRED: 175418235
INSTR RETIRED: 500000000
