
*** ChampSim Multicore Out-of-Order Simulator ***

Warmup Instructions: 100000000
Simulation Instructions: 500000000
Number of CPUs: 1
LLC sets: 2048
LLC ways: 16
Clean RRIP Policies: 1013130110131301 Dirty RRIP Policies: 1003130110031301 PSEL Width: 10 Track Set: 4294967295 PSEL Mask: 1 Demote Mask: 4003444440034444DS Algo: 0Window size: 0
Off-chip DRAM Size: 4096 MB Channels: 1 Width: 64-bit Data Rate: 1600 MT/s

CPU 0 runs /mnt/beegfs/iconst01/spec2017/Gcc.trace.gz
NOT SORTED
TRACE STRING: /mnt/beegfs/iconst01/spec2017/Gcc.trace.gz
SORTED
TRACE STRING: /mnt/beegfs/iconst01/spec2017/Gcc.trace.gz
INITIAL
TRACE STRING: /mnt/beegfs/iconst01/spec2017/Gcc.trace.gz

champsim_seed used: 269

CPU 0 L1D next line prefetcher
CPU 0 L2C IP-based stride prefetcher
Initialize DRRIP state
Assign rand_sets[0]: 454  LLC: 2048
rand_sets[0]: 454
Assign rand_sets[1]: 1662  LLC: 2048
rand_sets[1]: 1662
Assign rand_sets[2]: 1921  LLC: 2048
rand_sets[2]: 1921
Assign rand_sets[3]: 1131  LLC: 2048
rand_sets[3]: 1131
Assign rand_sets[4]: 331  LLC: 2048
rand_sets[4]: 331
Assign rand_sets[5]: 1531  LLC: 2048
rand_sets[5]: 1531
Assign rand_sets[6]: 482  LLC: 2048
rand_sets[6]: 482
Assign rand_sets[7]: 1275  LLC: 2048
rand_sets[7]: 1275
Assign rand_sets[8]: 1876  LLC: 2048
rand_sets[8]: 1876
Assign rand_sets[9]: 2038  LLC: 2048
rand_sets[9]: 2038
Assign rand_sets[10]: 701  LLC: 2048
rand_sets[10]: 701
Assign rand_sets[11]: 479  LLC: 2048
rand_sets[11]: 479
Assign rand_sets[12]: 892  LLC: 2048
rand_sets[12]: 892
Assign rand_sets[13]: 1820  LLC: 2048
rand_sets[13]: 1820
Assign rand_sets[14]: 1505  LLC: 2048
rand_sets[14]: 1505
Assign rand_sets[15]: 1159  LLC: 2048
rand_sets[15]: 1159
Assign rand_sets[16]: 513  LLC: 2048
rand_sets[16]: 513
Assign rand_sets[17]: 703  LLC: 2048
rand_sets[17]: 703
Assign rand_sets[18]: 561  LLC: 2048
rand_sets[18]: 561
Assign rand_sets[19]: 990  LLC: 2048
rand_sets[19]: 990
Assign rand_sets[20]: 342  LLC: 2048
rand_sets[20]: 342
Assign rand_sets[21]: 882  LLC: 2048
rand_sets[21]: 882
Assign rand_sets[22]: 15  LLC: 2048
rand_sets[22]: 15
Assign rand_sets[23]: 71  LLC: 2048
rand_sets[23]: 71
Assign rand_sets[24]: 1127  LLC: 2048
rand_sets[24]: 1127
Assign rand_sets[25]: 1382  LLC: 2048
rand_sets[25]: 1382
Assign rand_sets[26]: 647  LLC: 2048
rand_sets[26]: 647
Assign rand_sets[27]: 857  LLC: 2048
rand_sets[27]: 857
Assign rand_sets[28]: 1450  LLC: 2048
rand_sets[28]: 1450
Assign rand_sets[29]: 1160  LLC: 2048
rand_sets[29]: 1160
Assign rand_sets[30]: 1852  LLC: 2048
rand_sets[30]: 1852
Assign rand_sets[31]: 1881  LLC: 2048
rand_sets[31]: 1881
Assign rand_sets[32]: 1770  LLC: 2048
rand_sets[32]: 1770
Assign rand_sets[33]: 1622  LLC: 2048
rand_sets[33]: 1622
Assign rand_sets[34]: 275  LLC: 2048
rand_sets[34]: 275
Assign rand_sets[35]: 635  LLC: 2048
rand_sets[35]: 635
Assign rand_sets[36]: 466  LLC: 2048
rand_sets[36]: 466
Assign rand_sets[37]: 1413  LLC: 2048
rand_sets[37]: 1413
Assign rand_sets[38]: 417  LLC: 2048
rand_sets[38]: 417
Assign rand_sets[39]: 472  LLC: 2048
rand_sets[39]: 472
Assign rand_sets[40]: 1340  LLC: 2048
rand_sets[40]: 1340
Assign rand_sets[41]: 852  LLC: 2048
rand_sets[41]: 852
Assign rand_sets[42]: 1365  LLC: 2048
rand_sets[42]: 1365
Assign rand_sets[43]: 47  LLC: 2048
rand_sets[43]: 47
Assign rand_sets[44]: 823  LLC: 2048
rand_sets[44]: 823
Assign rand_sets[45]: 686  LLC: 2048
rand_sets[45]: 686
Assign rand_sets[46]: 1637  LLC: 2048
rand_sets[46]: 1637
Assign rand_sets[47]: 1115  LLC: 2048
rand_sets[47]: 1115
Assign rand_sets[48]: 986  LLC: 2048
rand_sets[48]: 986
Assign rand_sets[49]: 258  LLC: 2048
rand_sets[49]: 258
Assign rand_sets[50]: 633  LLC: 2048
rand_sets[50]: 633
Assign rand_sets[51]: 920  LLC: 2048
rand_sets[51]: 920
Assign rand_sets[52]: 204  LLC: 2048
rand_sets[52]: 204
Assign rand_sets[53]: 227  LLC: 2048
rand_sets[53]: 227
Assign rand_sets[54]: 1818  LLC: 2048
rand_sets[54]: 1818
Assign rand_sets[55]: 886  LLC: 2048
rand_sets[55]: 886
Assign rand_sets[56]: 1422  LLC: 2048
rand_sets[56]: 1422
Assign rand_sets[57]: 607  LLC: 2048
rand_sets[57]: 607
Assign rand_sets[58]: 217  LLC: 2048
rand_sets[58]: 217
Assign rand_sets[59]: 1945  LLC: 2048
rand_sets[59]: 1945
Assign rand_sets[60]: 143  LLC: 2048
rand_sets[60]: 143
Assign rand_sets[61]: 1311  LLC: 2048
rand_sets[61]: 1311
Assign rand_sets[62]: 319  LLC: 2048
rand_sets[62]: 319
Assign rand_sets[63]: 1846  LLC: 2048
rand_sets[63]: 1846
 CLEAN-RRIP-POLICY-1: 1-0-1-3-1-3-0-1- CLEAN-RRIP-POLICY-2: 1-0-1-3-1-3-0-1-
 DIRTY-RRIP-POLICY-1: 1-0-0-3-1-3-0-1- DIRTY-RRIP-POLICY-2: 1-0-0-3-1-3-0-1-
 PSEL width: 10
Heartbeat CPU 0 instructions: 10000001 cycles: 7315980 heartbeat IPC: 1.36687 cumulative IPC: 1.36687 (Simulation time: 0 hr 0 min 15 sec) 
Heartbeat CPU 0 instructions: 20000000 cycles: 14307501 heartbeat IPC: 1.4303 cumulative IPC: 1.39787 (Simulation time: 0 hr 0 min 30 sec) 
Heartbeat CPU 0 instructions: 30000001 cycles: 21020288 heartbeat IPC: 1.48969 cumulative IPC: 1.42719 (Simulation time: 0 hr 0 min 46 sec) 
Heartbeat CPU 0 instructions: 40000000 cycles: 27481039 heartbeat IPC: 1.54781 cumulative IPC: 1.45555 (Simulation time: 0 hr 1 min 2 sec) 
Heartbeat CPU 0 instructions: 50000001 cycles: 33582673 heartbeat IPC: 1.63891 cumulative IPC: 1.48886 (Simulation time: 0 hr 1 min 18 sec) 
Heartbeat CPU 0 instructions: 60000000 cycles: 40063784 heartbeat IPC: 1.54295 cumulative IPC: 1.49761 (Simulation time: 0 hr 1 min 33 sec) 
Heartbeat CPU 0 instructions: 70000000 cycles: 47101042 heartbeat IPC: 1.42101 cumulative IPC: 1.48617 (Simulation time: 0 hr 1 min 48 sec) 
Heartbeat CPU 0 instructions: 80000000 cycles: 54190321 heartbeat IPC: 1.41058 cumulative IPC: 1.47628 (Simulation time: 0 hr 2 min 3 sec) 
Heartbeat CPU 0 instructions: 90000003 cycles: 61194402 heartbeat IPC: 1.42774 cumulative IPC: 1.47072 (Simulation time: 0 hr 2 min 18 sec) 
Heartbeat CPU 0 instructions: 100000000 cycles: 68361330 heartbeat IPC: 1.3953 cumulative IPC: 1.46282 (Simulation time: 0 hr 2 min 32 sec) 

Warmup complete CPU 0 instructions: 100000004 cycles: 68361331 (Simulation time: 0 hr 2 min 32 sec) 

Heartbeat CPU 0 instructions: 110000003 cycles: 95938963 heartbeat IPC: 0.362613 cumulative IPC: 0.362613 (Simulation time: 0 hr 3 min 1 sec) 
Heartbeat CPU 0 instructions: 120000000 cycles: 123367069 heartbeat IPC: 0.364589 cumulative IPC: 0.363598 (Simulation time: 0 hr 3 min 30 sec) 
Heartbeat CPU 0 instructions: 130000000 cycles: 148317634 heartbeat IPC: 0.400793 cumulative IPC: 0.375205 (Simulation time: 0 hr 3 min 58 sec) 
Heartbeat CPU 0 instructions: 140000000 cycles: 177627284 heartbeat IPC: 0.341185 cumulative IPC: 0.366079 (Simulation time: 0 hr 4 min 26 sec) 
Heartbeat CPU 0 instructions: 150000000 cycles: 207405351 heartbeat IPC: 0.335818 cumulative IPC: 0.359598 (Simulation time: 0 hr 4 min 54 sec) 
Heartbeat CPU 0 instructions: 160000000 cycles: 234775580 heartbeat IPC: 0.36536 cumulative IPC: 0.360546 (Simulation time: 0 hr 5 min 22 sec) 
Heartbeat CPU 0 instructions: 170000001 cycles: 262732903 heartbeat IPC: 0.357688 cumulative IPC: 0.360135 (Simulation time: 0 hr 5 min 52 sec) 
Heartbeat CPU 0 instructions: 180000000 cycles: 291103920 heartbeat IPC: 0.352472 cumulative IPC: 0.359159 (Simulation time: 0 hr 6 min 21 sec) 
Heartbeat CPU 0 instructions: 190000002 cycles: 319017126 heartbeat IPC: 0.358253 cumulative IPC: 0.359058 (Simulation time: 0 hr 6 min 49 sec) 
Heartbeat CPU 0 instructions: 200000000 cycles: 347298118 heartbeat IPC: 0.353594 cumulative IPC: 0.358504 (Simulation time: 0 hr 7 min 18 sec) 
Heartbeat CPU 0 instructions: 210000002 cycles: 375053343 heartbeat IPC: 0.360293 cumulative IPC: 0.358666 (Simulation time: 0 hr 7 min 47 sec) 
Heartbeat CPU 0 instructions: 220000000 cycles: 404051880 heartbeat IPC: 0.344845 cumulative IPC: 0.357472 (Simulation time: 0 hr 8 min 14 sec) 
Heartbeat CPU 0 instructions: 230000000 cycles: 431522286 heartbeat IPC: 0.364028 cumulative IPC: 0.357968 (Simulation time: 0 hr 8 min 42 sec) 
Heartbeat CPU 0 instructions: 240000000 cycles: 457428604 heartbeat IPC: 0.386006 cumulative IPC: 0.359835 (Simulation time: 0 hr 9 min 9 sec) 
Heartbeat CPU 0 instructions: 250000000 cycles: 487491680 heartbeat IPC: 0.332634 cumulative IPC: 0.357884 (Simulation time: 0 hr 9 min 39 sec) 
Heartbeat CPU 0 instructions: 260000000 cycles: 514535361 heartbeat IPC: 0.369772 cumulative IPC: 0.358604 (Simulation time: 0 hr 10 min 7 sec) 
Heartbeat CPU 0 instructions: 270000003 cycles: 542858039 heartbeat IPC: 0.353074 cumulative IPC: 0.358274 (Simulation time: 0 hr 10 min 36 sec) 
Heartbeat CPU 0 instructions: 280000000 cycles: 570916509 heartbeat IPC: 0.356399 cumulative IPC: 0.35817 (Simulation time: 0 hr 11 min 6 sec) 
Heartbeat CPU 0 instructions: 290000000 cycles: 599706599 heartbeat IPC: 0.347342 cumulative IPC: 0.357583 (Simulation time: 0 hr 11 min 35 sec) 
Heartbeat CPU 0 instructions: 300000000 cycles: 629394527 heartbeat IPC: 0.336837 cumulative IPC: 0.356485 (Simulation time: 0 hr 12 min 3 sec) 
Heartbeat CPU 0 instructions: 310000001 cycles: 658689015 heartbeat IPC: 0.341361 cumulative IPC: 0.355735 (Simulation time: 0 hr 12 min 32 sec) 
Heartbeat CPU 0 instructions: 320000000 cycles: 686778854 heartbeat IPC: 0.356001 cumulative IPC: 0.355747 (Simulation time: 0 hr 13 min 0 sec) 
Heartbeat CPU 0 instructions: 330000000 cycles: 715319413 heartbeat IPC: 0.350379 cumulative IPC: 0.35551 (Simulation time: 0 hr 13 min 28 sec) 
Heartbeat CPU 0 instructions: 340000000 cycles: 744523738 heartbeat IPC: 0.342415 cumulative IPC: 0.354944 (Simulation time: 0 hr 13 min 56 sec) 
Heartbeat CPU 0 instructions: 350000003 cycles: 771477996 heartbeat IPC: 0.370999 cumulative IPC: 0.35556 (Simulation time: 0 hr 14 min 24 sec) 
Heartbeat CPU 0 instructions: 360000000 cycles: 799507382 heartbeat IPC: 0.356768 cumulative IPC: 0.355606 (Simulation time: 0 hr 14 min 51 sec) 
Heartbeat CPU 0 instructions: 370000000 cycles: 827673894 heartbeat IPC: 0.355032 cumulative IPC: 0.355585 (Simulation time: 0 hr 15 min 18 sec) 
Heartbeat CPU 0 instructions: 380000000 cycles: 856165433 heartbeat IPC: 0.350981 cumulative IPC: 0.355418 (Simulation time: 0 hr 15 min 45 sec) 
Heartbeat CPU 0 instructions: 390000001 cycles: 883765212 heartbeat IPC: 0.362322 cumulative IPC: 0.355652 (Simulation time: 0 hr 16 min 12 sec) 
Heartbeat CPU 0 instructions: 400000000 cycles: 912389162 heartbeat IPC: 0.349358 cumulative IPC: 0.355439 (Simulation time: 0 hr 16 min 40 sec) 
Heartbeat CPU 0 instructions: 410000001 cycles: 939699201 heartbeat IPC: 0.366166 cumulative IPC: 0.355775 (Simulation time: 0 hr 17 min 7 sec) 
Heartbeat CPU 0 instructions: 420000000 cycles: 967021346 heartbeat IPC: 0.366003 cumulative IPC: 0.356086 (Simulation time: 0 hr 17 min 34 sec) 
Heartbeat CPU 0 instructions: 430000002 cycles: 994686852 heartbeat IPC: 0.361461 cumulative IPC: 0.356246 (Simulation time: 0 hr 18 min 1 sec) 
Heartbeat CPU 0 instructions: 440000000 cycles: 1024133573 heartbeat IPC: 0.339596 cumulative IPC: 0.355733 (Simulation time: 0 hr 18 min 28 sec) 
Heartbeat CPU 0 instructions: 450000002 cycles: 1053350919 heartbeat IPC: 0.342263 cumulative IPC: 0.355334 (Simulation time: 0 hr 18 min 56 sec) 
Heartbeat CPU 0 instructions: 460000000 cycles: 1081031214 heartbeat IPC: 0.361268 cumulative IPC: 0.355496 (Simulation time: 0 hr 19 min 23 sec) 
Heartbeat CPU 0 instructions: 470000000 cycles: 1108659636 heartbeat IPC: 0.361946 cumulative IPC: 0.355667 (Simulation time: 0 hr 19 min 50 sec) 
Heartbeat CPU 0 instructions: 480000000 cycles: 1136544575 heartbeat IPC: 0.358617 cumulative IPC: 0.355744 (Simulation time: 0 hr 20 min 17 sec) 
Heartbeat CPU 0 instructions: 490000000 cycles: 1164139903 heartbeat IPC: 0.36238 cumulative IPC: 0.355911 (Simulation time: 0 hr 20 min 44 sec) 
Heartbeat CPU 0 instructions: 500000000 cycles: 1192401757 heartbeat IPC: 0.353834 cumulative IPC: 0.355859 (Simulation time: 0 hr 21 min 11 sec) 
Heartbeat CPU 0 instructions: 510000000 cycles: 1227554797 heartbeat IPC: 0.28447 cumulative IPC: 0.353694 (Simulation time: 0 hr 21 min 42 sec) 
Heartbeat CPU 0 instructions: 520000000 cycles: 1255524044 heartbeat IPC: 0.357536 cumulative IPC: 0.353785 (Simulation time: 0 hr 22 min 11 sec) 
Heartbeat CPU 0 instructions: 530000001 cycles: 1284716725 heartbeat IPC: 0.342552 cumulative IPC: 0.353515 (Simulation time: 0 hr 22 min 39 sec) 
Heartbeat CPU 0 instructions: 540000000 cycles: 1312682123 heartbeat IPC: 0.357585 cumulative IPC: 0.353607 (Simulation time: 0 hr 23 min 7 sec) 
Heartbeat CPU 0 instructions: 550000001 cycles: 1341839259 heartbeat IPC: 0.342969 cumulative IPC: 0.353363 (Simulation time: 0 hr 23 min 37 sec) 
Heartbeat CPU 0 instructions: 560000000 cycles: 1367173272 heartbeat IPC: 0.394726 cumulative IPC: 0.35417 (Simulation time: 0 hr 24 min 4 sec) 
Heartbeat CPU 0 instructions: 570000000 cycles: 1396496128 heartbeat IPC: 0.341031 cumulative IPC: 0.35388 (Simulation time: 0 hr 24 min 33 sec) 
Heartbeat CPU 0 instructions: 580000000 cycles: 1424360935 heartbeat IPC: 0.358876 cumulative IPC: 0.353982 (Simulation time: 0 hr 25 min 1 sec) 
Heartbeat CPU 0 instructions: 590000001 cycles: 1449106917 heartbeat IPC: 0.404106 cumulative IPC: 0.354881 (Simulation time: 0 hr 25 min 28 sec) 
Heartbeat CPU 0 instructions: 600000000 cycles: 1475222520 heartbeat IPC: 0.382913 cumulative IPC: 0.355401 (Simulation time: 0 hr 25 min 55 sec) 
Finished CPU 0 instructions: 500000000 cycles: 1406861211 cumulative IPC: 0.355401 (Simulation time: 0 hr 25 min 55 sec) 

CPU 0 Branch Prediction Accuracy: 86.4311% MPKI: 26.2662
Number of Branches: 96788573 Number of Mispredictions: 13133102
Number of LOAD Instructions: 164682285
Number of LOAD Instructions (ROI): 164682285
Number of STORE Instructions: 78194750
Number of STORE Instructions (ROI): 78194750
Total Destination Memory Operands: 83268534
Total Destination Memory Operands (ROI): 83268534
Total Source Memory Operands: 164712438
Total Source Memory Operands (ROI): 164712438
Number of DEPENDED LOADS: 7061407
Number of DEPENDED LOADS (ROI): 7061407
Number of SQ_ADDED: 83268522
Number of SQ_ADDED (ROI): 83268522
Number of LQ_ADDED: 236702032
Number of LQ_ADDED (ROI): 236702032
Number of Instructions read from trace: 600000066

ChampSim completed all CPUs

Region of Interest Statistics

CPU 0 cumulative IPC: 0.355401 instructions: 500000000 cycles: 1406861211
ITLB TOTAL     ACCESS:  100509884  HIT:  100305438  MISS:     204446
ITLB LOAD      ACCESS:  100509884  HIT:  100305438  MISS:     204446
ITLB RFO       ACCESS:          0  HIT:          0  MISS:          0
ITLB PREFETCH  ACCESS:          0  HIT:          0  MISS:          0
ITLB WRITEBACK ACCESS:          0  HIT:          0  MISS:          0
ITLB PREFETCH  REQUESTED:          0  ISSUED:          0  USEFUL:          0  USELESS:          0
ITLB TOTAL MSHR MERGED:     172424
ITLB LOAD MSHR MERGED:     172424
ITLB RFO MSHR MERGED:          0
ITLB PREFETCH MSHR MERGED:          0
ITLB WRITEBACK MSHR MERGED:          0
ITLB TOTAL ACCESSES:  100682308 HITS:  100305438 MISSES:     376870
ITLB LOAD ACCESSES:  100682308 HITS:  100305438 MISSES:     376870
ITLB RFO ACCESSES:          0 HITS:          0 MISSES:          0
ITLB PREFETCH ACCESSES:          0 HITS:          0 MISSES:          0
ITLB WRITEBACK ACCESSES:          0 HITS:          0 MISSES:          0
ITLB RQ ACCESS:  500000057
ITLB RQ TO_CACHE:  100682308
ITLB RQ MERGED:  399317749
ITLB RQ FORWARD:          0
ITLB WQ ACCESS:          0
ITLB WQ TO_CACHE:          0
ITLB WQ MERGED:          0
ITLB WQ FORWARD:          0
DTLB TOTAL     ACCESS:  165334234  HIT:  164699888  MISS:     634346
DTLB LOAD      ACCESS:  106290469  HIT:  105720480  MISS:     569989
DTLB RFO       ACCESS:   59043765  HIT:   58979408  MISS:      64357
DTLB PREFETCH  ACCESS:          0  HIT:          0  MISS:          0
DTLB WRITEBACK ACCESS:          0  HIT:          0  MISS:          0
DTLB PREFETCH  REQUESTED:          0  ISSUED:          0  USEFUL:          0  USELESS:          0
DTLB TOTAL MSHR MERGED:     100032
DTLB LOAD MSHR MERGED:      59459
DTLB RFO MSHR MERGED:      40573
DTLB PREFETCH MSHR MERGED:          0
DTLB WRITEBACK MSHR MERGED:          0
DTLB TOTAL ACCESSES:  165434266 HITS:  164699888 MISSES:     734378
DTLB LOAD ACCESSES:  106349928 HITS:  105720480 MISSES:     629448
DTLB RFO ACCESSES:   59084338 HITS:   58979408 MISSES:     104930
DTLB PREFETCH ACCESSES:          0 HITS:          0 MISSES:          0
DTLB WRITEBACK ACCESSES:          0 HITS:          0 MISSES:          0
DTLB RQ ACCESS:  200309498
DTLB RQ TO_CACHE:  165434266
DTLB RQ MERGED:   34875232
DTLB RQ FORWARD:          0
DTLB WQ ACCESS:          0
DTLB WQ TO_CACHE:          0
DTLB WQ MERGED:          0
DTLB WQ FORWARD:          0
L1D TOTAL     ACCESS:  281812582  HIT:  273903286  MISS:    7909296
L1D LOAD      ACCESS:  110413580  HIT:  107135326  MISS:    3278254
L1D RFO       ACCESS:   67107816  HIT:   66216875  MISS:     890941
L1D PREFETCH  ACCESS:  104291186  HIT:  100551085  MISS:    3740101
L1D WRITEBACK ACCESS:          0  HIT:          0  MISS:          0
L1D PREFETCH  REQUESTED:  110814859  ISSUED:  109115600  USEFUL:    1660879  USELESS:    2079186
L1D TOTAL MSHR MERGED:    2886820
L1D LOAD MSHR MERGED:     498958
L1D RFO MSHR MERGED:    1878477
L1D PREFETCH MSHR MERGED:     509385
L1D WRITEBACK MSHR MERGED:          0
L1D TOTAL ACCESSES:  284726873 HITS:  273930757 MISSES:   10796116
L1D LOAD ACCESSES:  110816325 HITS:  107136792 MISSES:    3679533
L1D RFO ACCESSES:   68974147 HITS:   66216875 MISSES:    2757272
L1D PREFETCH ACCESSES:  104936401 HITS:  100577090 MISSES:    4359311
L1D WRITEBACK ACCESSES:          0 HITS:          0 MISSES:          0
L1D RQ ACCESS:  130756895
L1D RQ TO_CACHE:  110814862
L1D RQ MERGED:   19940567
L1D RQ FORWARD:          0
L1D WQ ACCESS:   69552603
L1D WQ TO_CACHE:   68974148
L1D WQ MERGED:     578455
L1D WQ FORWARD:      27471
L1I TOTAL     ACCESS:  126557733  HIT:  122319180  MISS:    4238553
L1I LOAD      ACCESS:  126557733  HIT:  122319180  MISS:    4238553
L1I RFO       ACCESS:          0  HIT:          0  MISS:          0
L1I PREFETCH  ACCESS:          0  HIT:          0  MISS:          0
L1I WRITEBACK ACCESS:          0  HIT:          0  MISS:          0
L1I PREFETCH  REQUESTED:          0  ISSUED:          0  USEFUL:          0  USELESS:          0
L1I TOTAL MSHR MERGED:    1834446
L1I LOAD MSHR MERGED:    1834446
L1I RFO MSHR MERGED:          0
L1I PREFETCH MSHR MERGED:          0
L1I WRITEBACK MSHR MERGED:          0
L1I TOTAL ACCESSES:  128392182 HITS:  122319180 MISSES:    6073002
L1I LOAD ACCESSES:  128392182 HITS:  122319180 MISSES:    6073002
L1I RFO ACCESSES:          0 HITS:          0 MISSES:          0
L1I PREFETCH ACCESSES:          0 HITS:          0 MISSES:          0
L1I WRITEBACK ACCESSES:          0 HITS:          0 MISSES:          0
L1I RQ ACCESS:  500000057
L1I RQ TO_CACHE:  128392182
L1I RQ MERGED:  371607875
L1I RQ FORWARD:          0
L1I WQ ACCESS:          0
L1I WQ TO_CACHE:          0
L1I WQ MERGED:          0
L1I WQ FORWARD:          0
L2C TOTAL     ACCESS:   14904750  HIT:   11158386  MISS:    3746364
L2C LOAD      ACCESS:    7418918  HIT:    5098816  MISS:    2320102
L2C RFO       ACCESS:     878695  HIT:     409912  MISS:     468783
L2C PREFETCH  ACCESS:    4567901  HIT:    3627676  MISS:     940225
L2C WRITEBACK ACCESS:    2039236  HIT:    2021982  MISS:      17254
L2C PREFETCH  REQUESTED:     842701  ISSUED:     842701  USEFUL:     203276  USELESS:     736655
L2C TOTAL MSHR MERGED:       7395
L2C LOAD MSHR MERGED:        864
L2C RFO MSHR MERGED:          0
L2C PREFETCH MSHR MERGED:       6531
L2C WRITEBACK MSHR MERGED:          0
L2C TOTAL ACCESSES:   14913094 HITS:   11158838 MISSES:    3754256
L2C LOAD ACCESSES:    7419128 HITS:    5099026 MISSES:    2320102
L2C RFO ACCESSES:     878795 HITS:     410012 MISSES:     468783
L2C PREFETCH ACCESSES:    4575935 HITS:    3627818 MISSES:     948117
L2C WRITEBACK ACCESSES:    2039236 HITS:    2021982 MISSES:      17254
L2C RQ ACCESS:    8297926
L2C RQ TO_CACHE:    8297616
L2C RQ MERGED:          0
L2C RQ FORWARD:          0
L2C WQ ACCESS:    2039236
L2C WQ TO_CACHE:    2039236
L2C WQ MERGED:          0
L2C WQ FORWARD:        452
LLC TOTAL     ACCESS:    4609690  HIT:    3947095  MISS:     662595
LLC LOAD      ACCESS:    2319226  HIT:    2103516  MISS:     215710
LLC RFO       ACCESS:     468772  HIT:     388714  MISS:      80058
LLC PREFETCH  ACCESS:     941445  HIT:     643327  MISS:     298118
LLC WRITEBACK ACCESS:     880247  HIT:     811538  MISS:      68709
LLC PREFETCH  REQUESTED:          0  ISSUED:          0  USEFUL:      15901  USELESS:     283050
LLC TOTAL MSHR MERGED:        126
LLC LOAD MSHR MERGED:         39
LLC RFO MSHR MERGED:          0
LLC PREFETCH MSHR MERGED:         87
LLC WRITEBACK MSHR MERGED:          0
LLC TOTAL ACCESSES:    4609849 HITS:    3947128 MISSES:     662721
LLC LOAD ACCESSES:    2319238 HITS:    2103528 MISSES:     215710
LLC RFO ACCESSES:     468783 HITS:     388725 MISSES:      80058
LLC PREFETCH ACCESSES:     941581 HITS:     643337 MISSES:     298244
LLC WRITEBACK ACCESSES:     880247 HITS:     811538 MISSES:      68709
LLC 0 RQ ACCESS:    2788021
LLC 0 RQ TO_CACHE:    2787998
LLC 0 RQ MERGED:          0
LLC 0 RQ FORWARD:          0
LLC WQ ACCESS:     880247
LLC WQ TO_CACHE:     880247
LLC WQ MERGED:          0
LLC WQ FORWARD:         33
Major fault: 0 Minor fault: 12862
CPU 0 L1D next line prefetcher final stats
CPU 0 L2C PC-based stride prefetcher final stats
All Misses: 782376
All Hits: 4644320
SD Algo Stats - Switches: 0 SRR-Repls: 252664 BRR-Repls: 0

DRAM Statistics
 CHANNEL 0
 RQ ROW_BUFFER_HIT:     116272  ROW_BUFFER_MISS:     476503
 DBUS_CONGESTED:     385386
 WQ ROW_BUFFER_HIT:      19177  ROW_BUFFER_MISS:     199760  FULL:          0

 AVG_CONGESTED_CYCLE: 13
LOADS RETIRED: 136549171
INSTR RETIRED: 500000000
