
*** ChampSim Multicore Out-of-Order Simulator ***

Warmup Instructions: 100000000
Simulation Instructions: 500000000
Number of CPUs: 1
LLC sets: 2048
LLC ways: 16
Clean RRIP Policies: 1323030113230301 Dirty RRIP Policies: 2303131123031311 PSEL Width: 10 Track Set: 4294967295 PSEL Mask: 1 Demote Mask: 2300141023001410DS Algo: 0Window size: 0
Off-chip DRAM Size: 4096 MB Channels: 1 Width: 64-bit Data Rate: 1600 MT/s

CPU 0 runs /mnt/beegfs/iconst01/spec2017/Gcc.trace.gz
NOT SORTED
TRACE STRING: /mnt/beegfs/iconst01/spec2017/Gcc.trace.gz
SORTED
TRACE STRING: /mnt/beegfs/iconst01/spec2017/Gcc.trace.gz
INITIAL
TRACE STRING: /mnt/beegfs/iconst01/spec2017/Gcc.trace.gz

champsim_seed used: 269

CPU 0 L1D next line prefetcher
CPU 0 L2C IP-based stride prefetcher
Initialize DRRIP state
Assign rand_sets[0]: 454  LLC: 2048
rand_sets[0]: 454
Assign rand_sets[1]: 1662  LLC: 2048
rand_sets[1]: 1662
Assign rand_sets[2]: 1921  LLC: 2048
rand_sets[2]: 1921
Assign rand_sets[3]: 1131  LLC: 2048
rand_sets[3]: 1131
Assign rand_sets[4]: 331  LLC: 2048
rand_sets[4]: 331
Assign rand_sets[5]: 1531  LLC: 2048
rand_sets[5]: 1531
Assign rand_sets[6]: 482  LLC: 2048
rand_sets[6]: 482
Assign rand_sets[7]: 1275  LLC: 2048
rand_sets[7]: 1275
Assign rand_sets[8]: 1876  LLC: 2048
rand_sets[8]: 1876
Assign rand_sets[9]: 2038  LLC: 2048
rand_sets[9]: 2038
Assign rand_sets[10]: 701  LLC: 2048
rand_sets[10]: 701
Assign rand_sets[11]: 479  LLC: 2048
rand_sets[11]: 479
Assign rand_sets[12]: 892  LLC: 2048
rand_sets[12]: 892
Assign rand_sets[13]: 1820  LLC: 2048
rand_sets[13]: 1820
Assign rand_sets[14]: 1505  LLC: 2048
rand_sets[14]: 1505
Assign rand_sets[15]: 1159  LLC: 2048
rand_sets[15]: 1159
Assign rand_sets[16]: 513  LLC: 2048
rand_sets[16]: 513
Assign rand_sets[17]: 703  LLC: 2048
rand_sets[17]: 703
Assign rand_sets[18]: 561  LLC: 2048
rand_sets[18]: 561
Assign rand_sets[19]: 990  LLC: 2048
rand_sets[19]: 990
Assign rand_sets[20]: 342  LLC: 2048
rand_sets[20]: 342
Assign rand_sets[21]: 882  LLC: 2048
rand_sets[21]: 882
Assign rand_sets[22]: 15  LLC: 2048
rand_sets[22]: 15
Assign rand_sets[23]: 71  LLC: 2048
rand_sets[23]: 71
Assign rand_sets[24]: 1127  LLC: 2048
rand_sets[24]: 1127
Assign rand_sets[25]: 1382  LLC: 2048
rand_sets[25]: 1382
Assign rand_sets[26]: 647  LLC: 2048
rand_sets[26]: 647
Assign rand_sets[27]: 857  LLC: 2048
rand_sets[27]: 857
Assign rand_sets[28]: 1450  LLC: 2048
rand_sets[28]: 1450
Assign rand_sets[29]: 1160  LLC: 2048
rand_sets[29]: 1160
Assign rand_sets[30]: 1852  LLC: 2048
rand_sets[30]: 1852
Assign rand_sets[31]: 1881  LLC: 2048
rand_sets[31]: 1881
Assign rand_sets[32]: 1770  LLC: 2048
rand_sets[32]: 1770
Assign rand_sets[33]: 1622  LLC: 2048
rand_sets[33]: 1622
Assign rand_sets[34]: 275  LLC: 2048
rand_sets[34]: 275
Assign rand_sets[35]: 635  LLC: 2048
rand_sets[35]: 635
Assign rand_sets[36]: 466  LLC: 2048
rand_sets[36]: 466
Assign rand_sets[37]: 1413  LLC: 2048
rand_sets[37]: 1413
Assign rand_sets[38]: 417  LLC: 2048
rand_sets[38]: 417
Assign rand_sets[39]: 472  LLC: 2048
rand_sets[39]: 472
Assign rand_sets[40]: 1340  LLC: 2048
rand_sets[40]: 1340
Assign rand_sets[41]: 852  LLC: 2048
rand_sets[41]: 852
Assign rand_sets[42]: 1365  LLC: 2048
rand_sets[42]: 1365
Assign rand_sets[43]: 47  LLC: 2048
rand_sets[43]: 47
Assign rand_sets[44]: 823  LLC: 2048
rand_sets[44]: 823
Assign rand_sets[45]: 686  LLC: 2048
rand_sets[45]: 686
Assign rand_sets[46]: 1637  LLC: 2048
rand_sets[46]: 1637
Assign rand_sets[47]: 1115  LLC: 2048
rand_sets[47]: 1115
Assign rand_sets[48]: 986  LLC: 2048
rand_sets[48]: 986
Assign rand_sets[49]: 258  LLC: 2048
rand_sets[49]: 258
Assign rand_sets[50]: 633  LLC: 2048
rand_sets[50]: 633
Assign rand_sets[51]: 920  LLC: 2048
rand_sets[51]: 920
Assign rand_sets[52]: 204  LLC: 2048
rand_sets[52]: 204
Assign rand_sets[53]: 227  LLC: 2048
rand_sets[53]: 227
Assign rand_sets[54]: 1818  LLC: 2048
rand_sets[54]: 1818
Assign rand_sets[55]: 886  LLC: 2048
rand_sets[55]: 886
Assign rand_sets[56]: 1422  LLC: 2048
rand_sets[56]: 1422
Assign rand_sets[57]: 607  LLC: 2048
rand_sets[57]: 607
Assign rand_sets[58]: 217  LLC: 2048
rand_sets[58]: 217
Assign rand_sets[59]: 1945  LLC: 2048
rand_sets[59]: 1945
Assign rand_sets[60]: 143  LLC: 2048
rand_sets[60]: 143
Assign rand_sets[61]: 1311  LLC: 2048
rand_sets[61]: 1311
Assign rand_sets[62]: 319  LLC: 2048
rand_sets[62]: 319
Assign rand_sets[63]: 1846  LLC: 2048
rand_sets[63]: 1846
 CLEAN-RRIP-POLICY-1: 1-3-2-3-0-3-0-1- CLEAN-RRIP-POLICY-2: 1-3-2-3-0-3-0-1-
 DIRTY-RRIP-POLICY-1: 2-3-0-3-1-3-1-1- DIRTY-RRIP-POLICY-2: 2-3-0-3-1-3-1-1-
 PSEL width: 10
Heartbeat CPU 0 instructions: 10000001 cycles: 7316028 heartbeat IPC: 1.36686 cumulative IPC: 1.36686 (Simulation time: 0 hr 0 min 15 sec) 
Heartbeat CPU 0 instructions: 20000000 cycles: 14307459 heartbeat IPC: 1.43032 cumulative IPC: 1.39787 (Simulation time: 0 hr 0 min 30 sec) 
Heartbeat CPU 0 instructions: 30000001 cycles: 21020263 heartbeat IPC: 1.48969 cumulative IPC: 1.42719 (Simulation time: 0 hr 0 min 46 sec) 
Heartbeat CPU 0 instructions: 40000000 cycles: 27481108 heartbeat IPC: 1.54779 cumulative IPC: 1.45555 (Simulation time: 0 hr 1 min 2 sec) 
Heartbeat CPU 0 instructions: 50000001 cycles: 33582746 heartbeat IPC: 1.6389 cumulative IPC: 1.48886 (Simulation time: 0 hr 1 min 18 sec) 
Heartbeat CPU 0 instructions: 60000000 cycles: 40063839 heartbeat IPC: 1.54295 cumulative IPC: 1.49761 (Simulation time: 0 hr 1 min 34 sec) 
Heartbeat CPU 0 instructions: 70000000 cycles: 47101371 heartbeat IPC: 1.42095 cumulative IPC: 1.48616 (Simulation time: 0 hr 1 min 49 sec) 
Heartbeat CPU 0 instructions: 80000000 cycles: 54190768 heartbeat IPC: 1.41056 cumulative IPC: 1.47627 (Simulation time: 0 hr 2 min 4 sec) 
Heartbeat CPU 0 instructions: 90000003 cycles: 61194909 heartbeat IPC: 1.42773 cumulative IPC: 1.47071 (Simulation time: 0 hr 2 min 19 sec) 
Heartbeat CPU 0 instructions: 100000000 cycles: 68361841 heartbeat IPC: 1.3953 cumulative IPC: 1.4628 (Simulation time: 0 hr 2 min 34 sec) 

Warmup complete CPU 0 instructions: 100000004 cycles: 68361842 (Simulation time: 0 hr 2 min 34 sec) 

Heartbeat CPU 0 instructions: 110000003 cycles: 95968960 heartbeat IPC: 0.362226 cumulative IPC: 0.362225 (Simulation time: 0 hr 3 min 3 sec) 
Heartbeat CPU 0 instructions: 120000000 cycles: 123450204 heartbeat IPC: 0.363884 cumulative IPC: 0.363053 (Simulation time: 0 hr 3 min 32 sec) 
Heartbeat CPU 0 instructions: 130000000 cycles: 148426301 heartbeat IPC: 0.400383 cumulative IPC: 0.374698 (Simulation time: 0 hr 4 min 1 sec) 
Heartbeat CPU 0 instructions: 140000000 cycles: 177797286 heartbeat IPC: 0.340472 cumulative IPC: 0.365512 (Simulation time: 0 hr 4 min 30 sec) 
Heartbeat CPU 0 instructions: 150000000 cycles: 207596013 heartbeat IPC: 0.335585 cumulative IPC: 0.359107 (Simulation time: 0 hr 4 min 59 sec) 
Heartbeat CPU 0 instructions: 160000000 cycles: 234973968 heartbeat IPC: 0.365257 cumulative IPC: 0.360118 (Simulation time: 0 hr 5 min 27 sec) 
Heartbeat CPU 0 instructions: 170000001 cycles: 262966071 heartbeat IPC: 0.357244 cumulative IPC: 0.359704 (Simulation time: 0 hr 5 min 57 sec) 
Heartbeat CPU 0 instructions: 180000000 cycles: 291375641 heartbeat IPC: 0.351994 cumulative IPC: 0.358722 (Simulation time: 0 hr 6 min 27 sec) 
Heartbeat CPU 0 instructions: 190000002 cycles: 319316692 heartbeat IPC: 0.357896 cumulative IPC: 0.35863 (Simulation time: 0 hr 6 min 56 sec) 
Heartbeat CPU 0 instructions: 200000000 cycles: 347619423 heartbeat IPC: 0.353323 cumulative IPC: 0.358092 (Simulation time: 0 hr 7 min 26 sec) 
Heartbeat CPU 0 instructions: 210000002 cycles: 375394501 heartbeat IPC: 0.360035 cumulative IPC: 0.358268 (Simulation time: 0 hr 7 min 55 sec) 
Heartbeat CPU 0 instructions: 220000000 cycles: 404409764 heartbeat IPC: 0.344646 cumulative IPC: 0.357092 (Simulation time: 0 hr 8 min 23 sec) 
Heartbeat CPU 0 instructions: 230000000 cycles: 431917014 heartbeat IPC: 0.363541 cumulative IPC: 0.35758 (Simulation time: 0 hr 8 min 51 sec) 
Heartbeat CPU 0 instructions: 240000000 cycles: 457862361 heartbeat IPC: 0.385426 cumulative IPC: 0.359435 (Simulation time: 0 hr 9 min 19 sec) 
Heartbeat CPU 0 instructions: 250000000 cycles: 487985285 heartbeat IPC: 0.331973 cumulative IPC: 0.357463 (Simulation time: 0 hr 9 min 50 sec) 
Heartbeat CPU 0 instructions: 260000000 cycles: 515055730 heartbeat IPC: 0.369407 cumulative IPC: 0.358187 (Simulation time: 0 hr 10 min 18 sec) 
Heartbeat CPU 0 instructions: 270000003 cycles: 543439114 heartbeat IPC: 0.352319 cumulative IPC: 0.357837 (Simulation time: 0 hr 10 min 48 sec) 
Heartbeat CPU 0 instructions: 280000000 cycles: 571580931 heartbeat IPC: 0.355343 cumulative IPC: 0.357697 (Simulation time: 0 hr 11 min 18 sec) 
Heartbeat CPU 0 instructions: 290000000 cycles: 600409134 heartbeat IPC: 0.346883 cumulative IPC: 0.357111 (Simulation time: 0 hr 11 min 49 sec) 
Heartbeat CPU 0 instructions: 300000000 cycles: 630176277 heartbeat IPC: 0.335941 cumulative IPC: 0.355989 (Simulation time: 0 hr 12 min 17 sec) 
Heartbeat CPU 0 instructions: 310000001 cycles: 659487380 heartbeat IPC: 0.341168 cumulative IPC: 0.355254 (Simulation time: 0 hr 12 min 46 sec) 
Heartbeat CPU 0 instructions: 320000000 cycles: 687612223 heartbeat IPC: 0.355558 cumulative IPC: 0.355268 (Simulation time: 0 hr 13 min 14 sec) 
Heartbeat CPU 0 instructions: 330000000 cycles: 716185231 heartbeat IPC: 0.349981 cumulative IPC: 0.355035 (Simulation time: 0 hr 13 min 43 sec) 
Heartbeat CPU 0 instructions: 340000000 cycles: 745424131 heartbeat IPC: 0.34201 cumulative IPC: 0.354473 (Simulation time: 0 hr 14 min 12 sec) 
Heartbeat CPU 0 instructions: 350000003 cycles: 772393543 heartbeat IPC: 0.370791 cumulative IPC: 0.355098 (Simulation time: 0 hr 14 min 41 sec) 
Heartbeat CPU 0 instructions: 360000000 cycles: 800465369 heartbeat IPC: 0.356229 cumulative IPC: 0.355141 (Simulation time: 0 hr 15 min 8 sec) 
Heartbeat CPU 0 instructions: 370000000 cycles: 828667365 heartbeat IPC: 0.354585 cumulative IPC: 0.35512 (Simulation time: 0 hr 15 min 36 sec) 
Heartbeat CPU 0 instructions: 380000000 cycles: 857187685 heartbeat IPC: 0.350627 cumulative IPC: 0.354958 (Simulation time: 0 hr 16 min 3 sec) 
Heartbeat CPU 0 instructions: 390000001 cycles: 884811387 heartbeat IPC: 0.362008 cumulative IPC: 0.355196 (Simulation time: 0 hr 16 min 31 sec) 
Heartbeat CPU 0 instructions: 400000000 cycles: 913445456 heartbeat IPC: 0.349234 cumulative IPC: 0.354994 (Simulation time: 0 hr 16 min 58 sec) 
Heartbeat CPU 0 instructions: 410000001 cycles: 940769349 heartbeat IPC: 0.36598 cumulative IPC: 0.355339 (Simulation time: 0 hr 17 min 26 sec) 
Heartbeat CPU 0 instructions: 420000000 cycles: 968104096 heartbeat IPC: 0.365835 cumulative IPC: 0.355657 (Simulation time: 0 hr 17 min 53 sec) 
Heartbeat CPU 0 instructions: 430000002 cycles: 995788498 heartbeat IPC: 0.361214 cumulative IPC: 0.355823 (Simulation time: 0 hr 18 min 20 sec) 
Heartbeat CPU 0 instructions: 440000000 cycles: 1025254560 heartbeat IPC: 0.339373 cumulative IPC: 0.355317 (Simulation time: 0 hr 18 min 48 sec) 
Heartbeat CPU 0 instructions: 450000002 cycles: 1054467959 heartbeat IPC: 0.342309 cumulative IPC: 0.354931 (Simulation time: 0 hr 19 min 15 sec) 
Heartbeat CPU 0 instructions: 460000000 cycles: 1082159451 heartbeat IPC: 0.361122 cumulative IPC: 0.3551 (Simulation time: 0 hr 19 min 42 sec) 
Heartbeat CPU 0 instructions: 470000000 cycles: 1109799838 heartbeat IPC: 0.361789 cumulative IPC: 0.355278 (Simulation time: 0 hr 20 min 8 sec) 
Heartbeat CPU 0 instructions: 480000000 cycles: 1137690140 heartbeat IPC: 0.358548 cumulative IPC: 0.355363 (Simulation time: 0 hr 20 min 35 sec) 
Heartbeat CPU 0 instructions: 490000000 cycles: 1165294494 heartbeat IPC: 0.362262 cumulative IPC: 0.355537 (Simulation time: 0 hr 21 min 2 sec) 
Heartbeat CPU 0 instructions: 500000000 cycles: 1193572809 heartbeat IPC: 0.353628 cumulative IPC: 0.355489 (Simulation time: 0 hr 21 min 29 sec) 
Heartbeat CPU 0 instructions: 510000000 cycles: 1228426436 heartbeat IPC: 0.286914 cumulative IPC: 0.353429 (Simulation time: 0 hr 21 min 59 sec) 
Heartbeat CPU 0 instructions: 520000000 cycles: 1256379706 heartbeat IPC: 0.35774 cumulative IPC: 0.35353 (Simulation time: 0 hr 22 min 27 sec) 
Heartbeat CPU 0 instructions: 530000001 cycles: 1285574873 heartbeat IPC: 0.342522 cumulative IPC: 0.353266 (Simulation time: 0 hr 22 min 55 sec) 
Heartbeat CPU 0 instructions: 540000000 cycles: 1313552620 heartbeat IPC: 0.357427 cumulative IPC: 0.353359 (Simulation time: 0 hr 23 min 22 sec) 
Heartbeat CPU 0 instructions: 550000001 cycles: 1342750589 heartbeat IPC: 0.34249 cumulative IPC: 0.35311 (Simulation time: 0 hr 23 min 52 sec) 
Heartbeat CPU 0 instructions: 560000000 cycles: 1368093001 heartbeat IPC: 0.394595 cumulative IPC: 0.353919 (Simulation time: 0 hr 24 min 19 sec) 
Heartbeat CPU 0 instructions: 570000000 cycles: 1397458273 heartbeat IPC: 0.340538 cumulative IPC: 0.353624 (Simulation time: 0 hr 24 min 47 sec) 
Heartbeat CPU 0 instructions: 580000000 cycles: 1425395140 heartbeat IPC: 0.35795 cumulative IPC: 0.353713 (Simulation time: 0 hr 25 min 15 sec) 
Heartbeat CPU 0 instructions: 590000001 cycles: 1450238320 heartbeat IPC: 0.402525 cumulative IPC: 0.35459 (Simulation time: 0 hr 25 min 42 sec) 
Heartbeat CPU 0 instructions: 600000000 cycles: 1476425267 heartbeat IPC: 0.38187 cumulative IPC: 0.355098 (Simulation time: 0 hr 26 min 9 sec) 
Finished CPU 0 instructions: 500000000 cycles: 1408063447 cumulative IPC: 0.355098 (Simulation time: 0 hr 26 min 9 sec) 

CPU 0 Branch Prediction Accuracy: 86.4311% MPKI: 26.2662
Number of Branches: 96788573 Number of Mispredictions: 13133102
Number of LOAD Instructions: 164682285
Number of LOAD Instructions (ROI): 164682285
Number of STORE Instructions: 78194750
Number of STORE Instructions (ROI): 78194750
Total Destination Memory Operands: 83268534
Total Destination Memory Operands (ROI): 83268534
Total Source Memory Operands: 164712438
Total Source Memory Operands (ROI): 164712438
Number of DEPENDED LOADS: 7062274
Number of DEPENDED LOADS (ROI): 7062274
Number of SQ_ADDED: 83268522
Number of SQ_ADDED (ROI): 83268522
Number of LQ_ADDED: 236824533
Number of LQ_ADDED (ROI): 236824533
Number of Instructions read from trace: 600000066

ChampSim completed all CPUs

Region of Interest Statistics

CPU 0 cumulative IPC: 0.355098 instructions: 500000000 cycles: 1408063447
ITLB TOTAL     ACCESS:  100512849  HIT:  100308403  MISS:     204446
ITLB LOAD      ACCESS:  100512849  HIT:  100308403  MISS:     204446
ITLB RFO       ACCESS:          0  HIT:          0  MISS:          0
ITLB PREFETCH  ACCESS:          0  HIT:          0  MISS:          0
ITLB WRITEBACK ACCESS:          0  HIT:          0  MISS:          0
ITLB PREFETCH  REQUESTED:          0  ISSUED:          0  USEFUL:          0  USELESS:          0
ITLB TOTAL MSHR MERGED:     172423
ITLB LOAD MSHR MERGED:     172423
ITLB RFO MSHR MERGED:          0
ITLB PREFETCH MSHR MERGED:          0
ITLB WRITEBACK MSHR MERGED:          0
ITLB TOTAL ACCESSES:  100685272 HITS:  100308403 MISSES:     376869
ITLB LOAD ACCESSES:  100685272 HITS:  100308403 MISSES:     376869
ITLB RFO ACCESSES:          0 HITS:          0 MISSES:          0
ITLB PREFETCH ACCESSES:          0 HITS:          0 MISSES:          0
ITLB WRITEBACK ACCESSES:          0 HITS:          0 MISSES:          0
ITLB RQ ACCESS:  500000057
ITLB RQ TO_CACHE:  100685272
ITLB RQ MERGED:  399314785
ITLB RQ FORWARD:          0
ITLB WQ ACCESS:          0
ITLB WQ TO_CACHE:          0
ITLB WQ MERGED:          0
ITLB WQ FORWARD:          0
DTLB TOTAL     ACCESS:  165333205  HIT:  164698856  MISS:     634349
DTLB LOAD      ACCESS:  106289597  HIT:  105719625  MISS:     569972
DTLB RFO       ACCESS:   59043608  HIT:   58979231  MISS:      64377
DTLB PREFETCH  ACCESS:          0  HIT:          0  MISS:          0
DTLB WRITEBACK ACCESS:          0  HIT:          0  MISS:          0
DTLB PREFETCH  REQUESTED:          0  ISSUED:          0  USEFUL:          0  USELESS:          0
DTLB TOTAL MSHR MERGED:      99999
DTLB LOAD MSHR MERGED:      59461
DTLB RFO MSHR MERGED:      40538
DTLB PREFETCH MSHR MERGED:          0
DTLB WRITEBACK MSHR MERGED:          0
DTLB TOTAL ACCESSES:  165433204 HITS:  164698856 MISSES:     734348
DTLB LOAD ACCESSES:  106349058 HITS:  105719625 MISSES:     629433
DTLB RFO ACCESSES:   59084146 HITS:   58979231 MISSES:     104915
DTLB PREFETCH ACCESSES:          0 HITS:          0 MISSES:          0
DTLB WRITEBACK ACCESSES:          0 HITS:          0 MISSES:          0
DTLB RQ ACCESS:  200308624
DTLB RQ TO_CACHE:  165433204
DTLB RQ MERGED:   34875420
DTLB RQ FORWARD:          0
DTLB WQ ACCESS:          0
DTLB WQ TO_CACHE:          0
DTLB WQ MERGED:          0
DTLB WQ FORWARD:          0
L1D TOTAL     ACCESS:  281773105  HIT:  273863909  MISS:    7909196
L1D LOAD      ACCESS:  110407001  HIT:  107125161  MISS:    3281840
L1D RFO       ACCESS:   67099093  HIT:   66207499  MISS:     891594
L1D PREFETCH  ACCESS:  104267011  HIT:  100531249  MISS:    3735762
L1D WRITEBACK ACCESS:          0  HIT:          0  MISS:          0
L1D PREFETCH  REQUESTED:  110814791  ISSUED:  109115539  USEFUL:    1656628  USELESS:    2079098
L1D TOTAL MSHR MERGED:    2926187
L1D LOAD MSHR MERGED:     509125
L1D RFO MSHR MERGED:    1887737
L1D PREFETCH MSHR MERGED:     529325
L1D WRITEBACK MSHR MERGED:          0
L1D TOTAL ACCESSES:  284726869 HITS:  273891486 MISSES:   10835383
L1D LOAD ACCESSES:  110816391 HITS:  107126761 MISSES:    3689630
L1D RFO ACCESSES:   68973997 HITS:   66207499 MISSES:    2766498
L1D PREFETCH ACCESSES:  104936481 HITS:  100557226 MISSES:    4379255
L1D WRITEBACK ACCESSES:          0 HITS:          0 MISSES:          0
L1D RQ ACCESS:  130756021
L1D RQ TO_CACHE:  110814794
L1D RQ MERGED:   19939627
L1D RQ FORWARD:          0
L1D WQ ACCESS:   69552603
L1D WQ TO_CACHE:   68973998
L1D WQ MERGED:     578605
L1D WQ FORWARD:      27577
L1I TOTAL     ACCESS:  126560417  HIT:  122321864  MISS:    4238553
L1I LOAD      ACCESS:  126560417  HIT:  122321864  MISS:    4238553
L1I RFO       ACCESS:          0  HIT:          0  MISS:          0
L1I PREFETCH  ACCESS:          0  HIT:          0  MISS:          0
L1I WRITEBACK ACCESS:          0  HIT:          0  MISS:          0
L1I PREFETCH  REQUESTED:          0  ISSUED:          0  USEFUL:          0  USELESS:          0
L1I TOTAL MSHR MERGED:    1834394
L1I LOAD MSHR MERGED:    1834394
L1I RFO MSHR MERGED:          0
L1I PREFETCH MSHR MERGED:          0
L1I WRITEBACK MSHR MERGED:          0
L1I TOTAL ACCESSES:  128394814 HITS:  122321864 MISSES:    6072950
L1I LOAD ACCESSES:  128394814 HITS:  122321864 MISSES:    6072950
L1I RFO ACCESSES:          0 HITS:          0 MISSES:          0
L1I PREFETCH ACCESSES:          0 HITS:          0 MISSES:          0
L1I WRITEBACK ACCESSES:          0 HITS:          0 MISSES:          0
L1I RQ ACCESS:  500000057
L1I RQ TO_CACHE:  128394814
L1I RQ MERGED:  371605243
L1I RQ FORWARD:          0
L1I WQ ACCESS:          0
L1I WQ TO_CACHE:          0
L1I WQ MERGED:          0
L1I WQ FORWARD:          0
L2C TOTAL     ACCESS:   14903290  HIT:   11156934  MISS:    3746356
L2C LOAD      ACCESS:    7418850  HIT:    5098405  MISS:    2320445
L2C RFO       ACCESS:     878664  HIT:     409903  MISS:     468761
L2C PREFETCH  ACCESS:    4566574  HIT:    3626680  MISS:     939894
L2C WRITEBACK ACCESS:    2039202  HIT:    2021946  MISS:      17256
L2C PREFETCH  REQUESTED:     842609  ISSUED:     842609  USEFUL:     202894  USELESS:     736706
L2C TOTAL MSHR MERGED:       8643
L2C LOAD MSHR MERGED:       1236
L2C RFO MSHR MERGED:          0
L2C PREFETCH MSHR MERGED:       7407
L2C WRITEBACK MSHR MERGED:          0
L2C TOTAL ACCESSES:   14912873 HITS:   11157381 MISSES:    3755492
L2C LOAD ACCESSES:    7419058 HITS:    5098613 MISSES:    2320445
L2C RFO ACCESSES:     878761 HITS:     410000 MISSES:     468761
L2C PREFETCH ACCESSES:    4575852 HITS:    3626822 MISSES:     949030
L2C WRITEBACK ACCESSES:    2039202 HITS:    2021946 MISSES:      17256
L2C RQ ACCESS:    8297822
L2C RQ TO_CACHE:    8297517
L2C RQ MERGED:          0
L2C RQ FORWARD:          0
L2C WQ ACCESS:    2039202
L2C WQ TO_CACHE:    2039202
L2C WQ MERGED:          0
L2C WQ FORWARD:        447
LLC TOTAL     ACCESS:    4609680  HIT:    3846621  MISS:     763059
LLC LOAD      ACCESS:    2319194  HIT:    2099800  MISS:     219394
LLC RFO       ACCESS:     468749  HIT:     369044  MISS:      99705
LLC PREFETCH  ACCESS:     941487  HIT:     584507  MISS:     356980
LLC WRITEBACK ACCESS:     880250  HIT:     793270  MISS:      86980
LLC PREFETCH  REQUESTED:          0  ISSUED:          0  USEFUL:      16444  USELESS:     341078
LLC TOTAL MSHR MERGED:        120
LLC LOAD MSHR MERGED:         41
LLC RFO MSHR MERGED:          0
LLC PREFETCH MSHR MERGED:         79
LLC WRITEBACK MSHR MERGED:          0
LLC TOTAL ACCESSES:    4609837 HITS:    3846658 MISSES:     763179
LLC LOAD ACCESSES:    2319209 HITS:    2099815 MISSES:     219394
LLC RFO ACCESSES:     468761 HITS:     369056 MISSES:      99705
LLC PREFETCH ACCESSES:     941617 HITS:     584517 MISSES:     357100
LLC WRITEBACK ACCESSES:     880250 HITS:     793270 MISSES:      86980
LLC 0 RQ ACCESS:    2787970
LLC 0 RQ TO_CACHE:    2787943
LLC 0 RQ MERGED:          0
LLC 0 RQ FORWARD:          0
LLC WQ ACCESS:     880250
LLC WQ TO_CACHE:     880250
LLC WQ MERGED:          0
LLC WQ FORWARD:         37
Major fault: 0 Minor fault: 12862
CPU 0 L1D next line prefetcher final stats
CPU 0 L2C PC-based stride prefetcher final stats
All Misses: 912408
All Hits: 4514278
SD Algo Stats - Switches: 0 SRR-Repls: 256954 BRR-Repls: 0

DRAM Statistics
 CHANNEL 0
 RQ ROW_BUFFER_HIT:     134930  ROW_BUFFER_MISS:     538200
 DBUS_CONGESTED:     406858
 WQ ROW_BUFFER_HIT:      21103  ROW_BUFFER_MISS:     216918  FULL:          0

 AVG_CONGESTED_CYCLE: 13
LOADS RETIRED: 136549171
INSTR RETIRED: 500000000
