
*** ChampSim Multicore Out-of-Order Simulator ***

Warmup Instructions: 100000000
Simulation Instructions: 500000000
Number of CPUs: 1
LLC sets: 2048
LLC ways: 16
Clean RRIP Policies: 1213230112132301 Dirty RRIP Policies: 2203130122031301 PSEL Width: 10 Track Set: 4294967295 PSEL Mask: 1 Demote Mask: 3040104030401040DS Algo: 0Window size: 0
Off-chip DRAM Size: 4096 MB Channels: 1 Width: 64-bit Data Rate: 1600 MT/s

CPU 0 runs /mnt/beegfs/iconst01/spec2017/Xalancbmk.trace.gz
NOT SORTED
TRACE STRING: /mnt/beegfs/iconst01/spec2017/Xalancbmk.trace.gz
SORTED
TRACE STRING: /mnt/beegfs/iconst01/spec2017/Xalancbmk.trace.gz
INITIAL
TRACE STRING: /mnt/beegfs/iconst01/spec2017/Xalancbmk.trace.gz

champsim_seed used: 913

CPU 0 L1D next line prefetcher
CPU 0 L2C IP-based stride prefetcher
Initialize DRRIP state
Assign rand_sets[0]: 454  LLC: 2048
rand_sets[0]: 454
Assign rand_sets[1]: 1662  LLC: 2048
rand_sets[1]: 1662
Assign rand_sets[2]: 1921  LLC: 2048
rand_sets[2]: 1921
Assign rand_sets[3]: 1131  LLC: 2048
rand_sets[3]: 1131
Assign rand_sets[4]: 331  LLC: 2048
rand_sets[4]: 331
Assign rand_sets[5]: 1531  LLC: 2048
rand_sets[5]: 1531
Assign rand_sets[6]: 482  LLC: 2048
rand_sets[6]: 482
Assign rand_sets[7]: 1275  LLC: 2048
rand_sets[7]: 1275
Assign rand_sets[8]: 1876  LLC: 2048
rand_sets[8]: 1876
Assign rand_sets[9]: 2038  LLC: 2048
rand_sets[9]: 2038
Assign rand_sets[10]: 701  LLC: 2048
rand_sets[10]: 701
Assign rand_sets[11]: 479  LLC: 2048
rand_sets[11]: 479
Assign rand_sets[12]: 892  LLC: 2048
rand_sets[12]: 892
Assign rand_sets[13]: 1820  LLC: 2048
rand_sets[13]: 1820
Assign rand_sets[14]: 1505  LLC: 2048
rand_sets[14]: 1505
Assign rand_sets[15]: 1159  LLC: 2048
rand_sets[15]: 1159
Assign rand_sets[16]: 513  LLC: 2048
rand_sets[16]: 513
Assign rand_sets[17]: 703  LLC: 2048
rand_sets[17]: 703
Assign rand_sets[18]: 561  LLC: 2048
rand_sets[18]: 561
Assign rand_sets[19]: 990  LLC: 2048
rand_sets[19]: 990
Assign rand_sets[20]: 342  LLC: 2048
rand_sets[20]: 342
Assign rand_sets[21]: 882  LLC: 2048
rand_sets[21]: 882
Assign rand_sets[22]: 15  LLC: 2048
rand_sets[22]: 15
Assign rand_sets[23]: 71  LLC: 2048
rand_sets[23]: 71
Assign rand_sets[24]: 1127  LLC: 2048
rand_sets[24]: 1127
Assign rand_sets[25]: 1382  LLC: 2048
rand_sets[25]: 1382
Assign rand_sets[26]: 647  LLC: 2048
rand_sets[26]: 647
Assign rand_sets[27]: 857  LLC: 2048
rand_sets[27]: 857
Assign rand_sets[28]: 1450  LLC: 2048
rand_sets[28]: 1450
Assign rand_sets[29]: 1160  LLC: 2048
rand_sets[29]: 1160
Assign rand_sets[30]: 1852  LLC: 2048
rand_sets[30]: 1852
Assign rand_sets[31]: 1881  LLC: 2048
rand_sets[31]: 1881
Assign rand_sets[32]: 1770  LLC: 2048
rand_sets[32]: 1770
Assign rand_sets[33]: 1622  LLC: 2048
rand_sets[33]: 1622
Assign rand_sets[34]: 275  LLC: 2048
rand_sets[34]: 275
Assign rand_sets[35]: 635  LLC: 2048
rand_sets[35]: 635
Assign rand_sets[36]: 466  LLC: 2048
rand_sets[36]: 466
Assign rand_sets[37]: 1413  LLC: 2048
rand_sets[37]: 1413
Assign rand_sets[38]: 417  LLC: 2048
rand_sets[38]: 417
Assign rand_sets[39]: 472  LLC: 2048
rand_sets[39]: 472
Assign rand_sets[40]: 1340  LLC: 2048
rand_sets[40]: 1340
Assign rand_sets[41]: 852  LLC: 2048
rand_sets[41]: 852
Assign rand_sets[42]: 1365  LLC: 2048
rand_sets[42]: 1365
Assign rand_sets[43]: 47  LLC: 2048
rand_sets[43]: 47
Assign rand_sets[44]: 823  LLC: 2048
rand_sets[44]: 823
Assign rand_sets[45]: 686  LLC: 2048
rand_sets[45]: 686
Assign rand_sets[46]: 1637  LLC: 2048
rand_sets[46]: 1637
Assign rand_sets[47]: 1115  LLC: 2048
rand_sets[47]: 1115
Assign rand_sets[48]: 986  LLC: 2048
rand_sets[48]: 986
Assign rand_sets[49]: 258  LLC: 2048
rand_sets[49]: 258
Assign rand_sets[50]: 633  LLC: 2048
rand_sets[50]: 633
Assign rand_sets[51]: 920  LLC: 2048
rand_sets[51]: 920
Assign rand_sets[52]: 204  LLC: 2048
rand_sets[52]: 204
Assign rand_sets[53]: 227  LLC: 2048
rand_sets[53]: 227
Assign rand_sets[54]: 1818  LLC: 2048
rand_sets[54]: 1818
Assign rand_sets[55]: 886  LLC: 2048
rand_sets[55]: 886
Assign rand_sets[56]: 1422  LLC: 2048
rand_sets[56]: 1422
Assign rand_sets[57]: 607  LLC: 2048
rand_sets[57]: 607
Assign rand_sets[58]: 217  LLC: 2048
rand_sets[58]: 217
Assign rand_sets[59]: 1945  LLC: 2048
rand_sets[59]: 1945
Assign rand_sets[60]: 143  LLC: 2048
rand_sets[60]: 143
Assign rand_sets[61]: 1311  LLC: 2048
rand_sets[61]: 1311
Assign rand_sets[62]: 319  LLC: 2048
rand_sets[62]: 319
Assign rand_sets[63]: 1846  LLC: 2048
rand_sets[63]: 1846
 CLEAN-RRIP-POLICY-1: 1-2-1-3-2-3-0-1- CLEAN-RRIP-POLICY-2: 1-2-1-3-2-3-0-1-
 DIRTY-RRIP-POLICY-1: 2-2-0-3-1-3-0-1- DIRTY-RRIP-POLICY-2: 2-2-0-3-1-3-0-1-
 PSEL width: 10
Heartbeat CPU 0 instructions: 10000003 cycles: 4586229 heartbeat IPC: 2.18044 cumulative IPC: 2.18044 (Simulation time: 0 hr 0 min 15 sec) 
Heartbeat CPU 0 instructions: 20000000 cycles: 8977094 heartbeat IPC: 2.27745 cumulative IPC: 2.22789 (Simulation time: 0 hr 0 min 28 sec) 
Heartbeat CPU 0 instructions: 30000000 cycles: 13386392 heartbeat IPC: 2.26793 cumulative IPC: 2.24108 (Simulation time: 0 hr 0 min 42 sec) 
Heartbeat CPU 0 instructions: 40000000 cycles: 18011637 heartbeat IPC: 2.16205 cumulative IPC: 2.22079 (Simulation time: 0 hr 0 min 57 sec) 
Heartbeat CPU 0 instructions: 50000002 cycles: 22423481 heartbeat IPC: 2.26663 cumulative IPC: 2.22981 (Simulation time: 0 hr 1 min 11 sec) 
Heartbeat CPU 0 instructions: 60000000 cycles: 27075271 heartbeat IPC: 2.14971 cumulative IPC: 2.21604 (Simulation time: 0 hr 1 min 26 sec) 
Heartbeat CPU 0 instructions: 70000003 cycles: 31478200 heartbeat IPC: 2.27122 cumulative IPC: 2.22376 (Simulation time: 0 hr 1 min 40 sec) 
Heartbeat CPU 0 instructions: 80000000 cycles: 35902426 heartbeat IPC: 2.26028 cumulative IPC: 2.22826 (Simulation time: 0 hr 1 min 53 sec) 
Heartbeat CPU 0 instructions: 90000002 cycles: 40359254 heartbeat IPC: 2.24375 cumulative IPC: 2.22997 (Simulation time: 0 hr 2 min 7 sec) 
Heartbeat CPU 0 instructions: 100000000 cycles: 44833497 heartbeat IPC: 2.23501 cumulative IPC: 2.23048 (Simulation time: 0 hr 2 min 21 sec) 

Warmup complete CPU 0 instructions: 100000003 cycles: 44833498 (Simulation time: 0 hr 2 min 21 sec) 

Heartbeat CPU 0 instructions: 110000000 cycles: 71345788 heartbeat IPC: 0.377184 cumulative IPC: 0.377183 (Simulation time: 0 hr 2 min 50 sec) 
Heartbeat CPU 0 instructions: 120000000 cycles: 99548870 heartbeat IPC: 0.354571 cumulative IPC: 0.365528 (Simulation time: 0 hr 3 min 21 sec) 
Heartbeat CPU 0 instructions: 130000000 cycles: 123083142 heartbeat IPC: 0.424912 cumulative IPC: 0.383388 (Simulation time: 0 hr 3 min 49 sec) 
Heartbeat CPU 0 instructions: 140000000 cycles: 145630682 heartbeat IPC: 0.443507 cumulative IPC: 0.396836 (Simulation time: 0 hr 4 min 16 sec) 
Heartbeat CPU 0 instructions: 150000000 cycles: 170045447 heartbeat IPC: 0.409588 cumulative IPC: 0.399323 (Simulation time: 0 hr 4 min 44 sec) 
Heartbeat CPU 0 instructions: 160000000 cycles: 194836213 heartbeat IPC: 0.403376 cumulative IPC: 0.399993 (Simulation time: 0 hr 5 min 12 sec) 
Heartbeat CPU 0 instructions: 170000002 cycles: 216101480 heartbeat IPC: 0.47025 cumulative IPC: 0.408716 (Simulation time: 0 hr 5 min 38 sec) 
Heartbeat CPU 0 instructions: 180000000 cycles: 239076580 heartbeat IPC: 0.435254 cumulative IPC: 0.411855 (Simulation time: 0 hr 6 min 5 sec) 
Heartbeat CPU 0 instructions: 190000000 cycles: 258145216 heartbeat IPC: 0.524421 cumulative IPC: 0.421918 (Simulation time: 0 hr 6 min 30 sec) 
Heartbeat CPU 0 instructions: 200000000 cycles: 279427079 heartbeat IPC: 0.469884 cumulative IPC: 0.426269 (Simulation time: 0 hr 6 min 56 sec) 
Heartbeat CPU 0 instructions: 210000001 cycles: 305737281 heartbeat IPC: 0.380081 cumulative IPC: 0.421611 (Simulation time: 0 hr 7 min 25 sec) 
Heartbeat CPU 0 instructions: 220000000 cycles: 331540354 heartbeat IPC: 0.387551 cumulative IPC: 0.418546 (Simulation time: 0 hr 7 min 54 sec) 
Heartbeat CPU 0 instructions: 230000000 cycles: 353760097 heartbeat IPC: 0.45005 cumulative IPC: 0.420812 (Simulation time: 0 hr 8 min 21 sec) 
Heartbeat CPU 0 instructions: 240000000 cycles: 379356024 heartbeat IPC: 0.390687 cumulative IPC: 0.418507 (Simulation time: 0 hr 8 min 50 sec) 
Heartbeat CPU 0 instructions: 250000001 cycles: 404211754 heartbeat IPC: 0.402322 cumulative IPC: 0.417388 (Simulation time: 0 hr 9 min 19 sec) 
Heartbeat CPU 0 instructions: 260000000 cycles: 425234464 heartbeat IPC: 0.475676 cumulative IPC: 0.420609 (Simulation time: 0 hr 9 min 45 sec) 
Heartbeat CPU 0 instructions: 270000000 cycles: 447222589 heartbeat IPC: 0.454791 cumulative IPC: 0.422477 (Simulation time: 0 hr 10 min 11 sec) 
Heartbeat CPU 0 instructions: 280000000 cycles: 474702194 heartbeat IPC: 0.363906 cumulative IPC: 0.418732 (Simulation time: 0 hr 10 min 41 sec) 
Heartbeat CPU 0 instructions: 290000000 cycles: 495934169 heartbeat IPC: 0.470988 cumulative IPC: 0.421192 (Simulation time: 0 hr 11 min 7 sec) 
Heartbeat CPU 0 instructions: 300000000 cycles: 516586066 heartbeat IPC: 0.484217 cumulative IPC: 0.423951 (Simulation time: 0 hr 11 min 33 sec) 
Heartbeat CPU 0 instructions: 310000000 cycles: 535878889 heartbeat IPC: 0.518327 cumulative IPC: 0.427659 (Simulation time: 0 hr 11 min 57 sec) 
Heartbeat CPU 0 instructions: 320000000 cycles: 565066410 heartbeat IPC: 0.342612 cumulative IPC: 0.422888 (Simulation time: 0 hr 12 min 29 sec) 
Heartbeat CPU 0 instructions: 330000001 cycles: 584440472 heartbeat IPC: 0.516154 cumulative IPC: 0.426236 (Simulation time: 0 hr 12 min 53 sec) 
Heartbeat CPU 0 instructions: 340000000 cycles: 603816562 heartbeat IPC: 0.5161 cumulative IPC: 0.429351 (Simulation time: 0 hr 13 min 18 sec) 
Heartbeat CPU 0 instructions: 350000002 cycles: 628650123 heartbeat IPC: 0.402681 cumulative IPC: 0.428217 (Simulation time: 0 hr 13 min 46 sec) 
Heartbeat CPU 0 instructions: 360000000 cycles: 650937428 heartbeat IPC: 0.448686 cumulative IPC: 0.428969 (Simulation time: 0 hr 14 min 13 sec) 
Heartbeat CPU 0 instructions: 370000001 cycles: 676040722 heartbeat IPC: 0.398354 cumulative IPC: 0.427752 (Simulation time: 0 hr 14 min 41 sec) 
Heartbeat CPU 0 instructions: 380000000 cycles: 699021954 heartbeat IPC: 0.435138 cumulative IPC: 0.428011 (Simulation time: 0 hr 15 min 8 sec) 
Heartbeat CPU 0 instructions: 390000000 cycles: 717783408 heartbeat IPC: 0.533008 cumulative IPC: 0.430938 (Simulation time: 0 hr 15 min 33 sec) 
Heartbeat CPU 0 instructions: 400000000 cycles: 737659023 heartbeat IPC: 0.503129 cumulative IPC: 0.433009 (Simulation time: 0 hr 15 min 58 sec) 
Heartbeat CPU 0 instructions: 410000001 cycles: 763547600 heartbeat IPC: 0.386271 cumulative IPC: 0.431326 (Simulation time: 0 hr 16 min 27 sec) 
Heartbeat CPU 0 instructions: 420000000 cycles: 788143368 heartbeat IPC: 0.406574 cumulative IPC: 0.430507 (Simulation time: 0 hr 16 min 55 sec) 
Heartbeat CPU 0 instructions: 430000002 cycles: 809514864 heartbeat IPC: 0.467913 cumulative IPC: 0.431552 (Simulation time: 0 hr 17 min 21 sec) 
Heartbeat CPU 0 instructions: 440000000 cycles: 829934267 heartbeat IPC: 0.48973 cumulative IPC: 0.433065 (Simulation time: 0 hr 17 min 46 sec) 
Heartbeat CPU 0 instructions: 450000002 cycles: 856424510 heartbeat IPC: 0.377498 cumulative IPC: 0.431252 (Simulation time: 0 hr 18 min 16 sec) 
Heartbeat CPU 0 instructions: 460000000 cycles: 882292688 heartbeat IPC: 0.386575 cumulative IPC: 0.429872 (Simulation time: 0 hr 18 min 45 sec) 
Heartbeat CPU 0 instructions: 470000002 cycles: 908181936 heartbeat IPC: 0.386261 cumulative IPC: 0.428564 (Simulation time: 0 hr 19 min 13 sec) 
Heartbeat CPU 0 instructions: 480000000 cycles: 932854407 heartbeat IPC: 0.40531 cumulative IPC: 0.427918 (Simulation time: 0 hr 19 min 41 sec) 
Heartbeat CPU 0 instructions: 490000000 cycles: 953726955 heartbeat IPC: 0.479098 cumulative IPC: 0.429093 (Simulation time: 0 hr 20 min 7 sec) 
Heartbeat CPU 0 instructions: 500000000 cycles: 978474673 heartbeat IPC: 0.404078 cumulative IPC: 0.42843 (Simulation time: 0 hr 20 min 35 sec) 
Heartbeat CPU 0 instructions: 510000000 cycles: 1003509348 heartbeat IPC: 0.399446 cumulative IPC: 0.427673 (Simulation time: 0 hr 21 min 4 sec) 
Heartbeat CPU 0 instructions: 520000000 cycles: 1024658903 heartbeat IPC: 0.472823 cumulative IPC: 0.428648 (Simulation time: 0 hr 21 min 29 sec) 
Heartbeat CPU 0 instructions: 530000003 cycles: 1050197606 heartbeat IPC: 0.391563 cumulative IPC: 0.427706 (Simulation time: 0 hr 21 min 58 sec) 
Heartbeat CPU 0 instructions: 540000000 cycles: 1073031887 heartbeat IPC: 0.437938 cumulative IPC: 0.427933 (Simulation time: 0 hr 22 min 25 sec) 
Heartbeat CPU 0 instructions: 550000000 cycles: 1098298975 heartbeat IPC: 0.395772 cumulative IPC: 0.427162 (Simulation time: 0 hr 22 min 54 sec) 
Heartbeat CPU 0 instructions: 560000000 cycles: 1121964104 heartbeat IPC: 0.422563 cumulative IPC: 0.427061 (Simulation time: 0 hr 23 min 21 sec) 
Heartbeat CPU 0 instructions: 570000002 cycles: 1145383003 heartbeat IPC: 0.427006 cumulative IPC: 0.427059 (Simulation time: 0 hr 23 min 48 sec) 
Heartbeat CPU 0 instructions: 580000000 cycles: 1166549733 heartbeat IPC: 0.472439 cumulative IPC: 0.427916 (Simulation time: 0 hr 24 min 14 sec) 
Heartbeat CPU 0 instructions: 590000001 cycles: 1190432310 heartbeat IPC: 0.418715 cumulative IPC: 0.427724 (Simulation time: 0 hr 24 min 42 sec) 
Heartbeat CPU 0 instructions: 600000000 cycles: 1209645556 heartbeat IPC: 0.520474 cumulative IPC: 0.429254 (Simulation time: 0 hr 25 min 6 sec) 
Finished CPU 0 instructions: 500000000 cycles: 1164812079 cumulative IPC: 0.429254 (Simulation time: 0 hr 25 min 6 sec) 

CPU 0 Branch Prediction Accuracy: 99.5434% MPKI: 1.33026
Number of Branches: 145676990 Number of Mispredictions: 665128
Number of LOAD Instructions: 188863207
Number of LOAD Instructions (ROI): 188863207
Number of STORE Instructions: 7332002
Number of STORE Instructions (ROI): 7332002
Total Destination Memory Operands: 10029285
Total Destination Memory Operands (ROI): 10029285
Total Source Memory Operands: 188863207
Total Source Memory Operands (ROI): 188863207
Number of DEPENDED LOADS: 291907
Number of DEPENDED LOADS (ROI): 291907
Number of SQ_ADDED: 10029285
Number of SQ_ADDED (ROI): 10029285
Number of LQ_ADDED: 200684985
Number of LQ_ADDED (ROI): 200684985
Number of Instructions read from trace: 600000010

ChampSim completed all CPUs

Region of Interest Statistics

CPU 0 cumulative IPC: 0.429254 instructions: 500000000 cycles: 1164812079
ITLB TOTAL     ACCESS:  145805664  HIT:  145766137  MISS:      39527
ITLB LOAD      ACCESS:  145805664  HIT:  145766137  MISS:      39527
ITLB RFO       ACCESS:          0  HIT:          0  MISS:          0
ITLB PREFETCH  ACCESS:          0  HIT:          0  MISS:          0
ITLB WRITEBACK ACCESS:          0  HIT:          0  MISS:          0
ITLB PREFETCH  REQUESTED:          0  ISSUED:          0  USEFUL:          0  USELESS:          0
ITLB TOTAL MSHR MERGED:      57383
ITLB LOAD MSHR MERGED:      57383
ITLB RFO MSHR MERGED:          0
ITLB PREFETCH MSHR MERGED:          0
ITLB WRITEBACK MSHR MERGED:          0
ITLB TOTAL ACCESSES:  145863047 HITS:  145766137 MISSES:      96910
ITLB LOAD ACCESSES:  145863047 HITS:  145766137 MISSES:      96910
ITLB RFO ACCESSES:          0 HITS:          0 MISSES:          0
ITLB PREFETCH ACCESSES:          0 HITS:          0 MISSES:          0
ITLB WRITEBACK ACCESSES:          0 HITS:          0 MISSES:          0
ITLB RQ ACCESS:  499999754
ITLB RQ TO_CACHE:  145863047
ITLB RQ MERGED:  354136707
ITLB RQ FORWARD:          0
ITLB WQ ACCESS:          0
ITLB WQ TO_CACHE:          0
ITLB WQ MERGED:          0
ITLB WQ FORWARD:          0
DTLB TOTAL     ACCESS:  135188766  HIT:  134020406  MISS:    1168360
DTLB LOAD      ACCESS:  127147792  HIT:  125988534  MISS:    1159258
DTLB RFO       ACCESS:    8040974  HIT:    8031872  MISS:       9102
DTLB PREFETCH  ACCESS:          0  HIT:          0  MISS:          0
DTLB WRITEBACK ACCESS:          0  HIT:          0  MISS:          0
DTLB PREFETCH  REQUESTED:          0  ISSUED:          0  USEFUL:          0  USELESS:          0
DTLB TOTAL MSHR MERGED:     581480
DTLB LOAD MSHR MERGED:     577101
DTLB RFO MSHR MERGED:       4379
DTLB PREFETCH MSHR MERGED:          0
DTLB WRITEBACK MSHR MERGED:          0
DTLB TOTAL ACCESSES:  135770246 HITS:  134020406 MISSES:    1749840
DTLB LOAD ACCESSES:  127724893 HITS:  125988534 MISSES:    1736359
DTLB RFO ACCESSES:    8045353 HITS:    8031872 MISSES:      13481
DTLB PREFETCH ACCESSES:          0 HITS:          0 MISSES:          0
DTLB WRITEBACK ACCESSES:          0 HITS:          0 MISSES:          0
DTLB RQ ACCESS:  165762429
DTLB RQ TO_CACHE:  135770246
DTLB RQ MERGED:   29992183
DTLB RQ FORWARD:          0
DTLB WQ ACCESS:          0
DTLB WQ TO_CACHE:          0
DTLB WQ MERGED:          0
DTLB WQ FORWARD:          0
L1D TOTAL     ACCESS:  156949327  HIT:  139633646  MISS:   17315681
L1D LOAD      ACCESS:   89975856  HIT:   78831733  MISS:   11144123
L1D RFO       ACCESS:    8497375  HIT:    8410170  MISS:      87205
L1D PREFETCH  ACCESS:   58476096  HIT:   52391743  MISS:    6084353
L1D WRITEBACK ACCESS:          0  HIT:          0  MISS:          0
L1D PREFETCH  REQUESTED:   93717223  ISSUED:   92849720  USEFUL:    2002926  USELESS:    4081501
L1D TOTAL MSHR MERGED:   15109213
L1D LOAD MSHR MERGED:    7141334
L1D RFO MSHR MERGED:     127260
L1D PREFETCH MSHR MERGED:    7840619
L1D WRITEBACK MSHR MERGED:          0
L1D TOTAL ACCESSES:  172058700 HITS:  139633805 MISSES:   32424895
L1D LOAD ACCESSES:   93717226 HITS:   78831736 MISSES:   14885490
L1D RFO ACCESSES:    8622742 HITS:    8410170 MISSES:     212572
L1D PREFETCH ACCESSES:   69718732 HITS:   52391899 MISSES:   17326833
L1D WRITEBACK ACCESSES:          0 HITS:          0 MISSES:          0
L1D RQ ACCESS:  157123223
L1D RQ TO_CACHE:   93717223
L1D RQ MERGED:   63405997
L1D RQ FORWARD:          0
L1D WQ ACCESS:    8639208
L1D WQ TO_CACHE:    8622742
L1D WQ MERGED:      16466
L1D WQ FORWARD:        159
L1I TOTAL     ACCESS:  178794150  HIT:  178130485  MISS:     663665
L1I LOAD      ACCESS:  178794150  HIT:  178130485  MISS:     663665
L1I RFO       ACCESS:          0  HIT:          0  MISS:          0
L1I PREFETCH  ACCESS:          0  HIT:          0  MISS:          0
L1I WRITEBACK ACCESS:          0  HIT:          0  MISS:          0
L1I PREFETCH  REQUESTED:          0  ISSUED:          0  USEFUL:          0  USELESS:          0
L1I TOTAL MSHR MERGED:     597766
L1I LOAD MSHR MERGED:     597766
L1I RFO MSHR MERGED:          0
L1I PREFETCH MSHR MERGED:          0
L1I WRITEBACK MSHR MERGED:          0
L1I TOTAL ACCESSES:  179391916 HITS:  178130485 MISSES:    1261431
L1I LOAD ACCESSES:  179391916 HITS:  178130485 MISSES:    1261431
L1I RFO ACCESSES:          0 HITS:          0 MISSES:          0
L1I PREFETCH ACCESSES:          0 HITS:          0 MISSES:          0
L1I WRITEBACK ACCESSES:          0 HITS:          0 MISSES:          0
L1I RQ ACCESS:  499999757
L1I RQ TO_CACHE:  179391916
L1I RQ MERGED:  320607841
L1I RQ FORWARD:          0
L1I WQ ACCESS:          0
L1I WQ TO_CACHE:          0
L1I WQ MERGED:          0
L1I WQ FORWARD:          0
L2C TOTAL     ACCESS:   19276690  HIT:    2057264  MISS:   17219426
L2C LOAD      ACCESS:    8407716  HIT:     951126  MISS:    7456590
L2C RFO       ACCESS:      85288  HIT:      53727  MISS:      31561
L2C PREFETCH  ACCESS:   10498684  HIT:     770219  MISS:    9728465
L2C WRITEBACK ACCESS:     285002  HIT:     282192  MISS:       2810
L2C PREFETCH  REQUESTED:    1016900  ISSUED:    1016900  USEFUL:     274792  USELESS:    9452768
L2C TOTAL MSHR MERGED:       1075
L2C LOAD MSHR MERGED:        226
L2C RFO MSHR MERGED:          1
L2C PREFETCH MSHR MERGED:        848
L2C WRITEBACK MSHR MERGED:          0
L2C TOTAL ACCESSES:   19279988 HITS:    2057459 MISSES:   17222529
L2C LOAD ACCESSES:    8407821 HITS:     951231 MISSES:    7456590
L2C RFO ACCESSES:      85312 HITS:      53751 MISSES:      31561
L2C PREFETCH ACCESSES:   10501853 HITS:     770285 MISSES:    9731568
L2C WRITEBACK ACCESSES:     285002 HITS:     282192 MISSES:       2810
L2C RQ ACCESS:    8493133
L2C RQ TO_CACHE:    8493004
L2C RQ MERGED:          0
L2C RQ FORWARD:          0
L2C WQ ACCESS:     285002
L2C WQ TO_CACHE:     285002
L2C WQ MERGED:          0
L2C WQ FORWARD:        195
LLC TOTAL     ACCESS:   17324700  HIT:    4858498  MISS:   12466202
LLC LOAD      ACCESS:    7456364  HIT:    3997386  MISS:    3458978
LLC RFO       ACCESS:      31560  HIT:      14274  MISS:      17286
LLC PREFETCH  ACCESS:    9730717  HIT:     767089  MISS:    8963628
LLC WRITEBACK ACCESS:     106059  HIT:      79749  MISS:      26310
LLC PREFETCH  REQUESTED:          0  ISSUED:          0  USEFUL:       2116  USELESS:    8960790
LLC TOTAL MSHR MERGED:          2
LLC LOAD MSHR MERGED:          0
LLC RFO MSHR MERGED:          0
LLC PREFETCH MSHR MERGED:          2
LLC WRITEBACK MSHR MERGED:          0
LLC TOTAL ACCESSES:   17324703 HITS:    4858498 MISSES:   12466205
LLC LOAD ACCESSES:    7456364 HITS:    3997386 MISSES:    3458978
LLC RFO ACCESSES:      31560 HITS:      14274 MISSES:      17286
LLC PREFETCH ACCESSES:    9730720 HITS:     767089 MISSES:    8963631
LLC WRITEBACK ACCESSES:     106059 HITS:      79749 MISSES:      26310
LLC 0 RQ ACCESS:    7487924
LLC 0 RQ TO_CACHE:    7487924
LLC 0 RQ MERGED:          0
LLC 0 RQ FORWARD:          0
LLC WQ ACCESS:     106059
LLC WQ TO_CACHE:     106059
LLC WQ MERGED:          0
LLC WQ FORWARD:          0
Major fault: 0 Minor fault: 6432
CPU 0 L1D next line prefetcher final stats
CPU 0 L2C PC-based stride prefetcher final stats
All Misses: 14699487
All Hits: 5844884
SD Algo Stats - Switches: 0 SRR-Repls: 3687181 BRR-Repls: 0

DRAM Statistics
 CHANNEL 0
 RQ ROW_BUFFER_HIT:    9396951  ROW_BUFFER_MISS:    3037085
 DBUS_CONGESTED:    5795507
 WQ ROW_BUFFER_HIT:       1532  ROW_BUFFER_MISS:      48998  FULL:          0

 AVG_CONGESTED_CYCLE: 12
LOADS RETIRED: 157382665
INSTR RETIRED: 500000000
