
*** ChampSim Multicore Out-of-Order Simulator ***

Warmup Instructions: 100000000
Simulation Instructions: 500000000
Number of CPUs: 1
LLC sets: 2048
LLC ways: 16
Clean RRIP Policies: 323002303230023 Dirty RRIP Policies: 2303102323031023 PSEL Width: 10 Track Set: 4294967295 PSEL Mask: 1 Demote Mask: 2313342123133421DS Algo: 0Window size: 0
Off-chip DRAM Size: 4096 MB Channels: 1 Width: 64-bit Data Rate: 1600 MT/s

CPU 0 runs /mnt/beegfs/iconst01/spec2017/Gcc.trace.gz
NOT SORTED
TRACE STRING: /mnt/beegfs/iconst01/spec2017/Gcc.trace.gz
SORTED
TRACE STRING: /mnt/beegfs/iconst01/spec2017/Gcc.trace.gz
INITIAL
TRACE STRING: /mnt/beegfs/iconst01/spec2017/Gcc.trace.gz

champsim_seed used: 269

CPU 0 L1D next line prefetcher
CPU 0 L2C IP-based stride prefetcher
Initialize DRRIP state
Assign rand_sets[0]: 454  LLC: 2048
rand_sets[0]: 454
Assign rand_sets[1]: 1662  LLC: 2048
rand_sets[1]: 1662
Assign rand_sets[2]: 1921  LLC: 2048
rand_sets[2]: 1921
Assign rand_sets[3]: 1131  LLC: 2048
rand_sets[3]: 1131
Assign rand_sets[4]: 331  LLC: 2048
rand_sets[4]: 331
Assign rand_sets[5]: 1531  LLC: 2048
rand_sets[5]: 1531
Assign rand_sets[6]: 482  LLC: 2048
rand_sets[6]: 482
Assign rand_sets[7]: 1275  LLC: 2048
rand_sets[7]: 1275
Assign rand_sets[8]: 1876  LLC: 2048
rand_sets[8]: 1876
Assign rand_sets[9]: 2038  LLC: 2048
rand_sets[9]: 2038
Assign rand_sets[10]: 701  LLC: 2048
rand_sets[10]: 701
Assign rand_sets[11]: 479  LLC: 2048
rand_sets[11]: 479
Assign rand_sets[12]: 892  LLC: 2048
rand_sets[12]: 892
Assign rand_sets[13]: 1820  LLC: 2048
rand_sets[13]: 1820
Assign rand_sets[14]: 1505  LLC: 2048
rand_sets[14]: 1505
Assign rand_sets[15]: 1159  LLC: 2048
rand_sets[15]: 1159
Assign rand_sets[16]: 513  LLC: 2048
rand_sets[16]: 513
Assign rand_sets[17]: 703  LLC: 2048
rand_sets[17]: 703
Assign rand_sets[18]: 561  LLC: 2048
rand_sets[18]: 561
Assign rand_sets[19]: 990  LLC: 2048
rand_sets[19]: 990
Assign rand_sets[20]: 342  LLC: 2048
rand_sets[20]: 342
Assign rand_sets[21]: 882  LLC: 2048
rand_sets[21]: 882
Assign rand_sets[22]: 15  LLC: 2048
rand_sets[22]: 15
Assign rand_sets[23]: 71  LLC: 2048
rand_sets[23]: 71
Assign rand_sets[24]: 1127  LLC: 2048
rand_sets[24]: 1127
Assign rand_sets[25]: 1382  LLC: 2048
rand_sets[25]: 1382
Assign rand_sets[26]: 647  LLC: 2048
rand_sets[26]: 647
Assign rand_sets[27]: 857  LLC: 2048
rand_sets[27]: 857
Assign rand_sets[28]: 1450  LLC: 2048
rand_sets[28]: 1450
Assign rand_sets[29]: 1160  LLC: 2048
rand_sets[29]: 1160
Assign rand_sets[30]: 1852  LLC: 2048
rand_sets[30]: 1852
Assign rand_sets[31]: 1881  LLC: 2048
rand_sets[31]: 1881
Assign rand_sets[32]: 1770  LLC: 2048
rand_sets[32]: 1770
Assign rand_sets[33]: 1622  LLC: 2048
rand_sets[33]: 1622
Assign rand_sets[34]: 275  LLC: 2048
rand_sets[34]: 275
Assign rand_sets[35]: 635  LLC: 2048
rand_sets[35]: 635
Assign rand_sets[36]: 466  LLC: 2048
rand_sets[36]: 466
Assign rand_sets[37]: 1413  LLC: 2048
rand_sets[37]: 1413
Assign rand_sets[38]: 417  LLC: 2048
rand_sets[38]: 417
Assign rand_sets[39]: 472  LLC: 2048
rand_sets[39]: 472
Assign rand_sets[40]: 1340  LLC: 2048
rand_sets[40]: 1340
Assign rand_sets[41]: 852  LLC: 2048
rand_sets[41]: 852
Assign rand_sets[42]: 1365  LLC: 2048
rand_sets[42]: 1365
Assign rand_sets[43]: 47  LLC: 2048
rand_sets[43]: 47
Assign rand_sets[44]: 823  LLC: 2048
rand_sets[44]: 823
Assign rand_sets[45]: 686  LLC: 2048
rand_sets[45]: 686
Assign rand_sets[46]: 1637  LLC: 2048
rand_sets[46]: 1637
Assign rand_sets[47]: 1115  LLC: 2048
rand_sets[47]: 1115
Assign rand_sets[48]: 986  LLC: 2048
rand_sets[48]: 986
Assign rand_sets[49]: 258  LLC: 2048
rand_sets[49]: 258
Assign rand_sets[50]: 633  LLC: 2048
rand_sets[50]: 633
Assign rand_sets[51]: 920  LLC: 2048
rand_sets[51]: 920
Assign rand_sets[52]: 204  LLC: 2048
rand_sets[52]: 204
Assign rand_sets[53]: 227  LLC: 2048
rand_sets[53]: 227
Assign rand_sets[54]: 1818  LLC: 2048
rand_sets[54]: 1818
Assign rand_sets[55]: 886  LLC: 2048
rand_sets[55]: 886
Assign rand_sets[56]: 1422  LLC: 2048
rand_sets[56]: 1422
Assign rand_sets[57]: 607  LLC: 2048
rand_sets[57]: 607
Assign rand_sets[58]: 217  LLC: 2048
rand_sets[58]: 217
Assign rand_sets[59]: 1945  LLC: 2048
rand_sets[59]: 1945
Assign rand_sets[60]: 143  LLC: 2048
rand_sets[60]: 143
Assign rand_sets[61]: 1311  LLC: 2048
rand_sets[61]: 1311
Assign rand_sets[62]: 319  LLC: 2048
rand_sets[62]: 319
Assign rand_sets[63]: 1846  LLC: 2048
rand_sets[63]: 1846
 CLEAN-RRIP-POLICY-1: 0-3-2-3-0-0-2-3- CLEAN-RRIP-POLICY-2: 0-3-2-3-0-0-2-3-
 DIRTY-RRIP-POLICY-1: 2-3-0-3-1-0-2-3- DIRTY-RRIP-POLICY-2: 2-3-0-3-1-0-2-3-
 PSEL width: 10
Heartbeat CPU 0 instructions: 10000001 cycles: 7321625 heartbeat IPC: 1.36582 cumulative IPC: 1.36582 (Simulation time: 0 hr 0 min 16 sec) 
Heartbeat CPU 0 instructions: 20000000 cycles: 14328006 heartbeat IPC: 1.42727 cumulative IPC: 1.39587 (Simulation time: 0 hr 0 min 31 sec) 
Heartbeat CPU 0 instructions: 30000001 cycles: 21045401 heartbeat IPC: 1.48867 cumulative IPC: 1.42549 (Simulation time: 0 hr 0 min 48 sec) 
Heartbeat CPU 0 instructions: 40000000 cycles: 27507829 heartbeat IPC: 1.54741 cumulative IPC: 1.45413 (Simulation time: 0 hr 1 min 5 sec) 
Heartbeat CPU 0 instructions: 50000001 cycles: 33610824 heartbeat IPC: 1.63854 cumulative IPC: 1.48762 (Simulation time: 0 hr 1 min 21 sec) 
Heartbeat CPU 0 instructions: 60000000 cycles: 40093257 heartbeat IPC: 1.54263 cumulative IPC: 1.49651 (Simulation time: 0 hr 1 min 38 sec) 
Heartbeat CPU 0 instructions: 70000000 cycles: 47136899 heartbeat IPC: 1.41972 cumulative IPC: 1.48504 (Simulation time: 0 hr 1 min 54 sec) 
Heartbeat CPU 0 instructions: 80000000 cycles: 54232982 heartbeat IPC: 1.40923 cumulative IPC: 1.47512 (Simulation time: 0 hr 2 min 9 sec) 
Heartbeat CPU 0 instructions: 90000003 cycles: 61243998 heartbeat IPC: 1.42633 cumulative IPC: 1.46953 (Simulation time: 0 hr 2 min 25 sec) 
Heartbeat CPU 0 instructions: 100000000 cycles: 68418052 heartbeat IPC: 1.39391 cumulative IPC: 1.4616 (Simulation time: 0 hr 2 min 40 sec) 

Warmup complete CPU 0 instructions: 100000004 cycles: 68418053 (Simulation time: 0 hr 2 min 40 sec) 

Heartbeat CPU 0 instructions: 110000003 cycles: 97182830 heartbeat IPC: 0.347647 cumulative IPC: 0.347647 (Simulation time: 0 hr 3 min 11 sec) 
Heartbeat CPU 0 instructions: 120000000 cycles: 125174472 heartbeat IPC: 0.357249 cumulative IPC: 0.352383 (Simulation time: 0 hr 3 min 42 sec) 
Heartbeat CPU 0 instructions: 130000000 cycles: 150582105 heartbeat IPC: 0.393583 cumulative IPC: 0.365123 (Simulation time: 0 hr 4 min 12 sec) 
Heartbeat CPU 0 instructions: 140000000 cycles: 182129919 heartbeat IPC: 0.316979 cumulative IPC: 0.351766 (Simulation time: 0 hr 4 min 42 sec) 
Heartbeat CPU 0 instructions: 150000000 cycles: 213494257 heartbeat IPC: 0.318833 cumulative IPC: 0.344646 (Simulation time: 0 hr 5 min 13 sec) 
Heartbeat CPU 0 instructions: 160000000 cycles: 241522868 heartbeat IPC: 0.356778 cumulative IPC: 0.346611 (Simulation time: 0 hr 5 min 43 sec) 
Heartbeat CPU 0 instructions: 170000001 cycles: 270266707 heartbeat IPC: 0.347901 cumulative IPC: 0.346794 (Simulation time: 0 hr 6 min 15 sec) 
Heartbeat CPU 0 instructions: 180000000 cycles: 299487066 heartbeat IPC: 0.342227 cumulative IPC: 0.346217 (Simulation time: 0 hr 6 min 46 sec) 
Heartbeat CPU 0 instructions: 190000002 cycles: 328335478 heartbeat IPC: 0.34664 cumulative IPC: 0.346264 (Simulation time: 0 hr 7 min 16 sec) 
Heartbeat CPU 0 instructions: 200000000 cycles: 357514023 heartbeat IPC: 0.342717 cumulative IPC: 0.345906 (Simulation time: 0 hr 7 min 47 sec) 
Heartbeat CPU 0 instructions: 210000002 cycles: 386207377 heartbeat IPC: 0.348513 cumulative IPC: 0.346141 (Simulation time: 0 hr 8 min 18 sec) 
Heartbeat CPU 0 instructions: 220000000 cycles: 417301734 heartbeat IPC: 0.321602 cumulative IPC: 0.343954 (Simulation time: 0 hr 8 min 48 sec) 
Heartbeat CPU 0 instructions: 230000000 cycles: 445956428 heartbeat IPC: 0.348983 cumulative IPC: 0.344336 (Simulation time: 0 hr 9 min 18 sec) 
Heartbeat CPU 0 instructions: 240000000 cycles: 472878555 heartbeat IPC: 0.371442 cumulative IPC: 0.34614 (Simulation time: 0 hr 9 min 47 sec) 
Heartbeat CPU 0 instructions: 250000000 cycles: 503685268 heartbeat IPC: 0.324605 cumulative IPC: 0.344616 (Simulation time: 0 hr 10 min 19 sec) 
Heartbeat CPU 0 instructions: 260000000 cycles: 531284826 heartbeat IPC: 0.362325 cumulative IPC: 0.345672 (Simulation time: 0 hr 10 min 49 sec) 
Heartbeat CPU 0 instructions: 270000003 cycles: 560431505 heartbeat IPC: 0.343092 cumulative IPC: 0.345519 (Simulation time: 0 hr 11 min 20 sec) 
Heartbeat CPU 0 instructions: 280000000 cycles: 589358121 heartbeat IPC: 0.345702 cumulative IPC: 0.345529 (Simulation time: 0 hr 11 min 52 sec) 
Heartbeat CPU 0 instructions: 290000000 cycles: 618975824 heartbeat IPC: 0.337636 cumulative IPC: 0.345105 (Simulation time: 0 hr 12 min 24 sec) 
Heartbeat CPU 0 instructions: 300000000 cycles: 650578826 heartbeat IPC: 0.316426 cumulative IPC: 0.343548 (Simulation time: 0 hr 12 min 54 sec) 
Heartbeat CPU 0 instructions: 310000001 cycles: 681226338 heartbeat IPC: 0.326291 cumulative IPC: 0.342685 (Simulation time: 0 hr 13 min 25 sec) 
Heartbeat CPU 0 instructions: 320000000 cycles: 710903092 heartbeat IPC: 0.336964 cumulative IPC: 0.34242 (Simulation time: 0 hr 13 min 55 sec) 
Heartbeat CPU 0 instructions: 330000000 cycles: 740609151 heartbeat IPC: 0.336632 cumulative IPC: 0.342165 (Simulation time: 0 hr 14 min 25 sec) 
Heartbeat CPU 0 instructions: 340000000 cycles: 771126095 heartbeat IPC: 0.327687 cumulative IPC: 0.341536 (Simulation time: 0 hr 14 min 56 sec) 
Heartbeat CPU 0 instructions: 350000003 cycles: 798907364 heartbeat IPC: 0.359955 cumulative IPC: 0.342236 (Simulation time: 0 hr 15 min 26 sec) 
Heartbeat CPU 0 instructions: 360000000 cycles: 830252017 heartbeat IPC: 0.319034 cumulative IPC: 0.341282 (Simulation time: 0 hr 15 min 56 sec) 
Heartbeat CPU 0 instructions: 370000000 cycles: 861762193 heartbeat IPC: 0.317358 cumulative IPC: 0.340331 (Simulation time: 0 hr 16 min 26 sec) 
Heartbeat CPU 0 instructions: 380000000 cycles: 893713603 heartbeat IPC: 0.312975 cumulative IPC: 0.339272 (Simulation time: 0 hr 16 min 56 sec) 
Heartbeat CPU 0 instructions: 390000001 cycles: 924721125 heartbeat IPC: 0.322502 cumulative IPC: 0.338665 (Simulation time: 0 hr 17 min 26 sec) 
Heartbeat CPU 0 instructions: 400000000 cycles: 956598198 heartbeat IPC: 0.313705 cumulative IPC: 0.337769 (Simulation time: 0 hr 17 min 56 sec) 
Heartbeat CPU 0 instructions: 410000001 cycles: 987316521 heartbeat IPC: 0.325539 cumulative IPC: 0.33736 (Simulation time: 0 hr 18 min 26 sec) 
Heartbeat CPU 0 instructions: 420000000 cycles: 1018100160 heartbeat IPC: 0.324848 cumulative IPC: 0.336955 (Simulation time: 0 hr 18 min 56 sec) 
Heartbeat CPU 0 instructions: 430000002 cycles: 1049251480 heartbeat IPC: 0.321014 cumulative IPC: 0.336449 (Simulation time: 0 hr 19 min 26 sec) 
Heartbeat CPU 0 instructions: 440000000 cycles: 1081525294 heartbeat IPC: 0.309849 cumulative IPC: 0.335601 (Simulation time: 0 hr 19 min 56 sec) 
Heartbeat CPU 0 instructions: 450000002 cycles: 1113731164 heartbeat IPC: 0.310502 cumulative IPC: 0.334828 (Simulation time: 0 hr 20 min 25 sec) 
Heartbeat CPU 0 instructions: 460000000 cycles: 1144776581 heartbeat IPC: 0.322109 cumulative IPC: 0.334461 (Simulation time: 0 hr 20 min 54 sec) 
Heartbeat CPU 0 instructions: 470000000 cycles: 1175379850 heartbeat IPC: 0.326762 cumulative IPC: 0.334248 (Simulation time: 0 hr 21 min 23 sec) 
Heartbeat CPU 0 instructions: 480000000 cycles: 1206195961 heartbeat IPC: 0.324506 cumulative IPC: 0.333984 (Simulation time: 0 hr 21 min 51 sec) 
Heartbeat CPU 0 instructions: 490000000 cycles: 1236785005 heartbeat IPC: 0.326914 cumulative IPC: 0.333799 (Simulation time: 0 hr 22 min 20 sec) 
Heartbeat CPU 0 instructions: 500000000 cycles: 1267803639 heartbeat IPC: 0.322387 cumulative IPC: 0.333504 (Simulation time: 0 hr 22 min 48 sec) 
Heartbeat CPU 0 instructions: 510000000 cycles: 1303518628 heartbeat IPC: 0.279994 cumulative IPC: 0.331957 (Simulation time: 0 hr 23 min 20 sec) 
Heartbeat CPU 0 instructions: 520000000 cycles: 1331990152 heartbeat IPC: 0.351228 cumulative IPC: 0.332391 (Simulation time: 0 hr 23 min 48 sec) 
Heartbeat CPU 0 instructions: 530000001 cycles: 1362952461 heartbeat IPC: 0.322973 cumulative IPC: 0.332166 (Simulation time: 0 hr 24 min 17 sec) 
Heartbeat CPU 0 instructions: 540000000 cycles: 1392393873 heartbeat IPC: 0.339658 cumulative IPC: 0.332332 (Simulation time: 0 hr 24 min 46 sec) 
Heartbeat CPU 0 instructions: 550000001 cycles: 1422099702 heartbeat IPC: 0.336634 cumulative IPC: 0.332427 (Simulation time: 0 hr 25 min 16 sec) 
Heartbeat CPU 0 instructions: 560000000 cycles: 1448008014 heartbeat IPC: 0.385976 cumulative IPC: 0.333432 (Simulation time: 0 hr 25 min 44 sec) 
Heartbeat CPU 0 instructions: 570000000 cycles: 1478870413 heartbeat IPC: 0.324019 cumulative IPC: 0.333226 (Simulation time: 0 hr 26 min 13 sec) 
Heartbeat CPU 0 instructions: 580000000 cycles: 1508100509 heartbeat IPC: 0.342113 cumulative IPC: 0.333407 (Simulation time: 0 hr 26 min 42 sec) 
Heartbeat CPU 0 instructions: 590000001 cycles: 1533692265 heartbeat IPC: 0.390751 cumulative IPC: 0.334408 (Simulation time: 0 hr 27 min 9 sec) 
Heartbeat CPU 0 instructions: 600000000 cycles: 1561569015 heartbeat IPC: 0.358722 cumulative IPC: 0.334862 (Simulation time: 0 hr 27 min 37 sec) 
Finished CPU 0 instructions: 500000000 cycles: 1493150984 cumulative IPC: 0.334862 (Simulation time: 0 hr 27 min 37 sec) 

CPU 0 Branch Prediction Accuracy: 86.4311% MPKI: 26.2662
Number of Branches: 96788573 Number of Mispredictions: 13133102
Number of LOAD Instructions: 164682285
Number of LOAD Instructions (ROI): 164682285
Number of STORE Instructions: 78194750
Number of STORE Instructions (ROI): 78194750
Total Destination Memory Operands: 83268534
Total Destination Memory Operands (ROI): 83268534
Total Source Memory Operands: 164712438
Total Source Memory Operands (ROI): 164712438
Number of DEPENDED LOADS: 7055451
Number of DEPENDED LOADS (ROI): 7055451
Number of SQ_ADDED: 83268522
Number of SQ_ADDED (ROI): 83268522
Number of LQ_ADDED: 236726864
Number of LQ_ADDED (ROI): 236726864
Number of Instructions read from trace: 600000066

ChampSim completed all CPUs

Region of Interest Statistics

CPU 0 cumulative IPC: 0.334862 instructions: 500000000 cycles: 1493150984
ITLB TOTAL     ACCESS:  100533058  HIT:  100328612  MISS:     204446
ITLB LOAD      ACCESS:  100533058  HIT:  100328612  MISS:     204446
ITLB RFO       ACCESS:          0  HIT:          0  MISS:          0
ITLB PREFETCH  ACCESS:          0  HIT:          0  MISS:          0
ITLB WRITEBACK ACCESS:          0  HIT:          0  MISS:          0
ITLB PREFETCH  REQUESTED:          0  ISSUED:          0  USEFUL:          0  USELESS:          0
ITLB TOTAL MSHR MERGED:     172424
ITLB LOAD MSHR MERGED:     172424
ITLB RFO MSHR MERGED:          0
ITLB PREFETCH MSHR MERGED:          0
ITLB WRITEBACK MSHR MERGED:          0
ITLB TOTAL ACCESSES:  100705482 HITS:  100328612 MISSES:     376870
ITLB LOAD ACCESSES:  100705482 HITS:  100328612 MISSES:     376870
ITLB RFO ACCESSES:          0 HITS:          0 MISSES:          0
ITLB PREFETCH ACCESSES:          0 HITS:          0 MISSES:          0
ITLB WRITEBACK ACCESSES:          0 HITS:          0 MISSES:          0
ITLB RQ ACCESS:  500000057
ITLB RQ TO_CACHE:  100705482
ITLB RQ MERGED:  399294575
ITLB RQ FORWARD:          0
ITLB WQ ACCESS:          0
ITLB WQ TO_CACHE:          0
ITLB WQ MERGED:          0
ITLB WQ FORWARD:          0
DTLB TOTAL     ACCESS:  165358390  HIT:  164724038  MISS:     634352
DTLB LOAD      ACCESS:  106304936  HIT:  105734939  MISS:     569997
DTLB RFO       ACCESS:   59053454  HIT:   58989099  MISS:      64355
DTLB PREFETCH  ACCESS:          0  HIT:          0  MISS:          0
DTLB WRITEBACK ACCESS:          0  HIT:          0  MISS:          0
DTLB PREFETCH  REQUESTED:          0  ISSUED:          0  USEFUL:          0  USELESS:          0
DTLB TOTAL MSHR MERGED:      99328
DTLB LOAD MSHR MERGED:      59097
DTLB RFO MSHR MERGED:      40231
DTLB PREFETCH MSHR MERGED:          0
DTLB WRITEBACK MSHR MERGED:          0
DTLB TOTAL ACCESSES:  165457718 HITS:  164724038 MISSES:     733680
DTLB LOAD ACCESSES:  106364033 HITS:  105734939 MISSES:     629094
DTLB RFO ACCESSES:   59093685 HITS:   58989099 MISSES:     104586
DTLB PREFETCH ACCESSES:          0 HITS:          0 MISSES:          0
DTLB WRITEBACK ACCESSES:          0 HITS:          0 MISSES:          0
DTLB RQ ACCESS:  200315455
DTLB RQ TO_CACHE:  165457718
DTLB RQ MERGED:   34857737
DTLB RQ FORWARD:          0
DTLB WQ ACCESS:          0
DTLB WQ TO_CACHE:          0
DTLB WQ MERGED:          0
DTLB WQ FORWARD:          0
L1D TOTAL     ACCESS:  281884793  HIT:  273975358  MISS:    7909435
L1D LOAD      ACCESS:  110435605  HIT:  107155581  MISS:    3280024
L1D RFO       ACCESS:   67137908  HIT:   66247980  MISS:     889928
L1D PREFETCH  ACCESS:  104311280  HIT:  100571797  MISS:    3739483
L1D WRITEBACK ACCESS:          0  HIT:          0  MISS:          0
L1D PREFETCH  REQUESTED:  110838744  ISSUED:  109139244  USEFUL:    1659962  USELESS:    2079485
L1D TOTAL MSHR MERGED:    2870960
L1D LOAD MSHR MERGED:     503164
L1D RFO MSHR MERGED:    1847355
L1D PREFETCH MSHR MERGED:     520441
L1D WRITEBACK MSHR MERGED:          0
L1D TOTAL ACCESSES:  284783192 HITS:  274002797 MISSES:   10780395
L1D LOAD ACCESSES:  110840204 HITS:  107157041 MISSES:    3683163
L1D RFO ACCESSES:   68974040 HITS:   66247980 MISSES:    2726060
L1D PREFETCH ACCESSES:  104968948 HITS:  100597776 MISSES:    4371172
L1D WRITEBACK ACCESSES:          0 HITS:          0 MISSES:          0
L1D RQ ACCESS:  130762852
L1D RQ TO_CACHE:  110838747
L1D RQ MERGED:   19922645
L1D RQ FORWARD:          0
L1D WQ ACCESS:   69552603
L1D WQ TO_CACHE:   68974041
L1D WQ MERGED:     578562
L1D WQ FORWARD:      27439
L1I TOTAL     ACCESS:  126574942  HIT:  122336427  MISS:    4238515
L1I LOAD      ACCESS:  126574942  HIT:  122336427  MISS:    4238515
L1I RFO       ACCESS:          0  HIT:          0  MISS:          0
L1I PREFETCH  ACCESS:          0  HIT:          0  MISS:          0
L1I WRITEBACK ACCESS:          0  HIT:          0  MISS:          0
L1I PREFETCH  REQUESTED:          0  ISSUED:          0  USEFUL:          0  USELESS:          0
L1I TOTAL MSHR MERGED:    1840513
L1I LOAD MSHR MERGED:    1840513
L1I RFO MSHR MERGED:          0
L1I PREFETCH MSHR MERGED:          0
L1I WRITEBACK MSHR MERGED:          0
L1I TOTAL ACCESSES:  128415458 HITS:  122336427 MISSES:    6079031
L1I LOAD ACCESSES:  128415458 HITS:  122336427 MISSES:    6079031
L1I RFO ACCESSES:          0 HITS:          0 MISSES:          0
L1I PREFETCH ACCESSES:          0 HITS:          0 MISSES:          0
L1I WRITEBACK ACCESSES:          0 HITS:          0 MISSES:          0
L1I RQ ACCESS:  500000057
L1I RQ TO_CACHE:  128415458
L1I RQ MERGED:  371584599
L1I RQ FORWARD:          0
L1I WQ ACCESS:          0
L1I WQ TO_CACHE:          0
L1I WQ MERGED:          0
L1I WQ FORWARD:          0
L2C TOTAL     ACCESS:   14905137  HIT:   11158825  MISS:    3746312
L2C LOAD      ACCESS:    7418309  HIT:    5098513  MISS:    2319796
L2C RFO       ACCESS:     878612  HIT:     409988  MISS:     468624
L2C PREFETCH  ACCESS:    4568973  HIT:    3628344  MISS:     940629
L2C WRITEBACK ACCESS:    2039243  HIT:    2021980  MISS:      17263
L2C PREFETCH  REQUESTED:     842772  ISSUED:     842772  USEFUL:     203395  USELESS:     736940
L2C TOTAL MSHR MERGED:       7181
L2C LOAD MSHR MERGED:        869
L2C RFO MSHR MERGED:          0
L2C PREFETCH MSHR MERGED:       6312
L2C WRITEBACK MSHR MERGED:          0
L2C TOTAL ACCESSES:   14913226 HITS:   11159265 MISSES:    3753961
L2C LOAD ACCESSES:    7418514 HITS:    5098718 MISSES:    2319796
L2C RFO ACCESSES:     878705 HITS:     410081 MISSES:     468624
L2C PREFETCH ACCESSES:    4576764 HITS:    3628486 MISSES:     948278
L2C WRITEBACK ACCESSES:    2039243 HITS:    2021980 MISSES:      17263
L2C RQ ACCESS:    8297222
L2C RQ TO_CACHE:    8296924
L2C RQ MERGED:          0
L2C RQ FORWARD:          0
L2C WQ ACCESS:    2039243
L2C WQ TO_CACHE:    2039243
L2C WQ MERGED:          0
L2C WQ FORWARD:        440
LLC TOTAL     ACCESS:    4609618  HIT:    2998619  MISS:    1610999
LLC LOAD      ACCESS:    2318916  HIT:    1242625  MISS:    1076291
LLC RFO       ACCESS:     468620  HIT:     412874  MISS:      55746
LLC PREFETCH  ACCESS:     941858  HIT:     555876  MISS:     385982
LLC WRITEBACK ACCESS:     880224  HIT:     787244  MISS:      92980
LLC PREFETCH  REQUESTED:          0  ISSUED:          0  USEFUL:      11076  USELESS:     374331
LLC TOTAL MSHR MERGED:         97
LLC LOAD MSHR MERGED:         31
LLC RFO MSHR MERGED:          0
LLC PREFETCH MSHR MERGED:         66
LLC WRITEBACK MSHR MERGED:          0
LLC TOTAL ACCESSES:    4609740 HITS:    2998644 MISSES:    1611096
LLC LOAD ACCESSES:    2318927 HITS:    1242636 MISSES:    1076291
LLC RFO ACCESSES:     468624 HITS:     412878 MISSES:      55746
LLC PREFETCH ACCESSES:     941965 HITS:     555886 MISSES:     386079
LLC WRITEBACK ACCESSES:     880224 HITS:     787244 MISSES:      92980
LLC 0 RQ ACCESS:    2787551
LLC 0 RQ TO_CACHE:    2787536
LLC 0 RQ MERGED:          0
LLC 0 RQ FORWARD:          0
LLC WQ ACCESS:     880224
LLC WQ TO_CACHE:     880224
LLC WQ MERGED:          0
LLC WQ FORWARD:         25
Major fault: 0 Minor fault: 12862
CPU 0 L1D next line prefetcher final stats
CPU 0 L2C PC-based stride prefetcher final stats
All Misses: 1864077
All Hits: 3562547
SD Algo Stats - Switches: 0 SRR-Repls: 1212687 BRR-Repls: 0

DRAM Statistics
 CHANNEL 0
 RQ ROW_BUFFER_HIT:     446687  ROW_BUFFER_MISS:    1067084
 DBUS_CONGESTED:     537382
 WQ ROW_BUFFER_HIT:       9630  ROW_BUFFER_MISS:     174646  FULL:          0

 AVG_CONGESTED_CYCLE: 13
LOADS RETIRED: 136549171
INSTR RETIRED: 500000000
