
*** ChampSim Multicore Out-of-Order Simulator ***

Warmup Instructions: 100000000
Simulation Instructions: 500000000
Number of CPUs: 1
LLC sets: 2048
LLC ways: 16
Clean RRIP Policies: 2213232222132322 Dirty RRIP Policies: 1203130212031302 PSEL Width: 10 Track Set: 4294967295 PSEL Mask: 1 Demote Mask: 1040100010401000DS Algo: 0Window size: 0
Off-chip DRAM Size: 4096 MB Channels: 1 Width: 64-bit Data Rate: 1600 MT/s

CPU 0 runs /mnt/beegfs/iconst01/spec2017/Roms.trace.gz
NOT SORTED
TRACE STRING: /mnt/beegfs/iconst01/spec2017/Roms.trace.gz
SORTED
TRACE STRING: /mnt/beegfs/iconst01/spec2017/Roms.trace.gz
INITIAL
TRACE STRING: /mnt/beegfs/iconst01/spec2017/Roms.trace.gz

champsim_seed used: 417

CPU 0 L1D next line prefetcher
CPU 0 L2C IP-based stride prefetcher
Initialize DRRIP state
Assign rand_sets[0]: 454  LLC: 2048
rand_sets[0]: 454
Assign rand_sets[1]: 1662  LLC: 2048
rand_sets[1]: 1662
Assign rand_sets[2]: 1921  LLC: 2048
rand_sets[2]: 1921
Assign rand_sets[3]: 1131  LLC: 2048
rand_sets[3]: 1131
Assign rand_sets[4]: 331  LLC: 2048
rand_sets[4]: 331
Assign rand_sets[5]: 1531  LLC: 2048
rand_sets[5]: 1531
Assign rand_sets[6]: 482  LLC: 2048
rand_sets[6]: 482
Assign rand_sets[7]: 1275  LLC: 2048
rand_sets[7]: 1275
Assign rand_sets[8]: 1876  LLC: 2048
rand_sets[8]: 1876
Assign rand_sets[9]: 2038  LLC: 2048
rand_sets[9]: 2038
Assign rand_sets[10]: 701  LLC: 2048
rand_sets[10]: 701
Assign rand_sets[11]: 479  LLC: 2048
rand_sets[11]: 479
Assign rand_sets[12]: 892  LLC: 2048
rand_sets[12]: 892
Assign rand_sets[13]: 1820  LLC: 2048
rand_sets[13]: 1820
Assign rand_sets[14]: 1505  LLC: 2048
rand_sets[14]: 1505
Assign rand_sets[15]: 1159  LLC: 2048
rand_sets[15]: 1159
Assign rand_sets[16]: 513  LLC: 2048
rand_sets[16]: 513
Assign rand_sets[17]: 703  LLC: 2048
rand_sets[17]: 703
Assign rand_sets[18]: 561  LLC: 2048
rand_sets[18]: 561
Assign rand_sets[19]: 990  LLC: 2048
rand_sets[19]: 990
Assign rand_sets[20]: 342  LLC: 2048
rand_sets[20]: 342
Assign rand_sets[21]: 882  LLC: 2048
rand_sets[21]: 882
Assign rand_sets[22]: 15  LLC: 2048
rand_sets[22]: 15
Assign rand_sets[23]: 71  LLC: 2048
rand_sets[23]: 71
Assign rand_sets[24]: 1127  LLC: 2048
rand_sets[24]: 1127
Assign rand_sets[25]: 1382  LLC: 2048
rand_sets[25]: 1382
Assign rand_sets[26]: 647  LLC: 2048
rand_sets[26]: 647
Assign rand_sets[27]: 857  LLC: 2048
rand_sets[27]: 857
Assign rand_sets[28]: 1450  LLC: 2048
rand_sets[28]: 1450
Assign rand_sets[29]: 1160  LLC: 2048
rand_sets[29]: 1160
Assign rand_sets[30]: 1852  LLC: 2048
rand_sets[30]: 1852
Assign rand_sets[31]: 1881  LLC: 2048
rand_sets[31]: 1881
Assign rand_sets[32]: 1770  LLC: 2048
rand_sets[32]: 1770
Assign rand_sets[33]: 1622  LLC: 2048
rand_sets[33]: 1622
Assign rand_sets[34]: 275  LLC: 2048
rand_sets[34]: 275
Assign rand_sets[35]: 635  LLC: 2048
rand_sets[35]: 635
Assign rand_sets[36]: 466  LLC: 2048
rand_sets[36]: 466
Assign rand_sets[37]: 1413  LLC: 2048
rand_sets[37]: 1413
Assign rand_sets[38]: 417  LLC: 2048
rand_sets[38]: 417
Assign rand_sets[39]: 472  LLC: 2048
rand_sets[39]: 472
Assign rand_sets[40]: 1340  LLC: 2048
rand_sets[40]: 1340
Assign rand_sets[41]: 852  LLC: 2048
rand_sets[41]: 852
Assign rand_sets[42]: 1365  LLC: 2048
rand_sets[42]: 1365
Assign rand_sets[43]: 47  LLC: 2048
rand_sets[43]: 47
Assign rand_sets[44]: 823  LLC: 2048
rand_sets[44]: 823
Assign rand_sets[45]: 686  LLC: 2048
rand_sets[45]: 686
Assign rand_sets[46]: 1637  LLC: 2048
rand_sets[46]: 1637
Assign rand_sets[47]: 1115  LLC: 2048
rand_sets[47]: 1115
Assign rand_sets[48]: 986  LLC: 2048
rand_sets[48]: 986
Assign rand_sets[49]: 258  LLC: 2048
rand_sets[49]: 258
Assign rand_sets[50]: 633  LLC: 2048
rand_sets[50]: 633
Assign rand_sets[51]: 920  LLC: 2048
rand_sets[51]: 920
Assign rand_sets[52]: 204  LLC: 2048
rand_sets[52]: 204
Assign rand_sets[53]: 227  LLC: 2048
rand_sets[53]: 227
Assign rand_sets[54]: 1818  LLC: 2048
rand_sets[54]: 1818
Assign rand_sets[55]: 886  LLC: 2048
rand_sets[55]: 886
Assign rand_sets[56]: 1422  LLC: 2048
rand_sets[56]: 1422
Assign rand_sets[57]: 607  LLC: 2048
rand_sets[57]: 607
Assign rand_sets[58]: 217  LLC: 2048
rand_sets[58]: 217
Assign rand_sets[59]: 1945  LLC: 2048
rand_sets[59]: 1945
Assign rand_sets[60]: 143  LLC: 2048
rand_sets[60]: 143
Assign rand_sets[61]: 1311  LLC: 2048
rand_sets[61]: 1311
Assign rand_sets[62]: 319  LLC: 2048
rand_sets[62]: 319
Assign rand_sets[63]: 1846  LLC: 2048
rand_sets[63]: 1846
 CLEAN-RRIP-POLICY-1: 2-2-1-3-2-3-2-2- CLEAN-RRIP-POLICY-2: 2-2-1-3-2-3-2-2-
 DIRTY-RRIP-POLICY-1: 1-2-0-3-1-3-0-2- DIRTY-RRIP-POLICY-2: 1-2-0-3-1-3-0-2-
 PSEL width: 10
Heartbeat CPU 0 instructions: 10000000 cycles: 4688066 heartbeat IPC: 2.13308 cumulative IPC: 2.13308 (Simulation time: 0 hr 0 min 18 sec) 
Heartbeat CPU 0 instructions: 20000000 cycles: 9325334 heartbeat IPC: 2.15644 cumulative IPC: 2.1447 (Simulation time: 0 hr 0 min 35 sec) 
Heartbeat CPU 0 instructions: 30000003 cycles: 14019722 heartbeat IPC: 2.1302 cumulative IPC: 2.13984 (Simulation time: 0 hr 0 min 52 sec) 
Heartbeat CPU 0 instructions: 40000000 cycles: 18670146 heartbeat IPC: 2.15034 cumulative IPC: 2.14246 (Simulation time: 0 hr 1 min 9 sec) 
Heartbeat CPU 0 instructions: 50000003 cycles: 23323531 heartbeat IPC: 2.14897 cumulative IPC: 2.14376 (Simulation time: 0 hr 1 min 26 sec) 
Heartbeat CPU 0 instructions: 60000000 cycles: 27976197 heartbeat IPC: 2.1493 cumulative IPC: 2.14468 (Simulation time: 0 hr 1 min 43 sec) 
Heartbeat CPU 0 instructions: 70000002 cycles: 32367347 heartbeat IPC: 2.27731 cumulative IPC: 2.16267 (Simulation time: 0 hr 1 min 59 sec) 
Heartbeat CPU 0 instructions: 80000000 cycles: 36304108 heartbeat IPC: 2.54016 cumulative IPC: 2.20361 (Simulation time: 0 hr 2 min 11 sec) 
Heartbeat CPU 0 instructions: 90000000 cycles: 40249338 heartbeat IPC: 2.53471 cumulative IPC: 2.23606 (Simulation time: 0 hr 2 min 23 sec) 
Heartbeat CPU 0 instructions: 100000000 cycles: 44211600 heartbeat IPC: 2.52381 cumulative IPC: 2.26185 (Simulation time: 0 hr 2 min 35 sec) 

Warmup complete CPU 0 instructions: 100000002 cycles: 44211601 (Simulation time: 0 hr 2 min 35 sec) 

Heartbeat CPU 0 instructions: 110000000 cycles: 52790978 heartbeat IPC: 1.16559 cumulative IPC: 1.16559 (Simulation time: 0 hr 2 min 54 sec) 
Heartbeat CPU 0 instructions: 120000000 cycles: 61417118 heartbeat IPC: 1.15927 cumulative IPC: 1.16242 (Simulation time: 0 hr 3 min 13 sec) 
Heartbeat CPU 0 instructions: 130000002 cycles: 70094123 heartbeat IPC: 1.15247 cumulative IPC: 1.15908 (Simulation time: 0 hr 3 min 33 sec) 
Heartbeat CPU 0 instructions: 140000000 cycles: 78636056 heartbeat IPC: 1.17069 cumulative IPC: 1.16196 (Simulation time: 0 hr 3 min 52 sec) 
Heartbeat CPU 0 instructions: 150000003 cycles: 87338079 heartbeat IPC: 1.14916 cumulative IPC: 1.15938 (Simulation time: 0 hr 4 min 11 sec) 
Heartbeat CPU 0 instructions: 160000000 cycles: 97601775 heartbeat IPC: 0.974308 cumulative IPC: 1.1238 (Simulation time: 0 hr 4 min 32 sec) 
Heartbeat CPU 0 instructions: 170000000 cycles: 110050327 heartbeat IPC: 0.803306 cumulative IPC: 1.0632 (Simulation time: 0 hr 4 min 56 sec) 
Heartbeat CPU 0 instructions: 180000000 cycles: 122545035 heartbeat IPC: 0.800339 cumulative IPC: 1.02128 (Simulation time: 0 hr 5 min 21 sec) 
Heartbeat CPU 0 instructions: 190000000 cycles: 135277324 heartbeat IPC: 0.785405 cumulative IPC: 0.988297 (Simulation time: 0 hr 5 min 45 sec) 
Heartbeat CPU 0 instructions: 200000000 cycles: 149139055 heartbeat IPC: 0.721411 cumulative IPC: 0.953039 (Simulation time: 0 hr 6 min 9 sec) 
Heartbeat CPU 0 instructions: 210000003 cycles: 163025116 heartbeat IPC: 0.720147 cumulative IPC: 0.925821 (Simulation time: 0 hr 6 min 34 sec) 
Heartbeat CPU 0 instructions: 220000000 cycles: 176738639 heartbeat IPC: 0.729207 cumulative IPC: 0.905476 (Simulation time: 0 hr 6 min 58 sec) 
Heartbeat CPU 0 instructions: 230000000 cycles: 190250660 heartbeat IPC: 0.740082 cumulative IPC: 0.890173 (Simulation time: 0 hr 7 min 23 sec) 
Heartbeat CPU 0 instructions: 240000000 cycles: 203853305 heartbeat IPC: 0.735151 cumulative IPC: 0.876964 (Simulation time: 0 hr 7 min 49 sec) 
Heartbeat CPU 0 instructions: 250000003 cycles: 214921174 heartbeat IPC: 0.903517 cumulative IPC: 0.878685 (Simulation time: 0 hr 8 min 12 sec) 
Heartbeat CPU 0 instructions: 260000000 cycles: 222769084 heartbeat IPC: 1.27422 cumulative IPC: 0.89607 (Simulation time: 0 hr 8 min 32 sec) 
Heartbeat CPU 0 instructions: 270000003 cycles: 231062236 heartbeat IPC: 1.20581 cumulative IPC: 0.909818 (Simulation time: 0 hr 8 min 52 sec) 
Heartbeat CPU 0 instructions: 280000000 cycles: 239497532 heartbeat IPC: 1.18549 cumulative IPC: 0.921725 (Simulation time: 0 hr 9 min 13 sec) 
Heartbeat CPU 0 instructions: 290000000 cycles: 248084599 heartbeat IPC: 1.16454 cumulative IPC: 0.931953 (Simulation time: 0 hr 9 min 34 sec) 
Heartbeat CPU 0 instructions: 300000000 cycles: 256690320 heartbeat IPC: 1.16202 cumulative IPC: 0.941271 (Simulation time: 0 hr 9 min 55 sec) 
Heartbeat CPU 0 instructions: 310000000 cycles: 265366904 heartbeat IPC: 1.15253 cumulative IPC: 0.949559 (Simulation time: 0 hr 10 min 17 sec) 
Heartbeat CPU 0 instructions: 320000000 cycles: 274108004 heartbeat IPC: 1.14402 cumulative IPC: 0.956953 (Simulation time: 0 hr 10 min 39 sec) 
Heartbeat CPU 0 instructions: 330000002 cycles: 282801536 heartbeat IPC: 1.15028 cumulative IPC: 0.963997 (Simulation time: 0 hr 11 min 1 sec) 
Heartbeat CPU 0 instructions: 340000000 cycles: 292712825 heartbeat IPC: 1.00895 cumulative IPC: 0.96579 (Simulation time: 0 hr 11 min 24 sec) 
Heartbeat CPU 0 instructions: 350000001 cycles: 301043887 heartbeat IPC: 1.20033 cumulative IPC: 0.973398 (Simulation time: 0 hr 11 min 45 sec) 
Heartbeat CPU 0 instructions: 360000000 cycles: 309417917 heartbeat IPC: 1.19417 cumulative IPC: 0.980369 (Simulation time: 0 hr 12 min 6 sec) 
Heartbeat CPU 0 instructions: 370000001 cycles: 317790028 heartbeat IPC: 1.19444 cumulative IPC: 0.98692 (Simulation time: 0 hr 12 min 27 sec) 
Heartbeat CPU 0 instructions: 380000000 cycles: 326123991 heartbeat IPC: 1.19991 cumulative IPC: 0.993216 (Simulation time: 0 hr 12 min 48 sec) 
Heartbeat CPU 0 instructions: 390000001 cycles: 334296624 heartbeat IPC: 1.2236 cumulative IPC: 0.999707 (Simulation time: 0 hr 13 min 8 sec) 
Heartbeat CPU 0 instructions: 400000000 cycles: 342537992 heartbeat IPC: 1.21339 cumulative IPC: 1.00561 (Simulation time: 0 hr 13 min 29 sec) 
Heartbeat CPU 0 instructions: 410000003 cycles: 350722189 heartbeat IPC: 1.22187 cumulative IPC: 1.01138 (Simulation time: 0 hr 13 min 49 sec) 
Heartbeat CPU 0 instructions: 420000000 cycles: 358983605 heartbeat IPC: 1.21045 cumulative IPC: 1.01661 (Simulation time: 0 hr 14 min 10 sec) 
Heartbeat CPU 0 instructions: 430000001 cycles: 367179573 heartbeat IPC: 1.22011 cumulative IPC: 1.02177 (Simulation time: 0 hr 14 min 30 sec) 
Heartbeat CPU 0 instructions: 440000000 cycles: 375324857 heartbeat IPC: 1.2277 cumulative IPC: 1.02684 (Simulation time: 0 hr 14 min 50 sec) 
Heartbeat CPU 0 instructions: 450000001 cycles: 384717694 heartbeat IPC: 1.06464 cumulative IPC: 1.02788 (Simulation time: 0 hr 15 min 13 sec) 
Heartbeat CPU 0 instructions: 460000000 cycles: 392890636 heartbeat IPC: 1.22355 cumulative IPC: 1.03247 (Simulation time: 0 hr 15 min 33 sec) 
Heartbeat CPU 0 instructions: 470000003 cycles: 400939203 heartbeat IPC: 1.24246 cumulative IPC: 1.03721 (Simulation time: 0 hr 15 min 53 sec) 
Heartbeat CPU 0 instructions: 480000000 cycles: 409026859 heartbeat IPC: 1.23645 cumulative IPC: 1.04162 (Simulation time: 0 hr 16 min 14 sec) 
Heartbeat CPU 0 instructions: 490000000 cycles: 417092183 heartbeat IPC: 1.23988 cumulative IPC: 1.04591 (Simulation time: 0 hr 16 min 34 sec) 
Heartbeat CPU 0 instructions: 500000000 cycles: 425166384 heartbeat IPC: 1.23851 cumulative IPC: 1.04999 (Simulation time: 0 hr 16 min 54 sec) 
Heartbeat CPU 0 instructions: 510000001 cycles: 433194022 heartbeat IPC: 1.2457 cumulative IPC: 1.05403 (Simulation time: 0 hr 17 min 14 sec) 
Heartbeat CPU 0 instructions: 520000000 cycles: 441260832 heartbeat IPC: 1.23965 cumulative IPC: 1.0578 (Simulation time: 0 hr 17 min 34 sec) 
Heartbeat CPU 0 instructions: 530000001 cycles: 449332641 heartbeat IPC: 1.23888 cumulative IPC: 1.06141 (Simulation time: 0 hr 17 min 54 sec) 
Heartbeat CPU 0 instructions: 540000000 cycles: 457563983 heartbeat IPC: 1.21487 cumulative IPC: 1.06447 (Simulation time: 0 hr 18 min 15 sec) 
Heartbeat CPU 0 instructions: 550000000 cycles: 465859204 heartbeat IPC: 1.20551 cumulative IPC: 1.06724 (Simulation time: 0 hr 18 min 35 sec) 
Heartbeat CPU 0 instructions: 560000000 cycles: 473919607 heartbeat IPC: 1.24063 cumulative IPC: 1.07049 (Simulation time: 0 hr 18 min 55 sec) 
Heartbeat CPU 0 instructions: 570000001 cycles: 484882491 heartbeat IPC: 0.912169 cumulative IPC: 1.06656 (Simulation time: 0 hr 19 min 17 sec) 
Heartbeat CPU 0 instructions: 580000000 cycles: 495514946 heartbeat IPC: 0.940516 cumulative IPC: 1.06359 (Simulation time: 0 hr 19 min 39 sec) 
Heartbeat CPU 0 instructions: 590000001 cycles: 506404331 heartbeat IPC: 0.918326 cumulative IPC: 1.06016 (Simulation time: 0 hr 20 min 1 sec) 
Heartbeat CPU 0 instructions: 600000000 cycles: 517038663 heartbeat IPC: 0.94035 cumulative IPC: 1.05747 (Simulation time: 0 hr 20 min 23 sec) 
Finished CPU 0 instructions: 500000001 cycles: 472827075 cumulative IPC: 1.05747 (Simulation time: 0 hr 20 min 23 sec) 

CPU 0 Branch Prediction Accuracy: 99.7422% MPKI: 0.173296
Number of Branches: 33608403 Number of Mispredictions: 86648
Number of LOAD Instructions: 180215231
Number of LOAD Instructions (ROI): 180215231
Number of STORE Instructions: 36067263
Number of STORE Instructions (ROI): 36067263
Total Destination Memory Operands: 38428915
Total Destination Memory Operands (ROI): 38428915
Total Source Memory Operands: 180215231
Total Source Memory Operands (ROI): 180215231
Number of DEPENDED LOADS: 3041482
Number of DEPENDED LOADS (ROI): 3041482
Number of SQ_ADDED: 38428892
Number of SQ_ADDED (ROI): 38428892
Number of LQ_ADDED: 207398474
Number of LQ_ADDED (ROI): 207398474
Number of Instructions read from trace: 600000257

ChampSim completed all CPUs

Region of Interest Statistics

CPU 0 cumulative IPC: 1.05747 instructions: 500000001 cycles: 472827075
ITLB TOTAL     ACCESS:   91763592  HIT:   91763573  MISS:         19
ITLB LOAD      ACCESS:   91763592  HIT:   91763573  MISS:         19
ITLB RFO       ACCESS:          0  HIT:          0  MISS:          0
ITLB PREFETCH  ACCESS:          0  HIT:          0  MISS:          0
ITLB WRITEBACK ACCESS:          0  HIT:          0  MISS:          0
ITLB PREFETCH  REQUESTED:          0  ISSUED:          0  USEFUL:          0  USELESS:          0
ITLB TOTAL MSHR MERGED:         40
ITLB LOAD MSHR MERGED:         40
ITLB RFO MSHR MERGED:          0
ITLB PREFETCH MSHR MERGED:          0
ITLB WRITEBACK MSHR MERGED:          0
ITLB TOTAL ACCESSES:   91763632 HITS:   91763573 MISSES:         59
ITLB LOAD ACCESSES:   91763632 HITS:   91763573 MISSES:         59
ITLB RFO ACCESSES:          0 HITS:          0 MISSES:          0
ITLB PREFETCH ACCESSES:          0 HITS:          0 MISSES:          0
ITLB WRITEBACK ACCESSES:          0 HITS:          0 MISSES:          0
ITLB RQ ACCESS:  500000003
ITLB RQ TO_CACHE:   91763632
ITLB RQ MERGED:  408236371
ITLB RQ FORWARD:          0
ITLB WQ ACCESS:          0
ITLB WQ TO_CACHE:          0
ITLB WQ MERGED:          0
ITLB WQ FORWARD:          0
DTLB TOTAL     ACCESS:  142079410  HIT:  141712948  MISS:     366462
DTLB LOAD      ACCESS:  119435394  HIT:  119121808  MISS:     313586
DTLB RFO       ACCESS:   22644016  HIT:   22591140  MISS:      52876
DTLB PREFETCH  ACCESS:          0  HIT:          0  MISS:          0
DTLB WRITEBACK ACCESS:          0  HIT:          0  MISS:          0
DTLB PREFETCH  REQUESTED:          0  ISSUED:          0  USEFUL:          0  USELESS:          0
DTLB TOTAL MSHR MERGED:     287415
DTLB LOAD MSHR MERGED:     239698
DTLB RFO MSHR MERGED:      47717
DTLB PREFETCH MSHR MERGED:          0
DTLB WRITEBACK MSHR MERGED:          0
DTLB TOTAL ACCESSES:  142366825 HITS:  141712948 MISSES:     653877
DTLB LOAD ACCESSES:  119675092 HITS:  119121808 MISSES:     553284
DTLB RFO ACCESSES:   22691733 HITS:   22591140 MISSES:     100593
DTLB PREFETCH ACCESSES:          0 HITS:          0 MISSES:          0
DTLB WRITEBACK ACCESSES:          0 HITS:          0 MISSES:          0
DTLB RQ ACCESS:  184791495
DTLB RQ TO_CACHE:  142366825
DTLB RQ MERGED:   42424670
DTLB RQ FORWARD:          0
DTLB WQ ACCESS:          0
DTLB WQ TO_CACHE:          0
DTLB WQ MERGED:          0
DTLB WQ FORWARD:          0
L1D TOTAL     ACCESS:  190618645  HIT:  177165852  MISS:   13452793
L1D LOAD      ACCESS:  112017487  HIT:  108796747  MISS:    3220740
L1D RFO       ACCESS:   19197655  HIT:   16415916  MISS:    2781739
L1D PREFETCH  ACCESS:   59403503  HIT:   51953189  MISS:    7450314
L1D WRITEBACK ACCESS:          0  HIT:          0  MISS:          0
L1D PREFETCH  REQUESTED:  116526869  ISSUED:  115166736  USEFUL:    7240499  USELESS:     209815
L1D TOTAL MSHR MERGED:   30998423
L1D LOAD MSHR MERGED:    7173708
L1D RFO MSHR MERGED:    9055119
L1D PREFETCH MSHR MERGED:   14769596
L1D WRITEBACK MSHR MERGED:          0
L1D TOTAL ACCESSES:  221617467 HITS:  177166250 MISSES:   44451217
L1D LOAD ACCESSES:  116526890 HITS:  108796768 MISSES:    7730122
L1D RFO ACCESSES:   28252730 HITS:   16415916 MISSES:   11836814
L1D PREFETCH ACCESSES:   76837847 HITS:   51953566 MISSES:   24884281
L1D WRITEBACK ACCESSES:          0 HITS:          0 MISSES:          0
L1D RQ ACCESS:  156535429
L1D RQ TO_CACHE:  116526872
L1D RQ MERGED:   40008536
L1D RQ FORWARD:          0
L1D WQ ACCESS:   28256066
L1D WQ TO_CACHE:   28252730
L1D WQ MERGED:       3336
L1D WQ FORWARD:        398
L1I TOTAL     ACCESS:  115755578  HIT:  115754630  MISS:        948
L1I LOAD      ACCESS:  115755578  HIT:  115754630  MISS:        948
L1I RFO       ACCESS:          0  HIT:          0  MISS:          0
L1I PREFETCH  ACCESS:          0  HIT:          0  MISS:          0
L1I WRITEBACK ACCESS:          0  HIT:          0  MISS:          0
L1I PREFETCH  REQUESTED:          0  ISSUED:          0  USEFUL:          0  USELESS:          0
L1I TOTAL MSHR MERGED:       1574
L1I LOAD MSHR MERGED:       1574
L1I RFO MSHR MERGED:          0
L1I PREFETCH MSHR MERGED:          0
L1I WRITEBACK MSHR MERGED:          0
L1I TOTAL ACCESSES:  115757152 HITS:  115754630 MISSES:       2522
L1I LOAD ACCESSES:  115757152 HITS:  115754630 MISSES:       2522
L1I RFO ACCESSES:          0 HITS:          0 MISSES:          0
L1I PREFETCH ACCESSES:          0 HITS:          0 MISSES:          0
L1I WRITEBACK ACCESSES:          0 HITS:          0 MISSES:          0
L1I RQ ACCESS:  500000007
L1I RQ TO_CACHE:  115757152
L1I RQ MERGED:  384242855
L1I RQ FORWARD:          0
L1I WQ ACCESS:          0
L1I WQ TO_CACHE:          0
L1I WQ MERGED:          0
L1I WQ FORWARD:          0
L2C TOTAL     ACCESS:   16698760  HIT:    4853978  MISS:   11844782
L2C LOAD      ACCESS:     557328  HIT:      95586  MISS:     461742
L2C RFO       ACCESS:    2781695  HIT:     266552  MISS:    2515143
L2C PREFETCH  ACCESS:   10139089  HIT:    1273475  MISS:    8865614
L2C WRITEBACK ACCESS:    3220648  HIT:    3218365  MISS:       2283
L2C PREFETCH  REQUESTED:      26439  ISSUED:      26439  USEFUL:      93104  USELESS:    8770560
L2C TOTAL MSHR MERGED:        493
L2C LOAD MSHR MERGED:          4
L2C RFO MSHR MERGED:          0
L2C PREFETCH MSHR MERGED:        489
L2C WRITEBACK MSHR MERGED:          0
L2C TOTAL ACCESSES:   16699422 HITS:    4854030 MISSES:   11845392
L2C LOAD ACCESSES:     557362 HITS:      95620 MISSES:     461742
L2C RFO ACCESSES:    2781695 HITS:     266552 MISSES:    2515143
L2C PREFETCH ACCESSES:   10139717 HITS:    1273493 MISSES:    8866224
L2C WRITEBACK ACCESSES:    3220648 HITS:    3218365 MISSES:       2283
L2C RQ ACCESS:    3339057
L2C RQ TO_CACHE:    3339023
L2C RQ MERGED:          0
L2C RQ FORWARD:          0
L2C WQ ACCESS:    3220648
L2C WQ TO_CACHE:    3220648
L2C WQ MERGED:          0
L2C WQ FORWARD:         52
LLC TOTAL     ACCESS:   14743103  HIT:    7784594  MISS:    6958509
LLC LOAD      ACCESS:     461734  HIT:     222096  MISS:     239638
LLC RFO       ACCESS:    2515127  HIT:    1942623  MISS:     572504
LLC PREFETCH  ACCESS:    8865680  HIT:    3366618  MISS:    5499062
LLC WRITEBACK ACCESS:    2900562  HIT:    2253257  MISS:     647305
LLC PREFETCH  REQUESTED:          0  ISSUED:          0  USEFUL:       3136  USELESS:    5502354
LLC TOTAL MSHR MERGED:          2
LLC LOAD MSHR MERGED:          0
LLC RFO MSHR MERGED:          0
LLC PREFETCH MSHR MERGED:          2
LLC WRITEBACK MSHR MERGED:          0
LLC TOTAL ACCESSES:   14743166 HITS:    7784654 MISSES:    6958512
LLC LOAD ACCESSES:     461738 HITS:     222100 MISSES:     239638
LLC RFO ACCESSES:    2515143 HITS:    1942639 MISSES:     572504
LLC PREFETCH ACCESSES:    8865723 HITS:    3366658 MISSES:    5499065
LLC WRITEBACK ACCESSES:    2900562 HITS:    2253257 MISSES:     647305
LLC 0 RQ ACCESS:    2976881
LLC 0 RQ TO_CACHE:    2976861
LLC 0 RQ MERGED:          0
LLC 0 RQ FORWARD:          0
LLC WQ ACCESS:    2900562
LLC WQ TO_CACHE:    2900562
LLC WQ MERGED:          0
LLC WQ FORWARD:         60
Major fault: 0 Minor fault: 57518
CPU 0 L1D next line prefetcher final stats
CPU 0 L2C PC-based stride prefetcher final stats
All Misses: 7551965
All Hits: 8687312
SD Algo Stats - Switches: 0 SRR-Repls: 245826 BRR-Repls: 0

DRAM Statistics
 CHANNEL 0
 RQ ROW_BUFFER_HIT:    3659825  ROW_BUFFER_MISS:    2648982
 DBUS_CONGESTED:    2822912
 WQ ROW_BUFFER_HIT:      85618  ROW_BUFFER_MISS:     751113  FULL:          0

 AVG_CONGESTED_CYCLE: 12
LOADS RETIRED: 157818985
INSTR RETIRED: 500000000
