
*** ChampSim Multicore Out-of-Order Simulator ***

Warmup Instructions: 100000000
Simulation Instructions: 500000000
Number of CPUs: 1
LLC sets: 2048
LLC ways: 16
Clean RRIP Policies: 1213230112132301 Dirty RRIP Policies: 2213130122131301 PSEL Width: 10 Track Set: 4294967295 PSEL Mask: 1 Demote Mask: 3340101033401010DS Algo: 0Window size: 0
Off-chip DRAM Size: 4096 MB Channels: 1 Width: 64-bit Data Rate: 1600 MT/s

CPU 0 runs /mnt/beegfs/iconst01/spec2017/Xalancbmk.trace.gz
NOT SORTED
TRACE STRING: /mnt/beegfs/iconst01/spec2017/Xalancbmk.trace.gz
SORTED
TRACE STRING: /mnt/beegfs/iconst01/spec2017/Xalancbmk.trace.gz
INITIAL
TRACE STRING: /mnt/beegfs/iconst01/spec2017/Xalancbmk.trace.gz

champsim_seed used: 913

CPU 0 L1D next line prefetcher
CPU 0 L2C IP-based stride prefetcher
Initialize DRRIP state
Assign rand_sets[0]: 454  LLC: 2048
rand_sets[0]: 454
Assign rand_sets[1]: 1662  LLC: 2048
rand_sets[1]: 1662
Assign rand_sets[2]: 1921  LLC: 2048
rand_sets[2]: 1921
Assign rand_sets[3]: 1131  LLC: 2048
rand_sets[3]: 1131
Assign rand_sets[4]: 331  LLC: 2048
rand_sets[4]: 331
Assign rand_sets[5]: 1531  LLC: 2048
rand_sets[5]: 1531
Assign rand_sets[6]: 482  LLC: 2048
rand_sets[6]: 482
Assign rand_sets[7]: 1275  LLC: 2048
rand_sets[7]: 1275
Assign rand_sets[8]: 1876  LLC: 2048
rand_sets[8]: 1876
Assign rand_sets[9]: 2038  LLC: 2048
rand_sets[9]: 2038
Assign rand_sets[10]: 701  LLC: 2048
rand_sets[10]: 701
Assign rand_sets[11]: 479  LLC: 2048
rand_sets[11]: 479
Assign rand_sets[12]: 892  LLC: 2048
rand_sets[12]: 892
Assign rand_sets[13]: 1820  LLC: 2048
rand_sets[13]: 1820
Assign rand_sets[14]: 1505  LLC: 2048
rand_sets[14]: 1505
Assign rand_sets[15]: 1159  LLC: 2048
rand_sets[15]: 1159
Assign rand_sets[16]: 513  LLC: 2048
rand_sets[16]: 513
Assign rand_sets[17]: 703  LLC: 2048
rand_sets[17]: 703
Assign rand_sets[18]: 561  LLC: 2048
rand_sets[18]: 561
Assign rand_sets[19]: 990  LLC: 2048
rand_sets[19]: 990
Assign rand_sets[20]: 342  LLC: 2048
rand_sets[20]: 342
Assign rand_sets[21]: 882  LLC: 2048
rand_sets[21]: 882
Assign rand_sets[22]: 15  LLC: 2048
rand_sets[22]: 15
Assign rand_sets[23]: 71  LLC: 2048
rand_sets[23]: 71
Assign rand_sets[24]: 1127  LLC: 2048
rand_sets[24]: 1127
Assign rand_sets[25]: 1382  LLC: 2048
rand_sets[25]: 1382
Assign rand_sets[26]: 647  LLC: 2048
rand_sets[26]: 647
Assign rand_sets[27]: 857  LLC: 2048
rand_sets[27]: 857
Assign rand_sets[28]: 1450  LLC: 2048
rand_sets[28]: 1450
Assign rand_sets[29]: 1160  LLC: 2048
rand_sets[29]: 1160
Assign rand_sets[30]: 1852  LLC: 2048
rand_sets[30]: 1852
Assign rand_sets[31]: 1881  LLC: 2048
rand_sets[31]: 1881
Assign rand_sets[32]: 1770  LLC: 2048
rand_sets[32]: 1770
Assign rand_sets[33]: 1622  LLC: 2048
rand_sets[33]: 1622
Assign rand_sets[34]: 275  LLC: 2048
rand_sets[34]: 275
Assign rand_sets[35]: 635  LLC: 2048
rand_sets[35]: 635
Assign rand_sets[36]: 466  LLC: 2048
rand_sets[36]: 466
Assign rand_sets[37]: 1413  LLC: 2048
rand_sets[37]: 1413
Assign rand_sets[38]: 417  LLC: 2048
rand_sets[38]: 417
Assign rand_sets[39]: 472  LLC: 2048
rand_sets[39]: 472
Assign rand_sets[40]: 1340  LLC: 2048
rand_sets[40]: 1340
Assign rand_sets[41]: 852  LLC: 2048
rand_sets[41]: 852
Assign rand_sets[42]: 1365  LLC: 2048
rand_sets[42]: 1365
Assign rand_sets[43]: 47  LLC: 2048
rand_sets[43]: 47
Assign rand_sets[44]: 823  LLC: 2048
rand_sets[44]: 823
Assign rand_sets[45]: 686  LLC: 2048
rand_sets[45]: 686
Assign rand_sets[46]: 1637  LLC: 2048
rand_sets[46]: 1637
Assign rand_sets[47]: 1115  LLC: 2048
rand_sets[47]: 1115
Assign rand_sets[48]: 986  LLC: 2048
rand_sets[48]: 986
Assign rand_sets[49]: 258  LLC: 2048
rand_sets[49]: 258
Assign rand_sets[50]: 633  LLC: 2048
rand_sets[50]: 633
Assign rand_sets[51]: 920  LLC: 2048
rand_sets[51]: 920
Assign rand_sets[52]: 204  LLC: 2048
rand_sets[52]: 204
Assign rand_sets[53]: 227  LLC: 2048
rand_sets[53]: 227
Assign rand_sets[54]: 1818  LLC: 2048
rand_sets[54]: 1818
Assign rand_sets[55]: 886  LLC: 2048
rand_sets[55]: 886
Assign rand_sets[56]: 1422  LLC: 2048
rand_sets[56]: 1422
Assign rand_sets[57]: 607  LLC: 2048
rand_sets[57]: 607
Assign rand_sets[58]: 217  LLC: 2048
rand_sets[58]: 217
Assign rand_sets[59]: 1945  LLC: 2048
rand_sets[59]: 1945
Assign rand_sets[60]: 143  LLC: 2048
rand_sets[60]: 143
Assign rand_sets[61]: 1311  LLC: 2048
rand_sets[61]: 1311
Assign rand_sets[62]: 319  LLC: 2048
rand_sets[62]: 319
Assign rand_sets[63]: 1846  LLC: 2048
rand_sets[63]: 1846
 CLEAN-RRIP-POLICY-1: 1-2-1-3-2-3-0-1- CLEAN-RRIP-POLICY-2: 1-2-1-3-2-3-0-1-
 DIRTY-RRIP-POLICY-1: 2-2-1-3-1-3-0-1- DIRTY-RRIP-POLICY-2: 2-2-1-3-1-3-0-1-
 PSEL width: 10
Heartbeat CPU 0 instructions: 10000003 cycles: 4586450 heartbeat IPC: 2.18034 cumulative IPC: 2.18034 (Simulation time: 0 hr 0 min 15 sec) 
Heartbeat CPU 0 instructions: 20000000 cycles: 8977344 heartbeat IPC: 2.27744 cumulative IPC: 2.22783 (Simulation time: 0 hr 0 min 29 sec) 
Heartbeat CPU 0 instructions: 30000000 cycles: 13386630 heartbeat IPC: 2.26794 cumulative IPC: 2.24104 (Simulation time: 0 hr 0 min 43 sec) 
Heartbeat CPU 0 instructions: 40000000 cycles: 18011933 heartbeat IPC: 2.16202 cumulative IPC: 2.22075 (Simulation time: 0 hr 0 min 59 sec) 
Heartbeat CPU 0 instructions: 50000002 cycles: 22423771 heartbeat IPC: 2.26663 cumulative IPC: 2.22978 (Simulation time: 0 hr 1 min 13 sec) 
Heartbeat CPU 0 instructions: 60000000 cycles: 27075561 heartbeat IPC: 2.14971 cumulative IPC: 2.21602 (Simulation time: 0 hr 1 min 28 sec) 
Heartbeat CPU 0 instructions: 70000003 cycles: 31478435 heartbeat IPC: 2.27124 cumulative IPC: 2.22374 (Simulation time: 0 hr 1 min 42 sec) 
Heartbeat CPU 0 instructions: 80000000 cycles: 35902766 heartbeat IPC: 2.26023 cumulative IPC: 2.22824 (Simulation time: 0 hr 1 min 56 sec) 
Heartbeat CPU 0 instructions: 90000002 cycles: 40359665 heartbeat IPC: 2.24371 cumulative IPC: 2.22995 (Simulation time: 0 hr 2 min 10 sec) 
Heartbeat CPU 0 instructions: 100000000 cycles: 44833915 heartbeat IPC: 2.23501 cumulative IPC: 2.23045 (Simulation time: 0 hr 2 min 24 sec) 

Warmup complete CPU 0 instructions: 100000003 cycles: 44833916 (Simulation time: 0 hr 2 min 24 sec) 

Heartbeat CPU 0 instructions: 110000000 cycles: 71354179 heartbeat IPC: 0.37707 cumulative IPC: 0.37707 (Simulation time: 0 hr 2 min 55 sec) 
Heartbeat CPU 0 instructions: 120000000 cycles: 99583185 heartbeat IPC: 0.354246 cumulative IPC: 0.365302 (Simulation time: 0 hr 3 min 27 sec) 
Heartbeat CPU 0 instructions: 130000000 cycles: 123134397 heartbeat IPC: 0.424607 cumulative IPC: 0.383139 (Simulation time: 0 hr 3 min 55 sec) 
Heartbeat CPU 0 instructions: 140000000 cycles: 145674146 heartbeat IPC: 0.443661 cumulative IPC: 0.396667 (Simulation time: 0 hr 4 min 23 sec) 
Heartbeat CPU 0 instructions: 150000000 cycles: 170082374 heartbeat IPC: 0.409698 cumulative IPC: 0.399206 (Simulation time: 0 hr 4 min 52 sec) 
Heartbeat CPU 0 instructions: 160000000 cycles: 194867733 heartbeat IPC: 0.403464 cumulative IPC: 0.39991 (Simulation time: 0 hr 5 min 21 sec) 
Heartbeat CPU 0 instructions: 170000002 cycles: 216129191 heartbeat IPC: 0.470335 cumulative IPC: 0.408651 (Simulation time: 0 hr 5 min 48 sec) 
Heartbeat CPU 0 instructions: 180000000 cycles: 239089545 heartbeat IPC: 0.435533 cumulative IPC: 0.411828 (Simulation time: 0 hr 6 min 16 sec) 
Heartbeat CPU 0 instructions: 190000000 cycles: 258157541 heartbeat IPC: 0.524439 cumulative IPC: 0.421894 (Simulation time: 0 hr 6 min 41 sec) 
Heartbeat CPU 0 instructions: 200000000 cycles: 279423733 heartbeat IPC: 0.47023 cumulative IPC: 0.426276 (Simulation time: 0 hr 7 min 8 sec) 
Heartbeat CPU 0 instructions: 210000001 cycles: 305728193 heartbeat IPC: 0.380164 cumulative IPC: 0.421627 (Simulation time: 0 hr 7 min 38 sec) 
Heartbeat CPU 0 instructions: 220000000 cycles: 331535391 heartbeat IPC: 0.387489 cumulative IPC: 0.418554 (Simulation time: 0 hr 8 min 8 sec) 
Heartbeat CPU 0 instructions: 230000000 cycles: 353765057 heartbeat IPC: 0.449849 cumulative IPC: 0.420806 (Simulation time: 0 hr 8 min 35 sec) 
Heartbeat CPU 0 instructions: 240000000 cycles: 379349218 heartbeat IPC: 0.390867 cumulative IPC: 0.418516 (Simulation time: 0 hr 9 min 5 sec) 
Heartbeat CPU 0 instructions: 250000001 cycles: 404206483 heartbeat IPC: 0.402297 cumulative IPC: 0.417394 (Simulation time: 0 hr 9 min 34 sec) 
Heartbeat CPU 0 instructions: 260000000 cycles: 425225750 heartbeat IPC: 0.475754 cumulative IPC: 0.420619 (Simulation time: 0 hr 10 min 1 sec) 
Heartbeat CPU 0 instructions: 270000000 cycles: 447204866 heartbeat IPC: 0.454977 cumulative IPC: 0.422496 (Simulation time: 0 hr 10 min 28 sec) 
Heartbeat CPU 0 instructions: 280000000 cycles: 474701528 heartbeat IPC: 0.363681 cumulative IPC: 0.418734 (Simulation time: 0 hr 10 min 59 sec) 
Heartbeat CPU 0 instructions: 290000000 cycles: 495928810 heartbeat IPC: 0.471092 cumulative IPC: 0.421197 (Simulation time: 0 hr 11 min 26 sec) 
Heartbeat CPU 0 instructions: 300000000 cycles: 516576282 heartbeat IPC: 0.484321 cumulative IPC: 0.42396 (Simulation time: 0 hr 11 min 52 sec) 
Heartbeat CPU 0 instructions: 310000000 cycles: 535866994 heartbeat IPC: 0.518384 cumulative IPC: 0.42767 (Simulation time: 0 hr 12 min 17 sec) 
Heartbeat CPU 0 instructions: 320000000 cycles: 565066749 heartbeat IPC: 0.342469 cumulative IPC: 0.422888 (Simulation time: 0 hr 12 min 50 sec) 
Heartbeat CPU 0 instructions: 330000001 cycles: 584432890 heartbeat IPC: 0.516365 cumulative IPC: 0.426242 (Simulation time: 0 hr 13 min 15 sec) 
Heartbeat CPU 0 instructions: 340000000 cycles: 603811256 heartbeat IPC: 0.516039 cumulative IPC: 0.429356 (Simulation time: 0 hr 13 min 41 sec) 
Heartbeat CPU 0 instructions: 350000001 cycles: 628644739 heartbeat IPC: 0.402682 cumulative IPC: 0.428221 (Simulation time: 0 hr 14 min 10 sec) 
Heartbeat CPU 0 instructions: 360000000 cycles: 650927553 heartbeat IPC: 0.448776 cumulative IPC: 0.428977 (Simulation time: 0 hr 14 min 38 sec) 
Heartbeat CPU 0 instructions: 370000001 cycles: 676034875 heartbeat IPC: 0.39829 cumulative IPC: 0.427756 (Simulation time: 0 hr 15 min 7 sec) 
Heartbeat CPU 0 instructions: 380000000 cycles: 699011298 heartbeat IPC: 0.435229 cumulative IPC: 0.428018 (Simulation time: 0 hr 15 min 35 sec) 
Heartbeat CPU 0 instructions: 390000000 cycles: 717770055 heartbeat IPC: 0.533084 cumulative IPC: 0.430947 (Simulation time: 0 hr 16 min 0 sec) 
Heartbeat CPU 0 instructions: 400000000 cycles: 737647363 heartbeat IPC: 0.503086 cumulative IPC: 0.433017 (Simulation time: 0 hr 16 min 26 sec) 
Heartbeat CPU 0 instructions: 410000001 cycles: 763531425 heartbeat IPC: 0.386338 cumulative IPC: 0.431336 (Simulation time: 0 hr 16 min 56 sec) 
Heartbeat CPU 0 instructions: 420000000 cycles: 788113891 heartbeat IPC: 0.406794 cumulative IPC: 0.430524 (Simulation time: 0 hr 17 min 25 sec) 
Heartbeat CPU 0 instructions: 430000002 cycles: 809475283 heartbeat IPC: 0.468134 cumulative IPC: 0.431575 (Simulation time: 0 hr 17 min 52 sec) 
Heartbeat CPU 0 instructions: 440000000 cycles: 829890757 heartbeat IPC: 0.489824 cumulative IPC: 0.43309 (Simulation time: 0 hr 18 min 18 sec) 
Heartbeat CPU 0 instructions: 450000002 cycles: 856389790 heartbeat IPC: 0.377372 cumulative IPC: 0.43127 (Simulation time: 0 hr 18 min 49 sec) 
Heartbeat CPU 0 instructions: 460000000 cycles: 882285439 heartbeat IPC: 0.386165 cumulative IPC: 0.429876 (Simulation time: 0 hr 19 min 19 sec) 
Heartbeat CPU 0 instructions: 470000002 cycles: 908155336 heartbeat IPC: 0.38655 cumulative IPC: 0.428577 (Simulation time: 0 hr 19 min 49 sec) 
Heartbeat CPU 0 instructions: 480000000 cycles: 932823933 heartbeat IPC: 0.405374 cumulative IPC: 0.427933 (Simulation time: 0 hr 20 min 18 sec) 
Heartbeat CPU 0 instructions: 490000000 cycles: 953689274 heartbeat IPC: 0.479264 cumulative IPC: 0.429111 (Simulation time: 0 hr 20 min 44 sec) 
Heartbeat CPU 0 instructions: 500000000 cycles: 978424216 heartbeat IPC: 0.404286 cumulative IPC: 0.428453 (Simulation time: 0 hr 21 min 13 sec) 
Heartbeat CPU 0 instructions: 510000000 cycles: 1003459899 heartbeat IPC: 0.39943 cumulative IPC: 0.427695 (Simulation time: 0 hr 21 min 43 sec) 
Heartbeat CPU 0 instructions: 520000000 cycles: 1024604670 heartbeat IPC: 0.47293 cumulative IPC: 0.428672 (Simulation time: 0 hr 22 min 9 sec) 
Heartbeat CPU 0 instructions: 530000003 cycles: 1050142763 heartbeat IPC: 0.391572 cumulative IPC: 0.427729 (Simulation time: 0 hr 22 min 39 sec) 
Heartbeat CPU 0 instructions: 540000000 cycles: 1072999514 heartbeat IPC: 0.437507 cumulative IPC: 0.427947 (Simulation time: 0 hr 23 min 7 sec) 
Heartbeat CPU 0 instructions: 550000000 cycles: 1098272307 heartbeat IPC: 0.395682 cumulative IPC: 0.427173 (Simulation time: 0 hr 23 min 37 sec) 
Heartbeat CPU 0 instructions: 560000000 cycles: 1121922492 heartbeat IPC: 0.42283 cumulative IPC: 0.427077 (Simulation time: 0 hr 24 min 5 sec) 
Heartbeat CPU 0 instructions: 570000002 cycles: 1145337575 heartbeat IPC: 0.427075 cumulative IPC: 0.427077 (Simulation time: 0 hr 24 min 33 sec) 
Heartbeat CPU 0 instructions: 580000000 cycles: 1166498640 heartbeat IPC: 0.472566 cumulative IPC: 0.427935 (Simulation time: 0 hr 25 min 0 sec) 
Heartbeat CPU 0 instructions: 590000001 cycles: 1190373847 heartbeat IPC: 0.418845 cumulative IPC: 0.427746 (Simulation time: 0 hr 25 min 29 sec) 
Heartbeat CPU 0 instructions: 600000000 cycles: 1209578583 heartbeat IPC: 0.520705 cumulative IPC: 0.429279 (Simulation time: 0 hr 25 min 54 sec) 
Finished CPU 0 instructions: 500000000 cycles: 1164744688 cumulative IPC: 0.429279 (Simulation time: 0 hr 25 min 54 sec) 

CPU 0 Branch Prediction Accuracy: 99.5434% MPKI: 1.33026
Number of Branches: 145676990 Number of Mispredictions: 665128
Number of LOAD Instructions: 188863207
Number of LOAD Instructions (ROI): 188863207
Number of STORE Instructions: 7332002
Number of STORE Instructions (ROI): 7332002
Total Destination Memory Operands: 10029285
Total Destination Memory Operands (ROI): 10029285
Total Source Memory Operands: 188863207
Total Source Memory Operands (ROI): 188863207
Number of DEPENDED LOADS: 291206
Number of DEPENDED LOADS (ROI): 291206
Number of SQ_ADDED: 10029285
Number of SQ_ADDED (ROI): 10029285
Number of LQ_ADDED: 200618937
Number of LQ_ADDED (ROI): 200618937
Number of Instructions read from trace: 600000010

ChampSim completed all CPUs

Region of Interest Statistics

CPU 0 cumulative IPC: 0.429279 instructions: 500000000 cycles: 1164744688
ITLB TOTAL     ACCESS:  145807630  HIT:  145768103  MISS:      39527
ITLB LOAD      ACCESS:  145807630  HIT:  145768103  MISS:      39527
ITLB RFO       ACCESS:          0  HIT:          0  MISS:          0
ITLB PREFETCH  ACCESS:          0  HIT:          0  MISS:          0
ITLB WRITEBACK ACCESS:          0  HIT:          0  MISS:          0
ITLB PREFETCH  REQUESTED:          0  ISSUED:          0  USEFUL:          0  USELESS:          0
ITLB TOTAL MSHR MERGED:      57377
ITLB LOAD MSHR MERGED:      57377
ITLB RFO MSHR MERGED:          0
ITLB PREFETCH MSHR MERGED:          0
ITLB WRITEBACK MSHR MERGED:          0
ITLB TOTAL ACCESSES:  145865007 HITS:  145768103 MISSES:      96904
ITLB LOAD ACCESSES:  145865007 HITS:  145768103 MISSES:      96904
ITLB RFO ACCESSES:          0 HITS:          0 MISSES:          0
ITLB PREFETCH ACCESSES:          0 HITS:          0 MISSES:          0
ITLB WRITEBACK ACCESSES:          0 HITS:          0 MISSES:          0
ITLB RQ ACCESS:  499999754
ITLB RQ TO_CACHE:  145865007
ITLB RQ MERGED:  354134747
ITLB RQ FORWARD:          0
ITLB WQ ACCESS:          0
ITLB WQ TO_CACHE:          0
ITLB WQ MERGED:          0
ITLB WQ FORWARD:          0
DTLB TOTAL     ACCESS:  135190330  HIT:  134021969  MISS:    1168361
DTLB LOAD      ACCESS:  127149399  HIT:  125990143  MISS:    1159256
DTLB RFO       ACCESS:    8040931  HIT:    8031826  MISS:       9105
DTLB PREFETCH  ACCESS:          0  HIT:          0  MISS:          0
DTLB WRITEBACK ACCESS:          0  HIT:          0  MISS:          0
DTLB PREFETCH  REQUESTED:          0  ISSUED:          0  USEFUL:          0  USELESS:          0
DTLB TOTAL MSHR MERGED:     581469
DTLB LOAD MSHR MERGED:     577090
DTLB RFO MSHR MERGED:       4379
DTLB PREFETCH MSHR MERGED:          0
DTLB WRITEBACK MSHR MERGED:          0
DTLB TOTAL ACCESSES:  135771799 HITS:  134021969 MISSES:    1749830
DTLB LOAD ACCESSES:  127726489 HITS:  125990143 MISSES:    1736346
DTLB RFO ACCESSES:    8045310 HITS:    8031826 MISSES:      13484
DTLB PREFETCH ACCESSES:          0 HITS:          0 MISSES:          0
DTLB WRITEBACK ACCESSES:          0 HITS:          0 MISSES:          0
DTLB RQ ACCESS:  165763131
DTLB RQ TO_CACHE:  135771799
DTLB RQ MERGED:   29991332
DTLB RQ FORWARD:          0
DTLB WQ ACCESS:          0
DTLB WQ TO_CACHE:          0
DTLB WQ MERGED:          0
DTLB WQ FORWARD:          0
L1D TOTAL     ACCESS:  156955309  HIT:  139639607  MISS:   17315702
L1D LOAD      ACCESS:   89977595  HIT:   78834308  MISS:   11143287
L1D RFO       ACCESS:    8499286  HIT:    8412132  MISS:      87154
L1D PREFETCH  ACCESS:   58478428  HIT:   52393167  MISS:    6085261
L1D WRITEBACK ACCESS:          0  HIT:          0  MISS:          0
L1D PREFETCH  REQUESTED:   93718573  ISSUED:   92851044  USEFUL:    2003833  USELESS:    4081502
L1D TOTAL MSHR MERGED:   15104861
L1D LOAD MSHR MERGED:    7140541
L1D RFO MSHR MERGED:     125253
L1D PREFETCH MSHR MERGED:    7839067
L1D WRITEBACK MSHR MERGED:          0
L1D TOTAL ACCESSES:  172060328 HITS:  139639764 MISSES:   32420564
L1D LOAD ACCESSES:   93718577 HITS:   78834312 MISSES:   14884265
L1D RFO ACCESSES:    8622697 HITS:    8412132 MISSES:     210565
L1D PREFETCH ACCESSES:   69719054 HITS:   52393320 MISSES:   17325734
L1D WRITEBACK ACCESSES:          0 HITS:          0 MISSES:          0
L1D RQ ACCESS:  157123925
L1D RQ TO_CACHE:   93718573
L1D RQ MERGED:   63405348
L1D RQ FORWARD:          0
L1D WQ ACCESS:    8639208
L1D WQ TO_CACHE:    8622697
L1D WQ MERGED:      16511
L1D WQ FORWARD:        157
L1I TOTAL     ACCESS:  178795940  HIT:  178132281  MISS:     663659
L1I LOAD      ACCESS:  178795940  HIT:  178132281  MISS:     663659
L1I RFO       ACCESS:          0  HIT:          0  MISS:          0
L1I PREFETCH  ACCESS:          0  HIT:          0  MISS:          0
L1I WRITEBACK ACCESS:          0  HIT:          0  MISS:          0
L1I PREFETCH  REQUESTED:          0  ISSUED:          0  USEFUL:          0  USELESS:          0
L1I TOTAL MSHR MERGED:     597598
L1I LOAD MSHR MERGED:     597598
L1I RFO MSHR MERGED:          0
L1I PREFETCH MSHR MERGED:          0
L1I WRITEBACK MSHR MERGED:          0
L1I TOTAL ACCESSES:  179393538 HITS:  178132281 MISSES:    1261257
L1I LOAD ACCESSES:  179393538 HITS:  178132281 MISSES:    1261257
L1I RFO ACCESSES:          0 HITS:          0 MISSES:          0
L1I PREFETCH ACCESSES:          0 HITS:          0 MISSES:          0
L1I WRITEBACK ACCESSES:          0 HITS:          0 MISSES:          0
L1I RQ ACCESS:  499999757
L1I RQ TO_CACHE:  179393538
L1I RQ MERGED:  320606219
L1I RQ FORWARD:          0
L1I WQ ACCESS:          0
L1I WQ TO_CACHE:          0
L1I WQ MERGED:          0
L1I WQ FORWARD:          0
L2C TOTAL     ACCESS:   19276726  HIT:    2057277  MISS:   17219449
L2C LOAD      ACCESS:    8407280  HIT:     951142  MISS:    7456138
L2C RFO       ACCESS:      85289  HIT:      53726  MISS:      31563
L2C PREFETCH  ACCESS:   10499148  HIT:     770210  MISS:    9728938
L2C WRITEBACK ACCESS:     285009  HIT:     282199  MISS:       2810
L2C PREFETCH  REQUESTED:    1016860  ISSUED:    1016860  USEFUL:     274776  USELESS:    9453256
L2C TOTAL MSHR MERGED:       1061
L2C LOAD MSHR MERGED:        218
L2C RFO MSHR MERGED:          1
L2C PREFETCH MSHR MERGED:        842
L2C WRITEBACK MSHR MERGED:          0
L2C TOTAL ACCESSES:   19279971 HITS:    2057469 MISSES:   17222502
L2C LOAD ACCESSES:    8407383 HITS:     951245 MISSES:    7456138
L2C RFO ACCESSES:      85312 HITS:      53749 MISSES:      31563
L2C PREFETCH ACCESSES:   10502267 HITS:     770276 MISSES:    9731991
L2C WRITEBACK ACCESSES:     285009 HITS:     282199 MISSES:       2810
L2C RQ ACCESS:    8492695
L2C RQ TO_CACHE:    8492569
L2C RQ MERGED:          0
L2C RQ FORWARD:          0
L2C WQ ACCESS:     285009
L2C WQ TO_CACHE:     285009
L2C WQ MERGED:          0
L2C WQ FORWARD:        192
LLC TOTAL     ACCESS:   17324688  HIT:    4858822  MISS:   12465866
LLC LOAD      ACCESS:    7455920  HIT:    3990389  MISS:    3465531
LLC RFO       ACCESS:      31562  HIT:      16452  MISS:      15110
LLC PREFETCH  ACCESS:    9731147  HIT:     768675  MISS:    8962472
LLC WRITEBACK ACCESS:     106059  HIT:      83306  MISS:      22753
LLC PREFETCH  REQUESTED:          0  ISSUED:          0  USEFUL:       2125  USELESS:    8959630
LLC TOTAL MSHR MERGED:          1
LLC LOAD MSHR MERGED:          0
LLC RFO MSHR MERGED:          0
LLC PREFETCH MSHR MERGED:          1
LLC WRITEBACK MSHR MERGED:          0
LLC TOTAL ACCESSES:   17324690 HITS:    4858822 MISSES:   12465868
LLC LOAD ACCESSES:    7455920 HITS:    3990389 MISSES:    3465531
LLC RFO ACCESSES:      31562 HITS:      16452 MISSES:      15110
LLC PREFETCH ACCESSES:    9731149 HITS:     768675 MISSES:    8962474
LLC WRITEBACK ACCESSES:     106059 HITS:      83306 MISSES:      22753
LLC 0 RQ ACCESS:    7487482
LLC 0 RQ TO_CACHE:    7487482
LLC 0 RQ MERGED:          0
LLC 0 RQ FORWARD:          0
LLC WQ ACCESS:     106059
LLC WQ TO_CACHE:     106059
LLC WQ MERGED:          0
LLC WQ FORWARD:          0
Major fault: 0 Minor fault: 6432
CPU 0 L1D next line prefetcher final stats
CPU 0 L2C PC-based stride prefetcher final stats
All Misses: 14698940
All Hits: 5845411
SD Algo Stats - Switches: 0 SRR-Repls: 3693623 BRR-Repls: 0

DRAM Statistics
 CHANNEL 0
 RQ ROW_BUFFER_HIT:    9405004  ROW_BUFFER_MISS:    3032644
 DBUS_CONGESTED:    5794684
 WQ ROW_BUFFER_HIT:       1311  ROW_BUFFER_MISS:      41786  FULL:          0

 AVG_CONGESTED_CYCLE: 12
LOADS RETIRED: 157382665
INSTR RETIRED: 500000000
