
*** ChampSim Multicore Out-of-Order Simulator ***

Warmup Instructions: 100000000
Simulation Instructions: 500000000
Number of CPUs: 1
LLC sets: 2048
LLC ways: 16
Clean RRIP Policies: 2213231222132312 Dirty RRIP Policies: 1203130212031302 PSEL Width: 10 Track Set: 4294967295 PSEL Mask: 1 Demote Mask: 1040100010401000DS Algo: 0Window size: 0
Off-chip DRAM Size: 4096 MB Channels: 1 Width: 64-bit Data Rate: 1600 MT/s

CPU 0 runs /mnt/beegfs/iconst01/spec2017/Roms.trace.gz
NOT SORTED
TRACE STRING: /mnt/beegfs/iconst01/spec2017/Roms.trace.gz
SORTED
TRACE STRING: /mnt/beegfs/iconst01/spec2017/Roms.trace.gz
INITIAL
TRACE STRING: /mnt/beegfs/iconst01/spec2017/Roms.trace.gz

champsim_seed used: 417

CPU 0 L1D next line prefetcher
CPU 0 L2C IP-based stride prefetcher
Initialize DRRIP state
Assign rand_sets[0]: 454  LLC: 2048
rand_sets[0]: 454
Assign rand_sets[1]: 1662  LLC: 2048
rand_sets[1]: 1662
Assign rand_sets[2]: 1921  LLC: 2048
rand_sets[2]: 1921
Assign rand_sets[3]: 1131  LLC: 2048
rand_sets[3]: 1131
Assign rand_sets[4]: 331  LLC: 2048
rand_sets[4]: 331
Assign rand_sets[5]: 1531  LLC: 2048
rand_sets[5]: 1531
Assign rand_sets[6]: 482  LLC: 2048
rand_sets[6]: 482
Assign rand_sets[7]: 1275  LLC: 2048
rand_sets[7]: 1275
Assign rand_sets[8]: 1876  LLC: 2048
rand_sets[8]: 1876
Assign rand_sets[9]: 2038  LLC: 2048
rand_sets[9]: 2038
Assign rand_sets[10]: 701  LLC: 2048
rand_sets[10]: 701
Assign rand_sets[11]: 479  LLC: 2048
rand_sets[11]: 479
Assign rand_sets[12]: 892  LLC: 2048
rand_sets[12]: 892
Assign rand_sets[13]: 1820  LLC: 2048
rand_sets[13]: 1820
Assign rand_sets[14]: 1505  LLC: 2048
rand_sets[14]: 1505
Assign rand_sets[15]: 1159  LLC: 2048
rand_sets[15]: 1159
Assign rand_sets[16]: 513  LLC: 2048
rand_sets[16]: 513
Assign rand_sets[17]: 703  LLC: 2048
rand_sets[17]: 703
Assign rand_sets[18]: 561  LLC: 2048
rand_sets[18]: 561
Assign rand_sets[19]: 990  LLC: 2048
rand_sets[19]: 990
Assign rand_sets[20]: 342  LLC: 2048
rand_sets[20]: 342
Assign rand_sets[21]: 882  LLC: 2048
rand_sets[21]: 882
Assign rand_sets[22]: 15  LLC: 2048
rand_sets[22]: 15
Assign rand_sets[23]: 71  LLC: 2048
rand_sets[23]: 71
Assign rand_sets[24]: 1127  LLC: 2048
rand_sets[24]: 1127
Assign rand_sets[25]: 1382  LLC: 2048
rand_sets[25]: 1382
Assign rand_sets[26]: 647  LLC: 2048
rand_sets[26]: 647
Assign rand_sets[27]: 857  LLC: 2048
rand_sets[27]: 857
Assign rand_sets[28]: 1450  LLC: 2048
rand_sets[28]: 1450
Assign rand_sets[29]: 1160  LLC: 2048
rand_sets[29]: 1160
Assign rand_sets[30]: 1852  LLC: 2048
rand_sets[30]: 1852
Assign rand_sets[31]: 1881  LLC: 2048
rand_sets[31]: 1881
Assign rand_sets[32]: 1770  LLC: 2048
rand_sets[32]: 1770
Assign rand_sets[33]: 1622  LLC: 2048
rand_sets[33]: 1622
Assign rand_sets[34]: 275  LLC: 2048
rand_sets[34]: 275
Assign rand_sets[35]: 635  LLC: 2048
rand_sets[35]: 635
Assign rand_sets[36]: 466  LLC: 2048
rand_sets[36]: 466
Assign rand_sets[37]: 1413  LLC: 2048
rand_sets[37]: 1413
Assign rand_sets[38]: 417  LLC: 2048
rand_sets[38]: 417
Assign rand_sets[39]: 472  LLC: 2048
rand_sets[39]: 472
Assign rand_sets[40]: 1340  LLC: 2048
rand_sets[40]: 1340
Assign rand_sets[41]: 852  LLC: 2048
rand_sets[41]: 852
Assign rand_sets[42]: 1365  LLC: 2048
rand_sets[42]: 1365
Assign rand_sets[43]: 47  LLC: 2048
rand_sets[43]: 47
Assign rand_sets[44]: 823  LLC: 2048
rand_sets[44]: 823
Assign rand_sets[45]: 686  LLC: 2048
rand_sets[45]: 686
Assign rand_sets[46]: 1637  LLC: 2048
rand_sets[46]: 1637
Assign rand_sets[47]: 1115  LLC: 2048
rand_sets[47]: 1115
Assign rand_sets[48]: 986  LLC: 2048
rand_sets[48]: 986
Assign rand_sets[49]: 258  LLC: 2048
rand_sets[49]: 258
Assign rand_sets[50]: 633  LLC: 2048
rand_sets[50]: 633
Assign rand_sets[51]: 920  LLC: 2048
rand_sets[51]: 920
Assign rand_sets[52]: 204  LLC: 2048
rand_sets[52]: 204
Assign rand_sets[53]: 227  LLC: 2048
rand_sets[53]: 227
Assign rand_sets[54]: 1818  LLC: 2048
rand_sets[54]: 1818
Assign rand_sets[55]: 886  LLC: 2048
rand_sets[55]: 886
Assign rand_sets[56]: 1422  LLC: 2048
rand_sets[56]: 1422
Assign rand_sets[57]: 607  LLC: 2048
rand_sets[57]: 607
Assign rand_sets[58]: 217  LLC: 2048
rand_sets[58]: 217
Assign rand_sets[59]: 1945  LLC: 2048
rand_sets[59]: 1945
Assign rand_sets[60]: 143  LLC: 2048
rand_sets[60]: 143
Assign rand_sets[61]: 1311  LLC: 2048
rand_sets[61]: 1311
Assign rand_sets[62]: 319  LLC: 2048
rand_sets[62]: 319
Assign rand_sets[63]: 1846  LLC: 2048
rand_sets[63]: 1846
 CLEAN-RRIP-POLICY-1: 2-2-1-3-2-3-1-2- CLEAN-RRIP-POLICY-2: 2-2-1-3-2-3-1-2-
 DIRTY-RRIP-POLICY-1: 1-2-0-3-1-3-0-2- DIRTY-RRIP-POLICY-2: 1-2-0-3-1-3-0-2-
 PSEL width: 10
Heartbeat CPU 0 instructions: 10000000 cycles: 4688066 heartbeat IPC: 2.13308 cumulative IPC: 2.13308 (Simulation time: 0 hr 0 min 17 sec) 
Heartbeat CPU 0 instructions: 20000000 cycles: 9325334 heartbeat IPC: 2.15644 cumulative IPC: 2.1447 (Simulation time: 0 hr 0 min 33 sec) 
Heartbeat CPU 0 instructions: 30000003 cycles: 14019722 heartbeat IPC: 2.1302 cumulative IPC: 2.13984 (Simulation time: 0 hr 0 min 50 sec) 
Heartbeat CPU 0 instructions: 40000000 cycles: 18670140 heartbeat IPC: 2.15034 cumulative IPC: 2.14246 (Simulation time: 0 hr 1 min 7 sec) 
Heartbeat CPU 0 instructions: 50000003 cycles: 23323498 heartbeat IPC: 2.14899 cumulative IPC: 2.14376 (Simulation time: 0 hr 1 min 23 sec) 
Heartbeat CPU 0 instructions: 60000000 cycles: 27976130 heartbeat IPC: 2.14932 cumulative IPC: 2.14469 (Simulation time: 0 hr 1 min 40 sec) 
Heartbeat CPU 0 instructions: 70000002 cycles: 32367265 heartbeat IPC: 2.27732 cumulative IPC: 2.16268 (Simulation time: 0 hr 1 min 55 sec) 
Heartbeat CPU 0 instructions: 80000000 cycles: 36304048 heartbeat IPC: 2.54014 cumulative IPC: 2.20361 (Simulation time: 0 hr 2 min 7 sec) 
Heartbeat CPU 0 instructions: 90000000 cycles: 40249285 heartbeat IPC: 2.5347 cumulative IPC: 2.23606 (Simulation time: 0 hr 2 min 18 sec) 
Heartbeat CPU 0 instructions: 100000000 cycles: 44211557 heartbeat IPC: 2.5238 cumulative IPC: 2.26185 (Simulation time: 0 hr 2 min 30 sec) 

Warmup complete CPU 0 instructions: 100000002 cycles: 44211558 (Simulation time: 0 hr 2 min 30 sec) 

Heartbeat CPU 0 instructions: 110000000 cycles: 52787366 heartbeat IPC: 1.16607 cumulative IPC: 1.16607 (Simulation time: 0 hr 2 min 49 sec) 
Heartbeat CPU 0 instructions: 120000000 cycles: 61420547 heartbeat IPC: 1.15832 cumulative IPC: 1.16218 (Simulation time: 0 hr 3 min 7 sec) 
Heartbeat CPU 0 instructions: 130000002 cycles: 70097706 heartbeat IPC: 1.15245 cumulative IPC: 1.15892 (Simulation time: 0 hr 3 min 26 sec) 
Heartbeat CPU 0 instructions: 140000000 cycles: 78641016 heartbeat IPC: 1.17051 cumulative IPC: 1.1618 (Simulation time: 0 hr 3 min 44 sec) 
Heartbeat CPU 0 instructions: 150000003 cycles: 87333611 heartbeat IPC: 1.1504 cumulative IPC: 1.1595 (Simulation time: 0 hr 4 min 2 sec) 
Heartbeat CPU 0 instructions: 160000000 cycles: 97586899 heartbeat IPC: 0.975297 cumulative IPC: 1.12411 (Simulation time: 0 hr 4 min 23 sec) 
Heartbeat CPU 0 instructions: 170000000 cycles: 110037796 heartbeat IPC: 0.803155 cumulative IPC: 1.06341 (Simulation time: 0 hr 4 min 46 sec) 
Heartbeat CPU 0 instructions: 180000000 cycles: 122523420 heartbeat IPC: 0.800921 cumulative IPC: 1.02156 (Simulation time: 0 hr 5 min 9 sec) 
Heartbeat CPU 0 instructions: 190000000 cycles: 135241041 heartbeat IPC: 0.786311 cumulative IPC: 0.988691 (Simulation time: 0 hr 5 min 32 sec) 
Heartbeat CPU 0 instructions: 200000000 cycles: 149096576 heartbeat IPC: 0.721733 cumulative IPC: 0.953425 (Simulation time: 0 hr 5 min 55 sec) 
Heartbeat CPU 0 instructions: 210000001 cycles: 162991249 heartbeat IPC: 0.7197 cumulative IPC: 0.926084 (Simulation time: 0 hr 6 min 18 sec) 
Heartbeat CPU 0 instructions: 220000000 cycles: 176697449 heartbeat IPC: 0.729597 cumulative IPC: 0.905757 (Simulation time: 0 hr 6 min 42 sec) 
Heartbeat CPU 0 instructions: 230000000 cycles: 190219663 heartbeat IPC: 0.739524 cumulative IPC: 0.890362 (Simulation time: 0 hr 7 min 6 sec) 
Heartbeat CPU 0 instructions: 240000000 cycles: 203814856 heartbeat IPC: 0.735554 cumulative IPC: 0.877175 (Simulation time: 0 hr 7 min 30 sec) 
Heartbeat CPU 0 instructions: 250000003 cycles: 214876188 heartbeat IPC: 0.904051 cumulative IPC: 0.878917 (Simulation time: 0 hr 7 min 52 sec) 
Heartbeat CPU 0 instructions: 260000000 cycles: 222716780 heartbeat IPC: 1.27541 cumulative IPC: 0.896332 (Simulation time: 0 hr 8 min 12 sec) 
Heartbeat CPU 0 instructions: 270000003 cycles: 231015970 heartbeat IPC: 1.20494 cumulative IPC: 0.910043 (Simulation time: 0 hr 8 min 31 sec) 
Heartbeat CPU 0 instructions: 280000000 cycles: 239460294 heartbeat IPC: 1.18423 cumulative IPC: 0.921901 (Simulation time: 0 hr 8 min 51 sec) 
Heartbeat CPU 0 instructions: 290000000 cycles: 248059139 heartbeat IPC: 1.16295 cumulative IPC: 0.932069 (Simulation time: 0 hr 9 min 11 sec) 
Heartbeat CPU 0 instructions: 300000000 cycles: 256665766 heartbeat IPC: 1.1619 cumulative IPC: 0.941379 (Simulation time: 0 hr 9 min 31 sec) 
Heartbeat CPU 0 instructions: 310000000 cycles: 265343095 heartbeat IPC: 1.15243 cumulative IPC: 0.949661 (Simulation time: 0 hr 9 min 52 sec) 
Heartbeat CPU 0 instructions: 320000000 cycles: 274075121 heartbeat IPC: 1.14521 cumulative IPC: 0.957089 (Simulation time: 0 hr 10 min 13 sec) 
Heartbeat CPU 0 instructions: 330000002 cycles: 282769287 heartbeat IPC: 1.1502 cumulative IPC: 0.964127 (Simulation time: 0 hr 10 min 34 sec) 
Heartbeat CPU 0 instructions: 340000000 cycles: 292681312 heartbeat IPC: 1.00888 cumulative IPC: 0.965912 (Simulation time: 0 hr 10 min 57 sec) 
Heartbeat CPU 0 instructions: 350000001 cycles: 301011718 heartbeat IPC: 1.20042 cumulative IPC: 0.97352 (Simulation time: 0 hr 11 min 17 sec) 
Heartbeat CPU 0 instructions: 360000000 cycles: 309384425 heartbeat IPC: 1.19436 cumulative IPC: 0.980492 (Simulation time: 0 hr 11 min 37 sec) 
Heartbeat CPU 0 instructions: 370000001 cycles: 317760713 heartbeat IPC: 1.19385 cumulative IPC: 0.987025 (Simulation time: 0 hr 11 min 57 sec) 
Heartbeat CPU 0 instructions: 380000000 cycles: 326107701 heartbeat IPC: 1.19804 cumulative IPC: 0.993274 (Simulation time: 0 hr 12 min 17 sec) 
Heartbeat CPU 0 instructions: 390000001 cycles: 334287836 heartbeat IPC: 1.22247 cumulative IPC: 0.999737 (Simulation time: 0 hr 12 min 37 sec) 
Heartbeat CPU 0 instructions: 400000000 cycles: 342549594 heartbeat IPC: 1.2104 cumulative IPC: 1.00557 (Simulation time: 0 hr 12 min 57 sec) 
Heartbeat CPU 0 instructions: 410000003 cycles: 350727375 heartbeat IPC: 1.22283 cumulative IPC: 1.01137 (Simulation time: 0 hr 13 min 16 sec) 
Heartbeat CPU 0 instructions: 420000000 cycles: 358990962 heartbeat IPC: 1.21013 cumulative IPC: 1.01658 (Simulation time: 0 hr 13 min 36 sec) 
Heartbeat CPU 0 instructions: 430000001 cycles: 367196149 heartbeat IPC: 1.21874 cumulative IPC: 1.02172 (Simulation time: 0 hr 13 min 56 sec) 
Heartbeat CPU 0 instructions: 440000000 cycles: 375339741 heartbeat IPC: 1.22796 cumulative IPC: 1.02679 (Simulation time: 0 hr 14 min 16 sec) 
Heartbeat CPU 0 instructions: 450000001 cycles: 384720075 heartbeat IPC: 1.06606 cumulative IPC: 1.02787 (Simulation time: 0 hr 14 min 37 sec) 
Heartbeat CPU 0 instructions: 460000000 cycles: 392924123 heartbeat IPC: 1.21891 cumulative IPC: 1.03237 (Simulation time: 0 hr 14 min 57 sec) 
Heartbeat CPU 0 instructions: 470000003 cycles: 400995811 heartbeat IPC: 1.2389 cumulative IPC: 1.03704 (Simulation time: 0 hr 15 min 16 sec) 
Heartbeat CPU 0 instructions: 480000000 cycles: 409098695 heartbeat IPC: 1.23413 cumulative IPC: 1.04142 (Simulation time: 0 hr 15 min 36 sec) 
Heartbeat CPU 0 instructions: 490000000 cycles: 417173386 heartbeat IPC: 1.23844 cumulative IPC: 1.04568 (Simulation time: 0 hr 15 min 56 sec) 
Heartbeat CPU 0 instructions: 500000000 cycles: 425260280 heartbeat IPC: 1.23657 cumulative IPC: 1.04973 (Simulation time: 0 hr 16 min 15 sec) 
Heartbeat CPU 0 instructions: 510000001 cycles: 433304659 heartbeat IPC: 1.2431 cumulative IPC: 1.05373 (Simulation time: 0 hr 16 min 35 sec) 
Heartbeat CPU 0 instructions: 520000000 cycles: 441382760 heartbeat IPC: 1.23791 cumulative IPC: 1.05748 (Simulation time: 0 hr 16 min 54 sec) 
Heartbeat CPU 0 instructions: 530000001 cycles: 449466222 heartbeat IPC: 1.23709 cumulative IPC: 1.06106 (Simulation time: 0 hr 17 min 14 sec) 
Heartbeat CPU 0 instructions: 540000000 cycles: 457711933 heartbeat IPC: 1.21275 cumulative IPC: 1.06409 (Simulation time: 0 hr 17 min 34 sec) 
Heartbeat CPU 0 instructions: 550000001 cycles: 466028366 heartbeat IPC: 1.20244 cumulative IPC: 1.06681 (Simulation time: 0 hr 17 min 53 sec) 
Heartbeat CPU 0 instructions: 560000000 cycles: 474102705 heartbeat IPC: 1.23849 cumulative IPC: 1.07004 (Simulation time: 0 hr 18 min 13 sec) 
Heartbeat CPU 0 instructions: 570000001 cycles: 485100823 heartbeat IPC: 0.909247 cumulative IPC: 1.06603 (Simulation time: 0 hr 18 min 34 sec) 
Heartbeat CPU 0 instructions: 580000000 cycles: 495745143 heartbeat IPC: 0.939468 cumulative IPC: 1.06304 (Simulation time: 0 hr 18 min 55 sec) 
Heartbeat CPU 0 instructions: 590000001 cycles: 506661118 heartbeat IPC: 0.916089 cumulative IPC: 1.05957 (Simulation time: 0 hr 19 min 17 sec) 
Heartbeat CPU 0 instructions: 600000000 cycles: 517308929 heartbeat IPC: 0.93916 cumulative IPC: 1.05686 (Simulation time: 0 hr 19 min 38 sec) 
Finished CPU 0 instructions: 500000001 cycles: 473097384 cumulative IPC: 1.05686 (Simulation time: 0 hr 19 min 38 sec) 

CPU 0 Branch Prediction Accuracy: 99.7422% MPKI: 0.173296
Number of Branches: 33608403 Number of Mispredictions: 86648
Number of LOAD Instructions: 180215231
Number of LOAD Instructions (ROI): 180215231
Number of STORE Instructions: 36067263
Number of STORE Instructions (ROI): 36067263
Total Destination Memory Operands: 38428915
Total Destination Memory Operands (ROI): 38428915
Total Source Memory Operands: 180215231
Total Source Memory Operands (ROI): 180215231
Number of DEPENDED LOADS: 3041380
Number of DEPENDED LOADS (ROI): 3041380
Number of SQ_ADDED: 38428892
Number of SQ_ADDED (ROI): 38428892
Number of LQ_ADDED: 207543080
Number of LQ_ADDED (ROI): 207543080
Number of Instructions read from trace: 600000257

ChampSim completed all CPUs

Region of Interest Statistics

CPU 0 cumulative IPC: 1.05686 instructions: 500000001 cycles: 473097384
ITLB TOTAL     ACCESS:   91773147  HIT:   91773128  MISS:         19
ITLB LOAD      ACCESS:   91773147  HIT:   91773128  MISS:         19
ITLB RFO       ACCESS:          0  HIT:          0  MISS:          0
ITLB PREFETCH  ACCESS:          0  HIT:          0  MISS:          0
ITLB WRITEBACK ACCESS:          0  HIT:          0  MISS:          0
ITLB PREFETCH  REQUESTED:          0  ISSUED:          0  USEFUL:          0  USELESS:          0
ITLB TOTAL MSHR MERGED:         40
ITLB LOAD MSHR MERGED:         40
ITLB RFO MSHR MERGED:          0
ITLB PREFETCH MSHR MERGED:          0
ITLB WRITEBACK MSHR MERGED:          0
ITLB TOTAL ACCESSES:   91773187 HITS:   91773128 MISSES:         59
ITLB LOAD ACCESSES:   91773187 HITS:   91773128 MISSES:         59
ITLB RFO ACCESSES:          0 HITS:          0 MISSES:          0
ITLB PREFETCH ACCESSES:          0 HITS:          0 MISSES:          0
ITLB WRITEBACK ACCESSES:          0 HITS:          0 MISSES:          0
ITLB RQ ACCESS:  500000003
ITLB RQ TO_CACHE:   91773187
ITLB RQ MERGED:  408226816
ITLB RQ FORWARD:          0
ITLB WQ ACCESS:          0
ITLB WQ TO_CACHE:          0
ITLB WQ MERGED:          0
ITLB WQ FORWARD:          0
DTLB TOTAL     ACCESS:  142071577  HIT:  141705114  MISS:     366463
DTLB LOAD      ACCESS:  119429481  HIT:  119115894  MISS:     313587
DTLB RFO       ACCESS:   22642096  HIT:   22589220  MISS:      52876
DTLB PREFETCH  ACCESS:          0  HIT:          0  MISS:          0
DTLB WRITEBACK ACCESS:          0  HIT:          0  MISS:          0
DTLB PREFETCH  REQUESTED:          0  ISSUED:          0  USEFUL:          0  USELESS:          0
DTLB TOTAL MSHR MERGED:     287890
DTLB LOAD MSHR MERGED:     240180
DTLB RFO MSHR MERGED:      47710
DTLB PREFETCH MSHR MERGED:          0
DTLB WRITEBACK MSHR MERGED:          0
DTLB TOTAL ACCESSES:  142359467 HITS:  141705114 MISSES:     654353
DTLB LOAD ACCESSES:  119669661 HITS:  119115894 MISSES:     553767
DTLB RFO ACCESSES:   22689806 HITS:   22589220 MISSES:     100586
DTLB PREFETCH ACCESSES:          0 HITS:          0 MISSES:          0
DTLB WRITEBACK ACCESSES:          0 HITS:          0 MISSES:          0
DTLB RQ ACCESS:  184791597
DTLB RQ TO_CACHE:  142359467
DTLB RQ MERGED:   42432130
DTLB RQ FORWARD:          0
DTLB WQ ACCESS:          0
DTLB WQ TO_CACHE:          0
DTLB WQ MERGED:          0
DTLB WQ FORWARD:          0
L1D TOTAL     ACCESS:  190569874  HIT:  177117449  MISS:   13452425
L1D LOAD      ACCESS:  112000478  HIT:  108772047  MISS:    3228431
L1D RFO       ACCESS:   19181999  HIT:   16400239  MISS:    2781760
L1D PREFETCH  ACCESS:   59387397  HIT:   51945163  MISS:    7442234
L1D WRITEBACK ACCESS:          0  HIT:          0  MISS:          0
L1D PREFETCH  REQUESTED:  116520769  ISSUED:  115160104  USEFUL:    7232470  USELESS:     209764
L1D TOTAL MSHR MERGED:   31060339
L1D LOAD MSHR MERGED:    7192476
L1D RFO MSHR MERGED:    9070803
L1D PREFETCH MSHR MERGED:   14797060
L1D WRITEBACK MSHR MERGED:          0
L1D TOTAL ACCESSES:  221630606 HITS:  177117841 MISSES:   44512765
L1D LOAD ACCESSES:  116520792 HITS:  108772070 MISSES:    7748722
L1D RFO ACCESSES:   28252737 HITS:   16400239 MISSES:   11852498
L1D PREFETCH ACCESSES:   76857077 HITS:   51945532 MISSES:   24911545
L1D WRITEBACK ACCESSES:          0 HITS:          0 MISSES:          0
L1D RQ ACCESS:  156535531
L1D RQ TO_CACHE:  116520772
L1D RQ MERGED:   40014736
L1D RQ FORWARD:          0
L1D WQ ACCESS:   28256066
L1D WQ TO_CACHE:   28252737
L1D WQ MERGED:       3329
L1D WQ FORWARD:        392
L1I TOTAL     ACCESS:  115764164  HIT:  115763216  MISS:        948
L1I LOAD      ACCESS:  115764164  HIT:  115763216  MISS:        948
L1I RFO       ACCESS:          0  HIT:          0  MISS:          0
L1I PREFETCH  ACCESS:          0  HIT:          0  MISS:          0
L1I WRITEBACK ACCESS:          0  HIT:          0  MISS:          0
L1I PREFETCH  REQUESTED:          0  ISSUED:          0  USEFUL:          0  USELESS:          0
L1I TOTAL MSHR MERGED:       1573
L1I LOAD MSHR MERGED:       1573
L1I RFO MSHR MERGED:          0
L1I PREFETCH MSHR MERGED:          0
L1I WRITEBACK MSHR MERGED:          0
L1I TOTAL ACCESSES:  115765737 HITS:  115763216 MISSES:       2521
L1I LOAD ACCESSES:  115765737 HITS:  115763216 MISSES:       2521
L1I RFO ACCESSES:          0 HITS:          0 MISSES:          0
L1I PREFETCH ACCESSES:          0 HITS:          0 MISSES:          0
L1I WRITEBACK ACCESSES:          0 HITS:          0 MISSES:          0
L1I RQ ACCESS:  500000007
L1I RQ TO_CACHE:  115765737
L1I RQ MERGED:  384234270
L1I RQ FORWARD:          0
L1I WQ ACCESS:          0
L1I WQ TO_CACHE:          0
L1I WQ MERGED:          0
L1I WQ FORWARD:          0
L2C TOTAL     ACCESS:   16698274  HIT:    4853744  MISS:   11844530
L2C LOAD      ACCESS:     557162  HIT:      95600  MISS:     461562
L2C RFO       ACCESS:    2781695  HIT:     266765  MISS:    2514930
L2C PREFETCH  ACCESS:   10138762  HIT:    1273003  MISS:    8865759
L2C WRITEBACK ACCESS:    3220655  HIT:    3218376  MISS:       2279
L2C PREFETCH  REQUESTED:      26319  ISSUED:      26319  USEFUL:      93099  USELESS:    8770716
L2C TOTAL MSHR MERGED:        513
L2C LOAD MSHR MERGED:          7
L2C RFO MSHR MERGED:          0
L2C PREFETCH MSHR MERGED:        506
L2C WRITEBACK MSHR MERGED:          0
L2C TOTAL ACCESSES:   16698931 HITS:    4853798 MISSES:   11845133
L2C LOAD ACCESSES:     557194 HITS:      95632 MISSES:     461562
L2C RFO ACCESSES:    2781695 HITS:     266765 MISSES:    2514930
L2C PREFETCH ACCESSES:   10139387 HITS:    1273025 MISSES:    8866362
L2C WRITEBACK ACCESSES:    3220655 HITS:    3218376 MISSES:       2279
L2C RQ ACCESS:    3338889
L2C RQ TO_CACHE:    3338857
L2C RQ MERGED:          0
L2C RQ FORWARD:          0
L2C WQ ACCESS:    3220655
L2C WQ TO_CACHE:    3220655
L2C WQ MERGED:          0
L2C WQ FORWARD:         54
LLC TOTAL     ACCESS:   14742568  HIT:    7769514  MISS:    6973054
LLC LOAD      ACCESS:     461552  HIT:     228254  MISS:     233298
LLC RFO       ACCESS:    2514911  HIT:    1936336  MISS:     578575
LLC PREFETCH  ACCESS:    8865799  HIT:    3356452  MISS:    5509347
LLC WRITEBACK ACCESS:    2900306  HIT:    2248472  MISS:     651834
LLC PREFETCH  REQUESTED:          0  ISSUED:          0  USEFUL:       3192  USELESS:    5512517
LLC TOTAL MSHR MERGED:          4
LLC LOAD MSHR MERGED:          0
LLC RFO MSHR MERGED:          0
LLC PREFETCH MSHR MERGED:          4
LLC WRITEBACK MSHR MERGED:          0
LLC TOTAL ACCESSES:   14742640 HITS:    7769581 MISSES:    6973059
LLC LOAD ACCESSES:     461555 HITS:     228257 MISSES:     233298
LLC RFO ACCESSES:    2514930 HITS:    1936355 MISSES:     578575
LLC PREFETCH ACCESSES:    8865849 HITS:    3356497 MISSES:    5509352
LLC WRITEBACK ACCESSES:    2900306 HITS:    2248472 MISSES:     651834
LLC 0 RQ ACCESS:    2976485
LLC 0 RQ TO_CACHE:    2976463
LLC 0 RQ MERGED:          0
LLC 0 RQ FORWARD:          0
LLC WQ ACCESS:    2900306
LLC WQ TO_CACHE:    2900306
LLC WQ MERGED:          0
LLC WQ FORWARD:         67
Major fault: 0 Minor fault: 57518
CPU 0 L1D next line prefetcher final stats
CPU 0 L2C PC-based stride prefetcher final stats
All Misses: 7566178
All Hits: 8672571
SD Algo Stats - Switches: 0 SRR-Repls: 239481 BRR-Repls: 0

DRAM Statistics
 CHANNEL 0
 RQ ROW_BUFFER_HIT:    3653654  ROW_BUFFER_MISS:    2665112
 DBUS_CONGESTED:    2828386
 WQ ROW_BUFFER_HIT:      86011  ROW_BUFFER_MISS:     758214  FULL:          0

 AVG_CONGESTED_CYCLE: 12
LOADS RETIRED: 157818985
INSTR RETIRED: 500000000
