
*** ChampSim Multicore Out-of-Order Simulator ***

Warmup Instructions: 100000000
Simulation Instructions: 500000000
Number of CPUs: 1
LLC sets: 2048
LLC ways: 16
Clean RRIP Policies: 113202201132022 Dirty RRIP Policies: 2113101221131012 PSEL Width: 10 Track Set: 4294967295 PSEL Mask: 1 Demote Mask: 421112204211122DS Algo: 0Window size: 0
Off-chip DRAM Size: 4096 MB Channels: 1 Width: 64-bit Data Rate: 1600 MT/s

CPU 0 runs /mnt/beegfs/iconst01/spec2017/Gcc.trace.gz
NOT SORTED
TRACE STRING: /mnt/beegfs/iconst01/spec2017/Gcc.trace.gz
SORTED
TRACE STRING: /mnt/beegfs/iconst01/spec2017/Gcc.trace.gz
INITIAL
TRACE STRING: /mnt/beegfs/iconst01/spec2017/Gcc.trace.gz

champsim_seed used: 269

CPU 0 L1D next line prefetcher
CPU 0 L2C IP-based stride prefetcher
Initialize DRRIP state
Assign rand_sets[0]: 454  LLC: 2048
rand_sets[0]: 454
Assign rand_sets[1]: 1662  LLC: 2048
rand_sets[1]: 1662
Assign rand_sets[2]: 1921  LLC: 2048
rand_sets[2]: 1921
Assign rand_sets[3]: 1131  LLC: 2048
rand_sets[3]: 1131
Assign rand_sets[4]: 331  LLC: 2048
rand_sets[4]: 331
Assign rand_sets[5]: 1531  LLC: 2048
rand_sets[5]: 1531
Assign rand_sets[6]: 482  LLC: 2048
rand_sets[6]: 482
Assign rand_sets[7]: 1275  LLC: 2048
rand_sets[7]: 1275
Assign rand_sets[8]: 1876  LLC: 2048
rand_sets[8]: 1876
Assign rand_sets[9]: 2038  LLC: 2048
rand_sets[9]: 2038
Assign rand_sets[10]: 701  LLC: 2048
rand_sets[10]: 701
Assign rand_sets[11]: 479  LLC: 2048
rand_sets[11]: 479
Assign rand_sets[12]: 892  LLC: 2048
rand_sets[12]: 892
Assign rand_sets[13]: 1820  LLC: 2048
rand_sets[13]: 1820
Assign rand_sets[14]: 1505  LLC: 2048
rand_sets[14]: 1505
Assign rand_sets[15]: 1159  LLC: 2048
rand_sets[15]: 1159
Assign rand_sets[16]: 513  LLC: 2048
rand_sets[16]: 513
Assign rand_sets[17]: 703  LLC: 2048
rand_sets[17]: 703
Assign rand_sets[18]: 561  LLC: 2048
rand_sets[18]: 561
Assign rand_sets[19]: 990  LLC: 2048
rand_sets[19]: 990
Assign rand_sets[20]: 342  LLC: 2048
rand_sets[20]: 342
Assign rand_sets[21]: 882  LLC: 2048
rand_sets[21]: 882
Assign rand_sets[22]: 15  LLC: 2048
rand_sets[22]: 15
Assign rand_sets[23]: 71  LLC: 2048
rand_sets[23]: 71
Assign rand_sets[24]: 1127  LLC: 2048
rand_sets[24]: 1127
Assign rand_sets[25]: 1382  LLC: 2048
rand_sets[25]: 1382
Assign rand_sets[26]: 647  LLC: 2048
rand_sets[26]: 647
Assign rand_sets[27]: 857  LLC: 2048
rand_sets[27]: 857
Assign rand_sets[28]: 1450  LLC: 2048
rand_sets[28]: 1450
Assign rand_sets[29]: 1160  LLC: 2048
rand_sets[29]: 1160
Assign rand_sets[30]: 1852  LLC: 2048
rand_sets[30]: 1852
Assign rand_sets[31]: 1881  LLC: 2048
rand_sets[31]: 1881
Assign rand_sets[32]: 1770  LLC: 2048
rand_sets[32]: 1770
Assign rand_sets[33]: 1622  LLC: 2048
rand_sets[33]: 1622
Assign rand_sets[34]: 275  LLC: 2048
rand_sets[34]: 275
Assign rand_sets[35]: 635  LLC: 2048
rand_sets[35]: 635
Assign rand_sets[36]: 466  LLC: 2048
rand_sets[36]: 466
Assign rand_sets[37]: 1413  LLC: 2048
rand_sets[37]: 1413
Assign rand_sets[38]: 417  LLC: 2048
rand_sets[38]: 417
Assign rand_sets[39]: 472  LLC: 2048
rand_sets[39]: 472
Assign rand_sets[40]: 1340  LLC: 2048
rand_sets[40]: 1340
Assign rand_sets[41]: 852  LLC: 2048
rand_sets[41]: 852
Assign rand_sets[42]: 1365  LLC: 2048
rand_sets[42]: 1365
Assign rand_sets[43]: 47  LLC: 2048
rand_sets[43]: 47
Assign rand_sets[44]: 823  LLC: 2048
rand_sets[44]: 823
Assign rand_sets[45]: 686  LLC: 2048
rand_sets[45]: 686
Assign rand_sets[46]: 1637  LLC: 2048
rand_sets[46]: 1637
Assign rand_sets[47]: 1115  LLC: 2048
rand_sets[47]: 1115
Assign rand_sets[48]: 986  LLC: 2048
rand_sets[48]: 986
Assign rand_sets[49]: 258  LLC: 2048
rand_sets[49]: 258
Assign rand_sets[50]: 633  LLC: 2048
rand_sets[50]: 633
Assign rand_sets[51]: 920  LLC: 2048
rand_sets[51]: 920
Assign rand_sets[52]: 204  LLC: 2048
rand_sets[52]: 204
Assign rand_sets[53]: 227  LLC: 2048
rand_sets[53]: 227
Assign rand_sets[54]: 1818  LLC: 2048
rand_sets[54]: 1818
Assign rand_sets[55]: 886  LLC: 2048
rand_sets[55]: 886
Assign rand_sets[56]: 1422  LLC: 2048
rand_sets[56]: 1422
Assign rand_sets[57]: 607  LLC: 2048
rand_sets[57]: 607
Assign rand_sets[58]: 217  LLC: 2048
rand_sets[58]: 217
Assign rand_sets[59]: 1945  LLC: 2048
rand_sets[59]: 1945
Assign rand_sets[60]: 143  LLC: 2048
rand_sets[60]: 143
Assign rand_sets[61]: 1311  LLC: 2048
rand_sets[61]: 1311
Assign rand_sets[62]: 319  LLC: 2048
rand_sets[62]: 319
Assign rand_sets[63]: 1846  LLC: 2048
rand_sets[63]: 1846
 CLEAN-RRIP-POLICY-1: 0-1-1-3-2-0-2-2- CLEAN-RRIP-POLICY-2: 0-1-1-3-2-0-2-2-
 DIRTY-RRIP-POLICY-1: 2-1-1-3-1-0-1-2- DIRTY-RRIP-POLICY-2: 2-1-1-3-1-0-1-2-
 PSEL width: 10
Heartbeat CPU 0 instructions: 10000001 cycles: 7315997 heartbeat IPC: 1.36687 cumulative IPC: 1.36687 (Simulation time: 0 hr 0 min 13 sec) 
Heartbeat CPU 0 instructions: 20000000 cycles: 14308792 heartbeat IPC: 1.43004 cumulative IPC: 1.39774 (Simulation time: 0 hr 0 min 27 sec) 
Heartbeat CPU 0 instructions: 30000001 cycles: 21022957 heartbeat IPC: 1.48939 cumulative IPC: 1.42701 (Simulation time: 0 hr 0 min 42 sec) 
Heartbeat CPU 0 instructions: 40000000 cycles: 27484167 heartbeat IPC: 1.5477 cumulative IPC: 1.45538 (Simulation time: 0 hr 0 min 56 sec) 
Heartbeat CPU 0 instructions: 50000001 cycles: 33585900 heartbeat IPC: 1.63888 cumulative IPC: 1.48872 (Simulation time: 0 hr 1 min 11 sec) 
Heartbeat CPU 0 instructions: 60000000 cycles: 40067307 heartbeat IPC: 1.54287 cumulative IPC: 1.49748 (Simulation time: 0 hr 1 min 25 sec) 
Heartbeat CPU 0 instructions: 70000000 cycles: 47107748 heartbeat IPC: 1.42037 cumulative IPC: 1.48596 (Simulation time: 0 hr 1 min 39 sec) 
Heartbeat CPU 0 instructions: 80000000 cycles: 54200583 heartbeat IPC: 1.40987 cumulative IPC: 1.476 (Simulation time: 0 hr 1 min 53 sec) 
Heartbeat CPU 0 instructions: 90000003 cycles: 61207459 heartbeat IPC: 1.42717 cumulative IPC: 1.47041 (Simulation time: 0 hr 2 min 6 sec) 
Heartbeat CPU 0 instructions: 100000000 cycles: 68377651 heartbeat IPC: 1.39466 cumulative IPC: 1.46247 (Simulation time: 0 hr 2 min 20 sec) 

Warmup complete CPU 0 instructions: 100000004 cycles: 68377652 (Simulation time: 0 hr 2 min 20 sec) 

Heartbeat CPU 0 instructions: 110000003 cycles: 96662288 heartbeat IPC: 0.353549 cumulative IPC: 0.353549 (Simulation time: 0 hr 2 min 45 sec) 
Heartbeat CPU 0 instructions: 120000000 cycles: 124283333 heartbeat IPC: 0.362043 cumulative IPC: 0.357745 (Simulation time: 0 hr 3 min 11 sec) 
Heartbeat CPU 0 instructions: 130000000 cycles: 149348846 heartbeat IPC: 0.398955 cumulative IPC: 0.370502 (Simulation time: 0 hr 3 min 36 sec) 
Heartbeat CPU 0 instructions: 140000000 cycles: 179606135 heartbeat IPC: 0.330499 cumulative IPC: 0.35962 (Simulation time: 0 hr 4 min 2 sec) 
Heartbeat CPU 0 instructions: 150000000 cycles: 210197502 heartbeat IPC: 0.32689 cumulative IPC: 0.35256 (Simulation time: 0 hr 4 min 27 sec) 
Heartbeat CPU 0 instructions: 160000000 cycles: 237780739 heartbeat IPC: 0.362539 cumulative IPC: 0.354185 (Simulation time: 0 hr 4 min 52 sec) 
Heartbeat CPU 0 instructions: 170000001 cycles: 265997621 heartbeat IPC: 0.354398 cumulative IPC: 0.354215 (Simulation time: 0 hr 5 min 18 sec) 
Heartbeat CPU 0 instructions: 180000000 cycles: 294819702 heartbeat IPC: 0.346956 cumulative IPC: 0.353291 (Simulation time: 0 hr 5 min 45 sec) 
Heartbeat CPU 0 instructions: 190000002 cycles: 323073985 heartbeat IPC: 0.353929 cumulative IPC: 0.353362 (Simulation time: 0 hr 6 min 10 sec) 
Heartbeat CPU 0 instructions: 200000000 cycles: 351874375 heartbeat IPC: 0.347217 cumulative IPC: 0.352738 (Simulation time: 0 hr 6 min 36 sec) 
Heartbeat CPU 0 instructions: 210000002 cycles: 379897848 heartbeat IPC: 0.356844 cumulative IPC: 0.353107 (Simulation time: 0 hr 7 min 2 sec) 
Heartbeat CPU 0 instructions: 220000000 cycles: 409650403 heartbeat IPC: 0.336106 cumulative IPC: 0.351625 (Simulation time: 0 hr 7 min 27 sec) 
Heartbeat CPU 0 instructions: 230000000 cycles: 437645716 heartbeat IPC: 0.357203 cumulative IPC: 0.352048 (Simulation time: 0 hr 7 min 52 sec) 
Heartbeat CPU 0 instructions: 240000000 cycles: 464178428 heartbeat IPC: 0.376893 cumulative IPC: 0.353713 (Simulation time: 0 hr 8 min 16 sec) 
Heartbeat CPU 0 instructions: 250000000 cycles: 494562468 heartbeat IPC: 0.32912 cumulative IPC: 0.35196 (Simulation time: 0 hr 8 min 43 sec) 
Heartbeat CPU 0 instructions: 260000000 cycles: 521786147 heartbeat IPC: 0.367327 cumulative IPC: 0.352883 (Simulation time: 0 hr 9 min 8 sec) 
Heartbeat CPU 0 instructions: 270000003 cycles: 550345724 heartbeat IPC: 0.350145 cumulative IPC: 0.35272 (Simulation time: 0 hr 9 min 34 sec) 
Heartbeat CPU 0 instructions: 280000000 cycles: 578872274 heartbeat IPC: 0.350551 cumulative IPC: 0.352599 (Simulation time: 0 hr 10 min 1 sec) 
Heartbeat CPU 0 instructions: 290000000 cycles: 607864666 heartbeat IPC: 0.344918 cumulative IPC: 0.352186 (Simulation time: 0 hr 10 min 28 sec) 
Heartbeat CPU 0 instructions: 300000000 cycles: 638255139 heartbeat IPC: 0.32905 cumulative IPC: 0.350953 (Simulation time: 0 hr 10 min 53 sec) 
Heartbeat CPU 0 instructions: 310000001 cycles: 668192431 heartbeat IPC: 0.334032 cumulative IPC: 0.350108 (Simulation time: 0 hr 11 min 19 sec) 
Heartbeat CPU 0 instructions: 320000000 cycles: 696892472 heartbeat IPC: 0.348432 cumulative IPC: 0.350032 (Simulation time: 0 hr 11 min 44 sec) 
Heartbeat CPU 0 instructions: 330000000 cycles: 725756841 heartbeat IPC: 0.346448 cumulative IPC: 0.349874 (Simulation time: 0 hr 12 min 9 sec) 
Heartbeat CPU 0 instructions: 340000000 cycles: 755643401 heartbeat IPC: 0.334599 cumulative IPC: 0.34921 (Simulation time: 0 hr 12 min 34 sec) 
Heartbeat CPU 0 instructions: 350000003 cycles: 782846191 heartbeat IPC: 0.367609 cumulative IPC: 0.34991 (Simulation time: 0 hr 12 min 59 sec) 
Heartbeat CPU 0 instructions: 360000000 cycles: 811909836 heartbeat IPC: 0.344072 cumulative IPC: 0.349682 (Simulation time: 0 hr 13 min 24 sec) 
Heartbeat CPU 0 instructions: 370000000 cycles: 841096992 heartbeat IPC: 0.342616 cumulative IPC: 0.349415 (Simulation time: 0 hr 13 min 48 sec) 
Heartbeat CPU 0 instructions: 380000000 cycles: 870754632 heartbeat IPC: 0.337181 cumulative IPC: 0.348963 (Simulation time: 0 hr 14 min 13 sec) 
Heartbeat CPU 0 instructions: 390000001 cycles: 899356538 heartbeat IPC: 0.349627 cumulative IPC: 0.348986 (Simulation time: 0 hr 14 min 37 sec) 
Heartbeat CPU 0 instructions: 400000000 cycles: 929035462 heartbeat IPC: 0.336939 cumulative IPC: 0.348571 (Simulation time: 0 hr 15 min 2 sec) 
Heartbeat CPU 0 instructions: 410000001 cycles: 957285741 heartbeat IPC: 0.353979 cumulative IPC: 0.348742 (Simulation time: 0 hr 15 min 26 sec) 
Heartbeat CPU 0 instructions: 420000000 cycles: 985528724 heartbeat IPC: 0.35407 cumulative IPC: 0.348907 (Simulation time: 0 hr 15 min 50 sec) 
Heartbeat CPU 0 instructions: 430000002 cycles: 1014223624 heartbeat IPC: 0.348494 cumulative IPC: 0.348894 (Simulation time: 0 hr 16 min 15 sec) 
Heartbeat CPU 0 instructions: 440000000 cycles: 1044608781 heartbeat IPC: 0.329108 cumulative IPC: 0.348278 (Simulation time: 0 hr 16 min 39 sec) 
Heartbeat CPU 0 instructions: 450000002 cycles: 1074822126 heartbeat IPC: 0.33098 cumulative IPC: 0.347759 (Simulation time: 0 hr 17 min 4 sec) 
Heartbeat CPU 0 instructions: 460000000 cycles: 1103367043 heartbeat IPC: 0.350325 cumulative IPC: 0.34783 (Simulation time: 0 hr 17 min 28 sec) 
Heartbeat CPU 0 instructions: 470000000 cycles: 1131839899 heartbeat IPC: 0.351212 cumulative IPC: 0.34792 (Simulation time: 0 hr 17 min 52 sec) 
Heartbeat CPU 0 instructions: 480000000 cycles: 1160527408 heartbeat IPC: 0.348584 cumulative IPC: 0.347938 (Simulation time: 0 hr 18 min 17 sec) 
Heartbeat CPU 0 instructions: 490000000 cycles: 1188908847 heartbeat IPC: 0.352343 cumulative IPC: 0.348049 (Simulation time: 0 hr 18 min 41 sec) 
Heartbeat CPU 0 instructions: 500000000 cycles: 1217887106 heartbeat IPC: 0.345086 cumulative IPC: 0.347975 (Simulation time: 0 hr 19 min 5 sec) 
Heartbeat CPU 0 instructions: 510000000 cycles: 1252605554 heartbeat IPC: 0.288031 cumulative IPC: 0.346217 (Simulation time: 0 hr 19 min 33 sec) 
Heartbeat CPU 0 instructions: 520000000 cycles: 1280521031 heartbeat IPC: 0.358224 cumulative IPC: 0.346494 (Simulation time: 0 hr 19 min 58 sec) 
Heartbeat CPU 0 instructions: 530000001 cycles: 1310509708 heartbeat IPC: 0.333459 cumulative IPC: 0.346179 (Simulation time: 0 hr 20 min 23 sec) 
Heartbeat CPU 0 instructions: 540000000 cycles: 1339233784 heartbeat IPC: 0.34814 cumulative IPC: 0.346223 (Simulation time: 0 hr 20 min 48 sec) 
Heartbeat CPU 0 instructions: 550000001 cycles: 1368745139 heartbeat IPC: 0.338853 cumulative IPC: 0.346056 (Simulation time: 0 hr 21 min 15 sec) 
Heartbeat CPU 0 instructions: 560000000 cycles: 1394307968 heartbeat IPC: 0.391193 cumulative IPC: 0.346926 (Simulation time: 0 hr 21 min 39 sec) 
Heartbeat CPU 0 instructions: 570000000 cycles: 1424306473 heartbeat IPC: 0.33335 cumulative IPC: 0.346626 (Simulation time: 0 hr 22 min 5 sec) 
Heartbeat CPU 0 instructions: 580000000 cycles: 1452783708 heartbeat IPC: 0.351158 cumulative IPC: 0.346719 (Simulation time: 0 hr 22 min 30 sec) 
Heartbeat CPU 0 instructions: 590000001 cycles: 1478070068 heartbeat IPC: 0.39547 cumulative IPC: 0.347594 (Simulation time: 0 hr 22 min 54 sec) 
Heartbeat CPU 0 instructions: 600000000 cycles: 1505379873 heartbeat IPC: 0.366169 cumulative IPC: 0.347947 (Simulation time: 0 hr 23 min 19 sec) 
Finished CPU 0 instructions: 500000000 cycles: 1437002243 cumulative IPC: 0.347947 (Simulation time: 0 hr 23 min 19 sec) 

CPU 0 Branch Prediction Accuracy: 86.4311% MPKI: 26.2662
Number of Branches: 96788573 Number of Mispredictions: 13133102
Number of LOAD Instructions: 164682285
Number of LOAD Instructions (ROI): 164682285
Number of STORE Instructions: 78194750
Number of STORE Instructions (ROI): 78194750
Total Destination Memory Operands: 83268534
Total Destination Memory Operands (ROI): 83268534
Total Source Memory Operands: 164712438
Total Source Memory Operands (ROI): 164712438
Number of DEPENDED LOADS: 7065554
Number of DEPENDED LOADS (ROI): 7065554
Number of SQ_ADDED: 83268522
Number of SQ_ADDED (ROI): 83268522
Number of LQ_ADDED: 236792509
Number of LQ_ADDED (ROI): 236792509
Number of Instructions read from trace: 600000066

ChampSim completed all CPUs

Region of Interest Statistics

CPU 0 cumulative IPC: 0.347947 instructions: 500000000 cycles: 1437002243
ITLB TOTAL     ACCESS:  100509116  HIT:  100304670  MISS:     204446
ITLB LOAD      ACCESS:  100509116  HIT:  100304670  MISS:     204446
ITLB RFO       ACCESS:          0  HIT:          0  MISS:          0
ITLB PREFETCH  ACCESS:          0  HIT:          0  MISS:          0
ITLB WRITEBACK ACCESS:          0  HIT:          0  MISS:          0
ITLB PREFETCH  REQUESTED:          0  ISSUED:          0  USEFUL:          0  USELESS:          0
ITLB TOTAL MSHR MERGED:     172422
ITLB LOAD MSHR MERGED:     172422
ITLB RFO MSHR MERGED:          0
ITLB PREFETCH MSHR MERGED:          0
ITLB WRITEBACK MSHR MERGED:          0
ITLB TOTAL ACCESSES:  100681538 HITS:  100304670 MISSES:     376868
ITLB LOAD ACCESSES:  100681538 HITS:  100304670 MISSES:     376868
ITLB RFO ACCESSES:          0 HITS:          0 MISSES:          0
ITLB PREFETCH ACCESSES:          0 HITS:          0 MISSES:          0
ITLB WRITEBACK ACCESSES:          0 HITS:          0 MISSES:          0
ITLB RQ ACCESS:  500000057
ITLB RQ TO_CACHE:  100681538
ITLB RQ MERGED:  399318519
ITLB RQ FORWARD:          0
ITLB WQ ACCESS:          0
ITLB WQ TO_CACHE:          0
ITLB WQ MERGED:          0
ITLB WQ FORWARD:          0
DTLB TOTAL     ACCESS:  165335611  HIT:  164701263  MISS:     634348
DTLB LOAD      ACCESS:  106289212  HIT:  105719249  MISS:     569963
DTLB RFO       ACCESS:   59046399  HIT:   58982014  MISS:      64385
DTLB PREFETCH  ACCESS:          0  HIT:          0  MISS:          0
DTLB WRITEBACK ACCESS:          0  HIT:          0  MISS:          0
DTLB PREFETCH  REQUESTED:          0  ISSUED:          0  USEFUL:          0  USELESS:          0
DTLB TOTAL MSHR MERGED:      99787
DTLB LOAD MSHR MERGED:      59280
DTLB RFO MSHR MERGED:      40507
DTLB PREFETCH MSHR MERGED:          0
DTLB WRITEBACK MSHR MERGED:          0
DTLB TOTAL ACCESSES:  165435398 HITS:  164701263 MISSES:     734135
DTLB LOAD ACCESSES:  106348492 HITS:  105719249 MISSES:     629243
DTLB RFO ACCESSES:   59086906 HITS:   58982014 MISSES:     104892
DTLB PREFETCH ACCESSES:          0 HITS:          0 MISSES:          0
DTLB WRITEBACK ACCESSES:          0 HITS:          0 MISSES:          0
DTLB RQ ACCESS:  200305380
DTLB RQ TO_CACHE:  165435398
DTLB RQ MERGED:   34869982
DTLB RQ FORWARD:          0
DTLB WQ ACCESS:          0
DTLB WQ TO_CACHE:          0
DTLB WQ MERGED:          0
DTLB WQ FORWARD:          0
L1D TOTAL     ACCESS:  281790948  HIT:  273881693  MISS:    7909255
L1D LOAD      ACCESS:  110410628  HIT:  107130450  MISS:    3280178
L1D RFO       ACCESS:   67098863  HIT:   66207193  MISS:     891670
L1D PREFETCH  ACCESS:  104281457  HIT:  100544050  MISS:    3737407
L1D WRITEBACK ACCESS:          0  HIT:          0  MISS:          0
L1D PREFETCH  REQUESTED:  110817702  ISSUED:  109118432  USEFUL:    1658249  USELESS:    2079122
L1D TOTAL MSHR MERGED:    2916668
L1D LOAD MSHR MERGED:     507013
L1D RFO MSHR MERGED:    1887343
L1D PREFETCH MSHR MERGED:     522312
L1D WRITEBACK MSHR MERGED:          0
L1D TOTAL ACCESSES:  284735297 HITS:  273909374 MISSES:   10825923
L1D LOAD ACCESSES:  110819399 HITS:  107132147 MISSES:    3687252
L1D RFO ACCESSES:   68973359 HITS:   66207193 MISSES:    2766166
L1D PREFETCH ACCESSES:  104942539 HITS:  100570034 MISSES:    4372505
L1D WRITEBACK ACCESSES:          0 HITS:          0 MISSES:          0
L1D RQ ACCESS:  130752777
L1D RQ TO_CACHE:  110817705
L1D RQ MERGED:   19933375
L1D RQ FORWARD:          0
L1D WQ ACCESS:   69552603
L1D WQ TO_CACHE:   68973360
L1D WQ MERGED:     579243
L1D WQ FORWARD:      27681
L1I TOTAL     ACCESS:  126555514  HIT:  122316972  MISS:    4238542
L1I LOAD      ACCESS:  126555514  HIT:  122316972  MISS:    4238542
L1I RFO       ACCESS:          0  HIT:          0  MISS:          0
L1I PREFETCH  ACCESS:          0  HIT:          0  MISS:          0
L1I WRITEBACK ACCESS:          0  HIT:          0  MISS:          0
L1I PREFETCH  REQUESTED:          0  ISSUED:          0  USEFUL:          0  USELESS:          0
L1I TOTAL MSHR MERGED:    1835767
L1I LOAD MSHR MERGED:    1835767
L1I RFO MSHR MERGED:          0
L1I PREFETCH MSHR MERGED:          0
L1I WRITEBACK MSHR MERGED:          0
L1I TOTAL ACCESSES:  128391284 HITS:  122316972 MISSES:    6074312
L1I LOAD ACCESSES:  128391284 HITS:  122316972 MISSES:    6074312
L1I RFO ACCESSES:          0 HITS:          0 MISSES:          0
L1I PREFETCH ACCESSES:          0 HITS:          0 MISSES:          0
L1I WRITEBACK ACCESSES:          0 HITS:          0 MISSES:          0
L1I RQ ACCESS:  500000057
L1I RQ TO_CACHE:  128391284
L1I RQ MERGED:  371608773
L1I RQ FORWARD:          0
L1I WQ ACCESS:          0
L1I WQ TO_CACHE:          0
L1I WQ MERGED:          0
L1I WQ FORWARD:          0
L2C TOTAL     ACCESS:   14903733  HIT:   11157372  MISS:    3746361
L2C LOAD      ACCESS:    7418577  HIT:    5098326  MISS:    2320251
L2C RFO       ACCESS:     878721  HIT:     409942  MISS:     468779
L2C PREFETCH  ACCESS:    4567214  HIT:    3627148  MISS:     940066
L2C WRITEBACK ACCESS:    2039221  HIT:    2021956  MISS:      17265
L2C PREFETCH  REQUESTED:     842703  ISSUED:     842703  USEFUL:     203002  USELESS:     736770
L2C TOTAL MSHR MERGED:       8363
L2C LOAD MSHR MERGED:       1166
L2C RFO MSHR MERGED:          0
L2C PREFETCH MSHR MERGED:       7197
L2C WRITEBACK MSHR MERGED:          0
L2C TOTAL ACCESSES:   14913025 HITS:   11157822 MISSES:    3755203
L2C LOAD ACCESSES:    7418781 HITS:    5098530 MISSES:    2320251
L2C RFO ACCESSES:     878823 HITS:     410044 MISSES:     468779
L2C PREFETCH ACCESSES:    4576200 HITS:    3627292 MISSES:     948908
L2C WRITEBACK ACCESSES:    2039221 HITS:    2021956 MISSES:      17265
L2C RQ ACCESS:    8297607
L2C RQ TO_CACHE:    8297301
L2C RQ MERGED:          0
L2C RQ FORWARD:          0
L2C WQ ACCESS:    2039221
L2C WQ TO_CACHE:    2039221
L2C WQ MERGED:          0
L2C WQ FORWARD:        450
LLC TOTAL     ACCESS:    4609675  HIT:    3643416  MISS:     966259
LLC LOAD      ACCESS:    2319071  HIT:    1881419  MISS:     437652
LLC RFO       ACCESS:     468769  HIT:     361963  MISS:     106806
LLC PREFETCH  ACCESS:     941585  HIT:     594343  MISS:     347242
LLC WRITEBACK ACCESS:     880250  HIT:     805691  MISS:      74559
LLC PREFETCH  REQUESTED:          0  ISSUED:          0  USEFUL:      17028  USELESS:     330308
LLC TOTAL MSHR MERGED:        109
LLC LOAD MSHR MERGED:         33
LLC RFO MSHR MERGED:          0
LLC PREFETCH MSHR MERGED:         76
LLC WRITEBACK MSHR MERGED:          0
LLC TOTAL ACCESSES:    4609818 HITS:    3643450 MISSES:     966368
LLC LOAD ACCESSES:    2319085 HITS:    1881433 MISSES:     437652
LLC RFO ACCESSES:     468779 HITS:     361973 MISSES:     106806
LLC PREFETCH ACCESSES:     941704 HITS:     594353 MISSES:     347351
LLC WRITEBACK ACCESSES:     880250 HITS:     805691 MISSES:      74559
LLC 0 RQ ACCESS:    2787864
LLC 0 RQ TO_CACHE:    2787840
LLC 0 RQ MERGED:          0
LLC 0 RQ FORWARD:          0
LLC WQ ACCESS:     880250
LLC WQ TO_CACHE:     880250
LLC WQ MERGED:          0
LLC WQ FORWARD:         34
Major fault: 0 Minor fault: 12862
CPU 0 L1D next line prefetcher final stats
CPU 0 L2C PC-based stride prefetcher final stats
All Misses: 1121368
All Hits: 4305313
SD Algo Stats - Switches: 5 SRR-Repls: 253826 BRR-Repls: 249475

DRAM Statistics
 CHANNEL 0
 RQ ROW_BUFFER_HIT:     168954  ROW_BUFFER_MISS:     719744
 DBUS_CONGESTED:     447655
 WQ ROW_BUFFER_HIT:      19167  ROW_BUFFER_MISS:     234560  FULL:          0

 AVG_CONGESTED_CYCLE: 13
LOADS RETIRED: 136549171
INSTR RETIRED: 500000000
