
*** ChampSim Multicore Out-of-Order Simulator ***

Warmup Instructions: 100000000
Simulation Instructions: 100000000
Number of CPUs: 1
LLC sets: 2048
LLC ways: 16
Clean RRIP Policies: 2223172222231722 Dirty RRIP Policies: 1223070212230702 PSEL Width: 10 Track Set: 4294967295 PSEL Mask: 1 Demote Mask: 401214304012143DS Algo: 0Window size: 0
Off-chip DRAM Size: 4096 MB Channels: 1 Width: 64-bit Data Rate: 1600 MT/s

CPU 0 runs /mnt/beegfs/iconst01/spec2017/Xalancbmk.trace.gz
NOT SORTED
TRACE STRING: /mnt/beegfs/iconst01/spec2017/Xalancbmk.trace.gz
SORTED
TRACE STRING: /mnt/beegfs/iconst01/spec2017/Xalancbmk.trace.gz
INITIAL
TRACE STRING: /mnt/beegfs/iconst01/spec2017/Xalancbmk.trace.gz

champsim_seed used: 913

CPU 0 L1D next line prefetcher
CPU 0 L2C IP-based stride prefetcher
Initialize DRRIP state
Assign rand_sets[0]: 454  LLC: 2048
rand_sets[0]: 454
Assign rand_sets[1]: 1662  LLC: 2048
rand_sets[1]: 1662
Assign rand_sets[2]: 1921  LLC: 2048
rand_sets[2]: 1921
Assign rand_sets[3]: 1131  LLC: 2048
rand_sets[3]: 1131
Assign rand_sets[4]: 331  LLC: 2048
rand_sets[4]: 331
Assign rand_sets[5]: 1531  LLC: 2048
rand_sets[5]: 1531
Assign rand_sets[6]: 482  LLC: 2048
rand_sets[6]: 482
Assign rand_sets[7]: 1275  LLC: 2048
rand_sets[7]: 1275
Assign rand_sets[8]: 1876  LLC: 2048
rand_sets[8]: 1876
Assign rand_sets[9]: 2038  LLC: 2048
rand_sets[9]: 2038
Assign rand_sets[10]: 701  LLC: 2048
rand_sets[10]: 701
Assign rand_sets[11]: 479  LLC: 2048
rand_sets[11]: 479
Assign rand_sets[12]: 892  LLC: 2048
rand_sets[12]: 892
Assign rand_sets[13]: 1820  LLC: 2048
rand_sets[13]: 1820
Assign rand_sets[14]: 1505  LLC: 2048
rand_sets[14]: 1505
Assign rand_sets[15]: 1159  LLC: 2048
rand_sets[15]: 1159
Assign rand_sets[16]: 513  LLC: 2048
rand_sets[16]: 513
Assign rand_sets[17]: 703  LLC: 2048
rand_sets[17]: 703
Assign rand_sets[18]: 561  LLC: 2048
rand_sets[18]: 561
Assign rand_sets[19]: 990  LLC: 2048
rand_sets[19]: 990
Assign rand_sets[20]: 342  LLC: 2048
rand_sets[20]: 342
Assign rand_sets[21]: 882  LLC: 2048
rand_sets[21]: 882
Assign rand_sets[22]: 15  LLC: 2048
rand_sets[22]: 15
Assign rand_sets[23]: 71  LLC: 2048
rand_sets[23]: 71
Assign rand_sets[24]: 1127  LLC: 2048
rand_sets[24]: 1127
Assign rand_sets[25]: 1382  LLC: 2048
rand_sets[25]: 1382
Assign rand_sets[26]: 647  LLC: 2048
rand_sets[26]: 647
Assign rand_sets[27]: 857  LLC: 2048
rand_sets[27]: 857
Assign rand_sets[28]: 1450  LLC: 2048
rand_sets[28]: 1450
Assign rand_sets[29]: 1160  LLC: 2048
rand_sets[29]: 1160
Assign rand_sets[30]: 1852  LLC: 2048
rand_sets[30]: 1852
Assign rand_sets[31]: 1881  LLC: 2048
rand_sets[31]: 1881
Assign rand_sets[32]: 1770  LLC: 2048
rand_sets[32]: 1770
Assign rand_sets[33]: 1622  LLC: 2048
rand_sets[33]: 1622
Assign rand_sets[34]: 275  LLC: 2048
rand_sets[34]: 275
Assign rand_sets[35]: 635  LLC: 2048
rand_sets[35]: 635
Assign rand_sets[36]: 466  LLC: 2048
rand_sets[36]: 466
Assign rand_sets[37]: 1413  LLC: 2048
rand_sets[37]: 1413
Assign rand_sets[38]: 417  LLC: 2048
rand_sets[38]: 417
Assign rand_sets[39]: 472  LLC: 2048
rand_sets[39]: 472
Assign rand_sets[40]: 1340  LLC: 2048
rand_sets[40]: 1340
Assign rand_sets[41]: 852  LLC: 2048
rand_sets[41]: 852
Assign rand_sets[42]: 1365  LLC: 2048
rand_sets[42]: 1365
Assign rand_sets[43]: 47  LLC: 2048
rand_sets[43]: 47
Assign rand_sets[44]: 823  LLC: 2048
rand_sets[44]: 823
Assign rand_sets[45]: 686  LLC: 2048
rand_sets[45]: 686
Assign rand_sets[46]: 1637  LLC: 2048
rand_sets[46]: 1637
Assign rand_sets[47]: 1115  LLC: 2048
rand_sets[47]: 1115
Assign rand_sets[48]: 986  LLC: 2048
rand_sets[48]: 986
Assign rand_sets[49]: 258  LLC: 2048
rand_sets[49]: 258
Assign rand_sets[50]: 633  LLC: 2048
rand_sets[50]: 633
Assign rand_sets[51]: 920  LLC: 2048
rand_sets[51]: 920
Assign rand_sets[52]: 204  LLC: 2048
rand_sets[52]: 204
Assign rand_sets[53]: 227  LLC: 2048
rand_sets[53]: 227
Assign rand_sets[54]: 1818  LLC: 2048
rand_sets[54]: 1818
Assign rand_sets[55]: 886  LLC: 2048
rand_sets[55]: 886
Assign rand_sets[56]: 1422  LLC: 2048
rand_sets[56]: 1422
Assign rand_sets[57]: 607  LLC: 2048
rand_sets[57]: 607
Assign rand_sets[58]: 217  LLC: 2048
rand_sets[58]: 217
Assign rand_sets[59]: 1945  LLC: 2048
rand_sets[59]: 1945
Assign rand_sets[60]: 143  LLC: 2048
rand_sets[60]: 143
Assign rand_sets[61]: 1311  LLC: 2048
rand_sets[61]: 1311
Assign rand_sets[62]: 319  LLC: 2048
rand_sets[62]: 319
Assign rand_sets[63]: 1846  LLC: 2048
rand_sets[63]: 1846
 CLEAN-RRIP-POLICY-1: 2-2-2-3-1-7-2-2- CLEAN-RRIP-POLICY-2: 2-2-2-3-1-7-2-2-
 DIRTY-RRIP-POLICY-1: 1-2-2-3-0-7-0-2- DIRTY-RRIP-POLICY-2: 1-2-2-3-0-7-0-2-
 PSEL width: 10
Heartbeat CPU 0 instructions: 10000003 cycles: 4588483 heartbeat IPC: 2.17937 cumulative IPC: 2.17937 (Simulation time: 0 hr 0 min 15 sec) 
Heartbeat CPU 0 instructions: 20000000 cycles: 9009992 heartbeat IPC: 2.26167 cumulative IPC: 2.21976 (Simulation time: 0 hr 0 min 29 sec) 
Heartbeat CPU 0 instructions: 30000000 cycles: 13442547 heartbeat IPC: 2.25604 cumulative IPC: 2.23172 (Simulation time: 0 hr 0 min 43 sec) 
Heartbeat CPU 0 instructions: 40000000 cycles: 18056935 heartbeat IPC: 2.16713 cumulative IPC: 2.21522 (Simulation time: 0 hr 0 min 59 sec) 
Heartbeat CPU 0 instructions: 50000002 cycles: 22492725 heartbeat IPC: 2.25439 cumulative IPC: 2.22294 (Simulation time: 0 hr 1 min 13 sec) 
Heartbeat CPU 0 instructions: 60000000 cycles: 27138701 heartbeat IPC: 2.1524 cumulative IPC: 2.21086 (Simulation time: 0 hr 1 min 28 sec) 
Heartbeat CPU 0 instructions: 70000003 cycles: 31560764 heartbeat IPC: 2.26139 cumulative IPC: 2.21794 (Simulation time: 0 hr 1 min 42 sec) 
Heartbeat CPU 0 instructions: 80000000 cycles: 36004542 heartbeat IPC: 2.25034 cumulative IPC: 2.22194 (Simulation time: 0 hr 1 min 56 sec) 
Heartbeat CPU 0 instructions: 90000002 cycles: 40480585 heartbeat IPC: 2.23412 cumulative IPC: 2.22329 (Simulation time: 0 hr 2 min 11 sec) 
Heartbeat CPU 0 instructions: 100000000 cycles: 44969392 heartbeat IPC: 2.22776 cumulative IPC: 2.22373 (Simulation time: 0 hr 2 min 25 sec) 

Warmup complete CPU 0 instructions: 100000003 cycles: 44969393 (Simulation time: 0 hr 2 min 25 sec) 

Heartbeat CPU 0 instructions: 110000000 cycles: 69905168 heartbeat IPC: 0.40103 cumulative IPC: 0.40103 (Simulation time: 0 hr 2 min 55 sec) 
Heartbeat CPU 0 instructions: 120000000 cycles: 97662565 heartbeat IPC: 0.360264 cumulative IPC: 0.379556 (Simulation time: 0 hr 3 min 26 sec) 
Heartbeat CPU 0 instructions: 130000000 cycles: 120306580 heartbeat IPC: 0.441618 cumulative IPC: 0.39821 (Simulation time: 0 hr 3 min 54 sec) 
Heartbeat CPU 0 instructions: 140000000 cycles: 142255395 heartbeat IPC: 0.455605 cumulative IPC: 0.411159 (Simulation time: 0 hr 4 min 22 sec) 
Heartbeat CPU 0 instructions: 150000000 cycles: 165227628 heartbeat IPC: 0.435308 cumulative IPC: 0.415772 (Simulation time: 0 hr 4 min 50 sec) 
Heartbeat CPU 0 instructions: 160000000 cycles: 188830951 heartbeat IPC: 0.423669 cumulative IPC: 0.417068 (Simulation time: 0 hr 5 min 18 sec) 
Heartbeat CPU 0 instructions: 170000002 cycles: 210309298 heartbeat IPC: 0.465585 cumulative IPC: 0.42337 (Simulation time: 0 hr 5 min 45 sec) 
Heartbeat CPU 0 instructions: 180000000 cycles: 231980768 heartbeat IPC: 0.461436 cumulative IPC: 0.427781 (Simulation time: 0 hr 6 min 12 sec) 
Heartbeat CPU 0 instructions: 190000000 cycles: 251995264 heartbeat IPC: 0.499638 cumulative IPC: 0.434728 (Simulation time: 0 hr 6 min 38 sec) 
Heartbeat CPU 0 instructions: 200000000 cycles: 272948190 heartbeat IPC: 0.47726 cumulative IPC: 0.438637 (Simulation time: 0 hr 7 min 5 sec) 
Finished CPU 0 instructions: 100000002 cycles: 227978807 cumulative IPC: 0.438637 (Simulation time: 0 hr 7 min 5 sec) 

CPU 0 Branch Prediction Accuracy: 99.5409% MPKI: 1.33464
Number of Branches: 29071694 Number of Mispredictions: 133464
Number of LOAD Instructions: 62953883
Number of LOAD Instructions (ROI): 62953883
Number of STORE Instructions: 2304532
Number of STORE Instructions (ROI): 2304532
Total Destination Memory Operands: 3186145
Total Destination Memory Operands (ROI): 3186145
Total Source Memory Operands: 62953883
Total Source Memory Operands (ROI): 62953883
Number of DEPENDED LOADS: 87842
Number of DEPENDED LOADS (ROI): 87842
Number of SQ_ADDED: 3186143
Number of SQ_ADDED (ROI): 3186143
Number of LQ_ADDED: 65773453
Number of LQ_ADDED (ROI): 65773453
Number of Instructions read from trace: 200000258

ChampSim completed all CPUs

Region of Interest Statistics

CPU 0 cumulative IPC: 0.438637 instructions: 100000002 cycles: 227978807
ITLB TOTAL     ACCESS:   29397027  HIT:   29388733  MISS:       8294
ITLB LOAD      ACCESS:   29397027  HIT:   29388733  MISS:       8294
ITLB RFO       ACCESS:          0  HIT:          0  MISS:          0
ITLB PREFETCH  ACCESS:          0  HIT:          0  MISS:          0
ITLB WRITEBACK ACCESS:          0  HIT:          0  MISS:          0
ITLB PREFETCH  REQUESTED:          0  ISSUED:          0  USEFUL:          0  USELESS:          0
ITLB TOTAL MSHR MERGED:      12017
ITLB LOAD MSHR MERGED:      12017
ITLB RFO MSHR MERGED:          0
ITLB PREFETCH MSHR MERGED:          0
ITLB WRITEBACK MSHR MERGED:          0
ITLB TOTAL ACCESSES:   29409044 HITS:   29388733 MISSES:      20311
ITLB LOAD ACCESSES:   29409044 HITS:   29388733 MISSES:      20311
ITLB RFO ACCESSES:          0 HITS:          0 MISSES:          0
ITLB PREFETCH ACCESSES:          0 HITS:          0 MISSES:          0
ITLB WRITEBACK ACCESSES:          0 HITS:          0 MISSES:          0
ITLB RQ ACCESS:  100000002
ITLB RQ TO_CACHE:   29409044
ITLB RQ MERGED:   70590958
ITLB RQ FORWARD:          0
ITLB WQ ACCESS:          0
ITLB WQ TO_CACHE:          0
ITLB WQ MERGED:          0
ITLB WQ FORWARD:          0
DTLB TOTAL     ACCESS:   27048075  HIT:   26808394  MISS:     239681
DTLB LOAD      ACCESS:   25378895  HIT:   25140996  MISS:     237899
DTLB RFO       ACCESS:    1669180  HIT:    1667398  MISS:       1782
DTLB PREFETCH  ACCESS:          0  HIT:          0  MISS:          0
DTLB WRITEBACK ACCESS:          0  HIT:          0  MISS:          0
DTLB PREFETCH  REQUESTED:          0  ISSUED:          0  USEFUL:          0  USELESS:          0
DTLB TOTAL MSHR MERGED:     119864
DTLB LOAD MSHR MERGED:     118988
DTLB RFO MSHR MERGED:        876
DTLB PREFETCH MSHR MERGED:          0
DTLB WRITEBACK MSHR MERGED:          0
DTLB TOTAL ACCESSES:   27167939 HITS:   26808394 MISSES:     359545
DTLB LOAD ACCESSES:   25497883 HITS:   25140996 MISSES:     356887
DTLB RFO ACCESSES:    1670056 HITS:    1667398 MISSES:       2658
DTLB PREFETCH ACCESSES:          0 HITS:          0 MISSES:          0
DTLB WRITEBACK ACCESSES:          0 HITS:          0 MISSES:          0
DTLB RQ ACCESS:   33213909
DTLB RQ TO_CACHE:   27167939
DTLB RQ MERGED:    6045970
DTLB RQ FORWARD:          0
DTLB WQ ACCESS:          0
DTLB WQ TO_CACHE:          0
DTLB WQ MERGED:          0
DTLB WQ FORWARD:          0
L1D TOTAL     ACCESS:   31690153  HIT:   28188904  MISS:    3501249
L1D LOAD      ACCESS:   18090967  HIT:   15840071  MISS:    2250896
L1D RFO       ACCESS:    1766100  HIT:    1747782  MISS:      18318
L1D PREFETCH  ACCESS:   11833086  HIT:   10601051  MISS:    1232035
L1D WRITEBACK ACCESS:          0  HIT:          0  MISS:          0
L1D PREFETCH  REQUESTED:   18811758  ISSUED:   18636384  USEFUL:     393246  USELESS:     838790
L1D TOTAL MSHR MERGED:    2970459
L1D LOAD MSHR MERGED:    1393001
L1D RFO MSHR MERGED:      26790
L1D PREFETCH MSHR MERGED:    1550668
L1D WRITEBACK MSHR MERGED:          0
L1D TOTAL ACCESSES:   34660637 HITS:   28188928 MISSES:    6471709
L1D LOAD ACCESSES:   18811760 HITS:   15840073 MISSES:    2971687
L1D RFO ACCESSES:    1792564 HITS:    1747782 MISSES:      44782
L1D PREFETCH ACCESSES:   14056313 HITS:   10601073 MISSES:    3455240
L1D WRITEBACK ACCESSES:          0 HITS:          0 MISSES:          0
L1D RQ ACCESS:   31417845
L1D RQ TO_CACHE:   18811760
L1D RQ MERGED:   12606083
L1D RQ FORWARD:          0
L1D WQ ACCESS:    1796066
L1D WQ TO_CACHE:    1792564
L1D WQ MERGED:       3502
L1D WQ FORWARD:         24
L1I TOTAL     ACCESS:   36013404  HIT:   35873591  MISS:     139813
L1I LOAD      ACCESS:   36013404  HIT:   35873591  MISS:     139813
L1I RFO       ACCESS:          0  HIT:          0  MISS:          0
L1I PREFETCH  ACCESS:          0  HIT:          0  MISS:          0
L1I WRITEBACK ACCESS:          0  HIT:          0  MISS:          0
L1I PREFETCH  REQUESTED:          0  ISSUED:          0  USEFUL:          0  USELESS:          0
L1I TOTAL MSHR MERGED:     128620
L1I LOAD MSHR MERGED:     128620
L1I RFO MSHR MERGED:          0
L1I PREFETCH MSHR MERGED:          0
L1I WRITEBACK MSHR MERGED:          0
L1I TOTAL ACCESSES:   36142024 HITS:   35873591 MISSES:     268433
L1I LOAD ACCESSES:   36142024 HITS:   35873591 MISSES:     268433
L1I RFO ACCESSES:          0 HITS:          0 MISSES:          0
L1I PREFETCH ACCESSES:          0 HITS:          0 MISSES:          0
L1I WRITEBACK ACCESSES:          0 HITS:          0 MISSES:          0
L1I RQ ACCESS:  100000003
L1I RQ TO_CACHE:   36142024
L1I RQ MERGED:   63857979
L1I RQ FORWARD:          0
L1I WQ ACCESS:          0
L1I WQ TO_CACHE:          0
L1I WQ MERGED:          0
L1I WQ FORWARD:          0
L2C TOTAL     ACCESS:    3889633  HIT:     423048  MISS:    3466585
L2C LOAD      ACCESS:    1718469  HIT:     201105  MISS:    1517364
L2C RFO       ACCESS:      17984  HIT:      11749  MISS:       6235
L2C PREFETCH  ACCESS:    2093689  HIT:     151230  MISS:    1942459
L2C WRITEBACK ACCESS:      59491  HIT:      58964  MISS:        527
L2C PREFETCH  REQUESTED:     190205  ISSUED:     190205  USEFUL:      51779  USELESS:    1890330
L2C TOTAL MSHR MERGED:        281
L2C LOAD MSHR MERGED:         67
L2C RFO MSHR MERGED:          0
L2C PREFETCH MSHR MERGED:        214
L2C WRITEBACK MSHR MERGED:          0
L2C TOTAL ACCESSES:    3890529 HITS:     423100 MISSES:    3467429
L2C LOAD ACCESSES:    1718499 HITS:     201135 MISSES:    1517364
L2C RFO ACCESSES:      17992 HITS:      11757 MISSES:       6235
L2C PREFETCH ACCESSES:    2094547 HITS:     151244 MISSES:    1943303
L2C WRITEBACK ACCESSES:      59491 HITS:      58964 MISSES:        527
L2C RQ ACCESS:    1736491
L2C RQ TO_CACHE:    1736453
L2C RQ MERGED:          0
L2C RQ FORWARD:          0
L2C WQ ACCESS:      59491
L2C WQ TO_CACHE:      59491
L2C WQ MERGED:          0
L2C WQ FORWARD:         52
LLC TOTAL     ACCESS:    3487330  HIT:    1127593  MISS:    2359737
LLC LOAD      ACCESS:    1517297  HIT:     921637  MISS:     595660
LLC RFO       ACCESS:       6235  HIT:       3905  MISS:       2330
LLC PREFETCH  ACCESS:    1943085  HIT:     188028  MISS:    1755057
LLC WRITEBACK ACCESS:      20713  HIT:      14023  MISS:       6690
LLC PREFETCH  REQUESTED:          0  ISSUED:          0  USEFUL:        170  USELESS:    1754473
LLC TOTAL MSHR MERGED:          4
LLC LOAD MSHR MERGED:          0
LLC RFO MSHR MERGED:          0
LLC PREFETCH MSHR MERGED:          4
LLC WRITEBACK MSHR MERGED:          0
LLC TOTAL ACCESSES:    3487334 HITS:    1127593 MISSES:    2359741
LLC LOAD ACCESSES:    1517297 HITS:     921637 MISSES:     595660
LLC RFO ACCESSES:       6235 HITS:       3905 MISSES:       2330
LLC PREFETCH ACCESSES:    1943089 HITS:     188028 MISSES:    1755061
LLC WRITEBACK ACCESSES:      20713 HITS:      14023 MISSES:       6690
LLC 0 RQ ACCESS:    1523532
LLC 0 RQ TO_CACHE:    1523532
LLC 0 RQ MERGED:          0
LLC 0 RQ FORWARD:          0
LLC WQ ACCESS:      20713
LLC WQ TO_CACHE:      20713
LLC WQ MERGED:          0
LLC WQ FORWARD:          0
Major fault: 0 Minor fault: 5799
CPU 0 L1D next line prefetcher final stats
CPU 0 L2C PC-based stride prefetcher final stats
All Misses: 4722629
All Hits: 1983872
SD Algo Stats - Switches: 0 SRR-Repls: 1036001 BRR-Repls: 0

DRAM Statistics
 CHANNEL 0
 RQ ROW_BUFFER_HIT:    1723301  ROW_BUFFER_MISS:     628527
 DBUS_CONGESTED:    1051600
 WQ ROW_BUFFER_HIT:        358  ROW_BUFFER_MISS:       8084  FULL:          0

 AVG_CONGESTED_CYCLE: 13
LOADS RETIRED: 31473262
INSTR RETIRED: 100000000
