
*** ChampSim Multicore Out-of-Order Simulator ***

Warmup Instructions: 100000000
Simulation Instructions: 500000000
Number of CPUs: 1
LLC sets: 2048
LLC ways: 16
Clean RRIP Policies: 1213130112131301 Dirty RRIP Policies: 2203130122031301 PSEL Width: 10 Track Set: 4294967295 PSEL Mask: 1 Demote Mask: 3040002030400020DS Algo: 0Window size: 0
Off-chip DRAM Size: 4096 MB Channels: 1 Width: 64-bit Data Rate: 1600 MT/s

CPU 0 runs /mnt/beegfs/iconst01/spec2017/Roms.trace.gz
NOT SORTED
TRACE STRING: /mnt/beegfs/iconst01/spec2017/Roms.trace.gz
SORTED
TRACE STRING: /mnt/beegfs/iconst01/spec2017/Roms.trace.gz
INITIAL
TRACE STRING: /mnt/beegfs/iconst01/spec2017/Roms.trace.gz

champsim_seed used: 417

CPU 0 L1D next line prefetcher
CPU 0 L2C IP-based stride prefetcher
Initialize DRRIP state
Assign rand_sets[0]: 454  LLC: 2048
rand_sets[0]: 454
Assign rand_sets[1]: 1662  LLC: 2048
rand_sets[1]: 1662
Assign rand_sets[2]: 1921  LLC: 2048
rand_sets[2]: 1921
Assign rand_sets[3]: 1131  LLC: 2048
rand_sets[3]: 1131
Assign rand_sets[4]: 331  LLC: 2048
rand_sets[4]: 331
Assign rand_sets[5]: 1531  LLC: 2048
rand_sets[5]: 1531
Assign rand_sets[6]: 482  LLC: 2048
rand_sets[6]: 482
Assign rand_sets[7]: 1275  LLC: 2048
rand_sets[7]: 1275
Assign rand_sets[8]: 1876  LLC: 2048
rand_sets[8]: 1876
Assign rand_sets[9]: 2038  LLC: 2048
rand_sets[9]: 2038
Assign rand_sets[10]: 701  LLC: 2048
rand_sets[10]: 701
Assign rand_sets[11]: 479  LLC: 2048
rand_sets[11]: 479
Assign rand_sets[12]: 892  LLC: 2048
rand_sets[12]: 892
Assign rand_sets[13]: 1820  LLC: 2048
rand_sets[13]: 1820
Assign rand_sets[14]: 1505  LLC: 2048
rand_sets[14]: 1505
Assign rand_sets[15]: 1159  LLC: 2048
rand_sets[15]: 1159
Assign rand_sets[16]: 513  LLC: 2048
rand_sets[16]: 513
Assign rand_sets[17]: 703  LLC: 2048
rand_sets[17]: 703
Assign rand_sets[18]: 561  LLC: 2048
rand_sets[18]: 561
Assign rand_sets[19]: 990  LLC: 2048
rand_sets[19]: 990
Assign rand_sets[20]: 342  LLC: 2048
rand_sets[20]: 342
Assign rand_sets[21]: 882  LLC: 2048
rand_sets[21]: 882
Assign rand_sets[22]: 15  LLC: 2048
rand_sets[22]: 15
Assign rand_sets[23]: 71  LLC: 2048
rand_sets[23]: 71
Assign rand_sets[24]: 1127  LLC: 2048
rand_sets[24]: 1127
Assign rand_sets[25]: 1382  LLC: 2048
rand_sets[25]: 1382
Assign rand_sets[26]: 647  LLC: 2048
rand_sets[26]: 647
Assign rand_sets[27]: 857  LLC: 2048
rand_sets[27]: 857
Assign rand_sets[28]: 1450  LLC: 2048
rand_sets[28]: 1450
Assign rand_sets[29]: 1160  LLC: 2048
rand_sets[29]: 1160
Assign rand_sets[30]: 1852  LLC: 2048
rand_sets[30]: 1852
Assign rand_sets[31]: 1881  LLC: 2048
rand_sets[31]: 1881
Assign rand_sets[32]: 1770  LLC: 2048
rand_sets[32]: 1770
Assign rand_sets[33]: 1622  LLC: 2048
rand_sets[33]: 1622
Assign rand_sets[34]: 275  LLC: 2048
rand_sets[34]: 275
Assign rand_sets[35]: 635  LLC: 2048
rand_sets[35]: 635
Assign rand_sets[36]: 466  LLC: 2048
rand_sets[36]: 466
Assign rand_sets[37]: 1413  LLC: 2048
rand_sets[37]: 1413
Assign rand_sets[38]: 417  LLC: 2048
rand_sets[38]: 417
Assign rand_sets[39]: 472  LLC: 2048
rand_sets[39]: 472
Assign rand_sets[40]: 1340  LLC: 2048
rand_sets[40]: 1340
Assign rand_sets[41]: 852  LLC: 2048
rand_sets[41]: 852
Assign rand_sets[42]: 1365  LLC: 2048
rand_sets[42]: 1365
Assign rand_sets[43]: 47  LLC: 2048
rand_sets[43]: 47
Assign rand_sets[44]: 823  LLC: 2048
rand_sets[44]: 823
Assign rand_sets[45]: 686  LLC: 2048
rand_sets[45]: 686
Assign rand_sets[46]: 1637  LLC: 2048
rand_sets[46]: 1637
Assign rand_sets[47]: 1115  LLC: 2048
rand_sets[47]: 1115
Assign rand_sets[48]: 986  LLC: 2048
rand_sets[48]: 986
Assign rand_sets[49]: 258  LLC: 2048
rand_sets[49]: 258
Assign rand_sets[50]: 633  LLC: 2048
rand_sets[50]: 633
Assign rand_sets[51]: 920  LLC: 2048
rand_sets[51]: 920
Assign rand_sets[52]: 204  LLC: 2048
rand_sets[52]: 204
Assign rand_sets[53]: 227  LLC: 2048
rand_sets[53]: 227
Assign rand_sets[54]: 1818  LLC: 2048
rand_sets[54]: 1818
Assign rand_sets[55]: 886  LLC: 2048
rand_sets[55]: 886
Assign rand_sets[56]: 1422  LLC: 2048
rand_sets[56]: 1422
Assign rand_sets[57]: 607  LLC: 2048
rand_sets[57]: 607
Assign rand_sets[58]: 217  LLC: 2048
rand_sets[58]: 217
Assign rand_sets[59]: 1945  LLC: 2048
rand_sets[59]: 1945
Assign rand_sets[60]: 143  LLC: 2048
rand_sets[60]: 143
Assign rand_sets[61]: 1311  LLC: 2048
rand_sets[61]: 1311
Assign rand_sets[62]: 319  LLC: 2048
rand_sets[62]: 319
Assign rand_sets[63]: 1846  LLC: 2048
rand_sets[63]: 1846
 CLEAN-RRIP-POLICY-1: 1-2-1-3-1-3-0-1- CLEAN-RRIP-POLICY-2: 1-2-1-3-1-3-0-1-
 DIRTY-RRIP-POLICY-1: 2-2-0-3-1-3-0-1- DIRTY-RRIP-POLICY-2: 2-2-0-3-1-3-0-1-
 PSEL width: 10
Heartbeat CPU 0 instructions: 10000000 cycles: 4688066 heartbeat IPC: 2.13308 cumulative IPC: 2.13308 (Simulation time: 0 hr 0 min 17 sec) 
Heartbeat CPU 0 instructions: 20000000 cycles: 9325334 heartbeat IPC: 2.15644 cumulative IPC: 2.1447 (Simulation time: 0 hr 0 min 34 sec) 
Heartbeat CPU 0 instructions: 30000003 cycles: 14019731 heartbeat IPC: 2.1302 cumulative IPC: 2.13984 (Simulation time: 0 hr 0 min 51 sec) 
Heartbeat CPU 0 instructions: 40000000 cycles: 18670147 heartbeat IPC: 2.15034 cumulative IPC: 2.14246 (Simulation time: 0 hr 1 min 7 sec) 
Heartbeat CPU 0 instructions: 50000003 cycles: 23323506 heartbeat IPC: 2.14899 cumulative IPC: 2.14376 (Simulation time: 0 hr 1 min 24 sec) 
Heartbeat CPU 0 instructions: 60000000 cycles: 27976129 heartbeat IPC: 2.14932 cumulative IPC: 2.14469 (Simulation time: 0 hr 1 min 40 sec) 
Heartbeat CPU 0 instructions: 70000002 cycles: 32367299 heartbeat IPC: 2.2773 cumulative IPC: 2.16268 (Simulation time: 0 hr 1 min 54 sec) 
Heartbeat CPU 0 instructions: 80000000 cycles: 36304073 heartbeat IPC: 2.54015 cumulative IPC: 2.20361 (Simulation time: 0 hr 2 min 6 sec) 
Heartbeat CPU 0 instructions: 90000000 cycles: 40249350 heartbeat IPC: 2.53468 cumulative IPC: 2.23606 (Simulation time: 0 hr 2 min 18 sec) 
Heartbeat CPU 0 instructions: 100000000 cycles: 44211629 heartbeat IPC: 2.5238 cumulative IPC: 2.26185 (Simulation time: 0 hr 2 min 29 sec) 

Warmup complete CPU 0 instructions: 100000002 cycles: 44211630 (Simulation time: 0 hr 2 min 29 sec) 

Heartbeat CPU 0 instructions: 110000000 cycles: 52826779 heartbeat IPC: 1.16075 cumulative IPC: 1.16075 (Simulation time: 0 hr 2 min 47 sec) 
Heartbeat CPU 0 instructions: 120000000 cycles: 61496296 heartbeat IPC: 1.15347 cumulative IPC: 1.15709 (Simulation time: 0 hr 3 min 6 sec) 
Heartbeat CPU 0 instructions: 130000002 cycles: 70204664 heartbeat IPC: 1.14832 cumulative IPC: 1.15416 (Simulation time: 0 hr 3 min 24 sec) 
Heartbeat CPU 0 instructions: 140000000 cycles: 78771659 heartbeat IPC: 1.16727 cumulative IPC: 1.15741 (Simulation time: 0 hr 3 min 42 sec) 
Heartbeat CPU 0 instructions: 150000003 cycles: 87508705 heartbeat IPC: 1.14455 cumulative IPC: 1.15481 (Simulation time: 0 hr 4 min 0 sec) 
Heartbeat CPU 0 instructions: 160000000 cycles: 97765237 heartbeat IPC: 0.974988 cumulative IPC: 1.12037 (Simulation time: 0 hr 4 min 20 sec) 
Heartbeat CPU 0 instructions: 170000000 cycles: 110222032 heartbeat IPC: 0.802775 cumulative IPC: 1.06044 (Simulation time: 0 hr 4 min 43 sec) 
Heartbeat CPU 0 instructions: 180000000 cycles: 122707529 heartbeat IPC: 0.800929 cumulative IPC: 1.01916 (Simulation time: 0 hr 5 min 6 sec) 
Heartbeat CPU 0 instructions: 190000000 cycles: 135454287 heartbeat IPC: 0.784513 cumulative IPC: 0.986381 (Simulation time: 0 hr 5 min 29 sec) 
Heartbeat CPU 0 instructions: 200000000 cycles: 149348131 heartbeat IPC: 0.719743 cumulative IPC: 0.951144 (Simulation time: 0 hr 5 min 52 sec) 
Heartbeat CPU 0 instructions: 210000001 cycles: 163239576 heartbeat IPC: 0.719868 cumulative IPC: 0.924153 (Simulation time: 0 hr 6 min 15 sec) 
Heartbeat CPU 0 instructions: 220000000 cycles: 176961355 heartbeat IPC: 0.728768 cumulative IPC: 0.903957 (Simulation time: 0 hr 6 min 38 sec) 
Heartbeat CPU 0 instructions: 230000000 cycles: 190431814 heartbeat IPC: 0.742365 cumulative IPC: 0.88907 (Simulation time: 0 hr 7 min 2 sec) 
Heartbeat CPU 0 instructions: 240000000 cycles: 204029318 heartbeat IPC: 0.735429 cumulative IPC: 0.875998 (Simulation time: 0 hr 7 min 26 sec) 
Heartbeat CPU 0 instructions: 250000003 cycles: 215097937 heartbeat IPC: 0.903455 cumulative IPC: 0.877777 (Simulation time: 0 hr 7 min 47 sec) 
Heartbeat CPU 0 instructions: 260000000 cycles: 222929356 heartbeat IPC: 1.27691 cumulative IPC: 0.895267 (Simulation time: 0 hr 8 min 6 sec) 
Heartbeat CPU 0 instructions: 270000003 cycles: 231227812 heartbeat IPC: 1.20504 cumulative IPC: 0.909012 (Simulation time: 0 hr 8 min 26 sec) 
Heartbeat CPU 0 instructions: 280000000 cycles: 239689268 heartbeat IPC: 1.18183 cumulative IPC: 0.920821 (Simulation time: 0 hr 8 min 46 sec) 
Heartbeat CPU 0 instructions: 290000000 cycles: 248300946 heartbeat IPC: 1.16121 cumulative IPC: 0.930965 (Simulation time: 0 hr 9 min 6 sec) 
Heartbeat CPU 0 instructions: 300000000 cycles: 256918540 heartbeat IPC: 1.16042 cumulative IPC: 0.940261 (Simulation time: 0 hr 9 min 26 sec) 
Heartbeat CPU 0 instructions: 310000000 cycles: 265613573 heartbeat IPC: 1.15008 cumulative IPC: 0.948501 (Simulation time: 0 hr 9 min 46 sec) 
Heartbeat CPU 0 instructions: 320000000 cycles: 274355304 heartbeat IPC: 1.14394 cumulative IPC: 0.955925 (Simulation time: 0 hr 10 min 7 sec) 
Heartbeat CPU 0 instructions: 330000002 cycles: 283047582 heartbeat IPC: 1.15045 cumulative IPC: 0.963004 (Simulation time: 0 hr 10 min 28 sec) 
Heartbeat CPU 0 instructions: 340000000 cycles: 293026302 heartbeat IPC: 1.00213 cumulative IPC: 0.964573 (Simulation time: 0 hr 10 min 50 sec) 
Heartbeat CPU 0 instructions: 350000001 cycles: 301411407 heartbeat IPC: 1.19259 cumulative IPC: 0.972007 (Simulation time: 0 hr 11 min 10 sec) 
Heartbeat CPU 0 instructions: 360000000 cycles: 309811766 heartbeat IPC: 1.19043 cumulative IPC: 0.978915 (Simulation time: 0 hr 11 min 30 sec) 
Heartbeat CPU 0 instructions: 370000001 cycles: 318214948 heartbeat IPC: 1.19003 cumulative IPC: 0.98539 (Simulation time: 0 hr 11 min 50 sec) 
Heartbeat CPU 0 instructions: 380000000 cycles: 326589072 heartbeat IPC: 1.19415 cumulative IPC: 0.991581 (Simulation time: 0 hr 12 min 10 sec) 
Heartbeat CPU 0 instructions: 390000001 cycles: 334797144 heartbeat IPC: 1.21831 cumulative IPC: 0.997985 (Simulation time: 0 hr 12 min 30 sec) 
Heartbeat CPU 0 instructions: 400000000 cycles: 343088560 heartbeat IPC: 1.20607 cumulative IPC: 1.00376 (Simulation time: 0 hr 12 min 49 sec) 
Heartbeat CPU 0 instructions: 410000003 cycles: 351300173 heartbeat IPC: 1.21779 cumulative IPC: 1.00948 (Simulation time: 0 hr 13 min 9 sec) 
Heartbeat CPU 0 instructions: 420000000 cycles: 359608472 heartbeat IPC: 1.20362 cumulative IPC: 1.01459 (Simulation time: 0 hr 13 min 29 sec) 
Heartbeat CPU 0 instructions: 430000001 cycles: 367832148 heartbeat IPC: 1.216 cumulative IPC: 1.01971 (Simulation time: 0 hr 13 min 48 sec) 
Heartbeat CPU 0 instructions: 440000000 cycles: 376015890 heartbeat IPC: 1.22193 cumulative IPC: 1.0247 (Simulation time: 0 hr 14 min 8 sec) 
Heartbeat CPU 0 instructions: 450000001 cycles: 385454013 heartbeat IPC: 1.05953 cumulative IPC: 1.02566 (Simulation time: 0 hr 14 min 29 sec) 
Heartbeat CPU 0 instructions: 460000000 cycles: 393694182 heartbeat IPC: 1.21357 cumulative IPC: 1.03009 (Simulation time: 0 hr 14 min 49 sec) 
Heartbeat CPU 0 instructions: 470000003 cycles: 401796186 heartbeat IPC: 1.23426 cumulative IPC: 1.03472 (Simulation time: 0 hr 15 min 9 sec) 
Heartbeat CPU 0 instructions: 480000000 cycles: 409930009 heartbeat IPC: 1.22943 cumulative IPC: 1.03905 (Simulation time: 0 hr 15 min 28 sec) 
Heartbeat CPU 0 instructions: 490000000 cycles: 418038247 heartbeat IPC: 1.23331 cumulative IPC: 1.04326 (Simulation time: 0 hr 15 min 47 sec) 
Heartbeat CPU 0 instructions: 500000000 cycles: 426164486 heartbeat IPC: 1.23058 cumulative IPC: 1.04725 (Simulation time: 0 hr 16 min 7 sec) 
Heartbeat CPU 0 instructions: 510000001 cycles: 434238208 heartbeat IPC: 1.23859 cumulative IPC: 1.05121 (Simulation time: 0 hr 16 min 26 sec) 
Heartbeat CPU 0 instructions: 520000000 cycles: 442355386 heartbeat IPC: 1.23196 cumulative IPC: 1.0549 (Simulation time: 0 hr 16 min 46 sec) 
Heartbeat CPU 0 instructions: 530000001 cycles: 450469848 heartbeat IPC: 1.23237 cumulative IPC: 1.05844 (Simulation time: 0 hr 17 min 5 sec) 
Heartbeat CPU 0 instructions: 540000000 cycles: 458750011 heartbeat IPC: 1.20771 cumulative IPC: 1.06142 (Simulation time: 0 hr 17 min 25 sec) 
Heartbeat CPU 0 instructions: 550000001 cycles: 467093906 heartbeat IPC: 1.19848 cumulative IPC: 1.06413 (Simulation time: 0 hr 17 min 45 sec) 
Heartbeat CPU 0 instructions: 560000000 cycles: 475195497 heartbeat IPC: 1.23433 cumulative IPC: 1.06733 (Simulation time: 0 hr 18 min 4 sec) 
Heartbeat CPU 0 instructions: 570000001 cycles: 486342218 heartbeat IPC: 0.897125 cumulative IPC: 1.06303 (Simulation time: 0 hr 18 min 26 sec) 
Heartbeat CPU 0 instructions: 580000000 cycles: 497163762 heartbeat IPC: 0.924082 cumulative IPC: 1.05971 (Simulation time: 0 hr 18 min 46 sec) 
Heartbeat CPU 0 instructions: 590000001 cycles: 508242609 heartbeat IPC: 0.902621 cumulative IPC: 1.05596 (Simulation time: 0 hr 19 min 8 sec) 
Heartbeat CPU 0 instructions: 600000000 cycles: 519062048 heartbeat IPC: 0.924262 cumulative IPC: 1.05296 (Simulation time: 0 hr 19 min 28 sec) 
Finished CPU 0 instructions: 500000001 cycles: 474850431 cumulative IPC: 1.05296 (Simulation time: 0 hr 19 min 28 sec) 

CPU 0 Branch Prediction Accuracy: 99.7422% MPKI: 0.173296
Number of Branches: 33608403 Number of Mispredictions: 86648
Number of LOAD Instructions: 180215231
Number of LOAD Instructions (ROI): 180215231
Number of STORE Instructions: 36067263
Number of STORE Instructions (ROI): 36067263
Total Destination Memory Operands: 38428915
Total Destination Memory Operands (ROI): 38428915
Total Source Memory Operands: 180215231
Total Source Memory Operands (ROI): 180215231
Number of DEPENDED LOADS: 3041481
Number of DEPENDED LOADS (ROI): 3041481
Number of SQ_ADDED: 38428892
Number of SQ_ADDED (ROI): 38428892
Number of LQ_ADDED: 207631379
Number of LQ_ADDED (ROI): 207631379
Number of Instructions read from trace: 600000257

ChampSim completed all CPUs

Region of Interest Statistics

CPU 0 cumulative IPC: 1.05296 instructions: 500000001 cycles: 474850431
ITLB TOTAL     ACCESS:   91800434  HIT:   91800415  MISS:         19
ITLB LOAD      ACCESS:   91800434  HIT:   91800415  MISS:         19
ITLB RFO       ACCESS:          0  HIT:          0  MISS:          0
ITLB PREFETCH  ACCESS:          0  HIT:          0  MISS:          0
ITLB WRITEBACK ACCESS:          0  HIT:          0  MISS:          0
ITLB PREFETCH  REQUESTED:          0  ISSUED:          0  USEFUL:          0  USELESS:          0
ITLB TOTAL MSHR MERGED:         40
ITLB LOAD MSHR MERGED:         40
ITLB RFO MSHR MERGED:          0
ITLB PREFETCH MSHR MERGED:          0
ITLB WRITEBACK MSHR MERGED:          0
ITLB TOTAL ACCESSES:   91800474 HITS:   91800415 MISSES:         59
ITLB LOAD ACCESSES:   91800474 HITS:   91800415 MISSES:         59
ITLB RFO ACCESSES:          0 HITS:          0 MISSES:          0
ITLB PREFETCH ACCESSES:          0 HITS:          0 MISSES:          0
ITLB WRITEBACK ACCESSES:          0 HITS:          0 MISSES:          0
ITLB RQ ACCESS:  500000003
ITLB RQ TO_CACHE:   91800474
ITLB RQ MERGED:  408199529
ITLB RQ FORWARD:          0
ITLB WQ ACCESS:          0
ITLB WQ TO_CACHE:          0
ITLB WQ MERGED:          0
ITLB WQ FORWARD:          0
DTLB TOTAL     ACCESS:  142043012  HIT:  141676550  MISS:     366462
DTLB LOAD      ACCESS:  119403445  HIT:  119089859  MISS:     313586
DTLB RFO       ACCESS:   22639567  HIT:   22586691  MISS:      52876
DTLB PREFETCH  ACCESS:          0  HIT:          0  MISS:          0
DTLB WRITEBACK ACCESS:          0  HIT:          0  MISS:          0
DTLB PREFETCH  REQUESTED:          0  ISSUED:          0  USEFUL:          0  USELESS:          0
DTLB TOTAL MSHR MERGED:     289023
DTLB LOAD MSHR MERGED:     241152
DTLB RFO MSHR MERGED:      47871
DTLB PREFETCH MSHR MERGED:          0
DTLB WRITEBACK MSHR MERGED:          0
DTLB TOTAL ACCESSES:  142332035 HITS:  141676550 MISSES:     655485
DTLB LOAD ACCESSES:  119644597 HITS:  119089859 MISSES:     554738
DTLB RFO ACCESSES:   22687438 HITS:   22586691 MISSES:     100747
DTLB PREFETCH ACCESSES:          0 HITS:          0 MISSES:          0
DTLB WRITEBACK ACCESSES:          0 HITS:          0 MISSES:          0
DTLB RQ ACCESS:  184791496
DTLB RQ TO_CACHE:  142332035
DTLB RQ MERGED:   42459461
DTLB RQ FORWARD:          0
DTLB WQ ACCESS:          0
DTLB WQ TO_CACHE:          0
DTLB WQ MERGED:          0
DTLB WQ FORWARD:          0
L1D TOTAL     ACCESS:  190187671  HIT:  176736648  MISS:   13451023
L1D LOAD      ACCESS:  111939643  HIT:  108687860  MISS:    3251783
L1D RFO       ACCESS:   18999787  HIT:   16218042  MISS:    2781745
L1D PREFETCH  ACCESS:   59248241  HIT:   51830746  MISS:    7417495
L1D WRITEBACK ACCESS:          0  HIT:          0  MISS:          0
L1D PREFETCH  REQUESTED:  116500237  ISSUED:  115139432  USEFUL:    7207779  USELESS:     209717
L1D TOTAL MSHR MERGED:   31494634
L1D LOAD MSHR MERGED:    7255839
L1D RFO MSHR MERGED:    9252988
L1D PREFETCH MSHR MERGED:   14985807
L1D WRITEBACK MSHR MERGED:          0
L1D TOTAL ACCESSES:  221682707 HITS:  176737048 MISSES:   44945659
L1D LOAD ACCESSES:  116500258 HITS:  108687881 MISSES:    7812377
L1D RFO ACCESSES:   28252725 HITS:   16218042 MISSES:   12034683
L1D PREFETCH ACCESSES:   76929724 HITS:   51831125 MISSES:   25098599
L1D WRITEBACK ACCESSES:          0 HITS:          0 MISSES:          0
L1D RQ ACCESS:  156535430
L1D RQ TO_CACHE:  116500240
L1D RQ MERGED:   40035169
L1D RQ FORWARD:          0
L1D WQ ACCESS:   28256066
L1D WQ TO_CACHE:   28252725
L1D WQ MERGED:       3341
L1D WQ FORWARD:        400
L1I TOTAL     ACCESS:  115795428  HIT:  115794480  MISS:        948
L1I LOAD      ACCESS:  115795428  HIT:  115794480  MISS:        948
L1I RFO       ACCESS:          0  HIT:          0  MISS:          0
L1I PREFETCH  ACCESS:          0  HIT:          0  MISS:          0
L1I WRITEBACK ACCESS:          0  HIT:          0  MISS:          0
L1I PREFETCH  REQUESTED:          0  ISSUED:          0  USEFUL:          0  USELESS:          0
L1I TOTAL MSHR MERGED:       1580
L1I LOAD MSHR MERGED:       1580
L1I RFO MSHR MERGED:          0
L1I PREFETCH MSHR MERGED:          0
L1I WRITEBACK MSHR MERGED:          0
L1I TOTAL ACCESSES:  115797008 HITS:  115794480 MISSES:       2528
L1I LOAD ACCESSES:  115797008 HITS:  115794480 MISSES:       2528
L1I RFO ACCESSES:          0 HITS:          0 MISSES:          0
L1I PREFETCH ACCESSES:          0 HITS:          0 MISSES:          0
L1I WRITEBACK ACCESSES:          0 HITS:          0 MISSES:          0
L1I RQ ACCESS:  500000007
L1I RQ TO_CACHE:  115797008
L1I RQ MERGED:  384202999
L1I RQ FORWARD:          0
L1I WQ ACCESS:          0
L1I WQ TO_CACHE:          0
L1I WQ MERGED:          0
L1I WQ FORWARD:          0
L2C TOTAL     ACCESS:   16696770  HIT:    4851766  MISS:   11845004
L2C LOAD      ACCESS:     557455  HIT:      95656  MISS:     461799
L2C RFO       ACCESS:    2781695  HIT:     266546  MISS:    2515149
L2C PREFETCH  ACCESS:   10136975  HIT:    1271198  MISS:    8865777
L2C WRITEBACK ACCESS:    3220645  HIT:    3218366  MISS:       2279
L2C PREFETCH  REQUESTED:      26207  ISSUED:      26207  USEFUL:      93109  USELESS:    8770738
L2C TOTAL MSHR MERGED:        506
L2C LOAD MSHR MERGED:          6
L2C RFO MSHR MERGED:          0
L2C PREFETCH MSHR MERGED:        500
L2C WRITEBACK MSHR MERGED:          0
L2C TOTAL ACCESSES:   16697425 HITS:    4851817 MISSES:   11845608
L2C LOAD ACCESSES:     557486 HITS:      95687 MISSES:     461799
L2C RFO ACCESSES:    2781695 HITS:     266546 MISSES:    2515149
L2C PREFETCH ACCESSES:   10137599 HITS:    1271218 MISSES:    8866381
L2C WRITEBACK ACCESSES:    3220645 HITS:    3218366 MISSES:       2279
L2C RQ ACCESS:    3339181
L2C RQ TO_CACHE:    3339150
L2C RQ MERGED:          0
L2C RQ FORWARD:          0
L2C WQ ACCESS:    3220645
L2C WQ TO_CACHE:    3220645
L2C WQ MERGED:          0
L2C WQ FORWARD:         51
LLC TOTAL     ACCESS:   14743313  HIT:    7619723  MISS:    7123590
LLC LOAD      ACCESS:     461791  HIT:     241704  MISS:     220087
LLC RFO       ACCESS:    2515130  HIT:    1884951  MISS:     630179
LLC PREFETCH  ACCESS:    8865820  HIT:    3285894  MISS:    5579926
LLC WRITEBACK ACCESS:    2900572  HIT:    2207174  MISS:     693398
LLC PREFETCH  REQUESTED:          0  ISSUED:          0  USEFUL:       3631  USELESS:    5580679
LLC TOTAL MSHR MERGED:          0
LLC LOAD MSHR MERGED:          0
LLC RFO MSHR MERGED:          0
LLC PREFETCH MSHR MERGED:          0
LLC WRITEBACK MSHR MERGED:          0
LLC TOTAL ACCESSES:   14743385 HITS:    7619793 MISSES:    7123592
LLC LOAD ACCESSES:     461793 HITS:     241706 MISSES:     220087
LLC RFO ACCESSES:    2515149 HITS:    1884970 MISSES:     630179
LLC PREFETCH ACCESSES:    8865871 HITS:    3285943 MISSES:    5579928
LLC WRITEBACK ACCESSES:    2900572 HITS:    2207174 MISSES:     693398
LLC 0 RQ ACCESS:    2976942
LLC 0 RQ TO_CACHE:    2976921
LLC 0 RQ MERGED:          0
LLC 0 RQ FORWARD:          0
LLC WQ ACCESS:    2900572
LLC WQ TO_CACHE:    2900572
LLC WQ MERGED:          0
LLC WQ FORWARD:         70
Major fault: 0 Minor fault: 57518
CPU 0 L1D next line prefetcher final stats
CPU 0 L2C PC-based stride prefetcher final stats
All Misses: 7722987
All Hits: 8516507
SD Algo Stats - Switches: 0 SRR-Repls: 226926 BRR-Repls: 0

DRAM Statistics
 CHANNEL 0
 RQ ROW_BUFFER_HIT:    3659299  ROW_BUFFER_MISS:    2767628
 DBUS_CONGESTED:    2906197
 WQ ROW_BUFFER_HIT:      87122  ROW_BUFFER_MISS:     808498  FULL:          0

 AVG_CONGESTED_CYCLE: 12
LOADS RETIRED: 157818985
INSTR RETIRED: 500000000
