
*** ChampSim Multicore Out-of-Order Simulator ***

Warmup Instructions: 100000000
Simulation Instructions: 500000000
Number of CPUs: 1
LLC sets: 2048
LLC ways: 16
Clean RRIP Policies: 1122230111222301 Dirty RRIP Policies: 2112032121120321 PSEL Width: 10 Track Set: 4294967295 PSEL Mask: 1 Demote Mask: 3430414334304143DS Algo: 0Window size: 0
Off-chip DRAM Size: 4096 MB Channels: 1 Width: 64-bit Data Rate: 1600 MT/s

CPU 0 runs /mnt/beegfs/iconst01/spec2017/Gcc.trace.gz
NOT SORTED
TRACE STRING: /mnt/beegfs/iconst01/spec2017/Gcc.trace.gz
SORTED
TRACE STRING: /mnt/beegfs/iconst01/spec2017/Gcc.trace.gz
INITIAL
TRACE STRING: /mnt/beegfs/iconst01/spec2017/Gcc.trace.gz

champsim_seed used: 269

CPU 0 L1D next line prefetcher
CPU 0 L2C IP-based stride prefetcher
Initialize DRRIP state
Assign rand_sets[0]: 454  LLC: 2048
rand_sets[0]: 454
Assign rand_sets[1]: 1662  LLC: 2048
rand_sets[1]: 1662
Assign rand_sets[2]: 1921  LLC: 2048
rand_sets[2]: 1921
Assign rand_sets[3]: 1131  LLC: 2048
rand_sets[3]: 1131
Assign rand_sets[4]: 331  LLC: 2048
rand_sets[4]: 331
Assign rand_sets[5]: 1531  LLC: 2048
rand_sets[5]: 1531
Assign rand_sets[6]: 482  LLC: 2048
rand_sets[6]: 482
Assign rand_sets[7]: 1275  LLC: 2048
rand_sets[7]: 1275
Assign rand_sets[8]: 1876  LLC: 2048
rand_sets[8]: 1876
Assign rand_sets[9]: 2038  LLC: 2048
rand_sets[9]: 2038
Assign rand_sets[10]: 701  LLC: 2048
rand_sets[10]: 701
Assign rand_sets[11]: 479  LLC: 2048
rand_sets[11]: 479
Assign rand_sets[12]: 892  LLC: 2048
rand_sets[12]: 892
Assign rand_sets[13]: 1820  LLC: 2048
rand_sets[13]: 1820
Assign rand_sets[14]: 1505  LLC: 2048
rand_sets[14]: 1505
Assign rand_sets[15]: 1159  LLC: 2048
rand_sets[15]: 1159
Assign rand_sets[16]: 513  LLC: 2048
rand_sets[16]: 513
Assign rand_sets[17]: 703  LLC: 2048
rand_sets[17]: 703
Assign rand_sets[18]: 561  LLC: 2048
rand_sets[18]: 561
Assign rand_sets[19]: 990  LLC: 2048
rand_sets[19]: 990
Assign rand_sets[20]: 342  LLC: 2048
rand_sets[20]: 342
Assign rand_sets[21]: 882  LLC: 2048
rand_sets[21]: 882
Assign rand_sets[22]: 15  LLC: 2048
rand_sets[22]: 15
Assign rand_sets[23]: 71  LLC: 2048
rand_sets[23]: 71
Assign rand_sets[24]: 1127  LLC: 2048
rand_sets[24]: 1127
Assign rand_sets[25]: 1382  LLC: 2048
rand_sets[25]: 1382
Assign rand_sets[26]: 647  LLC: 2048
rand_sets[26]: 647
Assign rand_sets[27]: 857  LLC: 2048
rand_sets[27]: 857
Assign rand_sets[28]: 1450  LLC: 2048
rand_sets[28]: 1450
Assign rand_sets[29]: 1160  LLC: 2048
rand_sets[29]: 1160
Assign rand_sets[30]: 1852  LLC: 2048
rand_sets[30]: 1852
Assign rand_sets[31]: 1881  LLC: 2048
rand_sets[31]: 1881
Assign rand_sets[32]: 1770  LLC: 2048
rand_sets[32]: 1770
Assign rand_sets[33]: 1622  LLC: 2048
rand_sets[33]: 1622
Assign rand_sets[34]: 275  LLC: 2048
rand_sets[34]: 275
Assign rand_sets[35]: 635  LLC: 2048
rand_sets[35]: 635
Assign rand_sets[36]: 466  LLC: 2048
rand_sets[36]: 466
Assign rand_sets[37]: 1413  LLC: 2048
rand_sets[37]: 1413
Assign rand_sets[38]: 417  LLC: 2048
rand_sets[38]: 417
Assign rand_sets[39]: 472  LLC: 2048
rand_sets[39]: 472
Assign rand_sets[40]: 1340  LLC: 2048
rand_sets[40]: 1340
Assign rand_sets[41]: 852  LLC: 2048
rand_sets[41]: 852
Assign rand_sets[42]: 1365  LLC: 2048
rand_sets[42]: 1365
Assign rand_sets[43]: 47  LLC: 2048
rand_sets[43]: 47
Assign rand_sets[44]: 823  LLC: 2048
rand_sets[44]: 823
Assign rand_sets[45]: 686  LLC: 2048
rand_sets[45]: 686
Assign rand_sets[46]: 1637  LLC: 2048
rand_sets[46]: 1637
Assign rand_sets[47]: 1115  LLC: 2048
rand_sets[47]: 1115
Assign rand_sets[48]: 986  LLC: 2048
rand_sets[48]: 986
Assign rand_sets[49]: 258  LLC: 2048
rand_sets[49]: 258
Assign rand_sets[50]: 633  LLC: 2048
rand_sets[50]: 633
Assign rand_sets[51]: 920  LLC: 2048
rand_sets[51]: 920
Assign rand_sets[52]: 204  LLC: 2048
rand_sets[52]: 204
Assign rand_sets[53]: 227  LLC: 2048
rand_sets[53]: 227
Assign rand_sets[54]: 1818  LLC: 2048
rand_sets[54]: 1818
Assign rand_sets[55]: 886  LLC: 2048
rand_sets[55]: 886
Assign rand_sets[56]: 1422  LLC: 2048
rand_sets[56]: 1422
Assign rand_sets[57]: 607  LLC: 2048
rand_sets[57]: 607
Assign rand_sets[58]: 217  LLC: 2048
rand_sets[58]: 217
Assign rand_sets[59]: 1945  LLC: 2048
rand_sets[59]: 1945
Assign rand_sets[60]: 143  LLC: 2048
rand_sets[60]: 143
Assign rand_sets[61]: 1311  LLC: 2048
rand_sets[61]: 1311
Assign rand_sets[62]: 319  LLC: 2048
rand_sets[62]: 319
Assign rand_sets[63]: 1846  LLC: 2048
rand_sets[63]: 1846
 CLEAN-RRIP-POLICY-1: 1-1-2-2-2-3-0-1- CLEAN-RRIP-POLICY-2: 1-1-2-2-2-3-0-1-
 DIRTY-RRIP-POLICY-1: 2-1-1-2-0-3-2-1- DIRTY-RRIP-POLICY-2: 2-1-1-2-0-3-2-1-
 PSEL width: 10
Heartbeat CPU 0 instructions: 10000001 cycles: 7315913 heartbeat IPC: 1.36688 cumulative IPC: 1.36688 (Simulation time: 0 hr 0 min 15 sec) 
Heartbeat CPU 0 instructions: 20000000 cycles: 14307573 heartbeat IPC: 1.43028 cumulative IPC: 1.39786 (Simulation time: 0 hr 0 min 29 sec) 
Heartbeat CPU 0 instructions: 30000001 cycles: 21020804 heartbeat IPC: 1.4896 cumulative IPC: 1.42716 (Simulation time: 0 hr 0 min 46 sec) 
Heartbeat CPU 0 instructions: 40000000 cycles: 27481844 heartbeat IPC: 1.54774 cumulative IPC: 1.45551 (Simulation time: 0 hr 1 min 2 sec) 
Heartbeat CPU 0 instructions: 50000001 cycles: 33583464 heartbeat IPC: 1.63891 cumulative IPC: 1.48883 (Simulation time: 0 hr 1 min 17 sec) 
Heartbeat CPU 0 instructions: 60000000 cycles: 40064555 heartbeat IPC: 1.54295 cumulative IPC: 1.49758 (Simulation time: 0 hr 1 min 33 sec) 
Heartbeat CPU 0 instructions: 70000000 cycles: 47102150 heartbeat IPC: 1.42094 cumulative IPC: 1.48613 (Simulation time: 0 hr 1 min 48 sec) 
Heartbeat CPU 0 instructions: 80000000 cycles: 54191876 heartbeat IPC: 1.41049 cumulative IPC: 1.47624 (Simulation time: 0 hr 2 min 3 sec) 
Heartbeat CPU 0 instructions: 90000003 cycles: 61196412 heartbeat IPC: 1.42765 cumulative IPC: 1.47067 (Simulation time: 0 hr 2 min 18 sec) 
Heartbeat CPU 0 instructions: 100000000 cycles: 68363880 heartbeat IPC: 1.39519 cumulative IPC: 1.46276 (Simulation time: 0 hr 2 min 33 sec) 

Warmup complete CPU 0 instructions: 100000004 cycles: 68363881 (Simulation time: 0 hr 2 min 33 sec) 

Heartbeat CPU 0 instructions: 110000003 cycles: 96156689 heartbeat IPC: 0.359805 cumulative IPC: 0.359805 (Simulation time: 0 hr 3 min 2 sec) 
Heartbeat CPU 0 instructions: 120000000 cycles: 123709211 heartbeat IPC: 0.362943 cumulative IPC: 0.361367 (Simulation time: 0 hr 3 min 32 sec) 
Heartbeat CPU 0 instructions: 130000000 cycles: 148741649 heartbeat IPC: 0.399482 cumulative IPC: 0.373237 (Simulation time: 0 hr 4 min 1 sec) 
Heartbeat CPU 0 instructions: 140000000 cycles: 178304726 heartbeat IPC: 0.33826 cumulative IPC: 0.363832 (Simulation time: 0 hr 4 min 29 sec) 
Heartbeat CPU 0 instructions: 150000000 cycles: 208312557 heartbeat IPC: 0.333246 cumulative IPC: 0.357274 (Simulation time: 0 hr 4 min 58 sec) 
Heartbeat CPU 0 instructions: 160000000 cycles: 235749648 heartbeat IPC: 0.36447 cumulative IPC: 0.358453 (Simulation time: 0 hr 5 min 26 sec) 
Heartbeat CPU 0 instructions: 170000001 cycles: 263865079 heartbeat IPC: 0.355677 cumulative IPC: 0.358054 (Simulation time: 0 hr 5 min 56 sec) 
Heartbeat CPU 0 instructions: 180000000 cycles: 292397000 heartbeat IPC: 0.350485 cumulative IPC: 0.35709 (Simulation time: 0 hr 6 min 25 sec) 
Heartbeat CPU 0 instructions: 190000002 cycles: 320490774 heartbeat IPC: 0.355951 cumulative IPC: 0.356963 (Simulation time: 0 hr 6 min 54 sec) 
Heartbeat CPU 0 instructions: 200000000 cycles: 348947747 heartbeat IPC: 0.351408 cumulative IPC: 0.3564 (Simulation time: 0 hr 7 min 23 sec) 
Heartbeat CPU 0 instructions: 210000002 cycles: 376860363 heartbeat IPC: 0.358261 cumulative IPC: 0.356568 (Simulation time: 0 hr 7 min 52 sec) 
Heartbeat CPU 0 instructions: 220000000 cycles: 406075823 heartbeat IPC: 0.342284 cumulative IPC: 0.355332 (Simulation time: 0 hr 8 min 20 sec) 
Heartbeat CPU 0 instructions: 230000000 cycles: 433798168 heartbeat IPC: 0.36072 cumulative IPC: 0.355741 (Simulation time: 0 hr 8 min 48 sec) 
Heartbeat CPU 0 instructions: 240000000 cycles: 460065885 heartbeat IPC: 0.380695 cumulative IPC: 0.357415 (Simulation time: 0 hr 9 min 16 sec) 
Heartbeat CPU 0 instructions: 250000000 cycles: 490303666 heartbeat IPC: 0.330712 cumulative IPC: 0.355501 (Simulation time: 0 hr 9 min 46 sec) 
Heartbeat CPU 0 instructions: 260000000 cycles: 517456852 heartbeat IPC: 0.368281 cumulative IPC: 0.356274 (Simulation time: 0 hr 10 min 14 sec) 
Heartbeat CPU 0 instructions: 270000003 cycles: 545925623 heartbeat IPC: 0.351262 cumulative IPC: 0.355975 (Simulation time: 0 hr 10 min 44 sec) 
Heartbeat CPU 0 instructions: 280000000 cycles: 574229346 heartbeat IPC: 0.35331 cumulative IPC: 0.355826 (Simulation time: 0 hr 11 min 14 sec) 
Heartbeat CPU 0 instructions: 290000000 cycles: 603097352 heartbeat IPC: 0.346404 cumulative IPC: 0.355317 (Simulation time: 0 hr 11 min 44 sec) 
Heartbeat CPU 0 instructions: 300000000 cycles: 633143040 heartbeat IPC: 0.332826 cumulative IPC: 0.354121 (Simulation time: 0 hr 12 min 13 sec) 
Heartbeat CPU 0 instructions: 310000001 cycles: 662701489 heartbeat IPC: 0.338313 cumulative IPC: 0.353335 (Simulation time: 0 hr 12 min 41 sec) 
Heartbeat CPU 0 instructions: 320000000 cycles: 691058541 heartbeat IPC: 0.352646 cumulative IPC: 0.353303 (Simulation time: 0 hr 13 min 10 sec) 
Heartbeat CPU 0 instructions: 330000000 cycles: 719743526 heartbeat IPC: 0.348614 cumulative IPC: 0.353097 (Simulation time: 0 hr 13 min 38 sec) 
Heartbeat CPU 0 instructions: 340000000 cycles: 749217948 heartbeat IPC: 0.339277 cumulative IPC: 0.352498 (Simulation time: 0 hr 14 min 7 sec) 
Heartbeat CPU 0 instructions: 350000003 cycles: 776277209 heartbeat IPC: 0.369559 cumulative IPC: 0.353151 (Simulation time: 0 hr 14 min 36 sec) 
Heartbeat CPU 0 instructions: 360000000 cycles: 804591292 heartbeat IPC: 0.353181 cumulative IPC: 0.353152 (Simulation time: 0 hr 15 min 3 sec) 
Heartbeat CPU 0 instructions: 370000000 cycles: 832937781 heartbeat IPC: 0.352777 cumulative IPC: 0.353138 (Simulation time: 0 hr 15 min 31 sec) 
Heartbeat CPU 0 instructions: 380000000 cycles: 861588978 heartbeat IPC: 0.349026 cumulative IPC: 0.352989 (Simulation time: 0 hr 15 min 59 sec) 
Heartbeat CPU 0 instructions: 390000001 cycles: 889328138 heartbeat IPC: 0.360501 cumulative IPC: 0.353243 (Simulation time: 0 hr 16 min 26 sec) 
Heartbeat CPU 0 instructions: 400000000 cycles: 918092291 heartbeat IPC: 0.347655 cumulative IPC: 0.353054 (Simulation time: 0 hr 16 min 54 sec) 
Heartbeat CPU 0 instructions: 410000001 cycles: 945509070 heartbeat IPC: 0.36474 cumulative IPC: 0.353419 (Simulation time: 0 hr 17 min 22 sec) 
Heartbeat CPU 0 instructions: 420000000 cycles: 972907134 heartbeat IPC: 0.364989 cumulative IPC: 0.35377 (Simulation time: 0 hr 17 min 49 sec) 
Heartbeat CPU 0 instructions: 430000002 cycles: 1000709966 heartbeat IPC: 0.359676 cumulative IPC: 0.353946 (Simulation time: 0 hr 18 min 17 sec) 
Heartbeat CPU 0 instructions: 440000000 cycles: 1030345278 heartbeat IPC: 0.337435 cumulative IPC: 0.353437 (Simulation time: 0 hr 18 min 44 sec) 
Heartbeat CPU 0 instructions: 450000002 cycles: 1059723860 heartbeat IPC: 0.340384 cumulative IPC: 0.35305 (Simulation time: 0 hr 19 min 12 sec) 
Heartbeat CPU 0 instructions: 460000000 cycles: 1087540746 heartbeat IPC: 0.359494 cumulative IPC: 0.353226 (Simulation time: 0 hr 19 min 39 sec) 
Heartbeat CPU 0 instructions: 470000000 cycles: 1115272798 heartbeat IPC: 0.360594 cumulative IPC: 0.353421 (Simulation time: 0 hr 20 min 6 sec) 
Heartbeat CPU 0 instructions: 480000000 cycles: 1143246653 heartbeat IPC: 0.357477 cumulative IPC: 0.353527 (Simulation time: 0 hr 20 min 33 sec) 
Heartbeat CPU 0 instructions: 490000000 cycles: 1170933847 heartbeat IPC: 0.361178 cumulative IPC: 0.353719 (Simulation time: 0 hr 21 min 0 sec) 
Heartbeat CPU 0 instructions: 500000000 cycles: 1199313710 heartbeat IPC: 0.352363 cumulative IPC: 0.353685 (Simulation time: 0 hr 21 min 28 sec) 
Heartbeat CPU 0 instructions: 510000000 cycles: 1234529130 heartbeat IPC: 0.283967 cumulative IPC: 0.35158 (Simulation time: 0 hr 21 min 59 sec) 
Heartbeat CPU 0 instructions: 520000000 cycles: 1262191211 heartbeat IPC: 0.361506 cumulative IPC: 0.35181 (Simulation time: 0 hr 22 min 27 sec) 
Heartbeat CPU 0 instructions: 530000001 cycles: 1291657511 heartbeat IPC: 0.339371 cumulative IPC: 0.35151 (Simulation time: 0 hr 22 min 55 sec) 
Heartbeat CPU 0 instructions: 540000000 cycles: 1319977887 heartbeat IPC: 0.353103 cumulative IPC: 0.351546 (Simulation time: 0 hr 23 min 23 sec) 
Heartbeat CPU 0 instructions: 550000001 cycles: 1349397662 heartbeat IPC: 0.339907 cumulative IPC: 0.351279 (Simulation time: 0 hr 23 min 53 sec) 
Heartbeat CPU 0 instructions: 560000000 cycles: 1374909358 heartbeat IPC: 0.391977 cumulative IPC: 0.352073 (Simulation time: 0 hr 24 min 21 sec) 
Heartbeat CPU 0 instructions: 570000000 cycles: 1404592302 heartbeat IPC: 0.336894 cumulative IPC: 0.351736 (Simulation time: 0 hr 24 min 50 sec) 
Heartbeat CPU 0 instructions: 580000000 cycles: 1432832482 heartbeat IPC: 0.354105 cumulative IPC: 0.351785 (Simulation time: 0 hr 25 min 18 sec) 
Heartbeat CPU 0 instructions: 590000001 cycles: 1458014315 heartbeat IPC: 0.397112 cumulative IPC: 0.352607 (Simulation time: 0 hr 25 min 45 sec) 
Heartbeat CPU 0 instructions: 600000000 cycles: 1484876114 heartbeat IPC: 0.372276 cumulative IPC: 0.35298 (Simulation time: 0 hr 26 min 13 sec) 
Finished CPU 0 instructions: 500000000 cycles: 1416512255 cumulative IPC: 0.35298 (Simulation time: 0 hr 26 min 13 sec) 

CPU 0 Branch Prediction Accuracy: 86.4311% MPKI: 26.2662
Number of Branches: 96788573 Number of Mispredictions: 13133102
Number of LOAD Instructions: 164682285
Number of LOAD Instructions (ROI): 164682285
Number of STORE Instructions: 78194750
Number of STORE Instructions (ROI): 78194750
Total Destination Memory Operands: 83268534
Total Destination Memory Operands (ROI): 83268534
Total Source Memory Operands: 164712438
Total Source Memory Operands (ROI): 164712438
Number of DEPENDED LOADS: 7073225
Number of DEPENDED LOADS (ROI): 7073225
Number of SQ_ADDED: 83268522
Number of SQ_ADDED (ROI): 83268522
Number of LQ_ADDED: 236806770
Number of LQ_ADDED (ROI): 236806770
Number of Instructions read from trace: 600000066

ChampSim completed all CPUs

Region of Interest Statistics

CPU 0 cumulative IPC: 0.35298 instructions: 500000000 cycles: 1416512255
ITLB TOTAL     ACCESS:  100499556  HIT:  100295110  MISS:     204446
ITLB LOAD      ACCESS:  100499556  HIT:  100295110  MISS:     204446
ITLB RFO       ACCESS:          0  HIT:          0  MISS:          0
ITLB PREFETCH  ACCESS:          0  HIT:          0  MISS:          0
ITLB WRITEBACK ACCESS:          0  HIT:          0  MISS:          0
ITLB PREFETCH  REQUESTED:          0  ISSUED:          0  USEFUL:          0  USELESS:          0
ITLB TOTAL MSHR MERGED:     172424
ITLB LOAD MSHR MERGED:     172424
ITLB RFO MSHR MERGED:          0
ITLB PREFETCH MSHR MERGED:          0
ITLB WRITEBACK MSHR MERGED:          0
ITLB TOTAL ACCESSES:  100671980 HITS:  100295110 MISSES:     376870
ITLB LOAD ACCESSES:  100671980 HITS:  100295110 MISSES:     376870
ITLB RFO ACCESSES:          0 HITS:          0 MISSES:          0
ITLB PREFETCH ACCESSES:          0 HITS:          0 MISSES:          0
ITLB WRITEBACK ACCESSES:          0 HITS:          0 MISSES:          0
ITLB RQ ACCESS:  500000057
ITLB RQ TO_CACHE:  100671980
ITLB RQ MERGED:  399328077
ITLB RQ FORWARD:          0
ITLB WQ ACCESS:          0
ITLB WQ TO_CACHE:          0
ITLB WQ MERGED:          0
ITLB WQ FORWARD:          0
DTLB TOTAL     ACCESS:  165322868  HIT:  164688514  MISS:     634354
DTLB LOAD      ACCESS:  106281543  HIT:  105711540  MISS:     570003
DTLB RFO       ACCESS:   59041325  HIT:   58976974  MISS:      64351
DTLB PREFETCH  ACCESS:          0  HIT:          0  MISS:          0
DTLB WRITEBACK ACCESS:          0  HIT:          0  MISS:          0
DTLB PREFETCH  REQUESTED:          0  ISSUED:          0  USEFUL:          0  USELESS:          0
DTLB TOTAL MSHR MERGED:      99839
DTLB LOAD MSHR MERGED:      59458
DTLB RFO MSHR MERGED:      40381
DTLB PREFETCH MSHR MERGED:          0
DTLB WRITEBACK MSHR MERGED:          0
DTLB TOTAL ACCESSES:  165422707 HITS:  164688514 MISSES:     734193
DTLB LOAD ACCESSES:  106341001 HITS:  105711540 MISSES:     629461
DTLB RFO ACCESSES:   59081706 HITS:   58976974 MISSES:     104732
DTLB PREFETCH ACCESSES:          0 HITS:          0 MISSES:          0
DTLB WRITEBACK ACCESSES:          0 HITS:          0 MISSES:          0
DTLB RQ ACCESS:  200297847
DTLB RQ TO_CACHE:  165422707
DTLB RQ MERGED:   34875140
DTLB RQ FORWARD:          0
DTLB WQ ACCESS:          0
DTLB WQ TO_CACHE:          0
DTLB WQ MERGED:          0
DTLB WQ FORWARD:          0
L1D TOTAL     ACCESS:  281731528  HIT:  273822347  MISS:    7909181
L1D LOAD      ACCESS:  110404167  HIT:  107123782  MISS:    3280385
L1D RFO       ACCESS:   67068331  HIT:   66175509  MISS:     892822
L1D PREFETCH  ACCESS:  104259030  HIT:  100523056  MISS:    3735974
L1D WRITEBACK ACCESS:          0  HIT:          0  MISS:          0
L1D PREFETCH  REQUESTED:  110805421  ISSUED:  109106261  USEFUL:    1656998  USELESS:    2078940
L1D TOTAL MSHR MERGED:    2950079
L1D LOAD MSHR MERGED:     501185
L1D RFO MSHR MERGED:    1919231
L1D PREFETCH MSHR MERGED:     529663
L1D WRITEBACK MSHR MERGED:          0
L1D TOTAL ACCESSES:  284709539 HITS:  273850279 MISSES:   10859260
L1D LOAD ACCESSES:  110807325 HITS:  107125686 MISSES:    3681639
L1D RFO ACCESSES:   68973503 HITS:   66175509 MISSES:    2797994
L1D PREFETCH ACCESSES:  104928711 HITS:  100549084 MISSES:    4379627
L1D WRITEBACK ACCESSES:          0 HITS:          0 MISSES:          0
L1D RQ ACCESS:  130745244
L1D RQ TO_CACHE:  110805424
L1D RQ MERGED:   19937916
L1D RQ FORWARD:          0
L1D WQ ACCESS:   69552603
L1D WQ TO_CACHE:   68973504
L1D WQ MERGED:     579099
L1D WQ FORWARD:      27932
L1I TOTAL     ACCESS:  126546828  HIT:  122308275  MISS:    4238553
L1I LOAD      ACCESS:  126546828  HIT:  122308275  MISS:    4238553
L1I RFO       ACCESS:          0  HIT:          0  MISS:          0
L1I PREFETCH  ACCESS:          0  HIT:          0  MISS:          0
L1I WRITEBACK ACCESS:          0  HIT:          0  MISS:          0
L1I PREFETCH  REQUESTED:          0  ISSUED:          0  USEFUL:          0  USELESS:          0
L1I TOTAL MSHR MERGED:    1834385
L1I LOAD MSHR MERGED:    1834385
L1I RFO MSHR MERGED:          0
L1I PREFETCH MSHR MERGED:          0
L1I WRITEBACK MSHR MERGED:          0
L1I TOTAL ACCESSES:  128381216 HITS:  122308275 MISSES:    6072941
L1I LOAD ACCESSES:  128381216 HITS:  122308275 MISSES:    6072941
L1I RFO ACCESSES:          0 HITS:          0 MISSES:          0
L1I PREFETCH ACCESSES:          0 HITS:          0 MISSES:          0
L1I WRITEBACK ACCESSES:          0 HITS:          0 MISSES:          0
L1I RQ ACCESS:  500000057
L1I RQ TO_CACHE:  128381216
L1I RQ MERGED:  371618841
L1I RQ FORWARD:          0
L1I WQ ACCESS:          0
L1I WQ TO_CACHE:          0
L1I WQ MERGED:          0
L1I WQ FORWARD:          0
L2C TOTAL     ACCESS:   14902406  HIT:   11156108  MISS:    3746298
L2C LOAD      ACCESS:    7418802  HIT:    5098095  MISS:    2320707
L2C RFO       ACCESS:     878663  HIT:     409903  MISS:     468760
L2C PREFETCH  ACCESS:    4565738  HIT:    3626165  MISS:     939573
L2C WRITEBACK ACCESS:    2039203  HIT:    2021945  MISS:      17258
L2C PREFETCH  REQUESTED:     842383  ISSUED:     842383  USEFUL:     202571  USELESS:     736707
L2C TOTAL MSHR MERGED:       9400
L2C LOAD MSHR MERGED:       1477
L2C RFO MSHR MERGED:          0
L2C PREFETCH MSHR MERGED:       7923
L2C WRITEBACK MSHR MERGED:          0
L2C TOTAL ACCESSES:   14912796 HITS:   11156558 MISSES:    3756238
L2C LOAD ACCESSES:    7419007 HITS:    5098300 MISSES:    2320707
L2C RFO ACCESSES:     878763 HITS:     410003 MISSES:     468760
L2C PREFETCH ACCESSES:    4575823 HITS:    3626310 MISSES:     949513
L2C WRITEBACK ACCESSES:    2039203 HITS:    2021945 MISSES:      17258
L2C RQ ACCESS:    8297773
L2C RQ TO_CACHE:    8297468
L2C RQ MERGED:          0
L2C RQ FORWARD:          0
L2C WQ ACCESS:    2039203
L2C WQ TO_CACHE:    2039203
L2C WQ MERGED:          0
L2C WQ FORWARD:        450
LLC TOTAL     ACCESS:    4609654  HIT:    3662033  MISS:     947621
LLC LOAD      ACCESS:    2319214  HIT:    2047590  MISS:     271624
LLC RFO       ACCESS:     468750  HIT:     308315  MISS:     160435
LLC PREFETCH  ACCESS:     941445  HIT:     588160  MISS:     353285
LLC WRITEBACK ACCESS:     880245  HIT:     717968  MISS:     162277
LLC PREFETCH  REQUESTED:          0  ISSUED:          0  USEFUL:      22589  USELESS:     330473
LLC TOTAL MSHR MERGED:        132
LLC LOAD MSHR MERGED:         38
LLC RFO MSHR MERGED:          0
LLC PREFETCH MSHR MERGED:         94
LLC WRITEBACK MSHR MERGED:          0
LLC TOTAL ACCESSES:    4609822 HITS:    3662069 MISSES:     947753
LLC LOAD ACCESSES:    2319230 HITS:    2047606 MISSES:     271624
LLC RFO ACCESSES:     468760 HITS:     308325 MISSES:     160435
LLC PREFETCH ACCESSES:     941587 HITS:     588170 MISSES:     353417
LLC WRITEBACK ACCESSES:     880245 HITS:     717968 MISSES:     162277
LLC 0 RQ ACCESS:    2787990
LLC 0 RQ TO_CACHE:    2787964
LLC 0 RQ MERGED:          0
LLC 0 RQ FORWARD:          0
LLC WQ ACCESS:     880245
LLC WQ TO_CACHE:     880245
LLC WQ MERGED:          0
LLC WQ FORWARD:         36
Major fault: 0 Minor fault: 12862
CPU 0 L1D next line prefetcher final stats
CPU 0 L2C PC-based stride prefetcher final stats
All Misses: 1094457
All Hits: 4332202
SD Algo Stats - Switches: 0 SRR-Repls: 312425 BRR-Repls: 0

DRAM Statistics
 CHANNEL 0
 RQ ROW_BUFFER_HIT:     166467  ROW_BUFFER_MISS:     614975
 DBUS_CONGESTED:     570957
 WQ ROW_BUFFER_HIT:      43378  ROW_BUFFER_MISS:     332532  FULL:          0

 AVG_CONGESTED_CYCLE: 13
LOADS RETIRED: 136549171
INSTR RETIRED: 500000000
