
*** ChampSim Multicore Out-of-Order Simulator ***

Warmup Instructions: 100000000
Simulation Instructions: 500000000
Number of CPUs: 1
LLC sets: 2048
LLC ways: 16
Clean RRIP Policies: 2202030022020300 Dirty RRIP Policies: 2202030022020300 PSEL Width: 10 Track Set: 4294967295 PSEL Mask: 1 Demote Mask: 4441021344410213DS Algo: 0Window size: 0
Off-chip DRAM Size: 4096 MB Channels: 1 Width: 64-bit Data Rate: 1600 MT/s

CPU 0 runs /mnt/beegfs/iconst01/spec2017/Cam4.trace.gz
NOT SORTED
TRACE STRING: /mnt/beegfs/iconst01/spec2017/Cam4.trace.gz
SORTED
TRACE STRING: /mnt/beegfs/iconst01/spec2017/Cam4.trace.gz
INITIAL
TRACE STRING: /mnt/beegfs/iconst01/spec2017/Cam4.trace.gz

champsim_seed used: 325

CPU 0 L1D next line prefetcher
CPU 0 L2C IP-based stride prefetcher
Initialize DRRIP state
Assign rand_sets[0]: 454  LLC: 2048
rand_sets[0]: 454
Assign rand_sets[1]: 1662  LLC: 2048
rand_sets[1]: 1662
Assign rand_sets[2]: 1921  LLC: 2048
rand_sets[2]: 1921
Assign rand_sets[3]: 1131  LLC: 2048
rand_sets[3]: 1131
Assign rand_sets[4]: 331  LLC: 2048
rand_sets[4]: 331
Assign rand_sets[5]: 1531  LLC: 2048
rand_sets[5]: 1531
Assign rand_sets[6]: 482  LLC: 2048
rand_sets[6]: 482
Assign rand_sets[7]: 1275  LLC: 2048
rand_sets[7]: 1275
Assign rand_sets[8]: 1876  LLC: 2048
rand_sets[8]: 1876
Assign rand_sets[9]: 2038  LLC: 2048
rand_sets[9]: 2038
Assign rand_sets[10]: 701  LLC: 2048
rand_sets[10]: 701
Assign rand_sets[11]: 479  LLC: 2048
rand_sets[11]: 479
Assign rand_sets[12]: 892  LLC: 2048
rand_sets[12]: 892
Assign rand_sets[13]: 1820  LLC: 2048
rand_sets[13]: 1820
Assign rand_sets[14]: 1505  LLC: 2048
rand_sets[14]: 1505
Assign rand_sets[15]: 1159  LLC: 2048
rand_sets[15]: 1159
Assign rand_sets[16]: 513  LLC: 2048
rand_sets[16]: 513
Assign rand_sets[17]: 703  LLC: 2048
rand_sets[17]: 703
Assign rand_sets[18]: 561  LLC: 2048
rand_sets[18]: 561
Assign rand_sets[19]: 990  LLC: 2048
rand_sets[19]: 990
Assign rand_sets[20]: 342  LLC: 2048
rand_sets[20]: 342
Assign rand_sets[21]: 882  LLC: 2048
rand_sets[21]: 882
Assign rand_sets[22]: 15  LLC: 2048
rand_sets[22]: 15
Assign rand_sets[23]: 71  LLC: 2048
rand_sets[23]: 71
Assign rand_sets[24]: 1127  LLC: 2048
rand_sets[24]: 1127
Assign rand_sets[25]: 1382  LLC: 2048
rand_sets[25]: 1382
Assign rand_sets[26]: 647  LLC: 2048
rand_sets[26]: 647
Assign rand_sets[27]: 857  LLC: 2048
rand_sets[27]: 857
Assign rand_sets[28]: 1450  LLC: 2048
rand_sets[28]: 1450
Assign rand_sets[29]: 1160  LLC: 2048
rand_sets[29]: 1160
Assign rand_sets[30]: 1852  LLC: 2048
rand_sets[30]: 1852
Assign rand_sets[31]: 1881  LLC: 2048
rand_sets[31]: 1881
Assign rand_sets[32]: 1770  LLC: 2048
rand_sets[32]: 1770
Assign rand_sets[33]: 1622  LLC: 2048
rand_sets[33]: 1622
Assign rand_sets[34]: 275  LLC: 2048
rand_sets[34]: 275
Assign rand_sets[35]: 635  LLC: 2048
rand_sets[35]: 635
Assign rand_sets[36]: 466  LLC: 2048
rand_sets[36]: 466
Assign rand_sets[37]: 1413  LLC: 2048
rand_sets[37]: 1413
Assign rand_sets[38]: 417  LLC: 2048
rand_sets[38]: 417
Assign rand_sets[39]: 472  LLC: 2048
rand_sets[39]: 472
Assign rand_sets[40]: 1340  LLC: 2048
rand_sets[40]: 1340
Assign rand_sets[41]: 852  LLC: 2048
rand_sets[41]: 852
Assign rand_sets[42]: 1365  LLC: 2048
rand_sets[42]: 1365
Assign rand_sets[43]: 47  LLC: 2048
rand_sets[43]: 47
Assign rand_sets[44]: 823  LLC: 2048
rand_sets[44]: 823
Assign rand_sets[45]: 686  LLC: 2048
rand_sets[45]: 686
Assign rand_sets[46]: 1637  LLC: 2048
rand_sets[46]: 1637
Assign rand_sets[47]: 1115  LLC: 2048
rand_sets[47]: 1115
Assign rand_sets[48]: 986  LLC: 2048
rand_sets[48]: 986
Assign rand_sets[49]: 258  LLC: 2048
rand_sets[49]: 258
Assign rand_sets[50]: 633  LLC: 2048
rand_sets[50]: 633
Assign rand_sets[51]: 920  LLC: 2048
rand_sets[51]: 920
Assign rand_sets[52]: 204  LLC: 2048
rand_sets[52]: 204
Assign rand_sets[53]: 227  LLC: 2048
rand_sets[53]: 227
Assign rand_sets[54]: 1818  LLC: 2048
rand_sets[54]: 1818
Assign rand_sets[55]: 886  LLC: 2048
rand_sets[55]: 886
Assign rand_sets[56]: 1422  LLC: 2048
rand_sets[56]: 1422
Assign rand_sets[57]: 607  LLC: 2048
rand_sets[57]: 607
Assign rand_sets[58]: 217  LLC: 2048
rand_sets[58]: 217
Assign rand_sets[59]: 1945  LLC: 2048
rand_sets[59]: 1945
Assign rand_sets[60]: 143  LLC: 2048
rand_sets[60]: 143
Assign rand_sets[61]: 1311  LLC: 2048
rand_sets[61]: 1311
Assign rand_sets[62]: 319  LLC: 2048
rand_sets[62]: 319
Assign rand_sets[63]: 1846  LLC: 2048
rand_sets[63]: 1846
 CLEAN-RRIP-POLICY-1: 2-2-0-2-0-3-0-0- CLEAN-RRIP-POLICY-2: 2-2-0-2-0-3-0-0-
 DIRTY-RRIP-POLICY-1: 2-2-0-2-0-3-0-0- DIRTY-RRIP-POLICY-2: 2-2-0-2-0-3-0-0-
 PSEL width: 10
Heartbeat CPU 0 instructions: 10000000 cycles: 4859184 heartbeat IPC: 2.05796 cumulative IPC: 2.05796 (Simulation time: 0 hr 0 min 17 sec) 
Heartbeat CPU 0 instructions: 20000000 cycles: 9790761 heartbeat IPC: 2.02775 cumulative IPC: 2.04274 (Simulation time: 0 hr 0 min 33 sec) 
Heartbeat CPU 0 instructions: 30000001 cycles: 14563077 heartbeat IPC: 2.09542 cumulative IPC: 2.06 (Simulation time: 0 hr 0 min 48 sec) 
Heartbeat CPU 0 instructions: 40000000 cycles: 19400109 heartbeat IPC: 2.06738 cumulative IPC: 2.06184 (Simulation time: 0 hr 1 min 5 sec) 
Heartbeat CPU 0 instructions: 50000000 cycles: 24256678 heartbeat IPC: 2.05907 cumulative IPC: 2.06129 (Simulation time: 0 hr 1 min 22 sec) 
Heartbeat CPU 0 instructions: 60000000 cycles: 29182234 heartbeat IPC: 2.03023 cumulative IPC: 2.05605 (Simulation time: 0 hr 1 min 39 sec) 
Heartbeat CPU 0 instructions: 70000001 cycles: 33957376 heartbeat IPC: 2.09418 cumulative IPC: 2.06141 (Simulation time: 0 hr 1 min 53 sec) 
Heartbeat CPU 0 instructions: 80000000 cycles: 38793680 heartbeat IPC: 2.06769 cumulative IPC: 2.06219 (Simulation time: 0 hr 2 min 11 sec) 
Heartbeat CPU 0 instructions: 90000002 cycles: 43647753 heartbeat IPC: 2.06013 cumulative IPC: 2.06196 (Simulation time: 0 hr 2 min 28 sec) 
Heartbeat CPU 0 instructions: 100000000 cycles: 48566643 heartbeat IPC: 2.03298 cumulative IPC: 2.05903 (Simulation time: 0 hr 2 min 44 sec) 

Warmup complete CPU 0 instructions: 100000001 cycles: 48566644 (Simulation time: 0 hr 2 min 44 sec) 

Heartbeat CPU 0 instructions: 110000000 cycles: 61605441 heartbeat IPC: 0.766942 cumulative IPC: 0.766942 (Simulation time: 0 hr 3 min 7 sec) 
Heartbeat CPU 0 instructions: 120000000 cycles: 75363361 heartbeat IPC: 0.726854 cumulative IPC: 0.74636 (Simulation time: 0 hr 3 min 33 sec) 
Heartbeat CPU 0 instructions: 130000000 cycles: 89118635 heartbeat IPC: 0.726994 cumulative IPC: 0.739791 (Simulation time: 0 hr 3 min 58 sec) 
Heartbeat CPU 0 instructions: 140000000 cycles: 103390630 heartbeat IPC: 0.700673 cumulative IPC: 0.729608 (Simulation time: 0 hr 4 min 23 sec) 
Heartbeat CPU 0 instructions: 150000003 cycles: 116520126 heartbeat IPC: 0.761644 cumulative IPC: 0.735798 (Simulation time: 0 hr 4 min 47 sec) 
Heartbeat CPU 0 instructions: 160000000 cycles: 130284785 heartbeat IPC: 0.726498 cumulative IPC: 0.734231 (Simulation time: 0 hr 5 min 12 sec) 
Heartbeat CPU 0 instructions: 170000001 cycles: 144076991 heartbeat IPC: 0.725047 cumulative IPC: 0.732905 (Simulation time: 0 hr 5 min 37 sec) 
Heartbeat CPU 0 instructions: 180000000 cycles: 158340772 heartbeat IPC: 0.701076 cumulative IPC: 0.728769 (Simulation time: 0 hr 6 min 3 sec) 
Heartbeat CPU 0 instructions: 190000003 cycles: 171438626 heartbeat IPC: 0.763484 cumulative IPC: 0.73247 (Simulation time: 0 hr 6 min 26 sec) 
Heartbeat CPU 0 instructions: 200000000 cycles: 185204890 heartbeat IPC: 0.726413 cumulative IPC: 0.73186 (Simulation time: 0 hr 6 min 51 sec) 
Heartbeat CPU 0 instructions: 210000002 cycles: 198998529 heartbeat IPC: 0.724972 cumulative IPC: 0.731228 (Simulation time: 0 hr 7 min 17 sec) 
Heartbeat CPU 0 instructions: 220000000 cycles: 213274254 heartbeat IPC: 0.70049 cumulative IPC: 0.728564 (Simulation time: 0 hr 7 min 42 sec) 
Heartbeat CPU 0 instructions: 230000001 cycles: 226344975 heartbeat IPC: 0.765069 cumulative IPC: 0.731248 (Simulation time: 0 hr 8 min 5 sec) 
Heartbeat CPU 0 instructions: 240000000 cycles: 240103301 heartbeat IPC: 0.726833 cumulative IPC: 0.730931 (Simulation time: 0 hr 8 min 30 sec) 
Heartbeat CPU 0 instructions: 250000001 cycles: 253847632 heartbeat IPC: 0.727573 cumulative IPC: 0.730706 (Simulation time: 0 hr 8 min 56 sec) 
Heartbeat CPU 0 instructions: 260000000 cycles: 268012485 heartbeat IPC: 0.705973 cumulative IPC: 0.729109 (Simulation time: 0 hr 9 min 21 sec) 
Heartbeat CPU 0 instructions: 270000003 cycles: 281214990 heartbeat IPC: 0.757432 cumulative IPC: 0.730717 (Simulation time: 0 hr 9 min 44 sec) 
Heartbeat CPU 0 instructions: 280000000 cycles: 294989987 heartbeat IPC: 0.725953 cumulative IPC: 0.73045 (Simulation time: 0 hr 10 min 9 sec) 
Heartbeat CPU 0 instructions: 290000001 cycles: 308779428 heartbeat IPC: 0.725193 cumulative IPC: 0.730172 (Simulation time: 0 hr 10 min 35 sec) 
Heartbeat CPU 0 instructions: 300000000 cycles: 322880533 heartbeat IPC: 0.709164 cumulative IPC: 0.729092 (Simulation time: 0 hr 11 min 0 sec) 
Heartbeat CPU 0 instructions: 310000000 cycles: 336124057 heartbeat IPC: 0.755086 cumulative IPC: 0.730289 (Simulation time: 0 hr 11 min 23 sec) 
Heartbeat CPU 0 instructions: 320000000 cycles: 349940270 heartbeat IPC: 0.723787 cumulative IPC: 0.729991 (Simulation time: 0 hr 11 min 48 sec) 
Heartbeat CPU 0 instructions: 330000000 cycles: 363747167 heartbeat IPC: 0.724276 cumulative IPC: 0.729741 (Simulation time: 0 hr 12 min 14 sec) 
Heartbeat CPU 0 instructions: 340000000 cycles: 377815300 heartbeat IPC: 0.710826 cumulative IPC: 0.728932 (Simulation time: 0 hr 12 min 39 sec) 
Heartbeat CPU 0 instructions: 350000000 cycles: 391111713 heartbeat IPC: 0.752083 cumulative IPC: 0.729831 (Simulation time: 0 hr 13 min 1 sec) 
Heartbeat CPU 0 instructions: 360000000 cycles: 404963147 heartbeat IPC: 0.721947 cumulative IPC: 0.729525 (Simulation time: 0 hr 13 min 26 sec) 
Heartbeat CPU 0 instructions: 370000003 cycles: 418774267 heartbeat IPC: 0.724054 cumulative IPC: 0.72932 (Simulation time: 0 hr 13 min 51 sec) 
Heartbeat CPU 0 instructions: 380000000 cycles: 432809267 heartbeat IPC: 0.712504 cumulative IPC: 0.728706 (Simulation time: 0 hr 14 min 16 sec) 
Heartbeat CPU 0 instructions: 390000003 cycles: 446112614 heartbeat IPC: 0.751691 cumulative IPC: 0.729475 (Simulation time: 0 hr 14 min 39 sec) 
Heartbeat CPU 0 instructions: 400000000 cycles: 459961016 heartbeat IPC: 0.722105 cumulative IPC: 0.729227 (Simulation time: 0 hr 15 min 4 sec) 
Heartbeat CPU 0 instructions: 410000000 cycles: 473742164 heartbeat IPC: 0.725629 cumulative IPC: 0.729111 (Simulation time: 0 hr 15 min 29 sec) 
Heartbeat CPU 0 instructions: 420000000 cycles: 487764631 heartbeat IPC: 0.713141 cumulative IPC: 0.728601 (Simulation time: 0 hr 15 min 54 sec) 
Heartbeat CPU 0 instructions: 430000003 cycles: 501110328 heartbeat IPC: 0.749305 cumulative IPC: 0.729211 (Simulation time: 0 hr 16 min 17 sec) 
Heartbeat CPU 0 instructions: 440000000 cycles: 514961389 heartbeat IPC: 0.721966 cumulative IPC: 0.728996 (Simulation time: 0 hr 16 min 42 sec) 
Heartbeat CPU 0 instructions: 450000000 cycles: 528765827 heartbeat IPC: 0.724405 cumulative IPC: 0.728864 (Simulation time: 0 hr 17 min 6 sec) 
Heartbeat CPU 0 instructions: 460000000 cycles: 542773203 heartbeat IPC: 0.71391 cumulative IPC: 0.72844 (Simulation time: 0 hr 17 min 31 sec) 
Heartbeat CPU 0 instructions: 470000001 cycles: 556108583 heartbeat IPC: 0.749885 cumulative IPC: 0.729004 (Simulation time: 0 hr 17 min 54 sec) 
Heartbeat CPU 0 instructions: 480000000 cycles: 569937100 heartbeat IPC: 0.723143 cumulative IPC: 0.728848 (Simulation time: 0 hr 18 min 19 sec) 
Heartbeat CPU 0 instructions: 490000002 cycles: 583711628 heartbeat IPC: 0.725978 cumulative IPC: 0.728774 (Simulation time: 0 hr 18 min 44 sec) 
Heartbeat CPU 0 instructions: 500000000 cycles: 597718417 heartbeat IPC: 0.713939 cumulative IPC: 0.728396 (Simulation time: 0 hr 19 min 9 sec) 
Heartbeat CPU 0 instructions: 510000002 cycles: 611065579 heartbeat IPC: 0.749223 cumulative IPC: 0.72889 (Simulation time: 0 hr 19 min 31 sec) 
Heartbeat CPU 0 instructions: 520000000 cycles: 624886362 heartbeat IPC: 0.723548 cumulative IPC: 0.728762 (Simulation time: 0 hr 19 min 56 sec) 
Heartbeat CPU 0 instructions: 530000003 cycles: 638646589 heartbeat IPC: 0.726732 cumulative IPC: 0.728715 (Simulation time: 0 hr 20 min 21 sec) 
Heartbeat CPU 0 instructions: 540000000 cycles: 652680462 heartbeat IPC: 0.712561 cumulative IPC: 0.72834 (Simulation time: 0 hr 20 min 46 sec) 
Heartbeat CPU 0 instructions: 550000003 cycles: 666058712 heartbeat IPC: 0.747482 cumulative IPC: 0.728754 (Simulation time: 0 hr 21 min 9 sec) 
Heartbeat CPU 0 instructions: 560000000 cycles: 679854769 heartbeat IPC: 0.724845 cumulative IPC: 0.728669 (Simulation time: 0 hr 21 min 33 sec) 
Heartbeat CPU 0 instructions: 570000001 cycles: 693644032 heartbeat IPC: 0.725202 cumulative IPC: 0.728595 (Simulation time: 0 hr 21 min 58 sec) 
Heartbeat CPU 0 instructions: 580000000 cycles: 707698262 heartbeat IPC: 0.711529 cumulative IPC: 0.728231 (Simulation time: 0 hr 22 min 23 sec) 
Heartbeat CPU 0 instructions: 590000000 cycles: 721041174 heartbeat IPC: 0.749462 cumulative IPC: 0.728652 (Simulation time: 0 hr 22 min 46 sec) 
Heartbeat CPU 0 instructions: 600000000 cycles: 734848267 heartbeat IPC: 0.724265 cumulative IPC: 0.728564 (Simulation time: 0 hr 23 min 11 sec) 
Finished CPU 0 instructions: 500000001 cycles: 686281631 cumulative IPC: 0.728564 (Simulation time: 0 hr 23 min 11 sec) 

CPU 0 Branch Prediction Accuracy: 97.5275% MPKI: 2.1997
Number of Branches: 44482865 Number of Mispredictions: 1099852
Number of LOAD Instructions: 144955155
Number of LOAD Instructions (ROI): 144955155
Number of STORE Instructions: 55921098
Number of STORE Instructions (ROI): 55921098
Total Destination Memory Operands: 57111147
Total Destination Memory Operands (ROI): 57111147
Total Source Memory Operands: 144955155
Total Source Memory Operands (ROI): 144955155
Number of DEPENDED LOADS: 13454913
Number of DEPENDED LOADS (ROI): 13454913
Number of SQ_ADDED: 57111126
Number of SQ_ADDED (ROI): 57111126
Number of LQ_ADDED: 174394448
Number of LQ_ADDED (ROI): 174394448
Number of Instructions read from trace: 600000256

ChampSim completed all CPUs

Region of Interest Statistics

CPU 0 cumulative IPC: 0.728564 instructions: 500000001 cycles: 686281631
ITLB TOTAL     ACCESS:  136076409  HIT:  136073856  MISS:       2553
ITLB LOAD      ACCESS:  136076409  HIT:  136073856  MISS:       2553
ITLB RFO       ACCESS:          0  HIT:          0  MISS:          0
ITLB PREFETCH  ACCESS:          0  HIT:          0  MISS:          0
ITLB WRITEBACK ACCESS:          0  HIT:          0  MISS:          0
ITLB PREFETCH  REQUESTED:          0  ISSUED:          0  USEFUL:          0  USELESS:          0
ITLB TOTAL MSHR MERGED:       4374
ITLB LOAD MSHR MERGED:       4374
ITLB RFO MSHR MERGED:          0
ITLB PREFETCH MSHR MERGED:          0
ITLB WRITEBACK MSHR MERGED:          0
ITLB TOTAL ACCESSES:  136080783 HITS:  136073856 MISSES:       6927
ITLB LOAD ACCESSES:  136080783 HITS:  136073856 MISSES:       6927
ITLB RFO ACCESSES:          0 HITS:          0 MISSES:          0
ITLB PREFETCH ACCESSES:          0 HITS:          0 MISSES:          0
ITLB WRITEBACK ACCESSES:          0 HITS:          0 MISSES:          0
ITLB RQ ACCESS:  500000202
ITLB RQ TO_CACHE:  136080783
ITLB RQ MERGED:  363919419
ITLB RQ FORWARD:          0
ITLB WQ ACCESS:          0
ITLB WQ TO_CACHE:          0
ITLB WQ MERGED:          0
ITLB WQ FORWARD:          0
DTLB TOTAL     ACCESS:  111552857  HIT:  111416663  MISS:     136194
DTLB LOAD      ACCESS:   78951436  HIT:   78825811  MISS:     125625
DTLB RFO       ACCESS:   32601421  HIT:   32590852  MISS:      10569
DTLB PREFETCH  ACCESS:          0  HIT:          0  MISS:          0
DTLB WRITEBACK ACCESS:          0  HIT:          0  MISS:          0
DTLB PREFETCH  REQUESTED:          0  ISSUED:          0  USEFUL:          0  USELESS:          0
DTLB TOTAL MSHR MERGED:      63931
DTLB LOAD MSHR MERGED:      50950
DTLB RFO MSHR MERGED:      12981
DTLB PREFETCH MSHR MERGED:          0
DTLB WRITEBACK MSHR MERGED:          0
DTLB TOTAL ACCESSES:  111616788 HITS:  111416663 MISSES:     200125
DTLB LOAD ACCESSES:   79002386 HITS:   78825811 MISSES:     176575
DTLB RFO ACCESSES:   32614402 HITS:   32590852 MISSES:      23550
DTLB PREFETCH ACCESSES:          0 HITS:          0 MISSES:          0
DTLB WRITEBACK ACCESSES:          0 HITS:          0 MISSES:          0
DTLB RQ ACCESS:  157180515
DTLB RQ TO_CACHE:  111616788
DTLB RQ MERGED:   45563727
DTLB RQ FORWARD:          0
DTLB WQ ACCESS:          0
DTLB WQ TO_CACHE:          0
DTLB WQ MERGED:          0
DTLB WQ FORWARD:          0
L1D TOTAL     ACCESS:  198223614  HIT:  188382518  MISS:    9841096
L1D LOAD      ACCESS:   79944322  HIT:   75678530  MISS:    4265792
L1D RFO       ACCESS:   44527982  HIT:   43627903  MISS:     900079
L1D PREFETCH  ACCESS:   73751310  HIT:   69076085  MISS:    4675225
L1D WRITEBACK ACCESS:          0  HIT:          0  MISS:          0
L1D PREFETCH  REQUESTED:   80348121  ISSUED:   79892572  USEFUL:    1816888  USELESS:    2858246
L1D TOTAL MSHR MERGED:    2514102
L1D LOAD MSHR MERGED:     530515
L1D RFO MSHR MERGED:    1424841
L1D PREFETCH MSHR MERGED:     558746
L1D WRITEBACK MSHR MERGED:          0
L1D TOTAL ACCESSES:  200758804 HITS:  188403606 MISSES:   12355198
L1D LOAD ACCESSES:   80360595 HITS:   75691004 MISSES:    4669591
L1D RFO ACCESSES:   45950072 HITS:   43627903 MISSES:    2322169
L1D PREFETCH ACCESSES:   74448137 HITS:   69084699 MISSES:    5363438
L1D WRITEBACK ACCESSES:          0 HITS:          0 MISSES:          0
L1D RQ ACCESS:  109538545
L1D RQ TO_CACHE:   80348121
L1D RQ MERGED:   29177950
L1D RQ FORWARD:          0
L1D WQ ACCESS:   47641970
L1D WQ TO_CACHE:   45950072
L1D WQ MERGED:    1691898
L1D WQ FORWARD:      21088
L1I TOTAL     ACCESS:  161547701  HIT:  161283733  MISS:     263968
L1I LOAD      ACCESS:  161547701  HIT:  161283733  MISS:     263968
L1I RFO       ACCESS:          0  HIT:          0  MISS:          0
L1I PREFETCH  ACCESS:          0  HIT:          0  MISS:          0
L1I WRITEBACK ACCESS:          0  HIT:          0  MISS:          0
L1I PREFETCH  REQUESTED:          0  ISSUED:          0  USEFUL:          0  USELESS:          0
L1I TOTAL MSHR MERGED:     261291
L1I LOAD MSHR MERGED:     261291
L1I RFO MSHR MERGED:          0
L1I PREFETCH MSHR MERGED:          0
L1I WRITEBACK MSHR MERGED:          0
L1I TOTAL ACCESSES:  161808992 HITS:  161283733 MISSES:     525259
L1I LOAD ACCESSES:  161808992 HITS:  161283733 MISSES:     525259
L1I RFO ACCESSES:          0 HITS:          0 MISSES:          0
L1I PREFETCH ACCESSES:          0 HITS:          0 MISSES:          0
L1I WRITEBACK ACCESSES:          0 HITS:          0 MISSES:          0
L1I RQ ACCESS:  500000202
L1I RQ TO_CACHE:  161808992
L1I RQ MERGED:  338191210
L1I RQ FORWARD:          0
L1I WQ ACCESS:          0
L1I WQ TO_CACHE:          0
L1I WQ MERGED:          0
L1I WQ FORWARD:          0
L2C TOTAL     ACCESS:   11771490  HIT:   10382234  MISS:    1389256
L2C LOAD      ACCESS:    4402980  HIT:    3906145  MISS:     496835
L2C RFO       ACCESS:     897262  HIT:     536244  MISS:     361018
L2C PREFETCH  ACCESS:    5283680  HIT:    4755225  MISS:     528455
L2C WRITEBACK ACCESS:    1187568  HIT:    1184620  MISS:       2948
L2C PREFETCH  REQUESTED:     504157  ISSUED:     504157  USEFUL:     114685  USELESS:     413963
L2C TOTAL MSHR MERGED:       2013
L2C LOAD MSHR MERGED:        373
L2C RFO MSHR MERGED:          0
L2C PREFETCH MSHR MERGED:       1640
L2C WRITEBACK MSHR MERGED:          0
L2C TOTAL ACCESSES:   11776332 HITS:   10382449 MISSES:    1393883
L2C LOAD ACCESSES:    4403044 HITS:    3906209 MISSES:     496835
L2C RFO ACCESSES:     897328 HITS:     536310 MISSES:     361018
L2C PREFETCH ACCESSES:    5288392 HITS:    4755310 MISSES:     533082
L2C WRITEBACK ACCESSES:    1187568 HITS:    1184620 MISSES:       2948
L2C RQ ACCESS:    5300372
L2C RQ TO_CACHE:    5300242
L2C RQ MERGED:          0
L2C RQ FORWARD:          0
L2C WQ ACCESS:    1187568
L2C WQ TO_CACHE:    1187568
L2C WQ MERGED:          0
L2C WQ FORWARD:        215
LLC TOTAL     ACCESS:    1849525  HIT:    1161152  MISS:     688373
LLC LOAD      ACCESS:     496461  HIT:     212714  MISS:     283747
LLC RFO       ACCESS:     361014  HIT:     257253  MISS:     103761
LLC PREFETCH  ACCESS:     531324  HIT:     309810  MISS:     221514
LLC WRITEBACK ACCESS:     460726  HIT:     381375  MISS:      79351
LLC PREFETCH  REQUESTED:          0  ISSUED:          0  USEFUL:       9080  USELESS:     214604
LLC TOTAL MSHR MERGED:         89
LLC LOAD MSHR MERGED:         37
LLC RFO MSHR MERGED:          0
LLC PREFETCH MSHR MERGED:         52
LLC WRITEBACK MSHR MERGED:          0
LLC TOTAL ACCESSES:    1849632 HITS:    1161170 MISSES:     688462
LLC LOAD ACCESSES:     496462 HITS:     212715 MISSES:     283747
LLC RFO ACCESSES:     361018 HITS:     257257 MISSES:     103761
LLC PREFETCH ACCESSES:     531426 HITS:     309823 MISSES:     221603
LLC WRITEBACK ACCESSES:     460726 HITS:     381375 MISSES:      79351
LLC 0 RQ ACCESS:     857480
LLC 0 RQ TO_CACHE:     857475
LLC 0 RQ MERGED:          0
LLC 0 RQ FORWARD:          0
LLC WQ ACCESS:     460726
LLC WQ TO_CACHE:     460726
LLC WQ MERGED:          0
LLC WQ FORWARD:         18
Major fault: 0 Minor fault: 3073
CPU 0 L1D next line prefetcher final stats
CPU 0 L2C PC-based stride prefetcher final stats
All Misses: 840509
All Hits: 1335709
SD Algo Stats - Switches: 0 SRR-Repls: 322618 BRR-Repls: 0

DRAM Statistics
 CHANNEL 0
 RQ ROW_BUFFER_HIT:     406736  ROW_BUFFER_MISS:     200866
 DBUS_CONGESTED:     399010
 WQ ROW_BUFFER_HIT:      23548  ROW_BUFFER_MISS:      86381  FULL:          0

 AVG_CONGESTED_CYCLE: 13
LOADS RETIRED: 120673965
INSTR RETIRED: 500000000
