
*** ChampSim Multicore Out-of-Order Simulator ***

Warmup Instructions: 100000000
Simulation Instructions: 500000000
Number of CPUs: 1
LLC sets: 2048
LLC ways: 16
Clean RRIP Policies: 2202030022020300 Dirty RRIP Policies: 2202030022020300 PSEL Width: 10 Track Set: 4294967295 PSEL Mask: 1 Demote Mask: 4441021344410213DS Algo: 0Window size: 0
Off-chip DRAM Size: 4096 MB Channels: 1 Width: 64-bit Data Rate: 1600 MT/s

CPU 0 runs /mnt/beegfs/iconst01/spec2017/Lbm.trace.gz
NOT SORTED
TRACE STRING: /mnt/beegfs/iconst01/spec2017/Lbm.trace.gz
SORTED
TRACE STRING: /mnt/beegfs/iconst01/spec2017/Lbm.trace.gz
INITIAL
TRACE STRING: /mnt/beegfs/iconst01/spec2017/Lbm.trace.gz

champsim_seed used: 283

CPU 0 L1D next line prefetcher
CPU 0 L2C IP-based stride prefetcher
Initialize DRRIP state
Assign rand_sets[0]: 454  LLC: 2048
rand_sets[0]: 454
Assign rand_sets[1]: 1662  LLC: 2048
rand_sets[1]: 1662
Assign rand_sets[2]: 1921  LLC: 2048
rand_sets[2]: 1921
Assign rand_sets[3]: 1131  LLC: 2048
rand_sets[3]: 1131
Assign rand_sets[4]: 331  LLC: 2048
rand_sets[4]: 331
Assign rand_sets[5]: 1531  LLC: 2048
rand_sets[5]: 1531
Assign rand_sets[6]: 482  LLC: 2048
rand_sets[6]: 482
Assign rand_sets[7]: 1275  LLC: 2048
rand_sets[7]: 1275
Assign rand_sets[8]: 1876  LLC: 2048
rand_sets[8]: 1876
Assign rand_sets[9]: 2038  LLC: 2048
rand_sets[9]: 2038
Assign rand_sets[10]: 701  LLC: 2048
rand_sets[10]: 701
Assign rand_sets[11]: 479  LLC: 2048
rand_sets[11]: 479
Assign rand_sets[12]: 892  LLC: 2048
rand_sets[12]: 892
Assign rand_sets[13]: 1820  LLC: 2048
rand_sets[13]: 1820
Assign rand_sets[14]: 1505  LLC: 2048
rand_sets[14]: 1505
Assign rand_sets[15]: 1159  LLC: 2048
rand_sets[15]: 1159
Assign rand_sets[16]: 513  LLC: 2048
rand_sets[16]: 513
Assign rand_sets[17]: 703  LLC: 2048
rand_sets[17]: 703
Assign rand_sets[18]: 561  LLC: 2048
rand_sets[18]: 561
Assign rand_sets[19]: 990  LLC: 2048
rand_sets[19]: 990
Assign rand_sets[20]: 342  LLC: 2048
rand_sets[20]: 342
Assign rand_sets[21]: 882  LLC: 2048
rand_sets[21]: 882
Assign rand_sets[22]: 15  LLC: 2048
rand_sets[22]: 15
Assign rand_sets[23]: 71  LLC: 2048
rand_sets[23]: 71
Assign rand_sets[24]: 1127  LLC: 2048
rand_sets[24]: 1127
Assign rand_sets[25]: 1382  LLC: 2048
rand_sets[25]: 1382
Assign rand_sets[26]: 647  LLC: 2048
rand_sets[26]: 647
Assign rand_sets[27]: 857  LLC: 2048
rand_sets[27]: 857
Assign rand_sets[28]: 1450  LLC: 2048
rand_sets[28]: 1450
Assign rand_sets[29]: 1160  LLC: 2048
rand_sets[29]: 1160
Assign rand_sets[30]: 1852  LLC: 2048
rand_sets[30]: 1852
Assign rand_sets[31]: 1881  LLC: 2048
rand_sets[31]: 1881
Assign rand_sets[32]: 1770  LLC: 2048
rand_sets[32]: 1770
Assign rand_sets[33]: 1622  LLC: 2048
rand_sets[33]: 1622
Assign rand_sets[34]: 275  LLC: 2048
rand_sets[34]: 275
Assign rand_sets[35]: 635  LLC: 2048
rand_sets[35]: 635
Assign rand_sets[36]: 466  LLC: 2048
rand_sets[36]: 466
Assign rand_sets[37]: 1413  LLC: 2048
rand_sets[37]: 1413
Assign rand_sets[38]: 417  LLC: 2048
rand_sets[38]: 417
Assign rand_sets[39]: 472  LLC: 2048
rand_sets[39]: 472
Assign rand_sets[40]: 1340  LLC: 2048
rand_sets[40]: 1340
Assign rand_sets[41]: 852  LLC: 2048
rand_sets[41]: 852
Assign rand_sets[42]: 1365  LLC: 2048
rand_sets[42]: 1365
Assign rand_sets[43]: 47  LLC: 2048
rand_sets[43]: 47
Assign rand_sets[44]: 823  LLC: 2048
rand_sets[44]: 823
Assign rand_sets[45]: 686  LLC: 2048
rand_sets[45]: 686
Assign rand_sets[46]: 1637  LLC: 2048
rand_sets[46]: 1637
Assign rand_sets[47]: 1115  LLC: 2048
rand_sets[47]: 1115
Assign rand_sets[48]: 986  LLC: 2048
rand_sets[48]: 986
Assign rand_sets[49]: 258  LLC: 2048
rand_sets[49]: 258
Assign rand_sets[50]: 633  LLC: 2048
rand_sets[50]: 633
Assign rand_sets[51]: 920  LLC: 2048
rand_sets[51]: 920
Assign rand_sets[52]: 204  LLC: 2048
rand_sets[52]: 204
Assign rand_sets[53]: 227  LLC: 2048
rand_sets[53]: 227
Assign rand_sets[54]: 1818  LLC: 2048
rand_sets[54]: 1818
Assign rand_sets[55]: 886  LLC: 2048
rand_sets[55]: 886
Assign rand_sets[56]: 1422  LLC: 2048
rand_sets[56]: 1422
Assign rand_sets[57]: 607  LLC: 2048
rand_sets[57]: 607
Assign rand_sets[58]: 217  LLC: 2048
rand_sets[58]: 217
Assign rand_sets[59]: 1945  LLC: 2048
rand_sets[59]: 1945
Assign rand_sets[60]: 143  LLC: 2048
rand_sets[60]: 143
Assign rand_sets[61]: 1311  LLC: 2048
rand_sets[61]: 1311
Assign rand_sets[62]: 319  LLC: 2048
rand_sets[62]: 319
Assign rand_sets[63]: 1846  LLC: 2048
rand_sets[63]: 1846
 CLEAN-RRIP-POLICY-1: 2-2-0-2-0-3-0-0- CLEAN-RRIP-POLICY-2: 2-2-0-2-0-3-0-0-
 DIRTY-RRIP-POLICY-1: 2-2-0-2-0-3-0-0- DIRTY-RRIP-POLICY-2: 2-2-0-2-0-3-0-0-
 PSEL width: 10
Heartbeat CPU 0 instructions: 10000000 cycles: 4321587 heartbeat IPC: 2.31396 cumulative IPC: 2.31396 (Simulation time: 0 hr 0 min 18 sec) 
Heartbeat CPU 0 instructions: 20000000 cycles: 8643670 heartbeat IPC: 2.3137 cumulative IPC: 2.31383 (Simulation time: 0 hr 0 min 35 sec) 
Heartbeat CPU 0 instructions: 30000000 cycles: 12965510 heartbeat IPC: 2.31383 cumulative IPC: 2.31383 (Simulation time: 0 hr 0 min 53 sec) 
Heartbeat CPU 0 instructions: 40000000 cycles: 17291463 heartbeat IPC: 2.31163 cumulative IPC: 2.31328 (Simulation time: 0 hr 1 min 11 sec) 
Heartbeat CPU 0 instructions: 50000000 cycles: 21613469 heartbeat IPC: 2.31374 cumulative IPC: 2.31337 (Simulation time: 0 hr 1 min 29 sec) 
Heartbeat CPU 0 instructions: 60000000 cycles: 25935418 heartbeat IPC: 2.31377 cumulative IPC: 2.31344 (Simulation time: 0 hr 1 min 47 sec) 
Heartbeat CPU 0 instructions: 70000000 cycles: 30257029 heartbeat IPC: 2.31395 cumulative IPC: 2.31351 (Simulation time: 0 hr 2 min 5 sec) 
Heartbeat CPU 0 instructions: 80000000 cycles: 34583258 heartbeat IPC: 2.31148 cumulative IPC: 2.31326 (Simulation time: 0 hr 2 min 23 sec) 
Heartbeat CPU 0 instructions: 90000003 cycles: 38905400 heartbeat IPC: 2.31367 cumulative IPC: 2.3133 (Simulation time: 0 hr 2 min 41 sec) 
Heartbeat CPU 0 instructions: 100000000 cycles: 43226966 heartbeat IPC: 2.31398 cumulative IPC: 2.31337 (Simulation time: 0 hr 2 min 59 sec) 

Warmup complete CPU 0 instructions: 100000001 cycles: 43226967 (Simulation time: 0 hr 2 min 59 sec) 

Heartbeat CPU 0 instructions: 110000000 cycles: 57786666 heartbeat IPC: 0.686827 cumulative IPC: 0.686827 (Simulation time: 0 hr 3 min 25 sec) 
Heartbeat CPU 0 instructions: 120000000 cycles: 72524198 heartbeat IPC: 0.67854 cumulative IPC: 0.682658 (Simulation time: 0 hr 3 min 51 sec) 
Heartbeat CPU 0 instructions: 130000000 cycles: 87097960 heartbeat IPC: 0.686165 cumulative IPC: 0.683823 (Simulation time: 0 hr 4 min 17 sec) 
Heartbeat CPU 0 instructions: 140000000 cycles: 101585249 heartbeat IPC: 0.69026 cumulative IPC: 0.685421 (Simulation time: 0 hr 4 min 43 sec) 
Heartbeat CPU 0 instructions: 150000003 cycles: 115733194 heartbeat IPC: 0.706817 cumulative IPC: 0.689596 (Simulation time: 0 hr 5 min 9 sec) 
Heartbeat CPU 0 instructions: 160000000 cycles: 129752473 heartbeat IPC: 0.713303 cumulative IPC: 0.693437 (Simulation time: 0 hr 5 min 34 sec) 
Heartbeat CPU 0 instructions: 170000002 cycles: 144431300 heartbeat IPC: 0.681253 cumulative IPC: 0.69167 (Simulation time: 0 hr 6 min 0 sec) 
Heartbeat CPU 0 instructions: 180000000 cycles: 158762689 heartbeat IPC: 0.697769 cumulative IPC: 0.692427 (Simulation time: 0 hr 6 min 26 sec) 
Heartbeat CPU 0 instructions: 190000003 cycles: 176177484 heartbeat IPC: 0.574225 cumulative IPC: 0.676944 (Simulation time: 0 hr 6 min 55 sec) 
Heartbeat CPU 0 instructions: 200000000 cycles: 197011345 heartbeat IPC: 0.479988 cumulative IPC: 0.650261 (Simulation time: 0 hr 7 min 27 sec) 
Heartbeat CPU 0 instructions: 210000001 cycles: 211380035 heartbeat IPC: 0.695958 cumulative IPC: 0.654166 (Simulation time: 0 hr 7 min 53 sec) 
Heartbeat CPU 0 instructions: 220000000 cycles: 225700953 heartbeat IPC: 0.698279 cumulative IPC: 0.657628 (Simulation time: 0 hr 8 min 19 sec) 
Heartbeat CPU 0 instructions: 230000001 cycles: 240223426 heartbeat IPC: 0.688588 cumulative IPC: 0.65991 (Simulation time: 0 hr 8 min 45 sec) 
Heartbeat CPU 0 instructions: 240000000 cycles: 254756725 heartbeat IPC: 0.688075 cumulative IPC: 0.661845 (Simulation time: 0 hr 9 min 11 sec) 
Heartbeat CPU 0 instructions: 250000000 cycles: 269676820 heartbeat IPC: 0.670237 cumulative IPC: 0.662398 (Simulation time: 0 hr 9 min 37 sec) 
Heartbeat CPU 0 instructions: 260000000 cycles: 284630800 heartbeat IPC: 0.668718 cumulative IPC: 0.66279 (Simulation time: 0 hr 10 min 4 sec) 
Heartbeat CPU 0 instructions: 270000002 cycles: 299984420 heartbeat IPC: 0.651312 cumulative IPC: 0.662103 (Simulation time: 0 hr 10 min 31 sec) 
Heartbeat CPU 0 instructions: 280000000 cycles: 315206975 heartbeat IPC: 0.65692 cumulative IPC: 0.661813 (Simulation time: 0 hr 10 min 57 sec) 
Heartbeat CPU 0 instructions: 290000003 cycles: 331243228 heartbeat IPC: 0.623587 cumulative IPC: 0.659685 (Simulation time: 0 hr 11 min 25 sec) 
Heartbeat CPU 0 instructions: 300000000 cycles: 346619475 heartbeat IPC: 0.650354 cumulative IPC: 0.659212 (Simulation time: 0 hr 11 min 51 sec) 
Heartbeat CPU 0 instructions: 310000000 cycles: 362949644 heartbeat IPC: 0.612364 cumulative IPC: 0.656819 (Simulation time: 0 hr 12 min 19 sec) 
Heartbeat CPU 0 instructions: 320000000 cycles: 378981610 heartbeat IPC: 0.623754 cumulative IPC: 0.65524 (Simulation time: 0 hr 12 min 46 sec) 
Heartbeat CPU 0 instructions: 330000002 cycles: 394373473 heartbeat IPC: 0.649694 cumulative IPC: 0.654997 (Simulation time: 0 hr 13 min 12 sec) 
Heartbeat CPU 0 instructions: 340000000 cycles: 410630742 heartbeat IPC: 0.615109 cumulative IPC: 0.653232 (Simulation time: 0 hr 13 min 39 sec) 
Heartbeat CPU 0 instructions: 350000001 cycles: 426024582 heartbeat IPC: 0.649611 cumulative IPC: 0.653087 (Simulation time: 0 hr 14 min 6 sec) 
Heartbeat CPU 0 instructions: 360000000 cycles: 441762291 heartbeat IPC: 0.635416 cumulative IPC: 0.652389 (Simulation time: 0 hr 14 min 32 sec) 
Heartbeat CPU 0 instructions: 370000000 cycles: 456965011 heartbeat IPC: 0.657777 cumulative IPC: 0.652587 (Simulation time: 0 hr 14 min 58 sec) 
Heartbeat CPU 0 instructions: 380000000 cycles: 472241289 heartbeat IPC: 0.65461 cumulative IPC: 0.652659 (Simulation time: 0 hr 15 min 25 sec) 
Heartbeat CPU 0 instructions: 390000000 cycles: 486934141 heartbeat IPC: 0.680603 cumulative IPC: 0.653584 (Simulation time: 0 hr 15 min 51 sec) 
Heartbeat CPU 0 instructions: 400000000 cycles: 501649698 heartbeat IPC: 0.679553 cumulative IPC: 0.654418 (Simulation time: 0 hr 16 min 16 sec) 
Heartbeat CPU 0 instructions: 410000000 cycles: 516272118 heartbeat IPC: 0.683881 cumulative IPC: 0.655329 (Simulation time: 0 hr 16 min 42 sec) 
Heartbeat CPU 0 instructions: 420000000 cycles: 530777460 heartbeat IPC: 0.689401 cumulative IPC: 0.656342 (Simulation time: 0 hr 17 min 7 sec) 
Heartbeat CPU 0 instructions: 430000002 cycles: 545062240 heartbeat IPC: 0.700046 cumulative IPC: 0.657586 (Simulation time: 0 hr 17 min 33 sec) 
Heartbeat CPU 0 instructions: 440000000 cycles: 559184930 heartbeat IPC: 0.70808 cumulative IPC: 0.658968 (Simulation time: 0 hr 17 min 58 sec) 
Heartbeat CPU 0 instructions: 450000000 cycles: 573687244 heartbeat IPC: 0.689545 cumulative IPC: 0.659804 (Simulation time: 0 hr 18 min 23 sec) 
Heartbeat CPU 0 instructions: 460000000 cycles: 588673351 heartbeat IPC: 0.667285 cumulative IPC: 0.66001 (Simulation time: 0 hr 18 min 49 sec) 
Heartbeat CPU 0 instructions: 470000000 cycles: 603094384 heartbeat IPC: 0.693432 cumulative IPC: 0.660871 (Simulation time: 0 hr 19 min 15 sec) 
Heartbeat CPU 0 instructions: 480000000 cycles: 617437847 heartbeat IPC: 0.697182 cumulative IPC: 0.661778 (Simulation time: 0 hr 19 min 40 sec) 
Heartbeat CPU 0 instructions: 490000001 cycles: 632135207 heartbeat IPC: 0.680394 cumulative IPC: 0.662242 (Simulation time: 0 hr 20 min 6 sec) 
Heartbeat CPU 0 instructions: 500000000 cycles: 646517552 heartbeat IPC: 0.695297 cumulative IPC: 0.66303 (Simulation time: 0 hr 20 min 31 sec) 
Heartbeat CPU 0 instructions: 510000002 cycles: 660754216 heartbeat IPC: 0.702412 cumulative IPC: 0.663938 (Simulation time: 0 hr 20 min 56 sec) 
Heartbeat CPU 0 instructions: 520000000 cycles: 674818524 heartbeat IPC: 0.71102 cumulative IPC: 0.664987 (Simulation time: 0 hr 21 min 21 sec) 
Heartbeat CPU 0 instructions: 530000001 cycles: 689200596 heartbeat IPC: 0.69531 cumulative IPC: 0.665662 (Simulation time: 0 hr 21 min 47 sec) 
Heartbeat CPU 0 instructions: 540000000 cycles: 703661165 heartbeat IPC: 0.691536 cumulative IPC: 0.666228 (Simulation time: 0 hr 22 min 12 sec) 
Heartbeat CPU 0 instructions: 550000003 cycles: 717183106 heartbeat IPC: 0.739539 cumulative IPC: 0.667699 (Simulation time: 0 hr 22 min 37 sec) 
Heartbeat CPU 0 instructions: 560000000 cycles: 730963485 heartbeat IPC: 0.725669 cumulative IPC: 0.668861 (Simulation time: 0 hr 23 min 2 sec) 
Heartbeat CPU 0 instructions: 570000001 cycles: 745416433 heartbeat IPC: 0.6919 cumulative IPC: 0.669335 (Simulation time: 0 hr 23 min 28 sec) 
Heartbeat CPU 0 instructions: 580000000 cycles: 759377935 heartbeat IPC: 0.716255 cumulative IPC: 0.67025 (Simulation time: 0 hr 23 min 53 sec) 
Heartbeat CPU 0 instructions: 590000003 cycles: 772935439 heartbeat IPC: 0.737599 cumulative IPC: 0.671501 (Simulation time: 0 hr 24 min 18 sec) 
Heartbeat CPU 0 instructions: 600000000 cycles: 787544236 heartbeat IPC: 0.684519 cumulative IPC: 0.671757 (Simulation time: 0 hr 24 min 43 sec) 
Finished CPU 0 instructions: 500000000 cycles: 744317277 cumulative IPC: 0.671757 (Simulation time: 0 hr 24 min 43 sec) 

CPU 0 Branch Prediction Accuracy: 99.5915% MPKI: 0.037126
Number of Branches: 4544106 Number of Mispredictions: 18563
Number of LOAD Instructions: 149787067
Number of LOAD Instructions (ROI): 149787067
Number of STORE Instructions: 77239062
Number of STORE Instructions (ROI): 77239062
Total Destination Memory Operands: 77239062
Total Destination Memory Operands (ROI): 77239062
Total Source Memory Operands: 149787067
Total Source Memory Operands (ROI): 149787067
Number of DEPENDED LOADS: 19249195
Number of DEPENDED LOADS (ROI): 19249195
Number of SQ_ADDED: 77239036
Number of SQ_ADDED (ROI): 77239036
Number of LQ_ADDED: 149787020
Number of LQ_ADDED (ROI): 149787020
Number of Instructions read from trace: 600000256

ChampSim completed all CPUs

Region of Interest Statistics

CPU 0 cumulative IPC: 0.671757 instructions: 500000000 cycles: 744317277
ITLB TOTAL     ACCESS:   86453853  HIT:   86453852  MISS:          1
ITLB LOAD      ACCESS:   86453853  HIT:   86453852  MISS:          1
ITLB RFO       ACCESS:          0  HIT:          0  MISS:          0
ITLB PREFETCH  ACCESS:          0  HIT:          0  MISS:          0
ITLB WRITEBACK ACCESS:          0  HIT:          0  MISS:          0
ITLB PREFETCH  REQUESTED:          0  ISSUED:          0  USEFUL:          0  USELESS:          0
ITLB TOTAL MSHR MERGED:          1
ITLB LOAD MSHR MERGED:          1
ITLB RFO MSHR MERGED:          0
ITLB PREFETCH MSHR MERGED:          0
ITLB WRITEBACK MSHR MERGED:          0
ITLB TOTAL ACCESSES:   86453854 HITS:   86453852 MISSES:          2
ITLB LOAD ACCESSES:   86453854 HITS:   86453852 MISSES:          2
ITLB RFO ACCESSES:          0 HITS:          0 MISSES:          0
ITLB PREFETCH ACCESSES:          0 HITS:          0 MISSES:          0
ITLB WRITEBACK ACCESSES:          0 HITS:          0 MISSES:          0
ITLB RQ ACCESS:  500000002
ITLB RQ TO_CACHE:   86453854
ITLB RQ MERGED:  413546148
ITLB RQ FORWARD:          0
ITLB WQ ACCESS:          0
ITLB WQ TO_CACHE:          0
ITLB WQ MERGED:          0
ITLB WQ FORWARD:          0
DTLB TOTAL     ACCESS:   98100808  HIT:   97915547  MISS:     185261
DTLB LOAD      ACCESS:   55040284  HIT:   54993973  MISS:      46311
DTLB RFO       ACCESS:   43060524  HIT:   42921574  MISS:     138950
DTLB PREFETCH  ACCESS:          0  HIT:          0  MISS:          0
DTLB WRITEBACK ACCESS:          0  HIT:          0  MISS:          0
DTLB PREFETCH  REQUESTED:          0  ISSUED:          0  USEFUL:          0  USELESS:          0
DTLB TOTAL MSHR MERGED:      83592
DTLB LOAD MSHR MERGED:      83587
DTLB RFO MSHR MERGED:          5
DTLB PREFETCH MSHR MERGED:          0
DTLB WRITEBACK MSHR MERGED:          0
DTLB TOTAL ACCESSES:   98184400 HITS:   97915547 MISSES:     268853
DTLB LOAD ACCESSES:   55123871 HITS:   54993973 MISSES:     129898
DTLB RFO ACCESSES:   43060529 HITS:   42921574 MISSES:     138955
DTLB PREFETCH ACCESSES:          0 HITS:          0 MISSES:          0
DTLB WRITEBACK ACCESSES:          0 HITS:          0 MISSES:          0
DTLB RQ ACCESS:  173633332
DTLB RQ TO_CACHE:   98184400
DTLB RQ MERGED:   75448932
DTLB RQ FORWARD:          0
DTLB WQ ACCESS:          0
DTLB WQ TO_CACHE:          0
DTLB WQ MERGED:          0
DTLB WQ FORWARD:          0
L1D TOTAL     ACCESS:  164461847  HIT:  144889284  MISS:   19572563
L1D LOAD      ACCESS:   60451634  HIT:   58598731  MISS:    1852903
L1D RFO       ACCESS:   64512202  HIT:   47910063  MISS:   16602139
L1D PREFETCH  ACCESS:   39498011  HIT:   38380490  MISS:    1117521
L1D WRITEBACK ACCESS:          0  HIT:          0  MISS:          0
L1D PREFETCH  REQUESTED:   61583269  ISSUED:   61292004  USEFUL:    1115605  USELESS:       1917
L1D TOTAL MSHR MERGED:    3457890
L1D LOAD MSHR MERGED:    1202452
L1D RFO MSHR MERGED:      11084
L1D PREFETCH MSHR MERGED:    2244354
L1D WRITEBACK MSHR MERGED:          0
L1D TOTAL ACCESSES:  168523640 HITS:  145493187 MISSES:   23030453
L1D LOAD ACCESSES:   61880999 HITS:   58896461 MISSES:    2984538
L1D RFO ACCESSES:   64523252 HITS:   47910063 MISSES:   16613189
L1D PREFETCH ACCESSES:   42119389 HITS:   38686663 MISSES:    3432726
L1D WRITEBACK ACCESSES:          0 HITS:          0 MISSES:          0
L1D RQ ACCESS:  109092017
L1D RQ TO_CACHE:   61583269
L1D RQ MERGED:   47211018
L1D RQ FORWARD:          0
L1D WQ ACCESS:   64541313
L1D WQ TO_CACHE:   64523253
L1D WQ MERGED:      18060
L1D WQ FORWARD:     603903
L1I TOTAL     ACCESS:  107764214  HIT:  107764206  MISS:          8
L1I LOAD      ACCESS:  107764214  HIT:  107764206  MISS:          8
L1I RFO       ACCESS:          0  HIT:          0  MISS:          0
L1I PREFETCH  ACCESS:          0  HIT:          0  MISS:          0
L1I WRITEBACK ACCESS:          0  HIT:          0  MISS:          0
L1I PREFETCH  REQUESTED:          0  ISSUED:          0  USEFUL:          0  USELESS:          0
L1I TOTAL MSHR MERGED:          3
L1I LOAD MSHR MERGED:          3
L1I RFO MSHR MERGED:          0
L1I PREFETCH MSHR MERGED:          0
L1I WRITEBACK MSHR MERGED:          0
L1I TOTAL ACCESSES:  107764217 HITS:  107764206 MISSES:         11
L1I LOAD ACCESSES:  107764217 HITS:  107764206 MISSES:         11
L1I RFO ACCESSES:          0 HITS:          0 MISSES:          0
L1I PREFETCH ACCESSES:          0 HITS:          0 MISSES:          0
L1I WRITEBACK ACCESSES:          0 HITS:          0 MISSES:          0
L1I RQ ACCESS:  500000007
L1I RQ TO_CACHE:  107764217
L1I RQ MERGED:  392235790
L1I RQ FORWARD:          0
L1I WQ ACCESS:          0
L1I WQ TO_CACHE:          0
L1I WQ MERGED:          0
L1I WQ FORWARD:          0
L2C TOTAL     ACCESS:   36781801  HIT:   24824229  MISS:   11957572
L2C LOAD      ACCESS:    1782094  HIT:     246192  MISS:    1535902
L2C RFO       ACCESS:   16602106  HIT:    7610743  MISS:    8991363
L2C PREFETCH  ACCESS:    1795417  HIT:     366336  MISS:    1429081
L2C WRITEBACK ACCESS:   16602184  HIT:   16600958  MISS:       1226
L2C PREFETCH  REQUESTED:     816466  ISSUED:     816466  USEFUL:     243856  USELESS:    1185507
L2C TOTAL MSHR MERGED:       2477
L2C LOAD MSHR MERGED:        563
L2C RFO MSHR MERGED:          0
L2C PREFETCH MSHR MERGED:       1914
L2C WRITEBACK MSHR MERGED:          0
L2C TOTAL ACCESSES:   36991135 HITS:   24824229 MISSES:   12166906
L2C LOAD ACCESSES:    1782094 HITS:     246192 MISSES:    1535902
L2C RFO ACCESSES:   16602105 HITS:    7610743 MISSES:    8991362
L2C PREFETCH ACCESSES:    2004752 HITS:     366336 MISSES:    1638416
L2C WRITEBACK ACCESSES:   16602184 HITS:   16600958 MISSES:       1226
L2C RQ ACCESS:   18384199
L2C RQ TO_CACHE:   18384199
L2C RQ MERGED:          0
L2C RQ FORWARD:          0
L2C WQ ACCESS:   16602184
L2C WQ TO_CACHE:   16602184
L2C WQ MERGED:          0
L2C WQ FORWARD:          0
LLC TOTAL     ACCESS:   21151950  HIT:     677267  MISS:   20474683
LLC LOAD      ACCESS:    1535339  HIT:      86155  MISS:    1449184
LLC RFO       ACCESS:    8991351  HIT:     157823  MISS:    8833528
LLC PREFETCH  ACCESS:    1633077  HIT:     141030  MISS:    1492047
LLC WRITEBACK ACCESS:    8992183  HIT:     292259  MISS:    8699924
LLC PREFETCH  REQUESTED:          0  ISSUED:          0  USEFUL:      74100  USELESS:    1418055
LLC TOTAL MSHR MERGED:       2975
LLC LOAD MSHR MERGED:        261
LLC RFO MSHR MERGED:          0
LLC PREFETCH MSHR MERGED:       2714
LLC WRITEBACK MSHR MERGED:          0
LLC TOTAL ACCESSES:   21154936 HITS:     677279 MISSES:   20477657
LLC LOAD ACCESSES:    1535339 HITS:      86155 MISSES:    1449184
LLC RFO ACCESSES:    8991362 HITS:     157835 MISSES:    8833527
LLC PREFETCH ACCESSES:    1636052 HITS:     141030 MISSES:    1495022
LLC WRITEBACK ACCESSES:    8992183 HITS:     292259 MISSES:    8699924
LLC 0 RQ ACCESS:   10526701
LLC 0 RQ TO_CACHE:   10526689
LLC 0 RQ MERGED:          0
LLC 0 RQ FORWARD:          0
LLC WQ ACCESS:    8992183
LLC WQ TO_CACHE:    8992183
LLC WQ MERGED:          0
LLC WQ FORWARD:         12
Major fault: 0 Minor fault: 102360
CPU 0 L1D next line prefetcher final stats
CPU 0 L2C PC-based stride prefetcher final stats
All Misses: 24317521
All Hits: 809940
SD Algo Stats - Switches: 0 SRR-Repls: 1628101 BRR-Repls: 0

DRAM Statistics
 CHANNEL 0
 RQ ROW_BUFFER_HIT:    3731253  ROW_BUFFER_MISS:    8042490
 DBUS_CONGESTED:   14224750
 WQ ROW_BUFFER_HIT:    1895960  ROW_BUFFER_MISS:    6937885  FULL:          0

 AVG_CONGESTED_CYCLE: 13
LOADS RETIRED: 124982196
INSTR RETIRED: 500000000
