
*** ChampSim Multicore Out-of-Order Simulator ***

Warmup Instructions: 100000000
Simulation Instructions: 500000000
Number of CPUs: 1
LLC sets: 2048
LLC ways: 16
Clean RRIP Policies: 2223230222232302 Dirty RRIP Policies: 1203130212031302 PSEL Width: 10 Track Set: 4294967295 PSEL Mask: 1 Demote Mask: 3040100030401000DS Algo: 0Window size: 0
Off-chip DRAM Size: 4096 MB Channels: 1 Width: 64-bit Data Rate: 1600 MT/s

CPU 0 runs /mnt/beegfs/iconst01/spec2017/Mcf.trace.gz
NOT SORTED
TRACE STRING: /mnt/beegfs/iconst01/spec2017/Mcf.trace.gz
SORTED
TRACE STRING: /mnt/beegfs/iconst01/spec2017/Mcf.trace.gz
INITIAL
TRACE STRING: /mnt/beegfs/iconst01/spec2017/Mcf.trace.gz

champsim_seed used: 278

CPU 0 L1D next line prefetcher
CPU 0 L2C IP-based stride prefetcher
Initialize DRRIP state
Assign rand_sets[0]: 454  LLC: 2048
rand_sets[0]: 454
Assign rand_sets[1]: 1662  LLC: 2048
rand_sets[1]: 1662
Assign rand_sets[2]: 1921  LLC: 2048
rand_sets[2]: 1921
Assign rand_sets[3]: 1131  LLC: 2048
rand_sets[3]: 1131
Assign rand_sets[4]: 331  LLC: 2048
rand_sets[4]: 331
Assign rand_sets[5]: 1531  LLC: 2048
rand_sets[5]: 1531
Assign rand_sets[6]: 482  LLC: 2048
rand_sets[6]: 482
Assign rand_sets[7]: 1275  LLC: 2048
rand_sets[7]: 1275
Assign rand_sets[8]: 1876  LLC: 2048
rand_sets[8]: 1876
Assign rand_sets[9]: 2038  LLC: 2048
rand_sets[9]: 2038
Assign rand_sets[10]: 701  LLC: 2048
rand_sets[10]: 701
Assign rand_sets[11]: 479  LLC: 2048
rand_sets[11]: 479
Assign rand_sets[12]: 892  LLC: 2048
rand_sets[12]: 892
Assign rand_sets[13]: 1820  LLC: 2048
rand_sets[13]: 1820
Assign rand_sets[14]: 1505  LLC: 2048
rand_sets[14]: 1505
Assign rand_sets[15]: 1159  LLC: 2048
rand_sets[15]: 1159
Assign rand_sets[16]: 513  LLC: 2048
rand_sets[16]: 513
Assign rand_sets[17]: 703  LLC: 2048
rand_sets[17]: 703
Assign rand_sets[18]: 561  LLC: 2048
rand_sets[18]: 561
Assign rand_sets[19]: 990  LLC: 2048
rand_sets[19]: 990
Assign rand_sets[20]: 342  LLC: 2048
rand_sets[20]: 342
Assign rand_sets[21]: 882  LLC: 2048
rand_sets[21]: 882
Assign rand_sets[22]: 15  LLC: 2048
rand_sets[22]: 15
Assign rand_sets[23]: 71  LLC: 2048
rand_sets[23]: 71
Assign rand_sets[24]: 1127  LLC: 2048
rand_sets[24]: 1127
Assign rand_sets[25]: 1382  LLC: 2048
rand_sets[25]: 1382
Assign rand_sets[26]: 647  LLC: 2048
rand_sets[26]: 647
Assign rand_sets[27]: 857  LLC: 2048
rand_sets[27]: 857
Assign rand_sets[28]: 1450  LLC: 2048
rand_sets[28]: 1450
Assign rand_sets[29]: 1160  LLC: 2048
rand_sets[29]: 1160
Assign rand_sets[30]: 1852  LLC: 2048
rand_sets[30]: 1852
Assign rand_sets[31]: 1881  LLC: 2048
rand_sets[31]: 1881
Assign rand_sets[32]: 1770  LLC: 2048
rand_sets[32]: 1770
Assign rand_sets[33]: 1622  LLC: 2048
rand_sets[33]: 1622
Assign rand_sets[34]: 275  LLC: 2048
rand_sets[34]: 275
Assign rand_sets[35]: 635  LLC: 2048
rand_sets[35]: 635
Assign rand_sets[36]: 466  LLC: 2048
rand_sets[36]: 466
Assign rand_sets[37]: 1413  LLC: 2048
rand_sets[37]: 1413
Assign rand_sets[38]: 417  LLC: 2048
rand_sets[38]: 417
Assign rand_sets[39]: 472  LLC: 2048
rand_sets[39]: 472
Assign rand_sets[40]: 1340  LLC: 2048
rand_sets[40]: 1340
Assign rand_sets[41]: 852  LLC: 2048
rand_sets[41]: 852
Assign rand_sets[42]: 1365  LLC: 2048
rand_sets[42]: 1365
Assign rand_sets[43]: 47  LLC: 2048
rand_sets[43]: 47
Assign rand_sets[44]: 823  LLC: 2048
rand_sets[44]: 823
Assign rand_sets[45]: 686  LLC: 2048
rand_sets[45]: 686
Assign rand_sets[46]: 1637  LLC: 2048
rand_sets[46]: 1637
Assign rand_sets[47]: 1115  LLC: 2048
rand_sets[47]: 1115
Assign rand_sets[48]: 986  LLC: 2048
rand_sets[48]: 986
Assign rand_sets[49]: 258  LLC: 2048
rand_sets[49]: 258
Assign rand_sets[50]: 633  LLC: 2048
rand_sets[50]: 633
Assign rand_sets[51]: 920  LLC: 2048
rand_sets[51]: 920
Assign rand_sets[52]: 204  LLC: 2048
rand_sets[52]: 204
Assign rand_sets[53]: 227  LLC: 2048
rand_sets[53]: 227
Assign rand_sets[54]: 1818  LLC: 2048
rand_sets[54]: 1818
Assign rand_sets[55]: 886  LLC: 2048
rand_sets[55]: 886
Assign rand_sets[56]: 1422  LLC: 2048
rand_sets[56]: 1422
Assign rand_sets[57]: 607  LLC: 2048
rand_sets[57]: 607
Assign rand_sets[58]: 217  LLC: 2048
rand_sets[58]: 217
Assign rand_sets[59]: 1945  LLC: 2048
rand_sets[59]: 1945
Assign rand_sets[60]: 143  LLC: 2048
rand_sets[60]: 143
Assign rand_sets[61]: 1311  LLC: 2048
rand_sets[61]: 1311
Assign rand_sets[62]: 319  LLC: 2048
rand_sets[62]: 319
Assign rand_sets[63]: 1846  LLC: 2048
rand_sets[63]: 1846
 CLEAN-RRIP-POLICY-1: 2-2-2-3-2-3-0-2- CLEAN-RRIP-POLICY-2: 2-2-2-3-2-3-0-2-
 DIRTY-RRIP-POLICY-1: 1-2-0-3-1-3-0-2- DIRTY-RRIP-POLICY-2: 1-2-0-3-1-3-0-2-
 PSEL width: 10
Heartbeat CPU 0 instructions: 10000002 cycles: 6248341 heartbeat IPC: 1.60043 cumulative IPC: 1.60043 (Simulation time: 0 hr 0 min 12 sec) 
Heartbeat CPU 0 instructions: 20000000 cycles: 12468823 heartbeat IPC: 1.60759 cumulative IPC: 1.604 (Simulation time: 0 hr 0 min 24 sec) 
Heartbeat CPU 0 instructions: 30000000 cycles: 18678756 heartbeat IPC: 1.61032 cumulative IPC: 1.6061 (Simulation time: 0 hr 0 min 37 sec) 
Heartbeat CPU 0 instructions: 40000000 cycles: 24889024 heartbeat IPC: 1.61024 cumulative IPC: 1.60713 (Simulation time: 0 hr 0 min 49 sec) 
Heartbeat CPU 0 instructions: 50000003 cycles: 31101054 heartbeat IPC: 1.60978 cumulative IPC: 1.60766 (Simulation time: 0 hr 1 min 2 sec) 
Heartbeat CPU 0 instructions: 60000000 cycles: 37296902 heartbeat IPC: 1.61398 cumulative IPC: 1.60871 (Simulation time: 0 hr 1 min 14 sec) 
Heartbeat CPU 0 instructions: 70000003 cycles: 43514950 heartbeat IPC: 1.60822 cumulative IPC: 1.60864 (Simulation time: 0 hr 1 min 26 sec) 
Heartbeat CPU 0 instructions: 80000000 cycles: 49745075 heartbeat IPC: 1.6051 cumulative IPC: 1.6082 (Simulation time: 0 hr 1 min 39 sec) 
Heartbeat CPU 0 instructions: 90000000 cycles: 55973611 heartbeat IPC: 1.60551 cumulative IPC: 1.6079 (Simulation time: 0 hr 1 min 51 sec) 
Heartbeat CPU 0 instructions: 100000000 cycles: 62192221 heartbeat IPC: 1.60808 cumulative IPC: 1.60792 (Simulation time: 0 hr 2 min 4 sec) 

Warmup complete CPU 0 instructions: 100000001 cycles: 62192222 (Simulation time: 0 hr 2 min 4 sec) 

Heartbeat CPU 0 instructions: 110000000 cycles: 86700441 heartbeat IPC: 0.408026 cumulative IPC: 0.408026 (Simulation time: 0 hr 2 min 27 sec) 
Heartbeat CPU 0 instructions: 120000000 cycles: 111320196 heartbeat IPC: 0.406178 cumulative IPC: 0.4071 (Simulation time: 0 hr 2 min 50 sec) 
Heartbeat CPU 0 instructions: 130000000 cycles: 136032302 heartbeat IPC: 0.40466 cumulative IPC: 0.406283 (Simulation time: 0 hr 3 min 14 sec) 
Heartbeat CPU 0 instructions: 140000000 cycles: 160710085 heartbeat IPC: 0.405223 cumulative IPC: 0.406018 (Simulation time: 0 hr 3 min 37 sec) 
Heartbeat CPU 0 instructions: 150000003 cycles: 185277537 heartbeat IPC: 0.407043 cumulative IPC: 0.406222 (Simulation time: 0 hr 4 min 1 sec) 
Heartbeat CPU 0 instructions: 160000000 cycles: 210110557 heartbeat IPC: 0.40269 cumulative IPC: 0.405629 (Simulation time: 0 hr 4 min 24 sec) 
Heartbeat CPU 0 instructions: 170000001 cycles: 234805297 heartbeat IPC: 0.404945 cumulative IPC: 0.405531 (Simulation time: 0 hr 4 min 48 sec) 
Heartbeat CPU 0 instructions: 180000000 cycles: 259512307 heartbeat IPC: 0.404743 cumulative IPC: 0.405433 (Simulation time: 0 hr 5 min 11 sec) 
Heartbeat CPU 0 instructions: 190000003 cycles: 284178849 heartbeat IPC: 0.405408 cumulative IPC: 0.40543 (Simulation time: 0 hr 5 min 35 sec) 
Heartbeat CPU 0 instructions: 200000000 cycles: 308879535 heartbeat IPC: 0.404847 cumulative IPC: 0.405371 (Simulation time: 0 hr 5 min 58 sec) 
Heartbeat CPU 0 instructions: 210000003 cycles: 333640931 heartbeat IPC: 0.403855 cumulative IPC: 0.405233 (Simulation time: 0 hr 6 min 22 sec) 
Heartbeat CPU 0 instructions: 220000000 cycles: 358588008 heartbeat IPC: 0.400848 cumulative IPC: 0.404864 (Simulation time: 0 hr 6 min 46 sec) 
Heartbeat CPU 0 instructions: 230000002 cycles: 383196799 heartbeat IPC: 0.406359 cumulative IPC: 0.404979 (Simulation time: 0 hr 7 min 9 sec) 
Heartbeat CPU 0 instructions: 240000000 cycles: 408093277 heartbeat IPC: 0.401663 cumulative IPC: 0.40474 (Simulation time: 0 hr 7 min 33 sec) 
Heartbeat CPU 0 instructions: 250000000 cycles: 432817396 heartbeat IPC: 0.404463 cumulative IPC: 0.404722 (Simulation time: 0 hr 7 min 56 sec) 
Heartbeat CPU 0 instructions: 260000000 cycles: 457500518 heartbeat IPC: 0.405135 cumulative IPC: 0.404747 (Simulation time: 0 hr 8 min 20 sec) 
Heartbeat CPU 0 instructions: 270000001 cycles: 482280086 heartbeat IPC: 0.403558 cumulative IPC: 0.404677 (Simulation time: 0 hr 8 min 44 sec) 
Heartbeat CPU 0 instructions: 280000000 cycles: 507005017 heartbeat IPC: 0.40445 cumulative IPC: 0.404665 (Simulation time: 0 hr 9 min 7 sec) 
Heartbeat CPU 0 instructions: 290000001 cycles: 531802507 heartbeat IPC: 0.403267 cumulative IPC: 0.404591 (Simulation time: 0 hr 9 min 31 sec) 
Heartbeat CPU 0 instructions: 300000000 cycles: 556737952 heartbeat IPC: 0.401036 cumulative IPC: 0.404412 (Simulation time: 0 hr 9 min 55 sec) 
Heartbeat CPU 0 instructions: 310000003 cycles: 581339206 heartbeat IPC: 0.406483 cumulative IPC: 0.40451 (Simulation time: 0 hr 10 min 18 sec) 
Heartbeat CPU 0 instructions: 320000000 cycles: 606302970 heartbeat IPC: 0.40058 cumulative IPC: 0.404329 (Simulation time: 0 hr 10 min 42 sec) 
Heartbeat CPU 0 instructions: 330000003 cycles: 631007751 heartbeat IPC: 0.40478 cumulative IPC: 0.404349 (Simulation time: 0 hr 11 min 5 sec) 
Heartbeat CPU 0 instructions: 340000000 cycles: 656001585 heartbeat IPC: 0.400099 cumulative IPC: 0.40417 (Simulation time: 0 hr 11 min 29 sec) 
Heartbeat CPU 0 instructions: 350000002 cycles: 680968204 heartbeat IPC: 0.400535 cumulative IPC: 0.404023 (Simulation time: 0 hr 11 min 53 sec) 
Heartbeat CPU 0 instructions: 360000000 cycles: 706061543 heartbeat IPC: 0.398512 cumulative IPC: 0.403809 (Simulation time: 0 hr 12 min 16 sec) 
Heartbeat CPU 0 instructions: 370000000 cycles: 730925009 heartbeat IPC: 0.402197 cumulative IPC: 0.403749 (Simulation time: 0 hr 12 min 40 sec) 
Heartbeat CPU 0 instructions: 380000000 cycles: 755608532 heartbeat IPC: 0.405129 cumulative IPC: 0.403798 (Simulation time: 0 hr 13 min 3 sec) 
Heartbeat CPU 0 instructions: 390000002 cycles: 780324708 heartbeat IPC: 0.404593 cumulative IPC: 0.403825 (Simulation time: 0 hr 13 min 26 sec) 
Heartbeat CPU 0 instructions: 400000000 cycles: 805203098 heartbeat IPC: 0.401955 cumulative IPC: 0.403763 (Simulation time: 0 hr 13 min 50 sec) 
Heartbeat CPU 0 instructions: 410000002 cycles: 829977577 heartbeat IPC: 0.403641 cumulative IPC: 0.403759 (Simulation time: 0 hr 14 min 13 sec) 
Heartbeat CPU 0 instructions: 420000000 cycles: 854574997 heartbeat IPC: 0.406547 cumulative IPC: 0.403845 (Simulation time: 0 hr 14 min 37 sec) 
Heartbeat CPU 0 instructions: 430000000 cycles: 879379487 heartbeat IPC: 0.403153 cumulative IPC: 0.403824 (Simulation time: 0 hr 15 min 0 sec) 
Heartbeat CPU 0 instructions: 440000000 cycles: 903888859 heartbeat IPC: 0.408007 cumulative IPC: 0.403946 (Simulation time: 0 hr 15 min 24 sec) 
Heartbeat CPU 0 instructions: 450000000 cycles: 928826667 heartbeat IPC: 0.400998 cumulative IPC: 0.403861 (Simulation time: 0 hr 15 min 48 sec) 
Heartbeat CPU 0 instructions: 460000000 cycles: 953659549 heartbeat IPC: 0.402692 cumulative IPC: 0.403829 (Simulation time: 0 hr 16 min 13 sec) 
Heartbeat CPU 0 instructions: 470000001 cycles: 978299378 heartbeat IPC: 0.405847 cumulative IPC: 0.403883 (Simulation time: 0 hr 16 min 37 sec) 
Heartbeat CPU 0 instructions: 480000000 cycles: 1003097944 heartbeat IPC: 0.403249 cumulative IPC: 0.403866 (Simulation time: 0 hr 17 min 1 sec) 
Heartbeat CPU 0 instructions: 490000000 cycles: 1027987885 heartbeat IPC: 0.401769 cumulative IPC: 0.403812 (Simulation time: 0 hr 17 min 26 sec) 
Heartbeat CPU 0 instructions: 500000000 cycles: 1053211912 heartbeat IPC: 0.396447 cumulative IPC: 0.403625 (Simulation time: 0 hr 17 min 50 sec) 
Heartbeat CPU 0 instructions: 510000003 cycles: 1078294740 heartbeat IPC: 0.398679 cumulative IPC: 0.403503 (Simulation time: 0 hr 18 min 14 sec) 
Heartbeat CPU 0 instructions: 520000000 cycles: 1103539799 heartbeat IPC: 0.396117 cumulative IPC: 0.403324 (Simulation time: 0 hr 18 min 39 sec) 
Heartbeat CPU 0 instructions: 530000003 cycles: 1128811334 heartbeat IPC: 0.395702 cumulative IPC: 0.403143 (Simulation time: 0 hr 19 min 3 sec) 
Heartbeat CPU 0 instructions: 540000000 cycles: 1154004577 heartbeat IPC: 0.396932 cumulative IPC: 0.403 (Simulation time: 0 hr 19 min 28 sec) 
Heartbeat CPU 0 instructions: 550000000 cycles: 1179194388 heartbeat IPC: 0.396986 cumulative IPC: 0.402864 (Simulation time: 0 hr 19 min 52 sec) 
Heartbeat CPU 0 instructions: 560000000 cycles: 1204680267 heartbeat IPC: 0.392374 cumulative IPC: 0.40263 (Simulation time: 0 hr 20 min 16 sec) 
Heartbeat CPU 0 instructions: 570000001 cycles: 1230110840 heartbeat IPC: 0.393228 cumulative IPC: 0.402425 (Simulation time: 0 hr 20 min 41 sec) 
Heartbeat CPU 0 instructions: 580000000 cycles: 1255551637 heartbeat IPC: 0.393069 cumulative IPC: 0.402226 (Simulation time: 0 hr 21 min 5 sec) 
Heartbeat CPU 0 instructions: 590000000 cycles: 1281131803 heartbeat IPC: 0.390928 cumulative IPC: 0.401989 (Simulation time: 0 hr 21 min 30 sec) 
Heartbeat CPU 0 instructions: 600000000 cycles: 1306781942 heartbeat IPC: 0.389861 cumulative IPC: 0.401739 (Simulation time: 0 hr 21 min 55 sec) 
Finished CPU 0 instructions: 500000003 cycles: 1244589733 cumulative IPC: 0.401739 (Simulation time: 0 hr 21 min 55 sec) 

CPU 0 Branch Prediction Accuracy: 91.1342% MPKI: 18.7968
Number of Branches: 106006945 Number of Mispredictions: 9398408
Number of LOAD Instructions: 207894007
Number of LOAD Instructions (ROI): 207894007
Number of STORE Instructions: 54285997
Number of STORE Instructions (ROI): 54285997
Total Destination Memory Operands: 57463404
Total Destination Memory Operands (ROI): 57463404
Total Source Memory Operands: 207894007
Total Source Memory Operands (ROI): 207894007
Number of DEPENDED LOADS: 18107267
Number of DEPENDED LOADS (ROI): 18107267
Number of SQ_ADDED: 57463404
Number of SQ_ADDED (ROI): 57463404
Number of LQ_ADDED: 209251333
Number of LQ_ADDED (ROI): 209251333
Number of Instructions read from trace: 600000039

ChampSim completed all CPUs

Region of Interest Statistics

CPU 0 cumulative IPC: 0.401739 instructions: 500000003 cycles: 1244589733
ITLB TOTAL     ACCESS:   96422776  HIT:   96422776  MISS:          0
ITLB LOAD      ACCESS:   96422776  HIT:   96422776  MISS:          0
ITLB RFO       ACCESS:          0  HIT:          0  MISS:          0
ITLB PREFETCH  ACCESS:          0  HIT:          0  MISS:          0
ITLB WRITEBACK ACCESS:          0  HIT:          0  MISS:          0
ITLB PREFETCH  REQUESTED:          0  ISSUED:          0  USEFUL:          0  USELESS:          0
ITLB TOTAL MSHR MERGED:          0
ITLB LOAD MSHR MERGED:          0
ITLB RFO MSHR MERGED:          0
ITLB PREFETCH MSHR MERGED:          0
ITLB WRITEBACK MSHR MERGED:          0
ITLB TOTAL ACCESSES:   96422776 HITS:   96422776 MISSES:          0
ITLB LOAD ACCESSES:   96422776 HITS:   96422776 MISSES:          0
ITLB RFO ACCESSES:          0 HITS:          0 MISSES:          0
ITLB PREFETCH ACCESSES:          0 HITS:          0 MISSES:          0
ITLB WRITEBACK ACCESSES:          0 HITS:          0 MISSES:          0
ITLB RQ ACCESS:  499999980
ITLB RQ TO_CACHE:   96422776
ITLB RQ MERGED:  403577204
ITLB RQ FORWARD:          0
ITLB WQ ACCESS:          0
ITLB WQ TO_CACHE:          0
ITLB WQ MERGED:          0
ITLB WQ FORWARD:          0
DTLB TOTAL     ACCESS:  155173904  HIT:  150261811  MISS:    4912093
DTLB LOAD      ACCESS:  117722678  HIT:  113332297  MISS:    4390381
DTLB RFO       ACCESS:   37451226  HIT:   36929514  MISS:     521712
DTLB PREFETCH  ACCESS:          0  HIT:          0  MISS:          0
DTLB WRITEBACK ACCESS:          0  HIT:          0  MISS:          0
DTLB PREFETCH  REQUESTED:          0  ISSUED:          0  USEFUL:          0  USELESS:          0
DTLB TOTAL MSHR MERGED:     452851
DTLB LOAD MSHR MERGED:     161465
DTLB RFO MSHR MERGED:     291386
DTLB PREFETCH MSHR MERGED:          0
DTLB WRITEBACK MSHR MERGED:          0
DTLB TOTAL ACCESSES:  155626755 HITS:  150261811 MISSES:    5364944
DTLB LOAD ACCESSES:  117884143 HITS:  113332297 MISSES:    4551846
DTLB RFO ACCESSES:   37742612 HITS:   36929514 MISSES:     813098
DTLB PREFETCH ACCESSES:          0 HITS:          0 MISSES:          0
DTLB WRITEBACK ACCESSES:          0 HITS:          0 MISSES:          0
DTLB RQ ACCESS:  205975615
DTLB RQ TO_CACHE:  155626755
DTLB RQ MERGED:   50348860
DTLB RQ FORWARD:          0
DTLB WQ ACCESS:          0
DTLB WQ TO_CACHE:          0
DTLB WQ MERGED:          0
DTLB WQ FORWARD:          0
L1D TOTAL     ACCESS:  277160137  HIT:  242338008  MISS:   34822129
L1D LOAD      ACCESS:  125411202  HIT:  107764865  MISS:   17646337
L1D RFO       ACCESS:   41135232  HIT:   38823399  MISS:    2311833
L1D PREFETCH  ACCESS:  110613703  HIT:   95749744  MISS:   14863959
L1D WRITEBACK ACCESS:          0  HIT:          0  MISS:          0
L1D PREFETCH  REQUESTED:  126269135  ISSUED:  124749963  USEFUL:    2698311  USELESS:   12165674
L1D TOTAL MSHR MERGED:    8498065
L1D LOAD MSHR MERGED:    1550982
L1D RFO MSHR MERGED:    3769067
L1D PREFETCH MSHR MERGED:    3178016
L1D WRITEBACK MSHR MERGED:          0
L1D TOTAL ACCESSES:  285745482 HITS:  242425285 MISSES:   43320197
L1D LOAD ACCESSES:  126269160 HITS:  107764890 MISSES:   18504270
L1D RFO ACCESSES:   44903805 HITS:   38823399 MISSES:    6080406
L1D PREFETCH ACCESSES:  114572517 HITS:   95836996 MISSES:   18735521
L1D WRITEBACK ACCESSES:          0 HITS:          0 MISSES:          0
L1D RQ ACCESS:  158428734
L1D RQ TO_CACHE:  126269135
L1D RQ MERGED:   32159574
L1D RQ FORWARD:          0
L1D WQ ACCESS:   47546882
L1D WQ TO_CACHE:   44903805
L1D WQ MERGED:    2643077
L1D WQ FORWARD:      87277
L1I TOTAL     ACCESS:  132832787  HIT:  132832787  MISS:          0
L1I LOAD      ACCESS:  132832787  HIT:  132832787  MISS:          0
L1I RFO       ACCESS:          0  HIT:          0  MISS:          0
L1I PREFETCH  ACCESS:          0  HIT:          0  MISS:          0
L1I WRITEBACK ACCESS:          0  HIT:          0  MISS:          0
L1I PREFETCH  REQUESTED:          0  ISSUED:          0  USEFUL:          0  USELESS:          0
L1I TOTAL MSHR MERGED:          0
L1I LOAD MSHR MERGED:          0
L1I RFO MSHR MERGED:          0
L1I PREFETCH MSHR MERGED:          0
L1I WRITEBACK MSHR MERGED:          0
L1I TOTAL ACCESSES:  132832787 HITS:  132832787 MISSES:          0
L1I LOAD ACCESSES:  132832787 HITS:  132832787 MISSES:          0
L1I RFO ACCESSES:          0 HITS:          0 MISSES:          0
L1I PREFETCH ACCESSES:          0 HITS:          0 MISSES:          0
L1I WRITEBACK ACCESSES:          0 HITS:          0 MISSES:          0
L1I RQ ACCESS:  499999980
L1I RQ TO_CACHE:  132832787
L1I RQ MERGED:  367167193
L1I RQ FORWARD:          0
L1I WQ ACCESS:          0
L1I WQ TO_CACHE:          0
L1I WQ MERGED:          0
L1I WQ FORWARD:          0
L2C TOTAL     ACCESS:   39598363  HIT:   20629160  MISS:   18969203
L2C LOAD      ACCESS:   16953225  HIT:    8567671  MISS:    8385554
L2C RFO       ACCESS:    2311284  HIT:     630840  MISS:    1680444
L2C PREFETCH  ACCESS:   17111419  HIT:    8211965  MISS:    8899454
L2C WRITEBACK ACCESS:    3222435  HIT:    3218684  MISS:       3751
L2C PREFETCH  REQUESTED:    2897841  ISSUED:    2897841  USEFUL:    1306905  USELESS:    7592290
L2C TOTAL MSHR MERGED:     541012
L2C LOAD MSHR MERGED:      93943
L2C RFO MSHR MERGED:          0
L2C PREFETCH MSHR MERGED:     447069
L2C WRITEBACK MSHR MERGED:          0
L2C TOTAL ACCESSES:   40266698 HITS:   20629330 MISSES:   19637368
L2C LOAD ACCESSES:   16953288 HITS:    8567734 MISSES:    8385554
L2C RFO ACCESSES:    2311339 HITS:     630895 MISSES:    1680444
L2C PREFETCH ACCESSES:   17779636 HITS:    8212017 MISSES:    9567619
L2C WRITEBACK ACCESSES:    3222435 HITS:    3218684 MISSES:       3751
L2C RQ ACCESS:   19264627
L2C RQ TO_CACHE:   19264509
L2C RQ MERGED:          0
L2C RQ FORWARD:          0
L2C WQ ACCESS:    3222435
L2C WQ TO_CACHE:    3222435
L2C WQ MERGED:          0
L2C WQ FORWARD:        170
LLC TOTAL     ACCESS:   21203642  HIT:   13875542  MISS:    7328100
LLC LOAD      ACCESS:    8291585  HIT:    5816314  MISS:    2475271
LLC RFO       ACCESS:    1680361  HIT:    1678551  MISS:       1810
LLC PREFETCH  ACCESS:    9056047  HIT:    4206379  MISS:    4849668
LLC WRITEBACK ACCESS:    2175649  HIT:    2174298  MISS:       1351
LLC PREFETCH  REQUESTED:          0  ISSUED:          0  USEFUL:     198701  USELESS:    4653076
LLC TOTAL MSHR MERGED:      54295
LLC LOAD MSHR MERGED:      17276
LLC RFO MSHR MERGED:          0
LLC PREFETCH MSHR MERGED:      37019
LLC WRITEBACK MSHR MERGED:          0
LLC TOTAL ACCESSES:   21258077 HITS:   13875679 MISSES:    7382398
LLC LOAD ACCESSES:    8291611 HITS:    5816340 MISSES:    2475271
LLC RFO ACCESSES:    1680444 HITS:    1678634 MISSES:       1810
LLC PREFETCH ACCESSES:    9110373 HITS:    4206407 MISSES:    4903966
LLC WRITEBACK ACCESSES:    2175649 HITS:    2174298 MISSES:       1351
LLC 0 RQ ACCESS:    9972055
LLC 0 RQ TO_CACHE:    9971946
LLC 0 RQ MERGED:          0
LLC 0 RQ FORWARD:          0
LLC WQ ACCESS:    2175649
LLC WQ TO_CACHE:    2175649
LLC WQ MERGED:          0
LLC WQ FORWARD:        137
Major fault: 0 Minor fault: 56391
CPU 0 L1D next line prefetcher final stats
CPU 0 L2C PC-based stride prefetcher final stats
All Misses: 8597924
All Hits: 15982563
SD Algo Stats - Switches: 0 SRR-Repls: 2597254 BRR-Repls: 0

DRAM Statistics
 CHANNEL 0
 RQ ROW_BUFFER_HIT:    4575338  ROW_BUFFER_MISS:    2749823
 DBUS_CONGESTED:    3382572
 WQ ROW_BUFFER_HIT:        294  ROW_BUFFER_MISS:       9533  FULL:          0

 AVG_CONGESTED_CYCLE: 12
LOADS RETIRED: 173631671
INSTR RETIRED: 500000000
