
*** ChampSim Multicore Out-of-Order Simulator ***

Warmup Instructions: 100000000
Simulation Instructions: 500000000
Number of CPUs: 1
LLC sets: 2048
LLC ways: 16
Clean RRIP Policies: 1013010110130101 Dirty RRIP Policies: 1023210110232101 PSEL Width: 10 Track Set: 4294967295 PSEL Mask: 1 Demote Mask: 3000210430002104DS Algo: 0Window size: 0
Off-chip DRAM Size: 4096 MB Channels: 1 Width: 64-bit Data Rate: 1600 MT/s

CPU 0 runs /mnt/beegfs/iconst01/spec2017/Gcc.trace.gz
NOT SORTED
TRACE STRING: /mnt/beegfs/iconst01/spec2017/Gcc.trace.gz
SORTED
TRACE STRING: /mnt/beegfs/iconst01/spec2017/Gcc.trace.gz
INITIAL
TRACE STRING: /mnt/beegfs/iconst01/spec2017/Gcc.trace.gz

champsim_seed used: 269

CPU 0 L1D next line prefetcher
CPU 0 L2C IP-based stride prefetcher
Initialize DRRIP state
Assign rand_sets[0]: 454  LLC: 2048
rand_sets[0]: 454
Assign rand_sets[1]: 1662  LLC: 2048
rand_sets[1]: 1662
Assign rand_sets[2]: 1921  LLC: 2048
rand_sets[2]: 1921
Assign rand_sets[3]: 1131  LLC: 2048
rand_sets[3]: 1131
Assign rand_sets[4]: 331  LLC: 2048
rand_sets[4]: 331
Assign rand_sets[5]: 1531  LLC: 2048
rand_sets[5]: 1531
Assign rand_sets[6]: 482  LLC: 2048
rand_sets[6]: 482
Assign rand_sets[7]: 1275  LLC: 2048
rand_sets[7]: 1275
Assign rand_sets[8]: 1876  LLC: 2048
rand_sets[8]: 1876
Assign rand_sets[9]: 2038  LLC: 2048
rand_sets[9]: 2038
Assign rand_sets[10]: 701  LLC: 2048
rand_sets[10]: 701
Assign rand_sets[11]: 479  LLC: 2048
rand_sets[11]: 479
Assign rand_sets[12]: 892  LLC: 2048
rand_sets[12]: 892
Assign rand_sets[13]: 1820  LLC: 2048
rand_sets[13]: 1820
Assign rand_sets[14]: 1505  LLC: 2048
rand_sets[14]: 1505
Assign rand_sets[15]: 1159  LLC: 2048
rand_sets[15]: 1159
Assign rand_sets[16]: 513  LLC: 2048
rand_sets[16]: 513
Assign rand_sets[17]: 703  LLC: 2048
rand_sets[17]: 703
Assign rand_sets[18]: 561  LLC: 2048
rand_sets[18]: 561
Assign rand_sets[19]: 990  LLC: 2048
rand_sets[19]: 990
Assign rand_sets[20]: 342  LLC: 2048
rand_sets[20]: 342
Assign rand_sets[21]: 882  LLC: 2048
rand_sets[21]: 882
Assign rand_sets[22]: 15  LLC: 2048
rand_sets[22]: 15
Assign rand_sets[23]: 71  LLC: 2048
rand_sets[23]: 71
Assign rand_sets[24]: 1127  LLC: 2048
rand_sets[24]: 1127
Assign rand_sets[25]: 1382  LLC: 2048
rand_sets[25]: 1382
Assign rand_sets[26]: 647  LLC: 2048
rand_sets[26]: 647
Assign rand_sets[27]: 857  LLC: 2048
rand_sets[27]: 857
Assign rand_sets[28]: 1450  LLC: 2048
rand_sets[28]: 1450
Assign rand_sets[29]: 1160  LLC: 2048
rand_sets[29]: 1160
Assign rand_sets[30]: 1852  LLC: 2048
rand_sets[30]: 1852
Assign rand_sets[31]: 1881  LLC: 2048
rand_sets[31]: 1881
Assign rand_sets[32]: 1770  LLC: 2048
rand_sets[32]: 1770
Assign rand_sets[33]: 1622  LLC: 2048
rand_sets[33]: 1622
Assign rand_sets[34]: 275  LLC: 2048
rand_sets[34]: 275
Assign rand_sets[35]: 635  LLC: 2048
rand_sets[35]: 635
Assign rand_sets[36]: 466  LLC: 2048
rand_sets[36]: 466
Assign rand_sets[37]: 1413  LLC: 2048
rand_sets[37]: 1413
Assign rand_sets[38]: 417  LLC: 2048
rand_sets[38]: 417
Assign rand_sets[39]: 472  LLC: 2048
rand_sets[39]: 472
Assign rand_sets[40]: 1340  LLC: 2048
rand_sets[40]: 1340
Assign rand_sets[41]: 852  LLC: 2048
rand_sets[41]: 852
Assign rand_sets[42]: 1365  LLC: 2048
rand_sets[42]: 1365
Assign rand_sets[43]: 47  LLC: 2048
rand_sets[43]: 47
Assign rand_sets[44]: 823  LLC: 2048
rand_sets[44]: 823
Assign rand_sets[45]: 686  LLC: 2048
rand_sets[45]: 686
Assign rand_sets[46]: 1637  LLC: 2048
rand_sets[46]: 1637
Assign rand_sets[47]: 1115  LLC: 2048
rand_sets[47]: 1115
Assign rand_sets[48]: 986  LLC: 2048
rand_sets[48]: 986
Assign rand_sets[49]: 258  LLC: 2048
rand_sets[49]: 258
Assign rand_sets[50]: 633  LLC: 2048
rand_sets[50]: 633
Assign rand_sets[51]: 920  LLC: 2048
rand_sets[51]: 920
Assign rand_sets[52]: 204  LLC: 2048
rand_sets[52]: 204
Assign rand_sets[53]: 227  LLC: 2048
rand_sets[53]: 227
Assign rand_sets[54]: 1818  LLC: 2048
rand_sets[54]: 1818
Assign rand_sets[55]: 886  LLC: 2048
rand_sets[55]: 886
Assign rand_sets[56]: 1422  LLC: 2048
rand_sets[56]: 1422
Assign rand_sets[57]: 607  LLC: 2048
rand_sets[57]: 607
Assign rand_sets[58]: 217  LLC: 2048
rand_sets[58]: 217
Assign rand_sets[59]: 1945  LLC: 2048
rand_sets[59]: 1945
Assign rand_sets[60]: 143  LLC: 2048
rand_sets[60]: 143
Assign rand_sets[61]: 1311  LLC: 2048
rand_sets[61]: 1311
Assign rand_sets[62]: 319  LLC: 2048
rand_sets[62]: 319
Assign rand_sets[63]: 1846  LLC: 2048
rand_sets[63]: 1846
 CLEAN-RRIP-POLICY-1: 1-0-1-3-0-1-0-1- CLEAN-RRIP-POLICY-2: 1-0-1-3-0-1-0-1-
 DIRTY-RRIP-POLICY-1: 1-0-2-3-2-1-0-1- DIRTY-RRIP-POLICY-2: 1-0-2-3-2-1-0-1-
 PSEL width: 10
Heartbeat CPU 0 instructions: 10000001 cycles: 7315982 heartbeat IPC: 1.36687 cumulative IPC: 1.36687 (Simulation time: 0 hr 0 min 15 sec) 
Heartbeat CPU 0 instructions: 20000000 cycles: 14307464 heartbeat IPC: 1.43031 cumulative IPC: 1.39787 (Simulation time: 0 hr 0 min 30 sec) 
Heartbeat CPU 0 instructions: 30000001 cycles: 21020242 heartbeat IPC: 1.4897 cumulative IPC: 1.4272 (Simulation time: 0 hr 0 min 47 sec) 
Heartbeat CPU 0 instructions: 40000000 cycles: 27481023 heartbeat IPC: 1.5478 cumulative IPC: 1.45555 (Simulation time: 0 hr 1 min 3 sec) 
Heartbeat CPU 0 instructions: 50000001 cycles: 33582666 heartbeat IPC: 1.6389 cumulative IPC: 1.48886 (Simulation time: 0 hr 1 min 19 sec) 
Heartbeat CPU 0 instructions: 60000000 cycles: 40063762 heartbeat IPC: 1.54295 cumulative IPC: 1.49761 (Simulation time: 0 hr 1 min 36 sec) 
Heartbeat CPU 0 instructions: 70000000 cycles: 47101541 heartbeat IPC: 1.4209 cumulative IPC: 1.48615 (Simulation time: 0 hr 1 min 51 sec) 
Heartbeat CPU 0 instructions: 80000000 cycles: 54190931 heartbeat IPC: 1.41056 cumulative IPC: 1.47626 (Simulation time: 0 hr 2 min 6 sec) 
Heartbeat CPU 0 instructions: 90000003 cycles: 61195112 heartbeat IPC: 1.42772 cumulative IPC: 1.47071 (Simulation time: 0 hr 2 min 21 sec) 
Heartbeat CPU 0 instructions: 100000000 cycles: 68362109 heartbeat IPC: 1.39528 cumulative IPC: 1.4628 (Simulation time: 0 hr 2 min 36 sec) 

Warmup complete CPU 0 instructions: 100000004 cycles: 68362110 (Simulation time: 0 hr 2 min 36 sec) 

Heartbeat CPU 0 instructions: 110000003 cycles: 95967246 heartbeat IPC: 0.362252 cumulative IPC: 0.362251 (Simulation time: 0 hr 3 min 6 sec) 
Heartbeat CPU 0 instructions: 120000000 cycles: 123420087 heartbeat IPC: 0.364261 cumulative IPC: 0.363253 (Simulation time: 0 hr 3 min 37 sec) 
Heartbeat CPU 0 instructions: 130000000 cycles: 148394403 heartbeat IPC: 0.400411 cumulative IPC: 0.374849 (Simulation time: 0 hr 4 min 7 sec) 
Heartbeat CPU 0 instructions: 140000000 cycles: 177767900 heartbeat IPC: 0.340443 cumulative IPC: 0.365611 (Simulation time: 0 hr 4 min 36 sec) 
Heartbeat CPU 0 instructions: 150000000 cycles: 207580146 heartbeat IPC: 0.335433 cumulative IPC: 0.359149 (Simulation time: 0 hr 5 min 6 sec) 
Heartbeat CPU 0 instructions: 160000000 cycles: 234974264 heartbeat IPC: 0.365042 cumulative IPC: 0.360118 (Simulation time: 0 hr 5 min 35 sec) 
Heartbeat CPU 0 instructions: 170000001 cycles: 262947223 heartbeat IPC: 0.357488 cumulative IPC: 0.35974 (Simulation time: 0 hr 6 min 6 sec) 
Heartbeat CPU 0 instructions: 180000000 cycles: 291340583 heartbeat IPC: 0.352195 cumulative IPC: 0.358779 (Simulation time: 0 hr 6 min 37 sec) 
Heartbeat CPU 0 instructions: 190000002 cycles: 319292013 heartbeat IPC: 0.357764 cumulative IPC: 0.358666 (Simulation time: 0 hr 7 min 7 sec) 
Heartbeat CPU 0 instructions: 200000000 cycles: 347588048 heartbeat IPC: 0.353406 cumulative IPC: 0.358133 (Simulation time: 0 hr 7 min 38 sec) 
Heartbeat CPU 0 instructions: 210000002 cycles: 375379578 heartbeat IPC: 0.359822 cumulative IPC: 0.358286 (Simulation time: 0 hr 8 min 8 sec) 
Heartbeat CPU 0 instructions: 220000000 cycles: 404422046 heartbeat IPC: 0.344323 cumulative IPC: 0.357079 (Simulation time: 0 hr 8 min 37 sec) 
Heartbeat CPU 0 instructions: 230000000 cycles: 431916756 heartbeat IPC: 0.363706 cumulative IPC: 0.35758 (Simulation time: 0 hr 9 min 6 sec) 
Heartbeat CPU 0 instructions: 240000000 cycles: 457824108 heartbeat IPC: 0.385991 cumulative IPC: 0.35947 (Simulation time: 0 hr 9 min 34 sec) 
Heartbeat CPU 0 instructions: 250000000 cycles: 487930561 heartbeat IPC: 0.332155 cumulative IPC: 0.35751 (Simulation time: 0 hr 10 min 6 sec) 
Heartbeat CPU 0 instructions: 260000000 cycles: 515031413 heartbeat IPC: 0.368992 cumulative IPC: 0.358207 (Simulation time: 0 hr 10 min 36 sec) 
Heartbeat CPU 0 instructions: 270000003 cycles: 543407831 heartbeat IPC: 0.352405 cumulative IPC: 0.35786 (Simulation time: 0 hr 11 min 7 sec) 
Heartbeat CPU 0 instructions: 280000000 cycles: 571522450 heartbeat IPC: 0.355687 cumulative IPC: 0.357739 (Simulation time: 0 hr 11 min 38 sec) 
Heartbeat CPU 0 instructions: 290000000 cycles: 600353662 heartbeat IPC: 0.346846 cumulative IPC: 0.357149 (Simulation time: 0 hr 12 min 9 sec) 
Heartbeat CPU 0 instructions: 300000000 cycles: 630140010 heartbeat IPC: 0.335724 cumulative IPC: 0.356013 (Simulation time: 0 hr 12 min 39 sec) 
Heartbeat CPU 0 instructions: 310000001 cycles: 659461751 heartbeat IPC: 0.341044 cumulative IPC: 0.35527 (Simulation time: 0 hr 13 min 8 sec) 
Heartbeat CPU 0 instructions: 320000000 cycles: 687575393 heartbeat IPC: 0.355699 cumulative IPC: 0.35529 (Simulation time: 0 hr 13 min 38 sec) 
Heartbeat CPU 0 instructions: 330000000 cycles: 716159005 heartbeat IPC: 0.349851 cumulative IPC: 0.35505 (Simulation time: 0 hr 14 min 8 sec) 
Heartbeat CPU 0 instructions: 340000000 cycles: 745368461 heartbeat IPC: 0.342355 cumulative IPC: 0.354502 (Simulation time: 0 hr 14 min 38 sec) 
Heartbeat CPU 0 instructions: 350000003 cycles: 772356322 heartbeat IPC: 0.370537 cumulative IPC: 0.355117 (Simulation time: 0 hr 15 min 7 sec) 
Heartbeat CPU 0 instructions: 360000000 cycles: 800416048 heartbeat IPC: 0.356383 cumulative IPC: 0.355165 (Simulation time: 0 hr 15 min 36 sec) 
Heartbeat CPU 0 instructions: 370000000 cycles: 828592007 heartbeat IPC: 0.354912 cumulative IPC: 0.355156 (Simulation time: 0 hr 16 min 4 sec) 
Heartbeat CPU 0 instructions: 380000000 cycles: 857078120 heartbeat IPC: 0.351048 cumulative IPC: 0.355007 (Simulation time: 0 hr 16 min 33 sec) 
Heartbeat CPU 0 instructions: 390000001 cycles: 884678751 heartbeat IPC: 0.362311 cumulative IPC: 0.355254 (Simulation time: 0 hr 17 min 1 sec) 
Heartbeat CPU 0 instructions: 400000000 cycles: 913305920 heartbeat IPC: 0.349318 cumulative IPC: 0.355053 (Simulation time: 0 hr 17 min 30 sec) 
Heartbeat CPU 0 instructions: 410000001 cycles: 940612401 heartbeat IPC: 0.366213 cumulative IPC: 0.355403 (Simulation time: 0 hr 17 min 59 sec) 
Heartbeat CPU 0 instructions: 420000000 cycles: 967930935 heartbeat IPC: 0.366052 cumulative IPC: 0.355726 (Simulation time: 0 hr 18 min 27 sec) 
Heartbeat CPU 0 instructions: 430000002 cycles: 995610937 heartbeat IPC: 0.361272 cumulative IPC: 0.355892 (Simulation time: 0 hr 18 min 56 sec) 
Heartbeat CPU 0 instructions: 440000000 cycles: 1025080435 heartbeat IPC: 0.339334 cumulative IPC: 0.355381 (Simulation time: 0 hr 19 min 24 sec) 
Heartbeat CPU 0 instructions: 450000002 cycles: 1054299476 heartbeat IPC: 0.342243 cumulative IPC: 0.354992 (Simulation time: 0 hr 19 min 53 sec) 
Heartbeat CPU 0 instructions: 460000000 cycles: 1081983712 heartbeat IPC: 0.361216 cumulative IPC: 0.355162 (Simulation time: 0 hr 20 min 22 sec) 
Heartbeat CPU 0 instructions: 470000000 cycles: 1109613777 heartbeat IPC: 0.361925 cumulative IPC: 0.355342 (Simulation time: 0 hr 20 min 51 sec) 
Heartbeat CPU 0 instructions: 480000000 cycles: 1137490736 heartbeat IPC: 0.358719 cumulative IPC: 0.35543 (Simulation time: 0 hr 21 min 19 sec) 
Heartbeat CPU 0 instructions: 490000000 cycles: 1165084108 heartbeat IPC: 0.362406 cumulative IPC: 0.355605 (Simulation time: 0 hr 21 min 48 sec) 
Heartbeat CPU 0 instructions: 500000000 cycles: 1193348891 heartbeat IPC: 0.353797 cumulative IPC: 0.35556 (Simulation time: 0 hr 22 min 17 sec) 
Heartbeat CPU 0 instructions: 510000000 cycles: 1228516492 heartbeat IPC: 0.284353 cumulative IPC: 0.353401 (Simulation time: 0 hr 22 min 49 sec) 
Heartbeat CPU 0 instructions: 520000000 cycles: 1256452518 heartbeat IPC: 0.357961 cumulative IPC: 0.353508 (Simulation time: 0 hr 23 min 19 sec) 
Heartbeat CPU 0 instructions: 530000001 cycles: 1285726413 heartbeat IPC: 0.341601 cumulative IPC: 0.353222 (Simulation time: 0 hr 23 min 49 sec) 
Heartbeat CPU 0 instructions: 540000000 cycles: 1313717789 heartbeat IPC: 0.357253 cumulative IPC: 0.353313 (Simulation time: 0 hr 24 min 18 sec) 
Heartbeat CPU 0 instructions: 550000001 cycles: 1342894972 heartbeat IPC: 0.342734 cumulative IPC: 0.353071 (Simulation time: 0 hr 24 min 50 sec) 
Heartbeat CPU 0 instructions: 560000000 cycles: 1368265369 heartbeat IPC: 0.39416 cumulative IPC: 0.353872 (Simulation time: 0 hr 25 min 19 sec) 
Heartbeat CPU 0 instructions: 570000000 cycles: 1397645810 heartbeat IPC: 0.340362 cumulative IPC: 0.353574 (Simulation time: 0 hr 25 min 49 sec) 
Heartbeat CPU 0 instructions: 580000000 cycles: 1425554527 heartbeat IPC: 0.358311 cumulative IPC: 0.353671 (Simulation time: 0 hr 26 min 19 sec) 
Heartbeat CPU 0 instructions: 590000001 cycles: 1450321987 heartbeat IPC: 0.403756 cumulative IPC: 0.354569 (Simulation time: 0 hr 26 min 47 sec) 
Heartbeat CPU 0 instructions: 600000000 cycles: 1476407812 heartbeat IPC: 0.38335 cumulative IPC: 0.355102 (Simulation time: 0 hr 27 min 16 sec) 
Finished CPU 0 instructions: 500000000 cycles: 1408045724 cumulative IPC: 0.355102 (Simulation time: 0 hr 27 min 16 sec) 

CPU 0 Branch Prediction Accuracy: 86.4311% MPKI: 26.2662
Number of Branches: 96788573 Number of Mispredictions: 13133102
Number of LOAD Instructions: 164682285
Number of LOAD Instructions (ROI): 164682285
Number of STORE Instructions: 78194750
Number of STORE Instructions (ROI): 78194750
Total Destination Memory Operands: 83268534
Total Destination Memory Operands (ROI): 83268534
Total Source Memory Operands: 164712438
Total Source Memory Operands (ROI): 164712438
Number of DEPENDED LOADS: 7062003
Number of DEPENDED LOADS (ROI): 7062003
Number of SQ_ADDED: 83268522
Number of SQ_ADDED (ROI): 83268522
Number of LQ_ADDED: 236705727
Number of LQ_ADDED (ROI): 236705727
Number of Instructions read from trace: 600000066

ChampSim completed all CPUs

Region of Interest Statistics

CPU 0 cumulative IPC: 0.355102 instructions: 500000000 cycles: 1408045724
ITLB TOTAL     ACCESS:  100508856  HIT:  100304410  MISS:     204446
ITLB LOAD      ACCESS:  100508856  HIT:  100304410  MISS:     204446
ITLB RFO       ACCESS:          0  HIT:          0  MISS:          0
ITLB PREFETCH  ACCESS:          0  HIT:          0  MISS:          0
ITLB WRITEBACK ACCESS:          0  HIT:          0  MISS:          0
ITLB PREFETCH  REQUESTED:          0  ISSUED:          0  USEFUL:          0  USELESS:          0
ITLB TOTAL MSHR MERGED:     172424
ITLB LOAD MSHR MERGED:     172424
ITLB RFO MSHR MERGED:          0
ITLB PREFETCH MSHR MERGED:          0
ITLB WRITEBACK MSHR MERGED:          0
ITLB TOTAL ACCESSES:  100681280 HITS:  100304410 MISSES:     376870
ITLB LOAD ACCESSES:  100681280 HITS:  100304410 MISSES:     376870
ITLB RFO ACCESSES:          0 HITS:          0 MISSES:          0
ITLB PREFETCH ACCESSES:          0 HITS:          0 MISSES:          0
ITLB WRITEBACK ACCESSES:          0 HITS:          0 MISSES:          0
ITLB RQ ACCESS:  500000057
ITLB RQ TO_CACHE:  100681280
ITLB RQ MERGED:  399318777
ITLB RQ FORWARD:          0
ITLB WQ ACCESS:          0
ITLB WQ TO_CACHE:          0
ITLB WQ MERGED:          0
ITLB WQ FORWARD:          0
DTLB TOTAL     ACCESS:  165334068  HIT:  164699717  MISS:     634351
DTLB LOAD      ACCESS:  106290116  HIT:  105720112  MISS:     570004
DTLB RFO       ACCESS:   59043952  HIT:   58979605  MISS:      64347
DTLB PREFETCH  ACCESS:          0  HIT:          0  MISS:          0
DTLB WRITEBACK ACCESS:          0  HIT:          0  MISS:          0
DTLB PREFETCH  REQUESTED:          0  ISSUED:          0  USEFUL:          0  USELESS:          0
DTLB TOTAL MSHR MERGED:     100001
DTLB LOAD MSHR MERGED:      59460
DTLB RFO MSHR MERGED:      40541
DTLB PREFETCH MSHR MERGED:          0
DTLB WRITEBACK MSHR MERGED:          0
DTLB TOTAL ACCESSES:  165434069 HITS:  164699717 MISSES:     734352
DTLB LOAD ACCESSES:  106349576 HITS:  105720112 MISSES:     629464
DTLB RFO ACCESSES:   59084493 HITS:   58979605 MISSES:     104888
DTLB PREFETCH ACCESSES:          0 HITS:          0 MISSES:          0
DTLB WRITEBACK ACCESSES:          0 HITS:          0 MISSES:          0
DTLB RQ ACCESS:  200308905
DTLB RQ TO_CACHE:  165434069
DTLB RQ MERGED:   34874836
DTLB RQ FORWARD:          0
DTLB WQ ACCESS:          0
DTLB WQ TO_CACHE:          0
DTLB WQ MERGED:          0
DTLB WQ FORWARD:          0
L1D TOTAL     ACCESS:  281814736  HIT:  273905442  MISS:    7909294
L1D LOAD      ACCESS:  110414059  HIT:  107135335  MISS:    3278724
L1D RFO       ACCESS:   67111573  HIT:   66220801  MISS:     890772
L1D PREFETCH  ACCESS:  104289104  HIT:  100549306  MISS:    3739798
L1D WRITEBACK ACCESS:          0  HIT:          0  MISS:          0
L1D PREFETCH  REQUESTED:  110814720  ISSUED:  109115390  USEFUL:    1660548  USELESS:    2079214
L1D TOTAL MSHR MERGED:    2885221
L1D LOAD MSHR MERGED:     498913
L1D RFO MSHR MERGED:    1874529
L1D PREFETCH MSHR MERGED:     511779
L1D WRITEBACK MSHR MERGED:          0
L1D TOTAL ACCESSES:  284727480 HITS:  273932965 MISSES:   10794515
L1D LOAD ACCESSES:  110816245 HITS:  107136860 MISSES:    3679385
L1D RFO ACCESSES:   68974125 HITS:   66220801 MISSES:    2753324
L1D PREFETCH ACCESSES:  104937110 HITS:  100575304 MISSES:    4361806
L1D WRITEBACK ACCESSES:          0 HITS:          0 MISSES:          0
L1D RQ ACCESS:  130756302
L1D RQ TO_CACHE:  110814723
L1D RQ MERGED:   19940054
L1D RQ FORWARD:          0
L1D WQ ACCESS:   69552603
L1D WQ TO_CACHE:   68974126
L1D WQ MERGED:     578477
L1D WQ FORWARD:      27523
L1I TOTAL     ACCESS:  126556302  HIT:  122317748  MISS:    4238554
L1I LOAD      ACCESS:  126556302  HIT:  122317748  MISS:    4238554
L1I RFO       ACCESS:          0  HIT:          0  MISS:          0
L1I PREFETCH  ACCESS:          0  HIT:          0  MISS:          0
L1I WRITEBACK ACCESS:          0  HIT:          0  MISS:          0
L1I PREFETCH  REQUESTED:          0  ISSUED:          0  USEFUL:          0  USELESS:          0
L1I TOTAL MSHR MERGED:    1834547
L1I LOAD MSHR MERGED:    1834547
L1I RFO MSHR MERGED:          0
L1I PREFETCH MSHR MERGED:          0
L1I WRITEBACK MSHR MERGED:          0
L1I TOTAL ACCESSES:  128390852 HITS:  122317748 MISSES:    6073104
L1I LOAD ACCESSES:  128390852 HITS:  122317748 MISSES:    6073104
L1I RFO ACCESSES:          0 HITS:          0 MISSES:          0
L1I PREFETCH ACCESSES:          0 HITS:          0 MISSES:          0
L1I WRITEBACK ACCESSES:          0 HITS:          0 MISSES:          0
L1I RQ ACCESS:  500000057
L1I RQ TO_CACHE:  128390852
L1I RQ MERGED:  371609205
L1I RQ FORWARD:          0
L1I WQ ACCESS:          0
L1I WQ TO_CACHE:          0
L1I WQ MERGED:          0
L1I WQ FORWARD:          0
L2C TOTAL     ACCESS:   14904917  HIT:   11158553  MISS:    3746364
L2C LOAD      ACCESS:    7418819  HIT:    5098826  MISS:    2319993
L2C RFO       ACCESS:     878697  HIT:     409916  MISS:     468781
L2C PREFETCH  ACCESS:    4568168  HIT:    3627831  MISS:     940337
L2C WRITEBACK ACCESS:    2039233  HIT:    2021980  MISS:      17253
L2C PREFETCH  REQUESTED:     842647  ISSUED:     842647  USEFUL:     203310  USELESS:     736733
L2C TOTAL MSHR MERGED:       7266
L2C LOAD MSHR MERGED:        848
L2C RFO MSHR MERGED:          0
L2C PREFETCH MSHR MERGED:       6418
L2C WRITEBACK MSHR MERGED:          0
L2C TOTAL ACCESSES:   14913091 HITS:   11159000 MISSES:    3754091
L2C LOAD ACCESSES:    7419026 HITS:    5099033 MISSES:    2319993
L2C RFO ACCESSES:     878795 HITS:     410014 MISSES:     468781
L2C PREFETCH ACCESSES:    4576037 HITS:    3627973 MISSES:     948064
L2C WRITEBACK ACCESSES:    2039233 HITS:    2021980 MISSES:      17253
L2C RQ ACCESS:    8297824
L2C RQ TO_CACHE:    8297519
L2C RQ MERGED:          0
L2C RQ FORWARD:          0
L2C WQ ACCESS:    2039233
L2C WQ TO_CACHE:    2039233
L2C WQ MERGED:          0
L2C WQ FORWARD:        447
LLC TOTAL     ACCESS:    4609666  HIT:    3950688  MISS:     658978
LLC LOAD      ACCESS:    2319131  HIT:    2094310  MISS:     224821
LLC RFO       ACCESS:     468770  HIT:     394182  MISS:      74588
LLC PREFETCH  ACCESS:     941523  HIT:     638192  MISS:     303331
LLC WRITEBACK ACCESS:     880242  HIT:     824004  MISS:      56238
LLC PREFETCH  REQUESTED:          0  ISSUED:          0  USEFUL:      16578  USELESS:     287445
LLC TOTAL MSHR MERGED:        107
LLC LOAD MSHR MERGED:         37
LLC RFO MSHR MERGED:          0
LLC PREFETCH MSHR MERGED:         70
LLC WRITEBACK MSHR MERGED:          0
LLC TOTAL ACCESSES:    4609808 HITS:    3950723 MISSES:     659085
LLC LOAD ACCESSES:    2319145 HITS:    2094324 MISSES:     224821
LLC RFO ACCESSES:     468781 HITS:     394193 MISSES:      74588
LLC PREFETCH ACCESSES:     941640 HITS:     638202 MISSES:     303438
LLC WRITEBACK ACCESSES:     880242 HITS:     824004 MISSES:      56238
LLC 0 RQ ACCESS:    2787926
LLC 0 RQ TO_CACHE:    2787901
LLC 0 RQ MERGED:          0
LLC 0 RQ FORWARD:          0
LLC WQ ACCESS:     880242
LLC WQ TO_CACHE:     880242
LLC WQ MERGED:          0
LLC WQ FORWARD:         35
Major fault: 0 Minor fault: 12862
CPU 0 L1D next line prefetcher final stats
CPU 0 L2C PC-based stride prefetcher final stats
All Misses: 778764
All Hits: 4647908
SD Algo Stats - Switches: 0 SRR-Repls: 263070 BRR-Repls: 0

DRAM Statistics
 CHANNEL 0
 RQ ROW_BUFFER_HIT:     114832  ROW_BUFFER_MISS:     486538
 DBUS_CONGESTED:     394059
 WQ ROW_BUFFER_HIT:      19236  ROW_BUFFER_MISS:     211540  FULL:          0

 AVG_CONGESTED_CYCLE: 13
LOADS RETIRED: 136549171
INSTR RETIRED: 500000000
