
*** ChampSim Multicore Out-of-Order Simulator ***

Warmup Instructions: 100000000
Simulation Instructions: 500000000
Number of CPUs: 1
LLC sets: 2048
LLC ways: 16
Clean RRIP Policies: 213030102130301 Dirty RRIP Policies: 2213130122131301 PSEL Width: 10 Track Set: 4294967295 PSEL Mask: 1 Demote Mask: 4340201043402010DS Algo: 0Window size: 0
Off-chip DRAM Size: 4096 MB Channels: 1 Width: 64-bit Data Rate: 1600 MT/s

CPU 0 runs /mnt/beegfs/iconst01/spec2017/cactuBSSN.trace.gz
NOT SORTED
TRACE STRING: /mnt/beegfs/iconst01/spec2017/cactuBSSN.trace.gz
SORTED
TRACE STRING: /mnt/beegfs/iconst01/spec2017/cactuBSSN.trace.gz
INITIAL
TRACE STRING: /mnt/beegfs/iconst01/spec2017/cactuBSSN.trace.gz

champsim_seed used: 838

CPU 0 L1D next line prefetcher
CPU 0 L2C IP-based stride prefetcher
Initialize DRRIP state
Assign rand_sets[0]: 454  LLC: 2048
rand_sets[0]: 454
Assign rand_sets[1]: 1662  LLC: 2048
rand_sets[1]: 1662
Assign rand_sets[2]: 1921  LLC: 2048
rand_sets[2]: 1921
Assign rand_sets[3]: 1131  LLC: 2048
rand_sets[3]: 1131
Assign rand_sets[4]: 331  LLC: 2048
rand_sets[4]: 331
Assign rand_sets[5]: 1531  LLC: 2048
rand_sets[5]: 1531
Assign rand_sets[6]: 482  LLC: 2048
rand_sets[6]: 482
Assign rand_sets[7]: 1275  LLC: 2048
rand_sets[7]: 1275
Assign rand_sets[8]: 1876  LLC: 2048
rand_sets[8]: 1876
Assign rand_sets[9]: 2038  LLC: 2048
rand_sets[9]: 2038
Assign rand_sets[10]: 701  LLC: 2048
rand_sets[10]: 701
Assign rand_sets[11]: 479  LLC: 2048
rand_sets[11]: 479
Assign rand_sets[12]: 892  LLC: 2048
rand_sets[12]: 892
Assign rand_sets[13]: 1820  LLC: 2048
rand_sets[13]: 1820
Assign rand_sets[14]: 1505  LLC: 2048
rand_sets[14]: 1505
Assign rand_sets[15]: 1159  LLC: 2048
rand_sets[15]: 1159
Assign rand_sets[16]: 513  LLC: 2048
rand_sets[16]: 513
Assign rand_sets[17]: 703  LLC: 2048
rand_sets[17]: 703
Assign rand_sets[18]: 561  LLC: 2048
rand_sets[18]: 561
Assign rand_sets[19]: 990  LLC: 2048
rand_sets[19]: 990
Assign rand_sets[20]: 342  LLC: 2048
rand_sets[20]: 342
Assign rand_sets[21]: 882  LLC: 2048
rand_sets[21]: 882
Assign rand_sets[22]: 15  LLC: 2048
rand_sets[22]: 15
Assign rand_sets[23]: 71  LLC: 2048
rand_sets[23]: 71
Assign rand_sets[24]: 1127  LLC: 2048
rand_sets[24]: 1127
Assign rand_sets[25]: 1382  LLC: 2048
rand_sets[25]: 1382
Assign rand_sets[26]: 647  LLC: 2048
rand_sets[26]: 647
Assign rand_sets[27]: 857  LLC: 2048
rand_sets[27]: 857
Assign rand_sets[28]: 1450  LLC: 2048
rand_sets[28]: 1450
Assign rand_sets[29]: 1160  LLC: 2048
rand_sets[29]: 1160
Assign rand_sets[30]: 1852  LLC: 2048
rand_sets[30]: 1852
Assign rand_sets[31]: 1881  LLC: 2048
rand_sets[31]: 1881
Assign rand_sets[32]: 1770  LLC: 2048
rand_sets[32]: 1770
Assign rand_sets[33]: 1622  LLC: 2048
rand_sets[33]: 1622
Assign rand_sets[34]: 275  LLC: 2048
rand_sets[34]: 275
Assign rand_sets[35]: 635  LLC: 2048
rand_sets[35]: 635
Assign rand_sets[36]: 466  LLC: 2048
rand_sets[36]: 466
Assign rand_sets[37]: 1413  LLC: 2048
rand_sets[37]: 1413
Assign rand_sets[38]: 417  LLC: 2048
rand_sets[38]: 417
Assign rand_sets[39]: 472  LLC: 2048
rand_sets[39]: 472
Assign rand_sets[40]: 1340  LLC: 2048
rand_sets[40]: 1340
Assign rand_sets[41]: 852  LLC: 2048
rand_sets[41]: 852
Assign rand_sets[42]: 1365  LLC: 2048
rand_sets[42]: 1365
Assign rand_sets[43]: 47  LLC: 2048
rand_sets[43]: 47
Assign rand_sets[44]: 823  LLC: 2048
rand_sets[44]: 823
Assign rand_sets[45]: 686  LLC: 2048
rand_sets[45]: 686
Assign rand_sets[46]: 1637  LLC: 2048
rand_sets[46]: 1637
Assign rand_sets[47]: 1115  LLC: 2048
rand_sets[47]: 1115
Assign rand_sets[48]: 986  LLC: 2048
rand_sets[48]: 986
Assign rand_sets[49]: 258  LLC: 2048
rand_sets[49]: 258
Assign rand_sets[50]: 633  LLC: 2048
rand_sets[50]: 633
Assign rand_sets[51]: 920  LLC: 2048
rand_sets[51]: 920
Assign rand_sets[52]: 204  LLC: 2048
rand_sets[52]: 204
Assign rand_sets[53]: 227  LLC: 2048
rand_sets[53]: 227
Assign rand_sets[54]: 1818  LLC: 2048
rand_sets[54]: 1818
Assign rand_sets[55]: 886  LLC: 2048
rand_sets[55]: 886
Assign rand_sets[56]: 1422  LLC: 2048
rand_sets[56]: 1422
Assign rand_sets[57]: 607  LLC: 2048
rand_sets[57]: 607
Assign rand_sets[58]: 217  LLC: 2048
rand_sets[58]: 217
Assign rand_sets[59]: 1945  LLC: 2048
rand_sets[59]: 1945
Assign rand_sets[60]: 143  LLC: 2048
rand_sets[60]: 143
Assign rand_sets[61]: 1311  LLC: 2048
rand_sets[61]: 1311
Assign rand_sets[62]: 319  LLC: 2048
rand_sets[62]: 319
Assign rand_sets[63]: 1846  LLC: 2048
rand_sets[63]: 1846
 CLEAN-RRIP-POLICY-1: 0-2-1-3-0-3-0-1- CLEAN-RRIP-POLICY-2: 0-2-1-3-0-3-0-1-
 DIRTY-RRIP-POLICY-1: 2-2-1-3-1-3-0-1- DIRTY-RRIP-POLICY-2: 2-2-1-3-1-3-0-1-
 PSEL width: 10
Heartbeat CPU 0 instructions: 10000000 cycles: 6588002 heartbeat IPC: 1.51791 cumulative IPC: 1.51791 (Simulation time: 0 hr 0 min 24 sec) 
Heartbeat CPU 0 instructions: 20000000 cycles: 13179597 heartbeat IPC: 1.51708 cumulative IPC: 1.5175 (Simulation time: 0 hr 0 min 48 sec) 
Heartbeat CPU 0 instructions: 30000003 cycles: 19772916 heartbeat IPC: 1.51669 cumulative IPC: 1.51723 (Simulation time: 0 hr 1 min 13 sec) 
Heartbeat CPU 0 instructions: 40000000 cycles: 26364661 heartbeat IPC: 1.51705 cumulative IPC: 1.51718 (Simulation time: 0 hr 1 min 37 sec) 
Heartbeat CPU 0 instructions: 50000001 cycles: 32957340 heartbeat IPC: 1.51683 cumulative IPC: 1.51711 (Simulation time: 0 hr 2 min 1 sec) 
Heartbeat CPU 0 instructions: 60000000 cycles: 39556173 heartbeat IPC: 1.51542 cumulative IPC: 1.51683 (Simulation time: 0 hr 2 min 26 sec) 
Heartbeat CPU 0 instructions: 70000003 cycles: 46154551 heartbeat IPC: 1.51552 cumulative IPC: 1.51664 (Simulation time: 0 hr 2 min 50 sec) 
Heartbeat CPU 0 instructions: 80000000 cycles: 52752616 heartbeat IPC: 1.5156 cumulative IPC: 1.51651 (Simulation time: 0 hr 3 min 14 sec) 
Heartbeat CPU 0 instructions: 90000002 cycles: 59348289 heartbeat IPC: 1.51615 cumulative IPC: 1.51647 (Simulation time: 0 hr 3 min 39 sec) 
Heartbeat CPU 0 instructions: 100000000 cycles: 65943385 heartbeat IPC: 1.51628 cumulative IPC: 1.51645 (Simulation time: 0 hr 4 min 3 sec) 

Warmup complete CPU 0 instructions: 100000002 cycles: 65943386 (Simulation time: 0 hr 4 min 3 sec) 

Heartbeat CPU 0 instructions: 110000000 cycles: 79182992 heartbeat IPC: 0.755309 cumulative IPC: 0.755309 (Simulation time: 0 hr 4 min 33 sec) 
Heartbeat CPU 0 instructions: 120000000 cycles: 92382035 heartbeat IPC: 0.757631 cumulative IPC: 0.756468 (Simulation time: 0 hr 5 min 2 sec) 
Heartbeat CPU 0 instructions: 130000001 cycles: 105649244 heartbeat IPC: 0.753738 cumulative IPC: 0.755556 (Simulation time: 0 hr 5 min 32 sec) 
Heartbeat CPU 0 instructions: 140000000 cycles: 118820366 heartbeat IPC: 0.759237 cumulative IPC: 0.756473 (Simulation time: 0 hr 6 min 2 sec) 
Heartbeat CPU 0 instructions: 150000001 cycles: 132008221 heartbeat IPC: 0.758273 cumulative IPC: 0.756832 (Simulation time: 0 hr 6 min 32 sec) 
Heartbeat CPU 0 instructions: 160000000 cycles: 145252407 heartbeat IPC: 0.755048 cumulative IPC: 0.756534 (Simulation time: 0 hr 7 min 1 sec) 
Heartbeat CPU 0 instructions: 170000000 cycles: 158469022 heartbeat IPC: 0.756623 cumulative IPC: 0.756547 (Simulation time: 0 hr 7 min 31 sec) 
Heartbeat CPU 0 instructions: 180000000 cycles: 171671745 heartbeat IPC: 0.75742 cumulative IPC: 0.756656 (Simulation time: 0 hr 8 min 1 sec) 
Heartbeat CPU 0 instructions: 190000000 cycles: 184831575 heartbeat IPC: 0.759888 cumulative IPC: 0.757014 (Simulation time: 0 hr 8 min 31 sec) 
Heartbeat CPU 0 instructions: 200000000 cycles: 198088274 heartbeat IPC: 0.754336 cumulative IPC: 0.756745 (Simulation time: 0 hr 9 min 0 sec) 
Heartbeat CPU 0 instructions: 210000002 cycles: 211299126 heartbeat IPC: 0.756954 cumulative IPC: 0.756764 (Simulation time: 0 hr 9 min 30 sec) 
Heartbeat CPU 0 instructions: 220000000 cycles: 224470329 heartbeat IPC: 0.759232 cumulative IPC: 0.756969 (Simulation time: 0 hr 10 min 0 sec) 
Heartbeat CPU 0 instructions: 230000003 cycles: 237717151 heartbeat IPC: 0.754898 cumulative IPC: 0.756809 (Simulation time: 0 hr 10 min 29 sec) 
Heartbeat CPU 0 instructions: 240000000 cycles: 250908207 heartbeat IPC: 0.758089 cumulative IPC: 0.756901 (Simulation time: 0 hr 10 min 59 sec) 
Heartbeat CPU 0 instructions: 250000001 cycles: 264132792 heartbeat IPC: 0.756167 cumulative IPC: 0.756852 (Simulation time: 0 hr 11 min 29 sec) 
Heartbeat CPU 0 instructions: 260000000 cycles: 277343612 heartbeat IPC: 0.756955 cumulative IPC: 0.756858 (Simulation time: 0 hr 11 min 59 sec) 
Heartbeat CPU 0 instructions: 270000003 cycles: 290591610 heartbeat IPC: 0.754831 cumulative IPC: 0.756739 (Simulation time: 0 hr 12 min 28 sec) 
Heartbeat CPU 0 instructions: 280000000 cycles: 303793246 heartbeat IPC: 0.757482 cumulative IPC: 0.75678 (Simulation time: 0 hr 12 min 58 sec) 
Heartbeat CPU 0 instructions: 290000000 cycles: 316960896 heartbeat IPC: 0.759437 cumulative IPC: 0.756919 (Simulation time: 0 hr 13 min 28 sec) 
Heartbeat CPU 0 instructions: 300000000 cycles: 330225249 heartbeat IPC: 0.7539 cumulative IPC: 0.756768 (Simulation time: 0 hr 13 min 58 sec) 
Heartbeat CPU 0 instructions: 310000001 cycles: 343408074 heartbeat IPC: 0.758563 cumulative IPC: 0.756853 (Simulation time: 0 hr 14 min 27 sec) 
Heartbeat CPU 0 instructions: 320000000 cycles: 356598065 heartbeat IPC: 0.758151 cumulative IPC: 0.756912 (Simulation time: 0 hr 14 min 57 sec) 
Heartbeat CPU 0 instructions: 330000002 cycles: 369791024 heartbeat IPC: 0.75798 cumulative IPC: 0.756958 (Simulation time: 0 hr 15 min 27 sec) 
Heartbeat CPU 0 instructions: 340000000 cycles: 383033868 heartbeat IPC: 0.755125 cumulative IPC: 0.756882 (Simulation time: 0 hr 15 min 56 sec) 
Heartbeat CPU 0 instructions: 350000000 cycles: 396285447 heartbeat IPC: 0.754627 cumulative IPC: 0.756791 (Simulation time: 0 hr 16 min 26 sec) 
Heartbeat CPU 0 instructions: 360000000 cycles: 409504977 heartbeat IPC: 0.756457 cumulative IPC: 0.756778 (Simulation time: 0 hr 16 min 56 sec) 
Heartbeat CPU 0 instructions: 370000002 cycles: 422779366 heartbeat IPC: 0.75333 cumulative IPC: 0.75665 (Simulation time: 0 hr 17 min 26 sec) 
Heartbeat CPU 0 instructions: 380000000 cycles: 435980703 heartbeat IPC: 0.757499 cumulative IPC: 0.75668 (Simulation time: 0 hr 17 min 55 sec) 
Heartbeat CPU 0 instructions: 390000000 cycles: 449159702 heartbeat IPC: 0.758783 cumulative IPC: 0.756753 (Simulation time: 0 hr 18 min 25 sec) 
Heartbeat CPU 0 instructions: 400000000 cycles: 462352422 heartbeat IPC: 0.757994 cumulative IPC: 0.756794 (Simulation time: 0 hr 18 min 55 sec) 
Heartbeat CPU 0 instructions: 410000001 cycles: 475607181 heartbeat IPC: 0.754446 cumulative IPC: 0.756718 (Simulation time: 0 hr 19 min 25 sec) 
Heartbeat CPU 0 instructions: 420000000 cycles: 488785297 heartbeat IPC: 0.758834 cumulative IPC: 0.756784 (Simulation time: 0 hr 19 min 54 sec) 
Heartbeat CPU 0 instructions: 430000001 cycles: 501966374 heartbeat IPC: 0.758663 cumulative IPC: 0.756841 (Simulation time: 0 hr 20 min 24 sec) 
Heartbeat CPU 0 instructions: 440000000 cycles: 515133151 heartbeat IPC: 0.759487 cumulative IPC: 0.756918 (Simulation time: 0 hr 20 min 54 sec) 
Heartbeat CPU 0 instructions: 450000002 cycles: 528443280 heartbeat IPC: 0.751308 cumulative IPC: 0.756757 (Simulation time: 0 hr 21 min 23 sec) 
Heartbeat CPU 0 instructions: 460000000 cycles: 541671222 heartbeat IPC: 0.755975 cumulative IPC: 0.756735 (Simulation time: 0 hr 21 min 53 sec) 
Heartbeat CPU 0 instructions: 470000003 cycles: 554868465 heartbeat IPC: 0.757734 cumulative IPC: 0.756762 (Simulation time: 0 hr 22 min 23 sec) 
Heartbeat CPU 0 instructions: 480000000 cycles: 568114323 heartbeat IPC: 0.754953 cumulative IPC: 0.756714 (Simulation time: 0 hr 22 min 53 sec) 
Heartbeat CPU 0 instructions: 490000000 cycles: 581331632 heartbeat IPC: 0.756584 cumulative IPC: 0.756711 (Simulation time: 0 hr 23 min 23 sec) 
Heartbeat CPU 0 instructions: 500000000 cycles: 594525063 heartbeat IPC: 0.757953 cumulative IPC: 0.756742 (Simulation time: 0 hr 23 min 52 sec) 
Heartbeat CPU 0 instructions: 510000001 cycles: 607700179 heartbeat IPC: 0.759007 cumulative IPC: 0.756797 (Simulation time: 0 hr 24 min 22 sec) 
Heartbeat CPU 0 instructions: 520000000 cycles: 620994749 heartbeat IPC: 0.752187 cumulative IPC: 0.756687 (Simulation time: 0 hr 24 min 52 sec) 
Heartbeat CPU 0 instructions: 530000000 cycles: 634244981 heartbeat IPC: 0.754704 cumulative IPC: 0.75664 (Simulation time: 0 hr 25 min 22 sec) 
Heartbeat CPU 0 instructions: 540000000 cycles: 647473633 heartbeat IPC: 0.755935 cumulative IPC: 0.756624 (Simulation time: 0 hr 25 min 52 sec) 
Heartbeat CPU 0 instructions: 550000002 cycles: 660738681 heartbeat IPC: 0.753861 cumulative IPC: 0.756563 (Simulation time: 0 hr 26 min 22 sec) 
Heartbeat CPU 0 instructions: 560000000 cycles: 673935434 heartbeat IPC: 0.757762 cumulative IPC: 0.756589 (Simulation time: 0 hr 26 min 51 sec) 
Heartbeat CPU 0 instructions: 570000001 cycles: 687143732 heartbeat IPC: 0.7571 cumulative IPC: 0.7566 (Simulation time: 0 hr 27 min 21 sec) 
Heartbeat CPU 0 instructions: 580000000 cycles: 700349831 heartbeat IPC: 0.757226 cumulative IPC: 0.756613 (Simulation time: 0 hr 27 min 51 sec) 
Heartbeat CPU 0 instructions: 590000003 cycles: 713589631 heartbeat IPC: 0.755299 cumulative IPC: 0.756586 (Simulation time: 0 hr 28 min 21 sec) 
Heartbeat CPU 0 instructions: 600000000 cycles: 726845214 heartbeat IPC: 0.754399 cumulative IPC: 0.756542 (Simulation time: 0 hr 28 min 51 sec) 
Finished CPU 0 instructions: 500000000 cycles: 660901838 cumulative IPC: 0.756542 (Simulation time: 0 hr 28 min 51 sec) 

CPU 0 Branch Prediction Accuracy: 99.968% MPKI: 0.002246
Number of Branches: 3513331 Number of Mispredictions: 1123
Number of LOAD Instructions: 287251172
Number of LOAD Instructions (ROI): 287251172
Number of STORE Instructions: 51060820
Number of STORE Instructions (ROI): 51060820
Total Destination Memory Operands: 51166221
Total Destination Memory Operands (ROI): 51166221
Total Source Memory Operands: 287251172
Total Source Memory Operands (ROI): 287251172
Number of DEPENDED LOADS: 9555275
Number of DEPENDED LOADS (ROI): 9555275
Number of SQ_ADDED: 51166208
Number of SQ_ADDED (ROI): 51166208
Number of LQ_ADDED: 290420950
Number of LQ_ADDED (ROI): 290420950
Number of Instructions read from trace: 600000257

ChampSim completed all CPUs

Region of Interest Statistics

CPU 0 cumulative IPC: 0.756542 instructions: 500000000 cycles: 660901838
ITLB TOTAL     ACCESS:  108951561  HIT:  108951561  MISS:          0
ITLB LOAD      ACCESS:  108951561  HIT:  108951561  MISS:          0
ITLB RFO       ACCESS:          0  HIT:          0  MISS:          0
ITLB PREFETCH  ACCESS:          0  HIT:          0  MISS:          0
ITLB WRITEBACK ACCESS:          0  HIT:          0  MISS:          0
ITLB PREFETCH  REQUESTED:          0  ISSUED:          0  USEFUL:          0  USELESS:          0
ITLB TOTAL MSHR MERGED:          0
ITLB LOAD MSHR MERGED:          0
ITLB RFO MSHR MERGED:          0
ITLB PREFETCH MSHR MERGED:          0
ITLB WRITEBACK MSHR MERGED:          0
ITLB TOTAL ACCESSES:  108951561 HITS:  108951561 MISSES:          0
ITLB LOAD ACCESSES:  108951561 HITS:  108951561 MISSES:          0
ITLB RFO ACCESSES:          0 HITS:          0 MISSES:          0
ITLB PREFETCH ACCESSES:          0 HITS:          0 MISSES:          0
ITLB WRITEBACK ACCESSES:          0 HITS:          0 MISSES:          0
ITLB RQ ACCESS:  500000001
ITLB RQ TO_CACHE:  108951561
ITLB RQ MERGED:  391048440
ITLB RQ FORWARD:          0
ITLB WQ ACCESS:          0
ITLB WQ TO_CACHE:          0
ITLB WQ MERGED:          0
ITLB WQ FORWARD:          0
DTLB TOTAL     ACCESS:  171131982  HIT:  161115655  MISS:   10016327
DTLB LOAD      ACCESS:  143472411  HIT:  135596334  MISS:    7876077
DTLB RFO       ACCESS:   27659571  HIT:   25519321  MISS:    2140250
DTLB PREFETCH  ACCESS:          0  HIT:          0  MISS:          0
DTLB WRITEBACK ACCESS:          0  HIT:          0  MISS:          0
DTLB PREFETCH  REQUESTED:          0  ISSUED:          0  USEFUL:          0  USELESS:          0
DTLB TOTAL MSHR MERGED:     360396
DTLB LOAD MSHR MERGED:     360396
DTLB RFO MSHR MERGED:          0
DTLB PREFETCH MSHR MERGED:          0
DTLB WRITEBACK MSHR MERGED:          0
DTLB TOTAL ACCESSES:  171492378 HITS:  161115655 MISSES:   10376723
DTLB LOAD ACCESSES:  143832807 HITS:  135596334 MISSES:    8236473
DTLB RFO ACCESSES:   27659571 HITS:   25519321 MISSES:    2140250
DTLB PREFETCH ACCESSES:          0 HITS:          0 MISSES:          0
DTLB WRITEBACK ACCESSES:          0 HITS:          0 MISSES:          0
DTLB RQ ACCESS:  274072543
DTLB RQ TO_CACHE:  171492378
DTLB RQ MERGED:  102580165
DTLB RQ FORWARD:          0
DTLB WQ ACCESS:          0
DTLB WQ TO_CACHE:          0
DTLB WQ MERGED:          0
DTLB WQ FORWARD:          0
L1D TOTAL     ACCESS:  350911921  HIT:  283712778  MISS:   67199143
L1D LOAD      ACCESS:  175624362  HIT:  142585102  MISS:   33039260
L1D RFO       ACCESS:   42018655  HIT:   39212758  MISS:    2805897
L1D PREFETCH  ACCESS:  133268904  HIT:  101914918  MISS:   31353986
L1D WRITEBACK ACCESS:          0  HIT:          0  MISS:          0
L1D PREFETCH  REQUESTED:  176228380  ISSUED:  175289455  USEFUL:    2180201  USELESS:   29173787
L1D TOTAL MSHR MERGED:    1484369
L1D LOAD MSHR MERGED:     703929
L1D RFO MSHR MERGED:     350380
L1D PREFETCH MSHR MERGED:     430060
L1D WRITEBACK MSHR MERGED:          0
L1D TOTAL ACCESSES:  352511023 HITS:  283827511 MISSES:   68683512
L1D LOAD ACCESSES:  176236880 HITS:  142593602 MISSES:   33643278
L1D RFO ACCESSES:   42368339 HITS:   39212758 MISSES:    3155581
L1D PREFETCH ACCESSES:  133905804 HITS:  102021151 MISSES:   31884653
L1D WRITEBACK ACCESSES:          0 HITS:          0 MISSES:          0
L1D RQ ACCESS:  231434070
L1D RQ TO_CACHE:  176228380
L1D RQ MERGED:   55197190
L1D RQ FORWARD:          0
L1D WQ ACCESS:   42638475
L1D WQ TO_CACHE:   42368339
L1D WQ MERGED:     270136
L1D WQ FORWARD:     114733
L1I TOTAL     ACCESS:  109345873  HIT:   77830169  MISS:   31515704
L1I LOAD      ACCESS:  109345873  HIT:   77830169  MISS:   31515704
L1I RFO       ACCESS:          0  HIT:          0  MISS:          0
L1I PREFETCH  ACCESS:          0  HIT:          0  MISS:          0
L1I WRITEBACK ACCESS:          0  HIT:          0  MISS:          0
L1I PREFETCH  REQUESTED:          0  ISSUED:          0  USEFUL:          0  USELESS:          0
L1I TOTAL MSHR MERGED:   30749886
L1I LOAD MSHR MERGED:   30749886
L1I RFO MSHR MERGED:          0
L1I PREFETCH MSHR MERGED:          0
L1I WRITEBACK MSHR MERGED:          0
L1I TOTAL ACCESSES:  140095761 HITS:   77830169 MISSES:   62265592
L1I LOAD ACCESSES:  140095761 HITS:   77830169 MISSES:   62265592
L1I RFO ACCESSES:          0 HITS:          0 MISSES:          0
L1I PREFETCH ACCESSES:          0 HITS:          0 MISSES:          0
L1I WRITEBACK ACCESSES:          0 HITS:          0 MISSES:          0
L1I RQ ACCESS:  500000003
L1I RQ TO_CACHE:  140095761
L1I RQ MERGED:  359904242
L1I RQ FORWARD:          0
L1I WQ ACCESS:          0
L1I WQ TO_CACHE:          0
L1I WQ MERGED:          0
L1I WQ FORWARD:          0
L2C TOTAL     ACCESS:  113687268  HIT:  110688702  MISS:    2998566
L2C LOAD      ACCESS:   64453195  HIT:   63893468  MISS:     559727
L2C RFO       ACCESS:    2803298  HIT:    2194165  MISS:     609133
L2C PREFETCH  ACCESS:   43269890  HIT:   41446462  MISS:    1823428
L2C WRITEBACK ACCESS:    3160885  HIT:    3154607  MISS:       6278
L2C PREFETCH  REQUESTED:   15134647  ISSUED:   14620877  USEFUL:    1699247  USELESS:     124187
L2C TOTAL MSHR MERGED:      13004
L2C LOAD MSHR MERGED:          0
L2C RFO MSHR MERGED:          0
L2C PREFETCH MSHR MERGED:      13004
L2C WRITEBACK MSHR MERGED:          0
L2C TOTAL ACCESSES:  113908309 HITS:  110694560 MISSES:    3213749
L2C LOAD ACCESSES:   64455054 HITS:   63895326 MISSES:     559728
L2C RFO ACCESSES:    2805201 HITS:    2196068 MISSES:     609133
L2C PREFETCH ACCESSES:   43487169 HITS:   41448559 MISSES:    2038610
L2C WRITEBACK ACCESSES:    3160885 HITS:    3154607 MISSES:       6278
L2C RQ ACCESS:   67260256
L2C RQ TO_CACHE:   67256495
L2C RQ MERGED:          0
L2C RQ FORWARD:          0
L2C WQ ACCESS:    3160885
L2C WQ TO_CACHE:    3160885
L2C WQ MERGED:          0
L2C WQ FORWARD:       5858
LLC TOTAL     ACCESS:    3724658  HIT:    1743598  MISS:    1981060
LLC LOAD      ACCESS:     559699  HIT:     493003  MISS:      66696
LLC RFO       ACCESS:     527120  HIT:     238725  MISS:     288395
LLC PREFETCH  ACCESS:    2019692  HIT:     557210  MISS:    1462482
LLC WRITEBACK ACCESS:     618147  HIT:     454660  MISS:     163487
LLC PREFETCH  REQUESTED:          0  ISSUED:          0  USEFUL:      42997  USELESS:    1418432
LLC TOTAL MSHR MERGED:       5262
LLC LOAD MSHR MERGED:          0
LLC RFO MSHR MERGED:          0
LLC PREFETCH MSHR MERGED:       5262
LLC WRITEBACK MSHR MERGED:          0
LLC TOTAL ACCESSES:    3812045 HITS:    1825723 MISSES:    1986322
LLC LOAD ACCESSES:     559727 HITS:     493031 MISSES:      66696
LLC RFO ACCESSES:     609133 HITS:     320738 MISSES:     288395
LLC PREFETCH ACCESSES:    2025038 HITS:     557294 MISSES:    1467744
LLC WRITEBACK ACCESSES:     618147 HITS:     454660 MISSES:     163487
LLC 0 RQ ACCESS:    1168861
LLC 0 RQ TO_CACHE:    1086820
LLC 0 RQ MERGED:          0
LLC 0 RQ FORWARD:          0
LLC WQ ACCESS:     618147
LLC WQ TO_CACHE:     618147
LLC WQ MERGED:          0
LLC WQ FORWARD:      82125
Major fault: 0 Minor fault: 12800
CPU 0 L1D next line prefetcher final stats
CPU 0 L2C PC-based stride prefetcher final stats
All Misses: 2388763
All Hits: 2186809
SD Algo Stats - Switches: 0 SRR-Repls: 84717 BRR-Repls: 0

DRAM Statistics
 CHANNEL 0
 RQ ROW_BUFFER_HIT:     908350  ROW_BUFFER_MISS:     908932
 DBUS_CONGESTED:     978561
 WQ ROW_BUFFER_HIT:      30509  ROW_BUFFER_MISS:     261224  FULL:          0

 AVG_CONGESTED_CYCLE: 13
LOADS RETIRED: 239375970
INSTR RETIRED: 500000000
