
*** ChampSim Multicore Out-of-Order Simulator ***

Warmup Instructions: 100000000
Simulation Instructions: 500000000
Number of CPUs: 1
LLC sets: 2048
LLC ways: 16
Clean RRIP Policies: 213030102130301 Dirty RRIP Policies: 2213130122131301 PSEL Width: 10 Track Set: 4294967295 PSEL Mask: 1 Demote Mask: 4340201043402010DS Algo: 0Window size: 0
Off-chip DRAM Size: 4096 MB Channels: 1 Width: 64-bit Data Rate: 1600 MT/s

CPU 0 runs /mnt/beegfs/iconst01/spec2017/Xalancbmk.trace.gz
NOT SORTED
TRACE STRING: /mnt/beegfs/iconst01/spec2017/Xalancbmk.trace.gz
SORTED
TRACE STRING: /mnt/beegfs/iconst01/spec2017/Xalancbmk.trace.gz
INITIAL
TRACE STRING: /mnt/beegfs/iconst01/spec2017/Xalancbmk.trace.gz

champsim_seed used: 913

CPU 0 L1D next line prefetcher
CPU 0 L2C IP-based stride prefetcher
Initialize DRRIP state
Assign rand_sets[0]: 454  LLC: 2048
rand_sets[0]: 454
Assign rand_sets[1]: 1662  LLC: 2048
rand_sets[1]: 1662
Assign rand_sets[2]: 1921  LLC: 2048
rand_sets[2]: 1921
Assign rand_sets[3]: 1131  LLC: 2048
rand_sets[3]: 1131
Assign rand_sets[4]: 331  LLC: 2048
rand_sets[4]: 331
Assign rand_sets[5]: 1531  LLC: 2048
rand_sets[5]: 1531
Assign rand_sets[6]: 482  LLC: 2048
rand_sets[6]: 482
Assign rand_sets[7]: 1275  LLC: 2048
rand_sets[7]: 1275
Assign rand_sets[8]: 1876  LLC: 2048
rand_sets[8]: 1876
Assign rand_sets[9]: 2038  LLC: 2048
rand_sets[9]: 2038
Assign rand_sets[10]: 701  LLC: 2048
rand_sets[10]: 701
Assign rand_sets[11]: 479  LLC: 2048
rand_sets[11]: 479
Assign rand_sets[12]: 892  LLC: 2048
rand_sets[12]: 892
Assign rand_sets[13]: 1820  LLC: 2048
rand_sets[13]: 1820
Assign rand_sets[14]: 1505  LLC: 2048
rand_sets[14]: 1505
Assign rand_sets[15]: 1159  LLC: 2048
rand_sets[15]: 1159
Assign rand_sets[16]: 513  LLC: 2048
rand_sets[16]: 513
Assign rand_sets[17]: 703  LLC: 2048
rand_sets[17]: 703
Assign rand_sets[18]: 561  LLC: 2048
rand_sets[18]: 561
Assign rand_sets[19]: 990  LLC: 2048
rand_sets[19]: 990
Assign rand_sets[20]: 342  LLC: 2048
rand_sets[20]: 342
Assign rand_sets[21]: 882  LLC: 2048
rand_sets[21]: 882
Assign rand_sets[22]: 15  LLC: 2048
rand_sets[22]: 15
Assign rand_sets[23]: 71  LLC: 2048
rand_sets[23]: 71
Assign rand_sets[24]: 1127  LLC: 2048
rand_sets[24]: 1127
Assign rand_sets[25]: 1382  LLC: 2048
rand_sets[25]: 1382
Assign rand_sets[26]: 647  LLC: 2048
rand_sets[26]: 647
Assign rand_sets[27]: 857  LLC: 2048
rand_sets[27]: 857
Assign rand_sets[28]: 1450  LLC: 2048
rand_sets[28]: 1450
Assign rand_sets[29]: 1160  LLC: 2048
rand_sets[29]: 1160
Assign rand_sets[30]: 1852  LLC: 2048
rand_sets[30]: 1852
Assign rand_sets[31]: 1881  LLC: 2048
rand_sets[31]: 1881
Assign rand_sets[32]: 1770  LLC: 2048
rand_sets[32]: 1770
Assign rand_sets[33]: 1622  LLC: 2048
rand_sets[33]: 1622
Assign rand_sets[34]: 275  LLC: 2048
rand_sets[34]: 275
Assign rand_sets[35]: 635  LLC: 2048
rand_sets[35]: 635
Assign rand_sets[36]: 466  LLC: 2048
rand_sets[36]: 466
Assign rand_sets[37]: 1413  LLC: 2048
rand_sets[37]: 1413
Assign rand_sets[38]: 417  LLC: 2048
rand_sets[38]: 417
Assign rand_sets[39]: 472  LLC: 2048
rand_sets[39]: 472
Assign rand_sets[40]: 1340  LLC: 2048
rand_sets[40]: 1340
Assign rand_sets[41]: 852  LLC: 2048
rand_sets[41]: 852
Assign rand_sets[42]: 1365  LLC: 2048
rand_sets[42]: 1365
Assign rand_sets[43]: 47  LLC: 2048
rand_sets[43]: 47
Assign rand_sets[44]: 823  LLC: 2048
rand_sets[44]: 823
Assign rand_sets[45]: 686  LLC: 2048
rand_sets[45]: 686
Assign rand_sets[46]: 1637  LLC: 2048
rand_sets[46]: 1637
Assign rand_sets[47]: 1115  LLC: 2048
rand_sets[47]: 1115
Assign rand_sets[48]: 986  LLC: 2048
rand_sets[48]: 986
Assign rand_sets[49]: 258  LLC: 2048
rand_sets[49]: 258
Assign rand_sets[50]: 633  LLC: 2048
rand_sets[50]: 633
Assign rand_sets[51]: 920  LLC: 2048
rand_sets[51]: 920
Assign rand_sets[52]: 204  LLC: 2048
rand_sets[52]: 204
Assign rand_sets[53]: 227  LLC: 2048
rand_sets[53]: 227
Assign rand_sets[54]: 1818  LLC: 2048
rand_sets[54]: 1818
Assign rand_sets[55]: 886  LLC: 2048
rand_sets[55]: 886
Assign rand_sets[56]: 1422  LLC: 2048
rand_sets[56]: 1422
Assign rand_sets[57]: 607  LLC: 2048
rand_sets[57]: 607
Assign rand_sets[58]: 217  LLC: 2048
rand_sets[58]: 217
Assign rand_sets[59]: 1945  LLC: 2048
rand_sets[59]: 1945
Assign rand_sets[60]: 143  LLC: 2048
rand_sets[60]: 143
Assign rand_sets[61]: 1311  LLC: 2048
rand_sets[61]: 1311
Assign rand_sets[62]: 319  LLC: 2048
rand_sets[62]: 319
Assign rand_sets[63]: 1846  LLC: 2048
rand_sets[63]: 1846
 CLEAN-RRIP-POLICY-1: 0-2-1-3-0-3-0-1- CLEAN-RRIP-POLICY-2: 0-2-1-3-0-3-0-1-
 DIRTY-RRIP-POLICY-1: 2-2-1-3-1-3-0-1- DIRTY-RRIP-POLICY-2: 2-2-1-3-1-3-0-1-
 PSEL width: 10
Heartbeat CPU 0 instructions: 10000003 cycles: 4586382 heartbeat IPC: 2.18037 cumulative IPC: 2.18037 (Simulation time: 0 hr 0 min 16 sec) 
Heartbeat CPU 0 instructions: 20000000 cycles: 8977239 heartbeat IPC: 2.27746 cumulative IPC: 2.22786 (Simulation time: 0 hr 0 min 29 sec) 
Heartbeat CPU 0 instructions: 30000000 cycles: 13386493 heartbeat IPC: 2.26796 cumulative IPC: 2.24107 (Simulation time: 0 hr 0 min 44 sec) 
Heartbeat CPU 0 instructions: 40000000 cycles: 18011713 heartbeat IPC: 2.16206 cumulative IPC: 2.22078 (Simulation time: 0 hr 0 min 59 sec) 
Heartbeat CPU 0 instructions: 50000002 cycles: 22423563 heartbeat IPC: 2.26662 cumulative IPC: 2.2298 (Simulation time: 0 hr 1 min 13 sec) 
Heartbeat CPU 0 instructions: 60000000 cycles: 27075389 heartbeat IPC: 2.14969 cumulative IPC: 2.21603 (Simulation time: 0 hr 1 min 29 sec) 
Heartbeat CPU 0 instructions: 70000003 cycles: 31478322 heartbeat IPC: 2.27121 cumulative IPC: 2.22375 (Simulation time: 0 hr 1 min 44 sec) 
Heartbeat CPU 0 instructions: 80000000 cycles: 35902579 heartbeat IPC: 2.26027 cumulative IPC: 2.22825 (Simulation time: 0 hr 1 min 58 sec) 
Heartbeat CPU 0 instructions: 90000002 cycles: 40359407 heartbeat IPC: 2.24375 cumulative IPC: 2.22996 (Simulation time: 0 hr 2 min 12 sec) 
Heartbeat CPU 0 instructions: 100000000 cycles: 44833609 heartbeat IPC: 2.23503 cumulative IPC: 2.23047 (Simulation time: 0 hr 2 min 26 sec) 

Warmup complete CPU 0 instructions: 100000003 cycles: 44833610 (Simulation time: 0 hr 2 min 26 sec) 

Heartbeat CPU 0 instructions: 110000000 cycles: 71360906 heartbeat IPC: 0.37697 cumulative IPC: 0.37697 (Simulation time: 0 hr 2 min 57 sec) 
Heartbeat CPU 0 instructions: 120000000 cycles: 99596382 heartbeat IPC: 0.354164 cumulative IPC: 0.365212 (Simulation time: 0 hr 3 min 30 sec) 
Heartbeat CPU 0 instructions: 130000000 cycles: 123157238 heartbeat IPC: 0.424433 cumulative IPC: 0.383026 (Simulation time: 0 hr 3 min 59 sec) 
Heartbeat CPU 0 instructions: 140000000 cycles: 145700702 heartbeat IPC: 0.443588 cumulative IPC: 0.396561 (Simulation time: 0 hr 4 min 27 sec) 
Heartbeat CPU 0 instructions: 150000000 cycles: 170104024 heartbeat IPC: 0.40978 cumulative IPC: 0.399137 (Simulation time: 0 hr 4 min 56 sec) 
Heartbeat CPU 0 instructions: 160000000 cycles: 194881843 heartbeat IPC: 0.403587 cumulative IPC: 0.399871 (Simulation time: 0 hr 5 min 26 sec) 
Heartbeat CPU 0 instructions: 170000002 cycles: 216135769 heartbeat IPC: 0.470501 cumulative IPC: 0.408635 (Simulation time: 0 hr 5 min 53 sec) 
Heartbeat CPU 0 instructions: 180000000 cycles: 239100391 heartbeat IPC: 0.435452 cumulative IPC: 0.411805 (Simulation time: 0 hr 6 min 22 sec) 
Heartbeat CPU 0 instructions: 190000000 cycles: 258164474 heartbeat IPC: 0.524547 cumulative IPC: 0.42188 (Simulation time: 0 hr 6 min 47 sec) 
Heartbeat CPU 0 instructions: 200000000 cycles: 279430888 heartbeat IPC: 0.470225 cumulative IPC: 0.426262 (Simulation time: 0 hr 7 min 14 sec) 
Heartbeat CPU 0 instructions: 210000001 cycles: 305737086 heartbeat IPC: 0.380139 cumulative IPC: 0.421612 (Simulation time: 0 hr 7 min 45 sec) 
Heartbeat CPU 0 instructions: 220000000 cycles: 331538214 heartbeat IPC: 0.38758 cumulative IPC: 0.418549 (Simulation time: 0 hr 8 min 16 sec) 
Heartbeat CPU 0 instructions: 230000000 cycles: 353759333 heartbeat IPC: 0.450022 cumulative IPC: 0.420813 (Simulation time: 0 hr 8 min 44 sec) 
Heartbeat CPU 0 instructions: 240000000 cycles: 379342512 heartbeat IPC: 0.390882 cumulative IPC: 0.418524 (Simulation time: 0 hr 9 min 14 sec) 
Heartbeat CPU 0 instructions: 250000001 cycles: 404206300 heartbeat IPC: 0.402191 cumulative IPC: 0.417394 (Simulation time: 0 hr 9 min 44 sec) 
Heartbeat CPU 0 instructions: 260000000 cycles: 425234956 heartbeat IPC: 0.475542 cumulative IPC: 0.420608 (Simulation time: 0 hr 10 min 11 sec) 
Heartbeat CPU 0 instructions: 270000000 cycles: 447209489 heartbeat IPC: 0.455072 cumulative IPC: 0.422491 (Simulation time: 0 hr 10 min 38 sec) 
Heartbeat CPU 0 instructions: 280000000 cycles: 474688892 heartbeat IPC: 0.363909 cumulative IPC: 0.418746 (Simulation time: 0 hr 11 min 10 sec) 
Heartbeat CPU 0 instructions: 290000000 cycles: 495909091 heartbeat IPC: 0.471249 cumulative IPC: 0.421216 (Simulation time: 0 hr 11 min 37 sec) 
Heartbeat CPU 0 instructions: 300000000 cycles: 516558840 heartbeat IPC: 0.484267 cumulative IPC: 0.423976 (Simulation time: 0 hr 12 min 4 sec) 
Heartbeat CPU 0 instructions: 310000000 cycles: 535850782 heartbeat IPC: 0.518351 cumulative IPC: 0.427684 (Simulation time: 0 hr 12 min 30 sec) 
Heartbeat CPU 0 instructions: 320000000 cycles: 565042755 heartbeat IPC: 0.34256 cumulative IPC: 0.422907 (Simulation time: 0 hr 13 min 2 sec) 
Heartbeat CPU 0 instructions: 330000001 cycles: 584412002 heartbeat IPC: 0.516282 cumulative IPC: 0.426259 (Simulation time: 0 hr 13 min 28 sec) 
Heartbeat CPU 0 instructions: 340000000 cycles: 603791746 heartbeat IPC: 0.516003 cumulative IPC: 0.42937 (Simulation time: 0 hr 13 min 54 sec) 
Heartbeat CPU 0 instructions: 350000001 cycles: 628612186 heartbeat IPC: 0.402894 cumulative IPC: 0.428245 (Simulation time: 0 hr 14 min 23 sec) 
Heartbeat CPU 0 instructions: 360000000 cycles: 650895380 heartbeat IPC: 0.448769 cumulative IPC: 0.428999 (Simulation time: 0 hr 14 min 51 sec) 
Heartbeat CPU 0 instructions: 370000001 cycles: 675993209 heartbeat IPC: 0.398441 cumulative IPC: 0.427784 (Simulation time: 0 hr 15 min 20 sec) 
Heartbeat CPU 0 instructions: 380000000 cycles: 698964578 heartbeat IPC: 0.435324 cumulative IPC: 0.428049 (Simulation time: 0 hr 15 min 49 sec) 
Heartbeat CPU 0 instructions: 390000000 cycles: 717725597 heartbeat IPC: 0.53302 cumulative IPC: 0.430976 (Simulation time: 0 hr 16 min 14 sec) 
Heartbeat CPU 0 instructions: 400000000 cycles: 737599968 heartbeat IPC: 0.503161 cumulative IPC: 0.433046 (Simulation time: 0 hr 16 min 40 sec) 
Heartbeat CPU 0 instructions: 410000001 cycles: 763476388 heartbeat IPC: 0.386452 cumulative IPC: 0.431369 (Simulation time: 0 hr 17 min 10 sec) 
Heartbeat CPU 0 instructions: 420000000 cycles: 788071128 heartbeat IPC: 0.406591 cumulative IPC: 0.430549 (Simulation time: 0 hr 17 min 40 sec) 
Heartbeat CPU 0 instructions: 430000002 cycles: 809435161 heartbeat IPC: 0.468076 cumulative IPC: 0.431597 (Simulation time: 0 hr 18 min 7 sec) 
Heartbeat CPU 0 instructions: 440000000 cycles: 829853038 heartbeat IPC: 0.489767 cumulative IPC: 0.43311 (Simulation time: 0 hr 18 min 33 sec) 
Heartbeat CPU 0 instructions: 450000002 cycles: 856341046 heartbeat IPC: 0.377529 cumulative IPC: 0.431296 (Simulation time: 0 hr 19 min 4 sec) 
Heartbeat CPU 0 instructions: 460000000 cycles: 882206760 heartbeat IPC: 0.386612 cumulative IPC: 0.429916 (Simulation time: 0 hr 19 min 34 sec) 
Heartbeat CPU 0 instructions: 470000002 cycles: 908065879 heartbeat IPC: 0.386711 cumulative IPC: 0.428622 (Simulation time: 0 hr 20 min 4 sec) 
Heartbeat CPU 0 instructions: 480000000 cycles: 932738189 heartbeat IPC: 0.405313 cumulative IPC: 0.427974 (Simulation time: 0 hr 20 min 34 sec) 
Heartbeat CPU 0 instructions: 490000000 cycles: 953600263 heartbeat IPC: 0.479339 cumulative IPC: 0.429153 (Simulation time: 0 hr 21 min 0 sec) 
Heartbeat CPU 0 instructions: 500000000 cycles: 978335986 heartbeat IPC: 0.404274 cumulative IPC: 0.428494 (Simulation time: 0 hr 21 min 30 sec) 
Heartbeat CPU 0 instructions: 510000000 cycles: 1003382008 heartbeat IPC: 0.399265 cumulative IPC: 0.42773 (Simulation time: 0 hr 21 min 59 sec) 
Heartbeat CPU 0 instructions: 520000000 cycles: 1024525015 heartbeat IPC: 0.47297 cumulative IPC: 0.428706 (Simulation time: 0 hr 22 min 26 sec) 
Heartbeat CPU 0 instructions: 530000003 cycles: 1050053115 heartbeat IPC: 0.391725 cumulative IPC: 0.427767 (Simulation time: 0 hr 22 min 56 sec) 
Heartbeat CPU 0 instructions: 540000000 cycles: 1072907505 heartbeat IPC: 0.437553 cumulative IPC: 0.427985 (Simulation time: 0 hr 23 min 25 sec) 
Heartbeat CPU 0 instructions: 550000000 cycles: 1098165704 heartbeat IPC: 0.395911 cumulative IPC: 0.427216 (Simulation time: 0 hr 23 min 55 sec) 
Heartbeat CPU 0 instructions: 560000000 cycles: 1121817510 heartbeat IPC: 0.422801 cumulative IPC: 0.427119 (Simulation time: 0 hr 24 min 23 sec) 
Heartbeat CPU 0 instructions: 570000002 cycles: 1145233252 heartbeat IPC: 0.427063 cumulative IPC: 0.427118 (Simulation time: 0 hr 24 min 52 sec) 
Heartbeat CPU 0 instructions: 580000000 cycles: 1166386756 heartbeat IPC: 0.472735 cumulative IPC: 0.427978 (Simulation time: 0 hr 25 min 19 sec) 
Heartbeat CPU 0 instructions: 590000001 cycles: 1190264359 heartbeat IPC: 0.418803 cumulative IPC: 0.427787 (Simulation time: 0 hr 25 min 48 sec) 
Heartbeat CPU 0 instructions: 600000000 cycles: 1209469444 heartbeat IPC: 0.520695 cumulative IPC: 0.429319 (Simulation time: 0 hr 26 min 13 sec) 
Finished CPU 0 instructions: 500000000 cycles: 1164635855 cumulative IPC: 0.429319 (Simulation time: 0 hr 26 min 13 sec) 

CPU 0 Branch Prediction Accuracy: 99.5434% MPKI: 1.33026
Number of Branches: 145676990 Number of Mispredictions: 665128
Number of LOAD Instructions: 188863207
Number of LOAD Instructions (ROI): 188863207
Number of STORE Instructions: 7332002
Number of STORE Instructions (ROI): 7332002
Total Destination Memory Operands: 10029285
Total Destination Memory Operands (ROI): 10029285
Total Source Memory Operands: 188863207
Total Source Memory Operands (ROI): 188863207
Number of DEPENDED LOADS: 291117
Number of DEPENDED LOADS (ROI): 291117
Number of SQ_ADDED: 10029285
Number of SQ_ADDED (ROI): 10029285
Number of LQ_ADDED: 200609673
Number of LQ_ADDED (ROI): 200609673
Number of Instructions read from trace: 600000010

ChampSim completed all CPUs

Region of Interest Statistics

CPU 0 cumulative IPC: 0.429319 instructions: 500000000 cycles: 1164635855
ITLB TOTAL     ACCESS:  145808181  HIT:  145768654  MISS:      39527
ITLB LOAD      ACCESS:  145808181  HIT:  145768654  MISS:      39527
ITLB RFO       ACCESS:          0  HIT:          0  MISS:          0
ITLB PREFETCH  ACCESS:          0  HIT:          0  MISS:          0
ITLB WRITEBACK ACCESS:          0  HIT:          0  MISS:          0
ITLB PREFETCH  REQUESTED:          0  ISSUED:          0  USEFUL:          0  USELESS:          0
ITLB TOTAL MSHR MERGED:      57377
ITLB LOAD MSHR MERGED:      57377
ITLB RFO MSHR MERGED:          0
ITLB PREFETCH MSHR MERGED:          0
ITLB WRITEBACK MSHR MERGED:          0
ITLB TOTAL ACCESSES:  145865558 HITS:  145768654 MISSES:      96904
ITLB LOAD ACCESSES:  145865558 HITS:  145768654 MISSES:      96904
ITLB RFO ACCESSES:          0 HITS:          0 MISSES:          0
ITLB PREFETCH ACCESSES:          0 HITS:          0 MISSES:          0
ITLB WRITEBACK ACCESSES:          0 HITS:          0 MISSES:          0
ITLB RQ ACCESS:  499999754
ITLB RQ TO_CACHE:  145865558
ITLB RQ MERGED:  354134196
ITLB RQ FORWARD:          0
ITLB WQ ACCESS:          0
ITLB WQ TO_CACHE:          0
ITLB WQ MERGED:          0
ITLB WQ FORWARD:          0
DTLB TOTAL     ACCESS:  135190591  HIT:  134022231  MISS:    1168360
DTLB LOAD      ACCESS:  127149681  HIT:  125990425  MISS:    1159256
DTLB RFO       ACCESS:    8040910  HIT:    8031806  MISS:       9104
DTLB PREFETCH  ACCESS:          0  HIT:          0  MISS:          0
DTLB WRITEBACK ACCESS:          0  HIT:          0  MISS:          0
DTLB PREFETCH  REQUESTED:          0  ISSUED:          0  USEFUL:          0  USELESS:          0
DTLB TOTAL MSHR MERGED:     581482
DTLB LOAD MSHR MERGED:     577101
DTLB RFO MSHR MERGED:       4381
DTLB PREFETCH MSHR MERGED:          0
DTLB WRITEBACK MSHR MERGED:          0
DTLB TOTAL ACCESSES:  135772073 HITS:  134022231 MISSES:    1749842
DTLB LOAD ACCESSES:  127726782 HITS:  125990425 MISSES:    1736357
DTLB RFO ACCESSES:    8045291 HITS:    8031806 MISSES:      13485
DTLB PREFETCH ACCESSES:          0 HITS:          0 MISSES:          0
DTLB WRITEBACK ACCESSES:          0 HITS:          0 MISSES:          0
DTLB RQ ACCESS:  165763221
DTLB RQ TO_CACHE:  135772073
DTLB RQ MERGED:   29991148
DTLB RQ FORWARD:          0
DTLB WQ ACCESS:          0
DTLB WQ TO_CACHE:          0
DTLB WQ MERGED:          0
DTLB WQ FORWARD:          0
L1D TOTAL     ACCESS:  156956811  HIT:  139641117  MISS:   17315694
L1D LOAD      ACCESS:   89978105  HIT:   78834583  MISS:   11143522
L1D RFO       ACCESS:    8499813  HIT:    8412657  MISS:      87156
L1D PREFETCH  ACCESS:   58478893  HIT:   52393877  MISS:    6085016
L1D WRITEBACK ACCESS:          0  HIT:          0  MISS:          0
L1D PREFETCH  REQUESTED:   93719528  ISSUED:   92852040  USEFUL:    2003596  USELESS:    4081493
L1D TOTAL MSHR MERGED:   15105265
L1D LOAD MSHR MERGED:    7141275
L1D RFO MSHR MERGED:     124721
L1D PREFETCH MSHR MERGED:    7839269
L1D WRITEBACK MSHR MERGED:          0
L1D TOTAL ACCESSES:  172062236 HITS:  139641277 MISSES:   32420959
L1D LOAD ACCESSES:   93719533 HITS:   78834588 MISSES:   14884945
L1D RFO ACCESSES:    8622689 HITS:    8412657 MISSES:     210032
L1D PREFETCH ACCESSES:   69720014 HITS:   52394032 MISSES:   17325982
L1D WRITEBACK ACCESSES:          0 HITS:          0 MISSES:          0
L1D RQ ACCESS:  157124015
L1D RQ TO_CACHE:   93719528
L1D RQ MERGED:   63404482
L1D RQ FORWARD:          0
L1D WQ ACCESS:    8639208
L1D WQ TO_CACHE:    8622689
L1D WQ MERGED:      16519
L1D WQ FORWARD:        160
L1I TOTAL     ACCESS:  178796432  HIT:  178132779  MISS:     663653
L1I LOAD      ACCESS:  178796432  HIT:  178132779  MISS:     663653
L1I RFO       ACCESS:          0  HIT:          0  MISS:          0
L1I PREFETCH  ACCESS:          0  HIT:          0  MISS:          0
L1I WRITEBACK ACCESS:          0  HIT:          0  MISS:          0
L1I PREFETCH  REQUESTED:          0  ISSUED:          0  USEFUL:          0  USELESS:          0
L1I TOTAL MSHR MERGED:     597458
L1I LOAD MSHR MERGED:     597458
L1I RFO MSHR MERGED:          0
L1I PREFETCH MSHR MERGED:          0
L1I WRITEBACK MSHR MERGED:          0
L1I TOTAL ACCESSES:  179393890 HITS:  178132779 MISSES:    1261111
L1I LOAD ACCESSES:  179393890 HITS:  178132779 MISSES:    1261111
L1I RFO ACCESSES:          0 HITS:          0 MISSES:          0
L1I PREFETCH ACCESSES:          0 HITS:          0 MISSES:          0
L1I WRITEBACK ACCESSES:          0 HITS:          0 MISSES:          0
L1I RQ ACCESS:  499999757
L1I RQ TO_CACHE:  179393890
L1I RQ MERGED:  320605867
L1I RQ FORWARD:          0
L1I WQ ACCESS:          0
L1I WQ TO_CACHE:          0
L1I WQ MERGED:          0
L1I WQ FORWARD:          0
L2C TOTAL     ACCESS:   19276741  HIT:    2057330  MISS:   17219411
L2C LOAD      ACCESS:    8407220  HIT:     951135  MISS:    7456085
L2C RFO       ACCESS:      85288  HIT:      53727  MISS:      31561
L2C PREFETCH  ACCESS:   10499223  HIT:     770268  MISS:    9728955
L2C WRITEBACK ACCESS:     285010  HIT:     282200  MISS:       2810
L2C PREFETCH  REQUESTED:    1016908  ISSUED:    1016908  USEFUL:     274771  USELESS:    9453277
L2C TOTAL MSHR MERGED:       1066
L2C LOAD MSHR MERGED:        225
L2C RFO MSHR MERGED:          1
L2C PREFETCH MSHR MERGED:        840
L2C WRITEBACK MSHR MERGED:          0
L2C TOTAL ACCESSES:   19280004 HITS:    2057521 MISSES:   17222483
L2C LOAD ACCESSES:    8407323 HITS:     951238 MISSES:    7456085
L2C RFO ACCESSES:      85311 HITS:      53750 MISSES:      31561
L2C PREFETCH ACCESSES:   10502360 HITS:     770333 MISSES:    9732027
L2C WRITEBACK ACCESSES:     285010 HITS:     282200 MISSES:       2810
L2C RQ ACCESS:    8492634
L2C RQ TO_CACHE:    8492508
L2C RQ MERGED:          0
L2C RQ FORWARD:          0
L2C WQ ACCESS:     285010
L2C WQ TO_CACHE:     285010
L2C WQ MERGED:          0
L2C WQ FORWARD:        191
LLC TOTAL     ACCESS:   17324666  HIT:    4860751  MISS:   12463915
LLC LOAD      ACCESS:    7455860  HIT:    3991897  MISS:    3463963
LLC RFO       ACCESS:      31560  HIT:      16961  MISS:      14599
LLC PREFETCH  ACCESS:    9731186  HIT:     768115  MISS:    8963071
LLC WRITEBACK ACCESS:     106060  HIT:      83778  MISS:      22282
LLC PREFETCH  REQUESTED:          0  ISSUED:          0  USEFUL:       2257  USELESS:    8960085
LLC TOTAL MSHR MERGED:          1
LLC LOAD MSHR MERGED:          0
LLC RFO MSHR MERGED:          0
LLC PREFETCH MSHR MERGED:          1
LLC WRITEBACK MSHR MERGED:          0
LLC TOTAL ACCESSES:   17324667 HITS:    4860751 MISSES:   12463916
LLC LOAD ACCESSES:    7455860 HITS:    3991897 MISSES:    3463963
LLC RFO ACCESSES:      31560 HITS:      16961 MISSES:      14599
LLC PREFETCH ACCESSES:    9731187 HITS:     768115 MISSES:    8963072
LLC WRITEBACK ACCESSES:     106060 HITS:      83778 MISSES:      22282
LLC 0 RQ ACCESS:    7487420
LLC 0 RQ TO_CACHE:    7487420
LLC 0 RQ MERGED:          0
LLC 0 RQ FORWARD:          0
LLC WQ ACCESS:     106060
LLC WQ TO_CACHE:     106060
LLC WQ MERGED:          0
LLC WQ FORWARD:          0
Major fault: 0 Minor fault: 6432
CPU 0 L1D next line prefetcher final stats
CPU 0 L2C PC-based stride prefetcher final stats
All Misses: 14696834
All Hits: 5847500
SD Algo Stats - Switches: 0 SRR-Repls: 3692065 BRR-Repls: 0

DRAM Statistics
 CHANNEL 0
 RQ ROW_BUFFER_HIT:    9405901  ROW_BUFFER_MISS:    3030704
 DBUS_CONGESTED:    5792639
 WQ ROW_BUFFER_HIT:       1247  ROW_BUFFER_MISS:      39718  FULL:          0

 AVG_CONGESTED_CYCLE: 12
LOADS RETIRED: 157382665
INSTR RETIRED: 500000000
