
*** ChampSim Multicore Out-of-Order Simulator ***

Warmup Instructions: 100000000
Simulation Instructions: 500000000
Number of CPUs: 1
LLC sets: 2048
LLC ways: 16
Clean RRIP Policies: 2213230222132302 Dirty RRIP Policies: 1203030212030302 PSEL Width: 10 Track Set: 4294967295 PSEL Mask: 1 Demote Mask: 3040100030401000DS Algo: 0Window size: 0
Off-chip DRAM Size: 4096 MB Channels: 1 Width: 64-bit Data Rate: 1600 MT/s

CPU 0 runs /mnt/beegfs/iconst01/spec2017/x264.trace.gz
NOT SORTED
TRACE STRING: /mnt/beegfs/iconst01/spec2017/x264.trace.gz
SORTED
TRACE STRING: /mnt/beegfs/iconst01/spec2017/x264.trace.gz
INITIAL
TRACE STRING: /mnt/beegfs/iconst01/spec2017/x264.trace.gz

champsim_seed used: 276

CPU 0 L1D next line prefetcher
CPU 0 L2C IP-based stride prefetcher
Initialize DRRIP state
Assign rand_sets[0]: 454  LLC: 2048
rand_sets[0]: 454
Assign rand_sets[1]: 1662  LLC: 2048
rand_sets[1]: 1662
Assign rand_sets[2]: 1921  LLC: 2048
rand_sets[2]: 1921
Assign rand_sets[3]: 1131  LLC: 2048
rand_sets[3]: 1131
Assign rand_sets[4]: 331  LLC: 2048
rand_sets[4]: 331
Assign rand_sets[5]: 1531  LLC: 2048
rand_sets[5]: 1531
Assign rand_sets[6]: 482  LLC: 2048
rand_sets[6]: 482
Assign rand_sets[7]: 1275  LLC: 2048
rand_sets[7]: 1275
Assign rand_sets[8]: 1876  LLC: 2048
rand_sets[8]: 1876
Assign rand_sets[9]: 2038  LLC: 2048
rand_sets[9]: 2038
Assign rand_sets[10]: 701  LLC: 2048
rand_sets[10]: 701
Assign rand_sets[11]: 479  LLC: 2048
rand_sets[11]: 479
Assign rand_sets[12]: 892  LLC: 2048
rand_sets[12]: 892
Assign rand_sets[13]: 1820  LLC: 2048
rand_sets[13]: 1820
Assign rand_sets[14]: 1505  LLC: 2048
rand_sets[14]: 1505
Assign rand_sets[15]: 1159  LLC: 2048
rand_sets[15]: 1159
Assign rand_sets[16]: 513  LLC: 2048
rand_sets[16]: 513
Assign rand_sets[17]: 703  LLC: 2048
rand_sets[17]: 703
Assign rand_sets[18]: 561  LLC: 2048
rand_sets[18]: 561
Assign rand_sets[19]: 990  LLC: 2048
rand_sets[19]: 990
Assign rand_sets[20]: 342  LLC: 2048
rand_sets[20]: 342
Assign rand_sets[21]: 882  LLC: 2048
rand_sets[21]: 882
Assign rand_sets[22]: 15  LLC: 2048
rand_sets[22]: 15
Assign rand_sets[23]: 71  LLC: 2048
rand_sets[23]: 71
Assign rand_sets[24]: 1127  LLC: 2048
rand_sets[24]: 1127
Assign rand_sets[25]: 1382  LLC: 2048
rand_sets[25]: 1382
Assign rand_sets[26]: 647  LLC: 2048
rand_sets[26]: 647
Assign rand_sets[27]: 857  LLC: 2048
rand_sets[27]: 857
Assign rand_sets[28]: 1450  LLC: 2048
rand_sets[28]: 1450
Assign rand_sets[29]: 1160  LLC: 2048
rand_sets[29]: 1160
Assign rand_sets[30]: 1852  LLC: 2048
rand_sets[30]: 1852
Assign rand_sets[31]: 1881  LLC: 2048
rand_sets[31]: 1881
Assign rand_sets[32]: 1770  LLC: 2048
rand_sets[32]: 1770
Assign rand_sets[33]: 1622  LLC: 2048
rand_sets[33]: 1622
Assign rand_sets[34]: 275  LLC: 2048
rand_sets[34]: 275
Assign rand_sets[35]: 635  LLC: 2048
rand_sets[35]: 635
Assign rand_sets[36]: 466  LLC: 2048
rand_sets[36]: 466
Assign rand_sets[37]: 1413  LLC: 2048
rand_sets[37]: 1413
Assign rand_sets[38]: 417  LLC: 2048
rand_sets[38]: 417
Assign rand_sets[39]: 472  LLC: 2048
rand_sets[39]: 472
Assign rand_sets[40]: 1340  LLC: 2048
rand_sets[40]: 1340
Assign rand_sets[41]: 852  LLC: 2048
rand_sets[41]: 852
Assign rand_sets[42]: 1365  LLC: 2048
rand_sets[42]: 1365
Assign rand_sets[43]: 47  LLC: 2048
rand_sets[43]: 47
Assign rand_sets[44]: 823  LLC: 2048
rand_sets[44]: 823
Assign rand_sets[45]: 686  LLC: 2048
rand_sets[45]: 686
Assign rand_sets[46]: 1637  LLC: 2048
rand_sets[46]: 1637
Assign rand_sets[47]: 1115  LLC: 2048
rand_sets[47]: 1115
Assign rand_sets[48]: 986  LLC: 2048
rand_sets[48]: 986
Assign rand_sets[49]: 258  LLC: 2048
rand_sets[49]: 258
Assign rand_sets[50]: 633  LLC: 2048
rand_sets[50]: 633
Assign rand_sets[51]: 920  LLC: 2048
rand_sets[51]: 920
Assign rand_sets[52]: 204  LLC: 2048
rand_sets[52]: 204
Assign rand_sets[53]: 227  LLC: 2048
rand_sets[53]: 227
Assign rand_sets[54]: 1818  LLC: 2048
rand_sets[54]: 1818
Assign rand_sets[55]: 886  LLC: 2048
rand_sets[55]: 886
Assign rand_sets[56]: 1422  LLC: 2048
rand_sets[56]: 1422
Assign rand_sets[57]: 607  LLC: 2048
rand_sets[57]: 607
Assign rand_sets[58]: 217  LLC: 2048
rand_sets[58]: 217
Assign rand_sets[59]: 1945  LLC: 2048
rand_sets[59]: 1945
Assign rand_sets[60]: 143  LLC: 2048
rand_sets[60]: 143
Assign rand_sets[61]: 1311  LLC: 2048
rand_sets[61]: 1311
Assign rand_sets[62]: 319  LLC: 2048
rand_sets[62]: 319
Assign rand_sets[63]: 1846  LLC: 2048
rand_sets[63]: 1846
 CLEAN-RRIP-POLICY-1: 2-2-1-3-2-3-0-2- CLEAN-RRIP-POLICY-2: 2-2-1-3-2-3-0-2-
 DIRTY-RRIP-POLICY-1: 1-2-0-3-0-3-0-2- DIRTY-RRIP-POLICY-2: 1-2-0-3-0-3-0-2-
 PSEL width: 10
Heartbeat CPU 0 instructions: 10000000 cycles: 4124759 heartbeat IPC: 2.42438 cumulative IPC: 2.42438 (Simulation time: 0 hr 0 min 13 sec) 
Heartbeat CPU 0 instructions: 20000000 cycles: 8233863 heartbeat IPC: 2.43362 cumulative IPC: 2.42899 (Simulation time: 0 hr 0 min 27 sec) 
Heartbeat CPU 0 instructions: 30000003 cycles: 12464696 heartbeat IPC: 2.3636 cumulative IPC: 2.4068 (Simulation time: 0 hr 0 min 40 sec) 
Heartbeat CPU 0 instructions: 40000000 cycles: 16636669 heartbeat IPC: 2.39695 cumulative IPC: 2.40433 (Simulation time: 0 hr 0 min 54 sec) 
Heartbeat CPU 0 instructions: 50000000 cycles: 20699150 heartbeat IPC: 2.46155 cumulative IPC: 2.41556 (Simulation time: 0 hr 1 min 8 sec) 
Heartbeat CPU 0 instructions: 60000000 cycles: 25022635 heartbeat IPC: 2.31295 cumulative IPC: 2.39783 (Simulation time: 0 hr 1 min 21 sec) 
Heartbeat CPU 0 instructions: 70000000 cycles: 29370910 heartbeat IPC: 2.29976 cumulative IPC: 2.38331 (Simulation time: 0 hr 1 min 34 sec) 
Heartbeat CPU 0 instructions: 80000000 cycles: 33721041 heartbeat IPC: 2.29878 cumulative IPC: 2.37241 (Simulation time: 0 hr 1 min 47 sec) 
Heartbeat CPU 0 instructions: 90000002 cycles: 38032023 heartbeat IPC: 2.31966 cumulative IPC: 2.36643 (Simulation time: 0 hr 2 min 1 sec) 
Heartbeat CPU 0 instructions: 100000000 cycles: 42328937 heartbeat IPC: 2.32725 cumulative IPC: 2.36245 (Simulation time: 0 hr 2 min 14 sec) 

Warmup complete CPU 0 instructions: 100000001 cycles: 42328938 (Simulation time: 0 hr 2 min 14 sec) 

Heartbeat CPU 0 instructions: 110000001 cycles: 49380511 heartbeat IPC: 1.41812 cumulative IPC: 1.41812 (Simulation time: 0 hr 2 min 31 sec) 
Heartbeat CPU 0 instructions: 120000000 cycles: 58875697 heartbeat IPC: 1.05317 cumulative IPC: 1.2087 (Simulation time: 0 hr 2 min 51 sec) 
Heartbeat CPU 0 instructions: 130000000 cycles: 63681835 heartbeat IPC: 2.08067 cumulative IPC: 1.40496 (Simulation time: 0 hr 3 min 7 sec) 
Heartbeat CPU 0 instructions: 140000000 cycles: 68591506 heartbeat IPC: 2.0368 cumulative IPC: 1.52308 (Simulation time: 0 hr 3 min 24 sec) 
Heartbeat CPU 0 instructions: 150000002 cycles: 75422407 heartbeat IPC: 1.46394 cumulative IPC: 1.51087 (Simulation time: 0 hr 3 min 42 sec) 
Heartbeat CPU 0 instructions: 160000000 cycles: 83254628 heartbeat IPC: 1.27678 cumulative IPC: 1.46607 (Simulation time: 0 hr 4 min 0 sec) 
Heartbeat CPU 0 instructions: 170000000 cycles: 90655668 heartbeat IPC: 1.35116 cumulative IPC: 1.44847 (Simulation time: 0 hr 4 min 18 sec) 
Heartbeat CPU 0 instructions: 180000000 cycles: 97958577 heartbeat IPC: 1.36932 cumulative IPC: 1.43808 (Simulation time: 0 hr 4 min 35 sec) 
Heartbeat CPU 0 instructions: 190000002 cycles: 105127426 heartbeat IPC: 1.39492 cumulative IPC: 1.43316 (Simulation time: 0 hr 4 min 52 sec) 
Heartbeat CPU 0 instructions: 200000000 cycles: 112364036 heartbeat IPC: 1.38186 cumulative IPC: 1.42786 (Simulation time: 0 hr 5 min 10 sec) 
Heartbeat CPU 0 instructions: 210000000 cycles: 119237705 heartbeat IPC: 1.45483 cumulative IPC: 1.43027 (Simulation time: 0 hr 5 min 27 sec) 
Heartbeat CPU 0 instructions: 220000000 cycles: 126009582 heartbeat IPC: 1.4767 cumulative IPC: 1.43402 (Simulation time: 0 hr 5 min 44 sec) 
Heartbeat CPU 0 instructions: 230000003 cycles: 132740319 heartbeat IPC: 1.48572 cumulative IPC: 1.43787 (Simulation time: 0 hr 6 min 0 sec) 
Heartbeat CPU 0 instructions: 240000000 cycles: 139485701 heartbeat IPC: 1.4825 cumulative IPC: 1.44097 (Simulation time: 0 hr 6 min 17 sec) 
Heartbeat CPU 0 instructions: 250000001 cycles: 146212785 heartbeat IPC: 1.48653 cumulative IPC: 1.44392 (Simulation time: 0 hr 6 min 34 sec) 
Heartbeat CPU 0 instructions: 260000000 cycles: 152920260 heartbeat IPC: 1.49087 cumulative IPC: 1.44677 (Simulation time: 0 hr 6 min 51 sec) 
Heartbeat CPU 0 instructions: 270000001 cycles: 159895476 heartbeat IPC: 1.43365 cumulative IPC: 1.44599 (Simulation time: 0 hr 7 min 8 sec) 
Heartbeat CPU 0 instructions: 280000000 cycles: 167425778 heartbeat IPC: 1.32797 cumulative IPC: 1.43889 (Simulation time: 0 hr 7 min 25 sec) 
Heartbeat CPU 0 instructions: 290000000 cycles: 175347354 heartbeat IPC: 1.26238 cumulative IPC: 1.42837 (Simulation time: 0 hr 7 min 43 sec) 
Heartbeat CPU 0 instructions: 300000000 cycles: 183524886 heartbeat IPC: 1.22286 cumulative IPC: 1.41647 (Simulation time: 0 hr 8 min 1 sec) 
Heartbeat CPU 0 instructions: 310000002 cycles: 191839734 heartbeat IPC: 1.20267 cumulative IPC: 1.40458 (Simulation time: 0 hr 8 min 20 sec) 
Heartbeat CPU 0 instructions: 320000000 cycles: 201836999 heartbeat IPC: 1.00027 cumulative IPC: 1.37924 (Simulation time: 0 hr 8 min 40 sec) 
Heartbeat CPU 0 instructions: 330000002 cycles: 206469761 heartbeat IPC: 2.15854 cumulative IPC: 1.40124 (Simulation time: 0 hr 8 min 57 sec) 
Heartbeat CPU 0 instructions: 340000000 cycles: 211693401 heartbeat IPC: 1.91437 cumulative IPC: 1.41706 (Simulation time: 0 hr 9 min 14 sec) 
Heartbeat CPU 0 instructions: 350000000 cycles: 218908321 heartbeat IPC: 1.38602 cumulative IPC: 1.41579 (Simulation time: 0 hr 9 min 32 sec) 
Heartbeat CPU 0 instructions: 360000000 cycles: 226572650 heartbeat IPC: 1.30475 cumulative IPC: 1.41117 (Simulation time: 0 hr 9 min 50 sec) 
Heartbeat CPU 0 instructions: 370000000 cycles: 233977483 heartbeat IPC: 1.35047 cumulative IPC: 1.40883 (Simulation time: 0 hr 10 min 7 sec) 
Heartbeat CPU 0 instructions: 380000000 cycles: 241248069 heartbeat IPC: 1.3754 cumulative IPC: 1.40761 (Simulation time: 0 hr 10 min 25 sec) 
Heartbeat CPU 0 instructions: 390000000 cycles: 249361048 heartbeat IPC: 1.23259 cumulative IPC: 1.40075 (Simulation time: 0 hr 10 min 43 sec) 
Heartbeat CPU 0 instructions: 400000000 cycles: 257568769 heartbeat IPC: 1.21836 cumulative IPC: 1.39379 (Simulation time: 0 hr 11 min 1 sec) 
Heartbeat CPU 0 instructions: 410000001 cycles: 265391925 heartbeat IPC: 1.27826 cumulative IPC: 1.38974 (Simulation time: 0 hr 11 min 19 sec) 
Heartbeat CPU 0 instructions: 420000000 cycles: 273455588 heartbeat IPC: 1.24013 cumulative IPC: 1.38452 (Simulation time: 0 hr 11 min 37 sec) 
Heartbeat CPU 0 instructions: 430000001 cycles: 281711190 heartbeat IPC: 1.2113 cumulative IPC: 1.37855 (Simulation time: 0 hr 11 min 55 sec) 
Heartbeat CPU 0 instructions: 440000000 cycles: 289748417 heartbeat IPC: 1.24421 cumulative IPC: 1.37418 (Simulation time: 0 hr 12 min 14 sec) 
Heartbeat CPU 0 instructions: 450000001 cycles: 297617077 heartbeat IPC: 1.27086 cumulative IPC: 1.371 (Simulation time: 0 hr 12 min 32 sec) 
Heartbeat CPU 0 instructions: 460000000 cycles: 307572463 heartbeat IPC: 1.00448 cumulative IPC: 1.35724 (Simulation time: 0 hr 12 min 51 sec) 
Heartbeat CPU 0 instructions: 470000002 cycles: 312198236 heartbeat IPC: 2.1618 cumulative IPC: 1.37103 (Simulation time: 0 hr 13 min 8 sec) 
Heartbeat CPU 0 instructions: 480000000 cycles: 317444245 heartbeat IPC: 1.90621 cumulative IPC: 1.38124 (Simulation time: 0 hr 13 min 25 sec) 
Heartbeat CPU 0 instructions: 490000001 cycles: 324763759 heartbeat IPC: 1.36621 cumulative IPC: 1.38085 (Simulation time: 0 hr 13 min 43 sec) 
Heartbeat CPU 0 instructions: 500000000 cycles: 333494883 heartbeat IPC: 1.14533 cumulative IPC: 1.37379 (Simulation time: 0 hr 14 min 3 sec) 
Heartbeat CPU 0 instructions: 510000002 cycles: 342227502 heartbeat IPC: 1.14513 cumulative IPC: 1.36713 (Simulation time: 0 hr 14 min 23 sec) 
Heartbeat CPU 0 instructions: 520000000 cycles: 350956126 heartbeat IPC: 1.14566 cumulative IPC: 1.36087 (Simulation time: 0 hr 14 min 43 sec) 
Heartbeat CPU 0 instructions: 530000000 cycles: 359663537 heartbeat IPC: 1.14845 cumulative IPC: 1.35504 (Simulation time: 0 hr 15 min 3 sec) 
Heartbeat CPU 0 instructions: 540000000 cycles: 367920034 heartbeat IPC: 1.21117 cumulative IPC: 1.35139 (Simulation time: 0 hr 15 min 23 sec) 
Heartbeat CPU 0 instructions: 550000000 cycles: 374959672 heartbeat IPC: 1.42053 cumulative IPC: 1.35285 (Simulation time: 0 hr 15 min 40 sec) 
Heartbeat CPU 0 instructions: 560000000 cycles: 381570190 heartbeat IPC: 1.51274 cumulative IPC: 1.35597 (Simulation time: 0 hr 15 min 58 sec) 
Heartbeat CPU 0 instructions: 570000002 cycles: 388166439 heartbeat IPC: 1.51601 cumulative IPC: 1.35902 (Simulation time: 0 hr 16 min 15 sec) 
Heartbeat CPU 0 instructions: 580000000 cycles: 394818237 heartbeat IPC: 1.50335 cumulative IPC: 1.36174 (Simulation time: 0 hr 16 min 32 sec) 
Heartbeat CPU 0 instructions: 590000002 cycles: 401507130 heartbeat IPC: 1.49502 cumulative IPC: 1.36423 (Simulation time: 0 hr 16 min 49 sec) 
Heartbeat CPU 0 instructions: 600000000 cycles: 408319302 heartbeat IPC: 1.46796 cumulative IPC: 1.36616 (Simulation time: 0 hr 17 min 6 sec) 
Finished CPU 0 instructions: 500000000 cycles: 365990372 cumulative IPC: 1.36616 (Simulation time: 0 hr 17 min 6 sec) 

CPU 0 Branch Prediction Accuracy: 93.4682% MPKI: 2.44079
Number of Branches: 18683822 Number of Mispredictions: 1220394
Number of LOAD Instructions: 142551610
Number of LOAD Instructions (ROI): 142551610
Number of STORE Instructions: 44807454
Number of STORE Instructions (ROI): 44807454
Total Destination Memory Operands: 48357071
Total Destination Memory Operands (ROI): 48357071
Total Source Memory Operands: 142551610
Total Source Memory Operands (ROI): 142551610
Number of DEPENDED LOADS: 7395171
Number of DEPENDED LOADS (ROI): 7395171
Number of SQ_ADDED: 48357051
Number of SQ_ADDED (ROI): 48357051
Number of LQ_ADDED: 157241512
Number of LQ_ADDED (ROI): 157241512
Number of Instructions read from trace: 600000256

ChampSim completed all CPUs

Region of Interest Statistics

CPU 0 cumulative IPC: 1.36616 instructions: 500000000 cycles: 365990372
ITLB TOTAL     ACCESS:   88176688  HIT:   88176619  MISS:         69
ITLB LOAD      ACCESS:   88176688  HIT:   88176619  MISS:         69
ITLB RFO       ACCESS:          0  HIT:          0  MISS:          0
ITLB PREFETCH  ACCESS:          0  HIT:          0  MISS:          0
ITLB WRITEBACK ACCESS:          0  HIT:          0  MISS:          0
ITLB PREFETCH  REQUESTED:          0  ISSUED:          0  USEFUL:          0  USELESS:          0
ITLB TOTAL MSHR MERGED:         85
ITLB LOAD MSHR MERGED:         85
ITLB RFO MSHR MERGED:          0
ITLB PREFETCH MSHR MERGED:          0
ITLB WRITEBACK MSHR MERGED:          0
ITLB TOTAL ACCESSES:   88176773 HITS:   88176619 MISSES:        154
ITLB LOAD ACCESSES:   88176773 HITS:   88176619 MISSES:        154
ITLB RFO ACCESSES:          0 HITS:          0 MISSES:          0
ITLB PREFETCH ACCESSES:          0 HITS:          0 MISSES:          0
ITLB WRITEBACK ACCESSES:          0 HITS:          0 MISSES:          0
ITLB RQ ACCESS:  500000000
ITLB RQ TO_CACHE:   88176773
ITLB RQ MERGED:  411823227
ITLB RQ FORWARD:          0
ITLB WQ ACCESS:          0
ITLB WQ TO_CACHE:          0
ITLB WQ MERGED:          0
ITLB WQ FORWARD:          0
DTLB TOTAL     ACCESS:   88203123  HIT:   88075707  MISS:     127416
DTLB LOAD      ACCESS:   59485279  HIT:   59392818  MISS:      92461
DTLB RFO       ACCESS:   28717844  HIT:   28682889  MISS:      34955
DTLB PREFETCH  ACCESS:          0  HIT:          0  MISS:          0
DTLB WRITEBACK ACCESS:          0  HIT:          0  MISS:          0
DTLB PREFETCH  REQUESTED:          0  ISSUED:          0  USEFUL:          0  USELESS:          0
DTLB TOTAL MSHR MERGED:     141167
DTLB LOAD MSHR MERGED:     107697
DTLB RFO MSHR MERGED:      33470
DTLB PREFETCH MSHR MERGED:          0
DTLB WRITEBACK MSHR MERGED:          0
DTLB TOTAL ACCESSES:   88344290 HITS:   88075707 MISSES:     268583
DTLB LOAD ACCESSES:   59592976 HITS:   59392818 MISSES:     200158
DTLB RFO ACCESSES:   28751314 HITS:   28682889 MISSES:      68425
DTLB PREFETCH ACCESSES:          0 HITS:          0 MISSES:          0
DTLB WRITEBACK ACCESSES:          0 HITS:          0 MISSES:          0
DTLB RQ ACCESS:  154558720
DTLB RQ TO_CACHE:   88344290
DTLB RQ MERGED:   66214430
DTLB RQ FORWARD:          0
DTLB WQ ACCESS:          0
DTLB WQ TO_CACHE:          0
DTLB WQ MERGED:          0
DTLB WQ FORWARD:          0
L1D TOTAL     ACCESS:  128113977  HIT:  124888478  MISS:    3225499
L1D LOAD      ACCESS:   53172430  HIT:   51977096  MISS:    1195334
L1D RFO       ACCESS:   37391949  HIT:   36777828  MISS:     614121
L1D PREFETCH  ACCESS:   37549598  HIT:   36133554  MISS:    1416044
L1D WRITEBACK ACCESS:          0  HIT:          0  MISS:          0
L1D PREFETCH  REQUESTED:   53657257  ISSUED:   52457179  USEFUL:     352045  USELESS:    1063964
L1D TOTAL MSHR MERGED:    2792183
L1D LOAD MSHR MERGED:     523527
L1D RFO MSHR MERGED:    1562662
L1D PREFETCH MSHR MERGED:     705994
L1D WRITEBACK MSHR MERGED:          0
L1D TOTAL ACCESSES:  130941093 HITS:  124923411 MISSES:    6017682
L1D LOAD ACCESSES:   53660182 HITS:   51980021 MISSES:    1680161
L1D RFO ACCESSES:   38952844 HITS:   36777828 MISSES:    2175016
L1D PREFETCH ACCESSES:   38328067 HITS:   36165562 MISSES:    2162505
L1D WRITEBACK ACCESSES:          0 HITS:          0 MISSES:          0
L1D RQ ACCESS:  113713828
L1D RQ TO_CACHE:   53657257
L1D RQ MERGED:   60053646
L1D RQ FORWARD:          0
L1D WQ ACCESS:   40844891
L1D WQ TO_CACHE:   38952844
L1D WQ MERGED:    1892047
L1D WQ FORWARD:      34933
L1I TOTAL     ACCESS:  108368351  HIT:  107809217  MISS:     559134
L1I LOAD      ACCESS:  108368351  HIT:  107809217  MISS:     559134
L1I RFO       ACCESS:          0  HIT:          0  MISS:          0
L1I PREFETCH  ACCESS:          0  HIT:          0  MISS:          0
L1I WRITEBACK ACCESS:          0  HIT:          0  MISS:          0
L1I PREFETCH  REQUESTED:          0  ISSUED:          0  USEFUL:          0  USELESS:          0
L1I TOTAL MSHR MERGED:     525590
L1I LOAD MSHR MERGED:     525590
L1I RFO MSHR MERGED:          0
L1I PREFETCH MSHR MERGED:          0
L1I WRITEBACK MSHR MERGED:          0
L1I TOTAL ACCESSES:  108893941 HITS:  107809217 MISSES:    1084724
L1I LOAD ACCESSES:  108893941 HITS:  107809217 MISSES:    1084724
L1I RFO ACCESSES:          0 HITS:          0 MISSES:          0
L1I PREFETCH ACCESSES:          0 HITS:          0 MISSES:          0
L1I WRITEBACK ACCESSES:          0 HITS:          0 MISSES:          0
L1I RQ ACCESS:  500000002
L1I RQ TO_CACHE:  108893941
L1I RQ MERGED:  391106061
L1I RQ FORWARD:          0
L1I WQ ACCESS:          0
L1I WQ TO_CACHE:          0
L1I WQ MERGED:          0
L1I WQ FORWARD:          0
L2C TOTAL     ACCESS:    4691866  HIT:    3865788  MISS:     826078
L2C LOAD      ACCESS:    1715657  HIT:    1562660  MISS:     152997
L2C RFO       ACCESS:     610937  HIT:     421161  MISS:     189776
L2C PREFETCH  ACCESS:    1662400  HIT:    1181279  MISS:     481121
L2C WRITEBACK ACCESS:     702872  HIT:     700688  MISS:       2184
L2C PREFETCH  REQUESTED:     256495  ISSUED:     256495  USEFUL:     173095  USELESS:     308692
L2C TOTAL MSHR MERGED:      13368
L2C LOAD MSHR MERGED:       4123
L2C RFO MSHR MERGED:          0
L2C PREFETCH MSHR MERGED:       9245
L2C WRITEBACK MSHR MERGED:          0
L2C TOTAL ACCESSES:    4712140 HITS:    3867381 MISSES:     844759
L2C LOAD ACCESSES:    1715768 HITS:    1562771 MISSES:     152997
L2C RFO ACCESSES:     612354 HITS:     422578 MISSES:     189776
L2C PREFETCH ACCESSES:    1681146 HITS:    1181344 MISSES:     499802
L2C WRITEBACK ACCESSES:     702872 HITS:     700688 MISSES:       2184
L2C RQ ACCESS:    2328122
L2C RQ TO_CACHE:    2326594
L2C RQ MERGED:          0
L2C RQ FORWARD:          0
L2C WQ ACCESS:     702872
L2C WQ TO_CACHE:     702872
L2C WQ MERGED:          0
L2C WQ FORWARD:       1593
LLC TOTAL     ACCESS:    1047659  HIT:     292599  MISS:     755060
LLC LOAD      ACCESS:     148870  HIT:      90082  MISS:      58788
LLC RFO       ACCESS:     189768  HIT:       6235  MISS:     183533
LLC PREFETCH  ACCESS:     488144  HIT:     157222  MISS:     330922
LLC WRITEBACK ACCESS:     220877  HIT:      39060  MISS:     181817
LLC PREFETCH  REQUESTED:          0  ISSUED:          0  USEFUL:       2219  USELESS:     329269
LLC TOTAL MSHR MERGED:       1658
LLC LOAD MSHR MERGED:        553
LLC RFO MSHR MERGED:          0
LLC PREFETCH MSHR MERGED:       1105
LLC WRITEBACK MSHR MERGED:          0
LLC TOTAL ACCESSES:    1049329 HITS:     292611 MISSES:     756718
LLC LOAD ACCESSES:     148874 HITS:      90086 MISSES:      58788
LLC RFO ACCESSES:     189776 HITS:       6243 MISSES:     183533
LLC PREFETCH ACCESSES:     489802 HITS:     157222 MISSES:     332580
LLC WRITEBACK ACCESSES:     220877 HITS:      39060 MISSES:     181817
LLC 0 RQ ACCESS:     338650
LLC 0 RQ TO_CACHE:     338638
LLC 0 RQ MERGED:          0
LLC 0 RQ FORWARD:          0
LLC WQ ACCESS:     220877
LLC WQ TO_CACHE:     220877
LLC WQ MERGED:          0
LLC WQ FORWARD:         12
Major fault: 0 Minor fault: 6811
CPU 0 L1D next line prefetcher final stats
CPU 0 L2C PC-based stride prefetcher final stats
All Misses: 894062
All Hits: 360580
SD Algo Stats - Switches: 0 SRR-Repls: 66208 BRR-Repls: 0

DRAM Statistics
 CHANNEL 0
 RQ ROW_BUFFER_HIT:     286661  ROW_BUFFER_MISS:     286513
 DBUS_CONGESTED:     397243
 WQ ROW_BUFFER_HIT:      23674  ROW_BUFFER_MISS:     191981  FULL:          0

 AVG_CONGESTED_CYCLE: 13
LOADS RETIRED: 119922929
INSTR RETIRED: 500000000
