
*** ChampSim Multicore Out-of-Order Simulator ***

Warmup Instructions: 100000000
Simulation Instructions: 500000000
Number of CPUs: 1
LLC sets: 2048
LLC ways: 16
Clean RRIP Policies: 1213030012130300 Dirty RRIP Policies: 213130002131300 PSEL Width: 10 Track Set: 4294967295 PSEL Mask: 1 Demote Mask: 1340201013402010DS Algo: 0Window size: 0
Off-chip DRAM Size: 4096 MB Channels: 1 Width: 64-bit Data Rate: 1600 MT/s

CPU 0 runs /mnt/beegfs/iconst01/spec2017/Gcc.trace.gz
NOT SORTED
TRACE STRING: /mnt/beegfs/iconst01/spec2017/Gcc.trace.gz
SORTED
TRACE STRING: /mnt/beegfs/iconst01/spec2017/Gcc.trace.gz
INITIAL
TRACE STRING: /mnt/beegfs/iconst01/spec2017/Gcc.trace.gz

champsim_seed used: 269

CPU 0 L1D next line prefetcher
CPU 0 L2C IP-based stride prefetcher
Initialize DRRIP state
Assign rand_sets[0]: 454  LLC: 2048
rand_sets[0]: 454
Assign rand_sets[1]: 1662  LLC: 2048
rand_sets[1]: 1662
Assign rand_sets[2]: 1921  LLC: 2048
rand_sets[2]: 1921
Assign rand_sets[3]: 1131  LLC: 2048
rand_sets[3]: 1131
Assign rand_sets[4]: 331  LLC: 2048
rand_sets[4]: 331
Assign rand_sets[5]: 1531  LLC: 2048
rand_sets[5]: 1531
Assign rand_sets[6]: 482  LLC: 2048
rand_sets[6]: 482
Assign rand_sets[7]: 1275  LLC: 2048
rand_sets[7]: 1275
Assign rand_sets[8]: 1876  LLC: 2048
rand_sets[8]: 1876
Assign rand_sets[9]: 2038  LLC: 2048
rand_sets[9]: 2038
Assign rand_sets[10]: 701  LLC: 2048
rand_sets[10]: 701
Assign rand_sets[11]: 479  LLC: 2048
rand_sets[11]: 479
Assign rand_sets[12]: 892  LLC: 2048
rand_sets[12]: 892
Assign rand_sets[13]: 1820  LLC: 2048
rand_sets[13]: 1820
Assign rand_sets[14]: 1505  LLC: 2048
rand_sets[14]: 1505
Assign rand_sets[15]: 1159  LLC: 2048
rand_sets[15]: 1159
Assign rand_sets[16]: 513  LLC: 2048
rand_sets[16]: 513
Assign rand_sets[17]: 703  LLC: 2048
rand_sets[17]: 703
Assign rand_sets[18]: 561  LLC: 2048
rand_sets[18]: 561
Assign rand_sets[19]: 990  LLC: 2048
rand_sets[19]: 990
Assign rand_sets[20]: 342  LLC: 2048
rand_sets[20]: 342
Assign rand_sets[21]: 882  LLC: 2048
rand_sets[21]: 882
Assign rand_sets[22]: 15  LLC: 2048
rand_sets[22]: 15
Assign rand_sets[23]: 71  LLC: 2048
rand_sets[23]: 71
Assign rand_sets[24]: 1127  LLC: 2048
rand_sets[24]: 1127
Assign rand_sets[25]: 1382  LLC: 2048
rand_sets[25]: 1382
Assign rand_sets[26]: 647  LLC: 2048
rand_sets[26]: 647
Assign rand_sets[27]: 857  LLC: 2048
rand_sets[27]: 857
Assign rand_sets[28]: 1450  LLC: 2048
rand_sets[28]: 1450
Assign rand_sets[29]: 1160  LLC: 2048
rand_sets[29]: 1160
Assign rand_sets[30]: 1852  LLC: 2048
rand_sets[30]: 1852
Assign rand_sets[31]: 1881  LLC: 2048
rand_sets[31]: 1881
Assign rand_sets[32]: 1770  LLC: 2048
rand_sets[32]: 1770
Assign rand_sets[33]: 1622  LLC: 2048
rand_sets[33]: 1622
Assign rand_sets[34]: 275  LLC: 2048
rand_sets[34]: 275
Assign rand_sets[35]: 635  LLC: 2048
rand_sets[35]: 635
Assign rand_sets[36]: 466  LLC: 2048
rand_sets[36]: 466
Assign rand_sets[37]: 1413  LLC: 2048
rand_sets[37]: 1413
Assign rand_sets[38]: 417  LLC: 2048
rand_sets[38]: 417
Assign rand_sets[39]: 472  LLC: 2048
rand_sets[39]: 472
Assign rand_sets[40]: 1340  LLC: 2048
rand_sets[40]: 1340
Assign rand_sets[41]: 852  LLC: 2048
rand_sets[41]: 852
Assign rand_sets[42]: 1365  LLC: 2048
rand_sets[42]: 1365
Assign rand_sets[43]: 47  LLC: 2048
rand_sets[43]: 47
Assign rand_sets[44]: 823  LLC: 2048
rand_sets[44]: 823
Assign rand_sets[45]: 686  LLC: 2048
rand_sets[45]: 686
Assign rand_sets[46]: 1637  LLC: 2048
rand_sets[46]: 1637
Assign rand_sets[47]: 1115  LLC: 2048
rand_sets[47]: 1115
Assign rand_sets[48]: 986  LLC: 2048
rand_sets[48]: 986
Assign rand_sets[49]: 258  LLC: 2048
rand_sets[49]: 258
Assign rand_sets[50]: 633  LLC: 2048
rand_sets[50]: 633
Assign rand_sets[51]: 920  LLC: 2048
rand_sets[51]: 920
Assign rand_sets[52]: 204  LLC: 2048
rand_sets[52]: 204
Assign rand_sets[53]: 227  LLC: 2048
rand_sets[53]: 227
Assign rand_sets[54]: 1818  LLC: 2048
rand_sets[54]: 1818
Assign rand_sets[55]: 886  LLC: 2048
rand_sets[55]: 886
Assign rand_sets[56]: 1422  LLC: 2048
rand_sets[56]: 1422
Assign rand_sets[57]: 607  LLC: 2048
rand_sets[57]: 607
Assign rand_sets[58]: 217  LLC: 2048
rand_sets[58]: 217
Assign rand_sets[59]: 1945  LLC: 2048
rand_sets[59]: 1945
Assign rand_sets[60]: 143  LLC: 2048
rand_sets[60]: 143
Assign rand_sets[61]: 1311  LLC: 2048
rand_sets[61]: 1311
Assign rand_sets[62]: 319  LLC: 2048
rand_sets[62]: 319
Assign rand_sets[63]: 1846  LLC: 2048
rand_sets[63]: 1846
 CLEAN-RRIP-POLICY-1: 1-2-1-3-0-3-0-0- CLEAN-RRIP-POLICY-2: 1-2-1-3-0-3-0-0-
 DIRTY-RRIP-POLICY-1: 0-2-1-3-1-3-0-0- DIRTY-RRIP-POLICY-2: 0-2-1-3-1-3-0-0-
 PSEL width: 10
Heartbeat CPU 0 instructions: 10000001 cycles: 7315979 heartbeat IPC: 1.36687 cumulative IPC: 1.36687 (Simulation time: 0 hr 0 min 14 sec) 
Heartbeat CPU 0 instructions: 20000000 cycles: 14307608 heartbeat IPC: 1.43028 cumulative IPC: 1.39786 (Simulation time: 0 hr 0 min 28 sec) 
Heartbeat CPU 0 instructions: 30000001 cycles: 21020711 heartbeat IPC: 1.48962 cumulative IPC: 1.42716 (Simulation time: 0 hr 0 min 43 sec) 
Heartbeat CPU 0 instructions: 40000000 cycles: 27481658 heartbeat IPC: 1.54776 cumulative IPC: 1.45552 (Simulation time: 0 hr 0 min 59 sec) 
Heartbeat CPU 0 instructions: 50000001 cycles: 33583622 heartbeat IPC: 1.63882 cumulative IPC: 1.48882 (Simulation time: 0 hr 1 min 14 sec) 
Heartbeat CPU 0 instructions: 60000000 cycles: 40064970 heartbeat IPC: 1.54289 cumulative IPC: 1.49757 (Simulation time: 0 hr 1 min 29 sec) 
Heartbeat CPU 0 instructions: 70000000 cycles: 47104771 heartbeat IPC: 1.42049 cumulative IPC: 1.48605 (Simulation time: 0 hr 1 min 44 sec) 
Heartbeat CPU 0 instructions: 80000000 cycles: 54194724 heartbeat IPC: 1.41045 cumulative IPC: 1.47616 (Simulation time: 0 hr 1 min 58 sec) 
Heartbeat CPU 0 instructions: 90000003 cycles: 61199452 heartbeat IPC: 1.42761 cumulative IPC: 1.4706 (Simulation time: 0 hr 2 min 13 sec) 
Heartbeat CPU 0 instructions: 100000000 cycles: 68367190 heartbeat IPC: 1.39514 cumulative IPC: 1.46269 (Simulation time: 0 hr 2 min 27 sec) 

Warmup complete CPU 0 instructions: 100000004 cycles: 68367191 (Simulation time: 0 hr 2 min 27 sec) 

Heartbeat CPU 0 instructions: 110000003 cycles: 96106623 heartbeat IPC: 0.360498 cumulative IPC: 0.360498 (Simulation time: 0 hr 2 min 55 sec) 
Heartbeat CPU 0 instructions: 120000000 cycles: 123603309 heartbeat IPC: 0.36368 cumulative IPC: 0.362082 (Simulation time: 0 hr 3 min 23 sec) 
Heartbeat CPU 0 instructions: 130000000 cycles: 148632162 heartbeat IPC: 0.399539 cumulative IPC: 0.373762 (Simulation time: 0 hr 3 min 50 sec) 
Heartbeat CPU 0 instructions: 140000000 cycles: 178256482 heartbeat IPC: 0.337561 cumulative IPC: 0.364003 (Simulation time: 0 hr 4 min 18 sec) 
Heartbeat CPU 0 instructions: 150000000 cycles: 208181465 heartbeat IPC: 0.334169 cumulative IPC: 0.357617 (Simulation time: 0 hr 4 min 45 sec) 
Heartbeat CPU 0 instructions: 160000000 cycles: 235632515 heartbeat IPC: 0.364285 cumulative IPC: 0.358712 (Simulation time: 0 hr 5 min 12 sec) 
Heartbeat CPU 0 instructions: 170000001 cycles: 263757187 heartbeat IPC: 0.35556 cumulative IPC: 0.358258 (Simulation time: 0 hr 5 min 41 sec) 
Heartbeat CPU 0 instructions: 180000000 cycles: 292293527 heartbeat IPC: 0.35043 cumulative IPC: 0.35726 (Simulation time: 0 hr 6 min 10 sec) 
Heartbeat CPU 0 instructions: 190000002 cycles: 320436308 heartbeat IPC: 0.355331 cumulative IPC: 0.357045 (Simulation time: 0 hr 6 min 37 sec) 
Heartbeat CPU 0 instructions: 200000000 cycles: 348833813 heartbeat IPC: 0.352144 cumulative IPC: 0.356549 (Simulation time: 0 hr 7 min 6 sec) 
Heartbeat CPU 0 instructions: 210000002 cycles: 376759352 heartbeat IPC: 0.358095 cumulative IPC: 0.356689 (Simulation time: 0 hr 7 min 34 sec) 
Heartbeat CPU 0 instructions: 220000000 cycles: 405963041 heartbeat IPC: 0.342422 cumulative IPC: 0.355455 (Simulation time: 0 hr 8 min 0 sec) 
Heartbeat CPU 0 instructions: 230000000 cycles: 433563701 heartbeat IPC: 0.36231 cumulative IPC: 0.355973 (Simulation time: 0 hr 8 min 28 sec) 
Heartbeat CPU 0 instructions: 240000000 cycles: 459462249 heartbeat IPC: 0.386122 cumulative IPC: 0.357969 (Simulation time: 0 hr 8 min 54 sec) 
Heartbeat CPU 0 instructions: 250000000 cycles: 489662442 heartbeat IPC: 0.331124 cumulative IPC: 0.356045 (Simulation time: 0 hr 9 min 23 sec) 
Heartbeat CPU 0 instructions: 260000000 cycles: 516799972 heartbeat IPC: 0.368493 cumulative IPC: 0.356798 (Simulation time: 0 hr 9 min 50 sec) 
Heartbeat CPU 0 instructions: 270000003 cycles: 545342735 heartbeat IPC: 0.350352 cumulative IPC: 0.356412 (Simulation time: 0 hr 10 min 19 sec) 
Heartbeat CPU 0 instructions: 280000000 cycles: 573645630 heartbeat IPC: 0.353321 cumulative IPC: 0.356239 (Simulation time: 0 hr 10 min 48 sec) 
Heartbeat CPU 0 instructions: 290000000 cycles: 602607763 heartbeat IPC: 0.345278 cumulative IPC: 0.355645 (Simulation time: 0 hr 11 min 17 sec) 
Heartbeat CPU 0 instructions: 300000000 cycles: 632705061 heartbeat IPC: 0.332256 cumulative IPC: 0.354398 (Simulation time: 0 hr 11 min 44 sec) 
Heartbeat CPU 0 instructions: 310000001 cycles: 662140452 heartbeat IPC: 0.339727 cumulative IPC: 0.35367 (Simulation time: 0 hr 12 min 12 sec) 
Heartbeat CPU 0 instructions: 320000000 cycles: 690465262 heartbeat IPC: 0.353047 cumulative IPC: 0.353642 (Simulation time: 0 hr 12 min 39 sec) 
Heartbeat CPU 0 instructions: 330000000 cycles: 719184616 heartbeat IPC: 0.348197 cumulative IPC: 0.353402 (Simulation time: 0 hr 13 min 6 sec) 
Heartbeat CPU 0 instructions: 340000000 cycles: 748554910 heartbeat IPC: 0.34048 cumulative IPC: 0.352844 (Simulation time: 0 hr 13 min 33 sec) 
Heartbeat CPU 0 instructions: 350000003 cycles: 775649073 heartbeat IPC: 0.369083 cumulative IPC: 0.353466 (Simulation time: 0 hr 14 min 0 sec) 
Heartbeat CPU 0 instructions: 360000000 cycles: 803817331 heartbeat IPC: 0.355009 cumulative IPC: 0.353525 (Simulation time: 0 hr 14 min 25 sec) 
Heartbeat CPU 0 instructions: 370000000 cycles: 832001362 heartbeat IPC: 0.354811 cumulative IPC: 0.353572 (Simulation time: 0 hr 14 min 51 sec) 
Heartbeat CPU 0 instructions: 380000000 cycles: 860540090 heartbeat IPC: 0.350401 cumulative IPC: 0.353458 (Simulation time: 0 hr 15 min 17 sec) 
Heartbeat CPU 0 instructions: 390000001 cycles: 888155183 heartbeat IPC: 0.362121 cumulative IPC: 0.35375 (Simulation time: 0 hr 15 min 43 sec) 
Heartbeat CPU 0 instructions: 400000000 cycles: 916803073 heartbeat IPC: 0.349066 cumulative IPC: 0.353592 (Simulation time: 0 hr 16 min 8 sec) 
Heartbeat CPU 0 instructions: 410000001 cycles: 944096885 heartbeat IPC: 0.366383 cumulative IPC: 0.35399 (Simulation time: 0 hr 16 min 34 sec) 
Heartbeat CPU 0 instructions: 420000000 cycles: 971402404 heartbeat IPC: 0.366226 cumulative IPC: 0.35436 (Simulation time: 0 hr 16 min 59 sec) 
Heartbeat CPU 0 instructions: 430000002 cycles: 999121212 heartbeat IPC: 0.360766 cumulative IPC: 0.354551 (Simulation time: 0 hr 17 min 24 sec) 
Heartbeat CPU 0 instructions: 440000000 cycles: 1028762192 heartbeat IPC: 0.337371 cumulative IPC: 0.354021 (Simulation time: 0 hr 17 min 49 sec) 
Heartbeat CPU 0 instructions: 450000002 cycles: 1058045912 heartbeat IPC: 0.341487 cumulative IPC: 0.35365 (Simulation time: 0 hr 18 min 14 sec) 
Heartbeat CPU 0 instructions: 460000000 cycles: 1085751991 heartbeat IPC: 0.360932 cumulative IPC: 0.353848 (Simulation time: 0 hr 18 min 39 sec) 
Heartbeat CPU 0 instructions: 470000000 cycles: 1113384396 heartbeat IPC: 0.361894 cumulative IPC: 0.354061 (Simulation time: 0 hr 19 min 4 sec) 
Heartbeat CPU 0 instructions: 480000000 cycles: 1141266760 heartbeat IPC: 0.35865 cumulative IPC: 0.35418 (Simulation time: 0 hr 19 min 29 sec) 
Heartbeat CPU 0 instructions: 490000000 cycles: 1168845829 heartbeat IPC: 0.362594 cumulative IPC: 0.354391 (Simulation time: 0 hr 19 min 54 sec) 
Heartbeat CPU 0 instructions: 500000000 cycles: 1197178446 heartbeat IPC: 0.35295 cumulative IPC: 0.354355 (Simulation time: 0 hr 20 min 19 sec) 
Heartbeat CPU 0 instructions: 510000000 cycles: 1231517890 heartbeat IPC: 0.29121 cumulative IPC: 0.352491 (Simulation time: 0 hr 20 min 47 sec) 
Heartbeat CPU 0 instructions: 520000000 cycles: 1259551936 heartbeat IPC: 0.356709 cumulative IPC: 0.35259 (Simulation time: 0 hr 21 min 13 sec) 
Heartbeat CPU 0 instructions: 530000001 cycles: 1288867145 heartbeat IPC: 0.34112 cumulative IPC: 0.352315 (Simulation time: 0 hr 21 min 39 sec) 
Heartbeat CPU 0 instructions: 540000000 cycles: 1316919254 heartbeat IPC: 0.356479 cumulative IPC: 0.352408 (Simulation time: 0 hr 22 min 5 sec) 
Heartbeat CPU 0 instructions: 550000001 cycles: 1346141770 heartbeat IPC: 0.342202 cumulative IPC: 0.352175 (Simulation time: 0 hr 22 min 33 sec) 
Heartbeat CPU 0 instructions: 560000000 cycles: 1371555695 heartbeat IPC: 0.393485 cumulative IPC: 0.35298 (Simulation time: 0 hr 22 min 58 sec) 
Heartbeat CPU 0 instructions: 570000000 cycles: 1401252758 heartbeat IPC: 0.336734 cumulative IPC: 0.352618 (Simulation time: 0 hr 23 min 25 sec) 
Heartbeat CPU 0 instructions: 580000000 cycles: 1429303493 heartbeat IPC: 0.356497 cumulative IPC: 0.352698 (Simulation time: 0 hr 23 min 51 sec) 
Heartbeat CPU 0 instructions: 590000001 cycles: 1454038826 heartbeat IPC: 0.40428 cumulative IPC: 0.353619 (Simulation time: 0 hr 24 min 16 sec) 
Heartbeat CPU 0 instructions: 600000000 cycles: 1480073614 heartbeat IPC: 0.384101 cumulative IPC: 0.354181 (Simulation time: 0 hr 24 min 41 sec) 
Finished CPU 0 instructions: 500000000 cycles: 1411706445 cumulative IPC: 0.354181 (Simulation time: 0 hr 24 min 41 sec) 

CPU 0 Branch Prediction Accuracy: 86.4311% MPKI: 26.2662
Number of Branches: 96788573 Number of Mispredictions: 13133102
Number of LOAD Instructions: 164682285
Number of LOAD Instructions (ROI): 164682285
Number of STORE Instructions: 78194750
Number of STORE Instructions (ROI): 78194750
Total Destination Memory Operands: 83268534
Total Destination Memory Operands (ROI): 83268534
Total Source Memory Operands: 164712438
Total Source Memory Operands (ROI): 164712438
Number of DEPENDED LOADS: 7055517
Number of DEPENDED LOADS (ROI): 7055517
Number of SQ_ADDED: 83268522
Number of SQ_ADDED (ROI): 83268522
Number of LQ_ADDED: 236749895
Number of LQ_ADDED (ROI): 236749895
Number of Instructions read from trace: 600000066

ChampSim completed all CPUs

Region of Interest Statistics

CPU 0 cumulative IPC: 0.354181 instructions: 500000000 cycles: 1411706445
ITLB TOTAL     ACCESS:  100522656  HIT:  100318210  MISS:     204446
ITLB LOAD      ACCESS:  100522656  HIT:  100318210  MISS:     204446
ITLB RFO       ACCESS:          0  HIT:          0  MISS:          0
ITLB PREFETCH  ACCESS:          0  HIT:          0  MISS:          0
ITLB WRITEBACK ACCESS:          0  HIT:          0  MISS:          0
ITLB PREFETCH  REQUESTED:          0  ISSUED:          0  USEFUL:          0  USELESS:          0
ITLB TOTAL MSHR MERGED:     172426
ITLB LOAD MSHR MERGED:     172426
ITLB RFO MSHR MERGED:          0
ITLB PREFETCH MSHR MERGED:          0
ITLB WRITEBACK MSHR MERGED:          0
ITLB TOTAL ACCESSES:  100695082 HITS:  100318210 MISSES:     376872
ITLB LOAD ACCESSES:  100695082 HITS:  100318210 MISSES:     376872
ITLB RFO ACCESSES:          0 HITS:          0 MISSES:          0
ITLB PREFETCH ACCESSES:          0 HITS:          0 MISSES:          0
ITLB WRITEBACK ACCESSES:          0 HITS:          0 MISSES:          0
ITLB RQ ACCESS:  500000057
ITLB RQ TO_CACHE:  100695082
ITLB RQ MERGED:  399304975
ITLB RQ FORWARD:          0
ITLB WQ ACCESS:          0
ITLB WQ TO_CACHE:          0
ITLB WQ MERGED:          0
ITLB WQ FORWARD:          0
DTLB TOTAL     ACCESS:  165341185  HIT:  164706833  MISS:     634352
DTLB LOAD      ACCESS:  106295831  HIT:  105725908  MISS:     569923
DTLB RFO       ACCESS:   59045354  HIT:   58980925  MISS:      64429
DTLB PREFETCH  ACCESS:          0  HIT:          0  MISS:          0
DTLB WRITEBACK ACCESS:          0  HIT:          0  MISS:          0
DTLB PREFETCH  REQUESTED:          0  ISSUED:          0  USEFUL:          0  USELESS:          0
DTLB TOTAL MSHR MERGED:      99928
DTLB LOAD MSHR MERGED:      59433
DTLB RFO MSHR MERGED:      40495
DTLB PREFETCH MSHR MERGED:          0
DTLB WRITEBACK MSHR MERGED:          0
DTLB TOTAL ACCESSES:  165441113 HITS:  164706833 MISSES:     734280
DTLB LOAD ACCESSES:  106355264 HITS:  105725908 MISSES:     629356
DTLB RFO ACCESSES:   59085849 HITS:   58980925 MISSES:     104924
DTLB PREFETCH ACCESSES:          0 HITS:          0 MISSES:          0
DTLB WRITEBACK ACCESSES:          0 HITS:          0 MISSES:          0
DTLB RQ ACCESS:  200315344
DTLB RQ TO_CACHE:  165441113
DTLB RQ MERGED:   34874231
DTLB RQ FORWARD:          0
DTLB WQ ACCESS:          0
DTLB WQ TO_CACHE:          0
DTLB WQ MERGED:          0
DTLB WQ FORWARD:          0
L1D TOTAL     ACCESS:  281851896  HIT:  273942529  MISS:    7909367
L1D LOAD      ACCESS:  110421326  HIT:  107142862  MISS:    3278464
L1D RFO       ACCESS:   67129328  HIT:   66239250  MISS:     890078
L1D PREFETCH  ACCESS:  104301242  HIT:  100560417  MISS:    3740825
L1D WRITEBACK ACCESS:          0  HIT:          0  MISS:          0
L1D PREFETCH  REQUESTED:  110821564  ISSUED:  109122251  USEFUL:    1661447  USELESS:    2079342
L1D TOTAL MSHR MERGED:    2861418
L1D LOAD MSHR MERGED:     498192
L1D RFO MSHR MERGED:    1856175
L1D PREFETCH MSHR MERGED:     507051
L1D WRITEBACK MSHR MERGED:          0
L1D TOTAL ACCESSES:  284740744 HITS:  273969959 MISSES:   10770785
L1D LOAD ACCESSES:  110822993 HITS:  107144291 MISSES:    3678702
L1D RFO ACCESSES:   68974229 HITS:   66239250 MISSES:    2734979
L1D PREFETCH ACCESSES:  104943522 HITS:  100586418 MISSES:    4357104
L1D WRITEBACK ACCESSES:          0 HITS:          0 MISSES:          0
L1D RQ ACCESS:  130762741
L1D RQ TO_CACHE:  110821567
L1D RQ MERGED:   19939745
L1D RQ FORWARD:          0
L1D WQ ACCESS:   69552603
L1D WQ TO_CACHE:   68974230
L1D WQ MERGED:     578373
L1D WQ FORWARD:      27430
L1I TOTAL     ACCESS:  126569662  HIT:  122331111  MISS:    4238551
L1I LOAD      ACCESS:  126569662  HIT:  122331111  MISS:    4238551
L1I RFO       ACCESS:          0  HIT:          0  MISS:          0
L1I PREFETCH  ACCESS:          0  HIT:          0  MISS:          0
L1I WRITEBACK ACCESS:          0  HIT:          0  MISS:          0
L1I PREFETCH  REQUESTED:          0  ISSUED:          0  USEFUL:          0  USELESS:          0
L1I TOTAL MSHR MERGED:    1834779
L1I LOAD MSHR MERGED:    1834779
L1I RFO MSHR MERGED:          0
L1I PREFETCH MSHR MERGED:          0
L1I WRITEBACK MSHR MERGED:          0
L1I TOTAL ACCESSES:  128404444 HITS:  122331111 MISSES:    6073333
L1I LOAD ACCESSES:  128404444 HITS:  122331111 MISSES:    6073333
L1I RFO ACCESSES:          0 HITS:          0 MISSES:          0
L1I PREFETCH ACCESSES:          0 HITS:          0 MISSES:          0
L1I WRITEBACK ACCESSES:          0 HITS:          0 MISSES:          0
L1I RQ ACCESS:  500000057
L1I RQ TO_CACHE:  128404444
L1I RQ MERGED:  371595613
L1I RQ FORWARD:          0
L1I WQ ACCESS:          0
L1I WQ TO_CACHE:          0
L1I WQ MERGED:          0
L1I WQ FORWARD:          0
L2C TOTAL     ACCESS:   14905463  HIT:   11158958  MISS:    3746505
L2C LOAD      ACCESS:    7418853  HIT:    5098917  MISS:    2319936
L2C RFO       ACCESS:     878707  HIT:     409906  MISS:     468801
L2C PREFETCH  ACCESS:    4568660  HIT:    3628144  MISS:     940516
L2C WRITEBACK ACCESS:    2039243  HIT:    2021991  MISS:      17252
L2C PREFETCH  REQUESTED:     842786  ISSUED:     842786  USEFUL:     203431  USELESS:     736791
L2C TOTAL MSHR MERGED:       6889
L2C LOAD MSHR MERGED:        728
L2C RFO MSHR MERGED:          0
L2C PREFETCH MSHR MERGED:       6161
L2C WRITEBACK MSHR MERGED:          0
L2C TOTAL ACCESSES:   14913219 HITS:   11159407 MISSES:    3753812
L2C LOAD ACCESSES:    7419061 HITS:    5099125 MISSES:    2319936
L2C RFO ACCESSES:     878804 HITS:     410003 MISSES:     468801
L2C PREFETCH ACCESSES:    4576111 HITS:    3628288 MISSES:     947823
L2C WRITEBACK ACCESSES:    2039243 HITS:    2021991 MISSES:      17252
L2C RQ ACCESS:    8297868
L2C RQ TO_CACHE:    8297563
L2C RQ MERGED:          0
L2C RQ FORWARD:          0
L2C WQ ACCESS:    2039243
L2C WQ TO_CACHE:    2039243
L2C WQ MERGED:          0
L2C WQ FORWARD:        449
LLC TOTAL     ACCESS:    4609810  HIT:    3959087  MISS:     650723
LLC LOAD      ACCESS:    2319191  HIT:    2050534  MISS:     268657
LLC RFO       ACCESS:     468791  HIT:     419751  MISS:      49040
LLC PREFETCH  ACCESS:     941546  HIT:     655054  MISS:     286492
LLC WRITEBACK ACCESS:     880282  HIT:     833748  MISS:      46534
LLC PREFETCH  REQUESTED:          0  ISSUED:          0  USEFUL:      13779  USELESS:     272758
LLC TOTAL MSHR MERGED:         97
LLC LOAD MSHR MERGED:         31
LLC RFO MSHR MERGED:          0
LLC PREFETCH MSHR MERGED:         66
LLC WRITEBACK MSHR MERGED:          0
LLC TOTAL ACCESSES:    4609945 HITS:    3959125 MISSES:     650820
LLC LOAD ACCESSES:    2319208 HITS:    2050551 MISSES:     268657
LLC RFO ACCESSES:     468801 HITS:     419761 MISSES:      49040
LLC PREFETCH ACCESSES:     941654 HITS:     655065 MISSES:     286589
LLC WRITEBACK ACCESSES:     880282 HITS:     833748 MISSES:      46534
LLC 0 RQ ACCESS:    2788009
LLC 0 RQ TO_CACHE:    2787982
LLC 0 RQ MERGED:          0
LLC 0 RQ FORWARD:          0
LLC WQ ACCESS:     880282
LLC WQ TO_CACHE:     880282
LLC WQ MERGED:          0
LLC WQ FORWARD:         38
Major fault: 0 Minor fault: 12862
CPU 0 L1D next line prefetcher final stats
CPU 0 L2C PC-based stride prefetcher final stats
All Misses: 778052
All Hits: 4648764
SD Algo Stats - Switches: 0 SRR-Repls: 316487 BRR-Repls: 0

DRAM Statistics
 CHANNEL 0
 RQ ROW_BUFFER_HIT:     128742  ROW_BUFFER_MISS:     474873
 DBUS_CONGESTED:     310997
 WQ ROW_BUFFER_HIT:       9361  ROW_BUFFER_MISS:     141067  FULL:          0

 AVG_CONGESTED_CYCLE: 13
LOADS RETIRED: 136549171
INSTR RETIRED: 500000000
