
*** ChampSim Multicore Out-of-Order Simulator ***

Warmup Instructions: 100000000
Simulation Instructions: 500000000
Number of CPUs: 1
LLC sets: 2048
LLC ways: 16
Clean RRIP Policies: 1213030012130300 Dirty RRIP Policies: 213130002131300 PSEL Width: 10 Track Set: 4294967295 PSEL Mask: 1 Demote Mask: 1340201013402010DS Algo: 0Window size: 0
Off-chip DRAM Size: 4096 MB Channels: 1 Width: 64-bit Data Rate: 1600 MT/s

CPU 0 runs /mnt/beegfs/iconst01/spec2017/Omnetpp.trace.gz
NOT SORTED
TRACE STRING: /mnt/beegfs/iconst01/spec2017/Omnetpp.trace.gz
SORTED
TRACE STRING: /mnt/beegfs/iconst01/spec2017/Omnetpp.trace.gz
INITIAL
TRACE STRING: /mnt/beegfs/iconst01/spec2017/Omnetpp.trace.gz

champsim_seed used: 739

CPU 0 L1D next line prefetcher
CPU 0 L2C IP-based stride prefetcher
Initialize DRRIP state
Assign rand_sets[0]: 454  LLC: 2048
rand_sets[0]: 454
Assign rand_sets[1]: 1662  LLC: 2048
rand_sets[1]: 1662
Assign rand_sets[2]: 1921  LLC: 2048
rand_sets[2]: 1921
Assign rand_sets[3]: 1131  LLC: 2048
rand_sets[3]: 1131
Assign rand_sets[4]: 331  LLC: 2048
rand_sets[4]: 331
Assign rand_sets[5]: 1531  LLC: 2048
rand_sets[5]: 1531
Assign rand_sets[6]: 482  LLC: 2048
rand_sets[6]: 482
Assign rand_sets[7]: 1275  LLC: 2048
rand_sets[7]: 1275
Assign rand_sets[8]: 1876  LLC: 2048
rand_sets[8]: 1876
Assign rand_sets[9]: 2038  LLC: 2048
rand_sets[9]: 2038
Assign rand_sets[10]: 701  LLC: 2048
rand_sets[10]: 701
Assign rand_sets[11]: 479  LLC: 2048
rand_sets[11]: 479
Assign rand_sets[12]: 892  LLC: 2048
rand_sets[12]: 892
Assign rand_sets[13]: 1820  LLC: 2048
rand_sets[13]: 1820
Assign rand_sets[14]: 1505  LLC: 2048
rand_sets[14]: 1505
Assign rand_sets[15]: 1159  LLC: 2048
rand_sets[15]: 1159
Assign rand_sets[16]: 513  LLC: 2048
rand_sets[16]: 513
Assign rand_sets[17]: 703  LLC: 2048
rand_sets[17]: 703
Assign rand_sets[18]: 561  LLC: 2048
rand_sets[18]: 561
Assign rand_sets[19]: 990  LLC: 2048
rand_sets[19]: 990
Assign rand_sets[20]: 342  LLC: 2048
rand_sets[20]: 342
Assign rand_sets[21]: 882  LLC: 2048
rand_sets[21]: 882
Assign rand_sets[22]: 15  LLC: 2048
rand_sets[22]: 15
Assign rand_sets[23]: 71  LLC: 2048
rand_sets[23]: 71
Assign rand_sets[24]: 1127  LLC: 2048
rand_sets[24]: 1127
Assign rand_sets[25]: 1382  LLC: 2048
rand_sets[25]: 1382
Assign rand_sets[26]: 647  LLC: 2048
rand_sets[26]: 647
Assign rand_sets[27]: 857  LLC: 2048
rand_sets[27]: 857
Assign rand_sets[28]: 1450  LLC: 2048
rand_sets[28]: 1450
Assign rand_sets[29]: 1160  LLC: 2048
rand_sets[29]: 1160
Assign rand_sets[30]: 1852  LLC: 2048
rand_sets[30]: 1852
Assign rand_sets[31]: 1881  LLC: 2048
rand_sets[31]: 1881
Assign rand_sets[32]: 1770  LLC: 2048
rand_sets[32]: 1770
Assign rand_sets[33]: 1622  LLC: 2048
rand_sets[33]: 1622
Assign rand_sets[34]: 275  LLC: 2048
rand_sets[34]: 275
Assign rand_sets[35]: 635  LLC: 2048
rand_sets[35]: 635
Assign rand_sets[36]: 466  LLC: 2048
rand_sets[36]: 466
Assign rand_sets[37]: 1413  LLC: 2048
rand_sets[37]: 1413
Assign rand_sets[38]: 417  LLC: 2048
rand_sets[38]: 417
Assign rand_sets[39]: 472  LLC: 2048
rand_sets[39]: 472
Assign rand_sets[40]: 1340  LLC: 2048
rand_sets[40]: 1340
Assign rand_sets[41]: 852  LLC: 2048
rand_sets[41]: 852
Assign rand_sets[42]: 1365  LLC: 2048
rand_sets[42]: 1365
Assign rand_sets[43]: 47  LLC: 2048
rand_sets[43]: 47
Assign rand_sets[44]: 823  LLC: 2048
rand_sets[44]: 823
Assign rand_sets[45]: 686  LLC: 2048
rand_sets[45]: 686
Assign rand_sets[46]: 1637  LLC: 2048
rand_sets[46]: 1637
Assign rand_sets[47]: 1115  LLC: 2048
rand_sets[47]: 1115
Assign rand_sets[48]: 986  LLC: 2048
rand_sets[48]: 986
Assign rand_sets[49]: 258  LLC: 2048
rand_sets[49]: 258
Assign rand_sets[50]: 633  LLC: 2048
rand_sets[50]: 633
Assign rand_sets[51]: 920  LLC: 2048
rand_sets[51]: 920
Assign rand_sets[52]: 204  LLC: 2048
rand_sets[52]: 204
Assign rand_sets[53]: 227  LLC: 2048
rand_sets[53]: 227
Assign rand_sets[54]: 1818  LLC: 2048
rand_sets[54]: 1818
Assign rand_sets[55]: 886  LLC: 2048
rand_sets[55]: 886
Assign rand_sets[56]: 1422  LLC: 2048
rand_sets[56]: 1422
Assign rand_sets[57]: 607  LLC: 2048
rand_sets[57]: 607
Assign rand_sets[58]: 217  LLC: 2048
rand_sets[58]: 217
Assign rand_sets[59]: 1945  LLC: 2048
rand_sets[59]: 1945
Assign rand_sets[60]: 143  LLC: 2048
rand_sets[60]: 143
Assign rand_sets[61]: 1311  LLC: 2048
rand_sets[61]: 1311
Assign rand_sets[62]: 319  LLC: 2048
rand_sets[62]: 319
Assign rand_sets[63]: 1846  LLC: 2048
rand_sets[63]: 1846
 CLEAN-RRIP-POLICY-1: 1-2-1-3-0-3-0-0- CLEAN-RRIP-POLICY-2: 1-2-1-3-0-3-0-0-
 DIRTY-RRIP-POLICY-1: 0-2-1-3-1-3-0-0- DIRTY-RRIP-POLICY-2: 0-2-1-3-1-3-0-0-
 PSEL width: 10
Heartbeat CPU 0 instructions: 10000000 cycles: 7319774 heartbeat IPC: 1.36616 cumulative IPC: 1.36616 (Simulation time: 0 hr 0 min 19 sec) 
Heartbeat CPU 0 instructions: 20000000 cycles: 14623296 heartbeat IPC: 1.3692 cumulative IPC: 1.36768 (Simulation time: 0 hr 0 min 39 sec) 
Heartbeat CPU 0 instructions: 30000003 cycles: 21924543 heartbeat IPC: 1.36963 cumulative IPC: 1.36833 (Simulation time: 0 hr 0 min 59 sec) 
Heartbeat CPU 0 instructions: 40000000 cycles: 29212610 heartbeat IPC: 1.37211 cumulative IPC: 1.36927 (Simulation time: 0 hr 1 min 19 sec) 
Heartbeat CPU 0 instructions: 50000000 cycles: 36488918 heartbeat IPC: 1.37432 cumulative IPC: 1.37028 (Simulation time: 0 hr 1 min 39 sec) 
Heartbeat CPU 0 instructions: 60000000 cycles: 43768699 heartbeat IPC: 1.37367 cumulative IPC: 1.37084 (Simulation time: 0 hr 1 min 59 sec) 
Heartbeat CPU 0 instructions: 70000001 cycles: 51053774 heartbeat IPC: 1.37267 cumulative IPC: 1.3711 (Simulation time: 0 hr 2 min 19 sec) 
Heartbeat CPU 0 instructions: 80000000 cycles: 58328579 heartbeat IPC: 1.37461 cumulative IPC: 1.37154 (Simulation time: 0 hr 2 min 39 sec) 
Heartbeat CPU 0 instructions: 90000000 cycles: 65634697 heartbeat IPC: 1.36872 cumulative IPC: 1.37123 (Simulation time: 0 hr 2 min 59 sec) 
Heartbeat CPU 0 instructions: 100000000 cycles: 72926628 heartbeat IPC: 1.37138 cumulative IPC: 1.37124 (Simulation time: 0 hr 3 min 19 sec) 

Warmup complete CPU 0 instructions: 100000002 cycles: 72926629 (Simulation time: 0 hr 3 min 19 sec) 

Heartbeat CPU 0 instructions: 110000002 cycles: 113483302 heartbeat IPC: 0.246569 cumulative IPC: 0.246569 (Simulation time: 0 hr 3 min 59 sec) 
Heartbeat CPU 0 instructions: 120000000 cycles: 153740531 heartbeat IPC: 0.248403 cumulative IPC: 0.247482 (Simulation time: 0 hr 4 min 39 sec) 
Heartbeat CPU 0 instructions: 130000002 cycles: 194228510 heartbeat IPC: 0.246987 cumulative IPC: 0.247317 (Simulation time: 0 hr 5 min 19 sec) 
Heartbeat CPU 0 instructions: 140000000 cycles: 234813228 heartbeat IPC: 0.246398 cumulative IPC: 0.247087 (Simulation time: 0 hr 5 min 59 sec) 
Heartbeat CPU 0 instructions: 150000002 cycles: 274953112 heartbeat IPC: 0.249129 cumulative IPC: 0.247492 (Simulation time: 0 hr 6 min 39 sec) 
Heartbeat CPU 0 instructions: 160000000 cycles: 315145581 heartbeat IPC: 0.248803 cumulative IPC: 0.24771 (Simulation time: 0 hr 7 min 18 sec) 
Heartbeat CPU 0 instructions: 170000001 cycles: 354544484 heartbeat IPC: 0.253814 cumulative IPC: 0.248564 (Simulation time: 0 hr 7 min 58 sec) 
Heartbeat CPU 0 instructions: 180000000 cycles: 394722420 heartbeat IPC: 0.248893 cumulative IPC: 0.248605 (Simulation time: 0 hr 8 min 37 sec) 
Heartbeat CPU 0 instructions: 190000002 cycles: 434849587 heartbeat IPC: 0.249208 cumulative IPC: 0.248672 (Simulation time: 0 hr 9 min 16 sec) 
Heartbeat CPU 0 instructions: 200000000 cycles: 476169844 heartbeat IPC: 0.242012 cumulative IPC: 0.247989 (Simulation time: 0 hr 9 min 57 sec) 
Heartbeat CPU 0 instructions: 210000003 cycles: 516344576 heartbeat IPC: 0.248913 cumulative IPC: 0.248073 (Simulation time: 0 hr 10 min 36 sec) 
Heartbeat CPU 0 instructions: 220000000 cycles: 556755066 heartbeat IPC: 0.24746 cumulative IPC: 0.248022 (Simulation time: 0 hr 11 min 16 sec) 
Heartbeat CPU 0 instructions: 230000000 cycles: 597138737 heartbeat IPC: 0.247625 cumulative IPC: 0.247991 (Simulation time: 0 hr 11 min 56 sec) 
Heartbeat CPU 0 instructions: 240000000 cycles: 637243239 heartbeat IPC: 0.249349 cumulative IPC: 0.248088 (Simulation time: 0 hr 12 min 35 sec) 
Heartbeat CPU 0 instructions: 250000000 cycles: 677406189 heartbeat IPC: 0.248986 cumulative IPC: 0.248147 (Simulation time: 0 hr 13 min 15 sec) 
Heartbeat CPU 0 instructions: 260000000 cycles: 717696320 heartbeat IPC: 0.2482 cumulative IPC: 0.248151 (Simulation time: 0 hr 13 min 55 sec) 
Heartbeat CPU 0 instructions: 270000000 cycles: 758031946 heartbeat IPC: 0.24792 cumulative IPC: 0.248137 (Simulation time: 0 hr 14 min 35 sec) 
Heartbeat CPU 0 instructions: 280000000 cycles: 798715325 heartbeat IPC: 0.245801 cumulative IPC: 0.248006 (Simulation time: 0 hr 15 min 15 sec) 
Heartbeat CPU 0 instructions: 290000001 cycles: 838647077 heartbeat IPC: 0.250427 cumulative IPC: 0.248132 (Simulation time: 0 hr 15 min 54 sec) 
Heartbeat CPU 0 instructions: 300000000 cycles: 879186916 heartbeat IPC: 0.246671 cumulative IPC: 0.248059 (Simulation time: 0 hr 16 min 34 sec) 
Heartbeat CPU 0 instructions: 310000000 cycles: 919723154 heartbeat IPC: 0.246693 cumulative IPC: 0.247993 (Simulation time: 0 hr 17 min 14 sec) 
Heartbeat CPU 0 instructions: 320000000 cycles: 959969839 heartbeat IPC: 0.248468 cumulative IPC: 0.248015 (Simulation time: 0 hr 17 min 53 sec) 
Heartbeat CPU 0 instructions: 330000000 cycles: 1000198518 heartbeat IPC: 0.248579 cumulative IPC: 0.248039 (Simulation time: 0 hr 18 min 33 sec) 
Heartbeat CPU 0 instructions: 340000000 cycles: 1041029569 heartbeat IPC: 0.244912 cumulative IPC: 0.247908 (Simulation time: 0 hr 19 min 12 sec) 
Heartbeat CPU 0 instructions: 350000001 cycles: 1081319356 heartbeat IPC: 0.248202 cumulative IPC: 0.247919 (Simulation time: 0 hr 19 min 52 sec) 
Heartbeat CPU 0 instructions: 360000000 cycles: 1121911257 heartbeat IPC: 0.246355 cumulative IPC: 0.247859 (Simulation time: 0 hr 20 min 31 sec) 
Heartbeat CPU 0 instructions: 370000000 cycles: 1161574039 heartbeat IPC: 0.252126 cumulative IPC: 0.248014 (Simulation time: 0 hr 21 min 10 sec) 
Heartbeat CPU 0 instructions: 380000000 cycles: 1202131976 heartbeat IPC: 0.246561 cumulative IPC: 0.247962 (Simulation time: 0 hr 21 min 49 sec) 
Heartbeat CPU 0 instructions: 390000001 cycles: 1242254917 heartbeat IPC: 0.249234 cumulative IPC: 0.248006 (Simulation time: 0 hr 22 min 28 sec) 
Heartbeat CPU 0 instructions: 400000000 cycles: 1282479973 heartbeat IPC: 0.248601 cumulative IPC: 0.248025 (Simulation time: 0 hr 23 min 7 sec) 
Heartbeat CPU 0 instructions: 410000000 cycles: 1322548422 heartbeat IPC: 0.249573 cumulative IPC: 0.248075 (Simulation time: 0 hr 23 min 47 sec) 
Heartbeat CPU 0 instructions: 420000000 cycles: 1362636278 heartbeat IPC: 0.249452 cumulative IPC: 0.248118 (Simulation time: 0 hr 24 min 26 sec) 
Heartbeat CPU 0 instructions: 430000000 cycles: 1402791024 heartbeat IPC: 0.249037 cumulative IPC: 0.248146 (Simulation time: 0 hr 25 min 5 sec) 
Heartbeat CPU 0 instructions: 440000000 cycles: 1442980005 heartbeat IPC: 0.248824 cumulative IPC: 0.248166 (Simulation time: 0 hr 25 min 44 sec) 
Heartbeat CPU 0 instructions: 450000002 cycles: 1483029920 heartbeat IPC: 0.249688 cumulative IPC: 0.248209 (Simulation time: 0 hr 26 min 23 sec) 
Heartbeat CPU 0 instructions: 460000000 cycles: 1522536104 heartbeat IPC: 0.253125 cumulative IPC: 0.248343 (Simulation time: 0 hr 27 min 2 sec) 
Heartbeat CPU 0 instructions: 470000000 cycles: 1562869524 heartbeat IPC: 0.247933 cumulative IPC: 0.248332 (Simulation time: 0 hr 27 min 41 sec) 
Heartbeat CPU 0 instructions: 480000000 cycles: 1602825072 heartbeat IPC: 0.250278 cumulative IPC: 0.248382 (Simulation time: 0 hr 28 min 20 sec) 
Heartbeat CPU 0 instructions: 490000001 cycles: 1642963937 heartbeat IPC: 0.249135 cumulative IPC: 0.248402 (Simulation time: 0 hr 29 min 0 sec) 
Heartbeat CPU 0 instructions: 500000000 cycles: 1683321833 heartbeat IPC: 0.247783 cumulative IPC: 0.248386 (Simulation time: 0 hr 29 min 39 sec) 
Heartbeat CPU 0 instructions: 510000000 cycles: 1723122501 heartbeat IPC: 0.251252 cumulative IPC: 0.248455 (Simulation time: 0 hr 30 min 18 sec) 
Heartbeat CPU 0 instructions: 520000000 cycles: 1763679708 heartbeat IPC: 0.246565 cumulative IPC: 0.24841 (Simulation time: 0 hr 30 min 57 sec) 
Heartbeat CPU 0 instructions: 530000000 cycles: 1803715897 heartbeat IPC: 0.249774 cumulative IPC: 0.248442 (Simulation time: 0 hr 31 min 36 sec) 
Heartbeat CPU 0 instructions: 540000000 cycles: 1843488043 heartbeat IPC: 0.251432 cumulative IPC: 0.248509 (Simulation time: 0 hr 32 min 15 sec) 
Heartbeat CPU 0 instructions: 550000001 cycles: 1883974384 heartbeat IPC: 0.246997 cumulative IPC: 0.248475 (Simulation time: 0 hr 32 min 55 sec) 
Heartbeat CPU 0 instructions: 560000000 cycles: 1924555221 heartbeat IPC: 0.246422 cumulative IPC: 0.24843 (Simulation time: 0 hr 33 min 34 sec) 
Heartbeat CPU 0 instructions: 570000003 cycles: 1965124603 heartbeat IPC: 0.246491 cumulative IPC: 0.248388 (Simulation time: 0 hr 34 min 14 sec) 
Heartbeat CPU 0 instructions: 580000000 cycles: 2005506511 heartbeat IPC: 0.247636 cumulative IPC: 0.248373 (Simulation time: 0 hr 34 min 53 sec) 
Heartbeat CPU 0 instructions: 590000001 cycles: 2046308943 heartbeat IPC: 0.245083 cumulative IPC: 0.248305 (Simulation time: 0 hr 35 min 33 sec) 
Heartbeat CPU 0 instructions: 600000000 cycles: 2086884164 heartbeat IPC: 0.246456 cumulative IPC: 0.248267 (Simulation time: 0 hr 36 min 12 sec) 
Finished CPU 0 instructions: 500000000 cycles: 2013957543 cumulative IPC: 0.248267 (Simulation time: 0 hr 36 min 12 sec) 

CPU 0 Branch Prediction Accuracy: 96.2429% MPKI: 5.85335
Number of Branches: 77897976 Number of Mispredictions: 2926674
Number of LOAD Instructions: 193081861
Number of LOAD Instructions (ROI): 193081861
Number of STORE Instructions: 97310749
Number of STORE Instructions (ROI): 97310749
Total Destination Memory Operands: 106368027
Total Destination Memory Operands (ROI): 106368027
Total Source Memory Operands: 193081861
Total Source Memory Operands (ROI): 193081861
Number of DEPENDED LOADS: 6436848
Number of DEPENDED LOADS (ROI): 6436848
Number of SQ_ADDED: 106367982
Number of SQ_ADDED (ROI): 106367982
Number of LQ_ADDED: 428495319
Number of LQ_ADDED (ROI): 428495319
Number of Instructions read from trace: 600000256

ChampSim completed all CPUs

Region of Interest Statistics

CPU 0 cumulative IPC: 0.248267 instructions: 500000000 cycles: 2013957543
ITLB TOTAL     ACCESS:  151220050  HIT:  151204219  MISS:      15831
ITLB LOAD      ACCESS:  151220050  HIT:  151204219  MISS:      15831
ITLB RFO       ACCESS:          0  HIT:          0  MISS:          0
ITLB PREFETCH  ACCESS:          0  HIT:          0  MISS:          0
ITLB WRITEBACK ACCESS:          0  HIT:          0  MISS:          0
ITLB PREFETCH  REQUESTED:          0  ISSUED:          0  USEFUL:          0  USELESS:          0
ITLB TOTAL MSHR MERGED:      17441
ITLB LOAD MSHR MERGED:      17441
ITLB RFO MSHR MERGED:          0
ITLB PREFETCH MSHR MERGED:          0
ITLB WRITEBACK MSHR MERGED:          0
ITLB TOTAL ACCESSES:  151237491 HITS:  151204219 MISSES:      33272
ITLB LOAD ACCESSES:  151237491 HITS:  151204219 MISSES:      33272
ITLB RFO ACCESSES:          0 HITS:          0 MISSES:          0
ITLB PREFETCH ACCESSES:          0 HITS:          0 MISSES:          0
ITLB WRITEBACK ACCESSES:          0 HITS:          0 MISSES:          0
ITLB RQ ACCESS:  500000242
ITLB RQ TO_CACHE:  151237491
ITLB RQ MERGED:  348762751
ITLB RQ FORWARD:          0
ITLB WQ ACCESS:          0
ITLB WQ TO_CACHE:          0
ITLB WQ MERGED:          0
ITLB WQ FORWARD:          0
DTLB TOTAL     ACCESS:  199565834  HIT:  194186877  MISS:    5378957
DTLB LOAD      ACCESS:  123137903  HIT:  118119438  MISS:    5018465
DTLB RFO       ACCESS:   76427931  HIT:   76067439  MISS:     360492
DTLB PREFETCH  ACCESS:          0  HIT:          0  MISS:          0
DTLB WRITEBACK ACCESS:          0  HIT:          0  MISS:          0
DTLB PREFETCH  REQUESTED:          0  ISSUED:          0  USEFUL:          0  USELESS:          0
DTLB TOTAL MSHR MERGED:     917320
DTLB LOAD MSHR MERGED:     807628
DTLB RFO MSHR MERGED:     109692
DTLB PREFETCH MSHR MERGED:          0
DTLB WRITEBACK MSHR MERGED:          0
DTLB TOTAL ACCESSES:  200483154 HITS:  194186877 MISSES:    6296277
DTLB LOAD ACCESSES:  123945531 HITS:  118119438 MISSES:    5826093
DTLB RFO ACCESSES:   76537623 HITS:   76067439 MISSES:     470184
DTLB PREFETCH ACCESSES:          0 HITS:          0 MISSES:          0
DTLB WRITEBACK ACCESSES:          0 HITS:          0 MISSES:          0
DTLB RQ ACCESS:  243889237
DTLB RQ TO_CACHE:  200483154
DTLB RQ MERGED:   43406083
DTLB RQ FORWARD:          0
DTLB WQ ACCESS:          0
DTLB WQ TO_CACHE:          0
DTLB WQ MERGED:          0
DTLB WQ FORWARD:          0
L1D TOTAL     ACCESS:  335609982  HIT:  317514030  MISS:   18095952
L1D LOAD      ACCESS:  127695178  HIT:  118747046  MISS:    8948132
L1D RFO       ACCESS:   87099673  HIT:   86314092  MISS:     785581
L1D PREFETCH  ACCESS:  120815131  HIT:  112452892  MISS:    8362239
L1D WRITEBACK ACCESS:          0  HIT:          0  MISS:          0
L1D PREFETCH  REQUESTED:  128479885  ISSUED:  126881931  USEFUL:    1737470  USELESS:    6624781
L1D TOTAL MSHR MERGED:    3856096
L1D LOAD MSHR MERGED:     953834
L1D RFO MSHR MERGED:    1053618
L1D PREFETCH MSHR MERGED:    1848644
L1D WRITEBACK MSHR MERGED:          0
L1D TOTAL ACCESSES:  339551449 HITS:  317599401 MISSES:   21952048
L1D LOAD ACCESSES:  128480336 HITS:  118747497 MISSES:    9732839
L1D RFO ACCESSES:   88088350 HITS:   86314092 MISSES:    1774258
L1D PREFETCH ACCESSES:  122982763 HITS:  112537812 MISSES:   10444951
L1D WRITEBACK ACCESSES:          0 HITS:          0 MISSES:          0
L1D RQ ACCESS:  155257852
L1D RQ TO_CACHE:  128479885
L1D RQ MERGED:   26777516
L1D RQ FORWARD:          0
L1D WQ ACCESS:   88631385
L1D WQ TO_CACHE:   88088349
L1D WQ MERGED:     543036
L1D WQ FORWARD:      85371
L1I TOTAL     ACCESS:  175529689  HIT:  175263235  MISS:     266454
L1I LOAD      ACCESS:  175529689  HIT:  175263235  MISS:     266454
L1I RFO       ACCESS:          0  HIT:          0  MISS:          0
L1I PREFETCH  ACCESS:          0  HIT:          0  MISS:          0
L1I WRITEBACK ACCESS:          0  HIT:          0  MISS:          0
L1I PREFETCH  REQUESTED:          0  ISSUED:          0  USEFUL:          0  USELESS:          0
L1I TOTAL MSHR MERGED:     213730
L1I LOAD MSHR MERGED:     213730
L1I RFO MSHR MERGED:          0
L1I PREFETCH MSHR MERGED:          0
L1I WRITEBACK MSHR MERGED:          0
L1I TOTAL ACCESSES:  175743419 HITS:  175263235 MISSES:     480184
L1I LOAD ACCESSES:  175743419 HITS:  175263235 MISSES:     480184
L1I RFO ACCESSES:          0 HITS:          0 MISSES:          0
L1I PREFETCH ACCESSES:          0 HITS:          0 MISSES:          0
L1I WRITEBACK ACCESSES:          0 HITS:          0 MISSES:          0
L1I RQ ACCESS:  500000242
L1I RQ TO_CACHE:  175743419
L1I RQ MERGED:  324256823
L1I RQ FORWARD:          0
L1I WQ ACCESS:          0
L1I WQ TO_CACHE:          0
L1I WQ MERGED:          0
L1I WQ FORWARD:          0
L2C TOTAL     ACCESS:   23738480  HIT:   12112674  MISS:   11625806
L2C LOAD      ACCESS:    9044274  HIT:    3564706  MISS:    5479568
L2C RFO       ACCESS:     720586  HIT:     130335  MISS:     590251
L2C PREFETCH  ACCESS:    8613289  HIT:    3086002  MISS:    5527287
L2C WRITEBACK ACCESS:    5360331  HIT:    5331631  MISS:      28700
L2C PREFETCH  REQUESTED:      18022  ISSUED:      18022  USEFUL:     323017  USELESS:    5204444
L2C TOTAL MSHR MERGED:         25
L2C LOAD MSHR MERGED:          3
L2C RFO MSHR MERGED:          0
L2C PREFETCH MSHR MERGED:         22
L2C WRITEBACK MSHR MERGED:          0
L2C TOTAL ACCESSES:   23740302 HITS:   12114465 MISSES:   11625837
L2C LOAD ACCESSES:    9045459 HITS:    3565891 MISSES:    5479568
L2C RFO ACCESSES:     720640 HITS:     130389 MISSES:     590251
L2C PREFETCH ACCESSES:    8613872 HITS:    3086554 MISSES:    5527318
L2C WRITEBACK ACCESSES:    5360331 HITS:    5331631 MISSES:      28700
L2C RQ ACCESS:    9766099
L2C RQ TO_CACHE:    9764860
L2C RQ MERGED:          0
L2C RQ FORWARD:          0
L2C WQ ACCESS:    5360331
L2C WQ TO_CACHE:    5360331
L2C WQ MERGED:          0
L2C WQ FORWARD:       1791
LLC TOTAL     ACCESS:   15448721  HIT:    6280017  MISS:    9168704
LLC LOAD      ACCESS:    5479538  HIT:    2025090  MISS:    3454448
LLC RFO       ACCESS:     590249  HIT:     261612  MISS:     328637
LLC PREFETCH  ACCESS:    5527278  HIT:     948456  MISS:    4578822
LLC WRITEBACK ACCESS:    3851656  HIT:    3044859  MISS:     806797
LLC PREFETCH  REQUESTED:          0  ISSUED:          0  USEFUL:      22921  USELESS:    4556495
LLC TOTAL MSHR MERGED:          0
LLC LOAD MSHR MERGED:          0
LLC RFO MSHR MERGED:          0
LLC PREFETCH MSHR MERGED:          0
LLC WRITEBACK MSHR MERGED:          0
LLC TOTAL ACCESSES:   15448768 HITS:    6280064 MISSES:    9168704
LLC LOAD ACCESSES:    5479565 HITS:    2025117 MISSES:    3454448
LLC RFO ACCESSES:     590251 HITS:     261614 MISSES:     328637
LLC PREFETCH ACCESSES:    5527296 HITS:     948474 MISSES:    4578822
LLC WRITEBACK ACCESSES:    3851656 HITS:    3044859 MISSES:     806797
LLC 0 RQ ACCESS:    6069816
LLC 0 RQ TO_CACHE:    6069787
LLC 0 RQ MERGED:          0
LLC 0 RQ FORWARD:          0
LLC WQ ACCESS:    3851656
LLC WQ TO_CACHE:    3851656
LLC WQ MERGED:          0
LLC WQ FORWARD:         47
Major fault: 0 Minor fault: 44814
CPU 0 L1D next line prefetcher final stats
CPU 0 L2C PC-based stride prefetcher final stats
All Misses: 11096406
All Hits: 7524847
SD Algo Stats - Switches: 0 SRR-Repls: 3943282 BRR-Repls: 0

DRAM Statistics
 CHANNEL 0
 RQ ROW_BUFFER_HIT:    1459253  ROW_BUFFER_MISS:    6901142
 DBUS_CONGESTED:    5589597
 WQ ROW_BUFFER_HIT:     176985  ROW_BUFFER_MISS:    2122299  FULL:          0

 AVG_CONGESTED_CYCLE: 13
LOADS RETIRED: 160808997
INSTR RETIRED: 500000000
