
*** ChampSim Multicore Out-of-Order Simulator ***

Warmup Instructions: 100000000
Simulation Instructions: 500000000
Number of CPUs: 1
LLC sets: 2048
LLC ways: 16
Clean RRIP Policies: 323112003231120 Dirty RRIP Policies: 323210003232100 PSEL Width: 10 Track Set: 4294967295 PSEL Mask: 1 Demote Mask: 3233313132333131DS Algo: 0Window size: 0
Off-chip DRAM Size: 4096 MB Channels: 1 Width: 64-bit Data Rate: 1600 MT/s

CPU 0 runs /mnt/beegfs/iconst01/spec2017/Gcc.trace.gz
NOT SORTED
TRACE STRING: /mnt/beegfs/iconst01/spec2017/Gcc.trace.gz
SORTED
TRACE STRING: /mnt/beegfs/iconst01/spec2017/Gcc.trace.gz
INITIAL
TRACE STRING: /mnt/beegfs/iconst01/spec2017/Gcc.trace.gz

champsim_seed used: 269

CPU 0 L1D next line prefetcher
CPU 0 L2C IP-based stride prefetcher
Initialize DRRIP state
Assign rand_sets[0]: 454  LLC: 2048
rand_sets[0]: 454
Assign rand_sets[1]: 1662  LLC: 2048
rand_sets[1]: 1662
Assign rand_sets[2]: 1921  LLC: 2048
rand_sets[2]: 1921
Assign rand_sets[3]: 1131  LLC: 2048
rand_sets[3]: 1131
Assign rand_sets[4]: 331  LLC: 2048
rand_sets[4]: 331
Assign rand_sets[5]: 1531  LLC: 2048
rand_sets[5]: 1531
Assign rand_sets[6]: 482  LLC: 2048
rand_sets[6]: 482
Assign rand_sets[7]: 1275  LLC: 2048
rand_sets[7]: 1275
Assign rand_sets[8]: 1876  LLC: 2048
rand_sets[8]: 1876
Assign rand_sets[9]: 2038  LLC: 2048
rand_sets[9]: 2038
Assign rand_sets[10]: 701  LLC: 2048
rand_sets[10]: 701
Assign rand_sets[11]: 479  LLC: 2048
rand_sets[11]: 479
Assign rand_sets[12]: 892  LLC: 2048
rand_sets[12]: 892
Assign rand_sets[13]: 1820  LLC: 2048
rand_sets[13]: 1820
Assign rand_sets[14]: 1505  LLC: 2048
rand_sets[14]: 1505
Assign rand_sets[15]: 1159  LLC: 2048
rand_sets[15]: 1159
Assign rand_sets[16]: 513  LLC: 2048
rand_sets[16]: 513
Assign rand_sets[17]: 703  LLC: 2048
rand_sets[17]: 703
Assign rand_sets[18]: 561  LLC: 2048
rand_sets[18]: 561
Assign rand_sets[19]: 990  LLC: 2048
rand_sets[19]: 990
Assign rand_sets[20]: 342  LLC: 2048
rand_sets[20]: 342
Assign rand_sets[21]: 882  LLC: 2048
rand_sets[21]: 882
Assign rand_sets[22]: 15  LLC: 2048
rand_sets[22]: 15
Assign rand_sets[23]: 71  LLC: 2048
rand_sets[23]: 71
Assign rand_sets[24]: 1127  LLC: 2048
rand_sets[24]: 1127
Assign rand_sets[25]: 1382  LLC: 2048
rand_sets[25]: 1382
Assign rand_sets[26]: 647  LLC: 2048
rand_sets[26]: 647
Assign rand_sets[27]: 857  LLC: 2048
rand_sets[27]: 857
Assign rand_sets[28]: 1450  LLC: 2048
rand_sets[28]: 1450
Assign rand_sets[29]: 1160  LLC: 2048
rand_sets[29]: 1160
Assign rand_sets[30]: 1852  LLC: 2048
rand_sets[30]: 1852
Assign rand_sets[31]: 1881  LLC: 2048
rand_sets[31]: 1881
Assign rand_sets[32]: 1770  LLC: 2048
rand_sets[32]: 1770
Assign rand_sets[33]: 1622  LLC: 2048
rand_sets[33]: 1622
Assign rand_sets[34]: 275  LLC: 2048
rand_sets[34]: 275
Assign rand_sets[35]: 635  LLC: 2048
rand_sets[35]: 635
Assign rand_sets[36]: 466  LLC: 2048
rand_sets[36]: 466
Assign rand_sets[37]: 1413  LLC: 2048
rand_sets[37]: 1413
Assign rand_sets[38]: 417  LLC: 2048
rand_sets[38]: 417
Assign rand_sets[39]: 472  LLC: 2048
rand_sets[39]: 472
Assign rand_sets[40]: 1340  LLC: 2048
rand_sets[40]: 1340
Assign rand_sets[41]: 852  LLC: 2048
rand_sets[41]: 852
Assign rand_sets[42]: 1365  LLC: 2048
rand_sets[42]: 1365
Assign rand_sets[43]: 47  LLC: 2048
rand_sets[43]: 47
Assign rand_sets[44]: 823  LLC: 2048
rand_sets[44]: 823
Assign rand_sets[45]: 686  LLC: 2048
rand_sets[45]: 686
Assign rand_sets[46]: 1637  LLC: 2048
rand_sets[46]: 1637
Assign rand_sets[47]: 1115  LLC: 2048
rand_sets[47]: 1115
Assign rand_sets[48]: 986  LLC: 2048
rand_sets[48]: 986
Assign rand_sets[49]: 258  LLC: 2048
rand_sets[49]: 258
Assign rand_sets[50]: 633  LLC: 2048
rand_sets[50]: 633
Assign rand_sets[51]: 920  LLC: 2048
rand_sets[51]: 920
Assign rand_sets[52]: 204  LLC: 2048
rand_sets[52]: 204
Assign rand_sets[53]: 227  LLC: 2048
rand_sets[53]: 227
Assign rand_sets[54]: 1818  LLC: 2048
rand_sets[54]: 1818
Assign rand_sets[55]: 886  LLC: 2048
rand_sets[55]: 886
Assign rand_sets[56]: 1422  LLC: 2048
rand_sets[56]: 1422
Assign rand_sets[57]: 607  LLC: 2048
rand_sets[57]: 607
Assign rand_sets[58]: 217  LLC: 2048
rand_sets[58]: 217
Assign rand_sets[59]: 1945  LLC: 2048
rand_sets[59]: 1945
Assign rand_sets[60]: 143  LLC: 2048
rand_sets[60]: 143
Assign rand_sets[61]: 1311  LLC: 2048
rand_sets[61]: 1311
Assign rand_sets[62]: 319  LLC: 2048
rand_sets[62]: 319
Assign rand_sets[63]: 1846  LLC: 2048
rand_sets[63]: 1846
 CLEAN-RRIP-POLICY-1: 0-3-2-3-1-1-2-0- CLEAN-RRIP-POLICY-2: 0-3-2-3-1-1-2-0-
 DIRTY-RRIP-POLICY-1: 0-3-2-3-2-1-0-0- DIRTY-RRIP-POLICY-2: 0-3-2-3-2-1-0-0-
 PSEL width: 10
Heartbeat CPU 0 instructions: 10000001 cycles: 7316010 heartbeat IPC: 1.36687 cumulative IPC: 1.36687 (Simulation time: 0 hr 0 min 16 sec) 
Heartbeat CPU 0 instructions: 20000000 cycles: 14308412 heartbeat IPC: 1.43012 cumulative IPC: 1.39778 (Simulation time: 0 hr 0 min 31 sec) 
Heartbeat CPU 0 instructions: 30000001 cycles: 21022362 heartbeat IPC: 1.48944 cumulative IPC: 1.42705 (Simulation time: 0 hr 0 min 48 sec) 
Heartbeat CPU 0 instructions: 40000000 cycles: 27483752 heartbeat IPC: 1.54765 cumulative IPC: 1.45541 (Simulation time: 0 hr 1 min 5 sec) 
Heartbeat CPU 0 instructions: 50000001 cycles: 33585545 heartbeat IPC: 1.63886 cumulative IPC: 1.48874 (Simulation time: 0 hr 1 min 22 sec) 
Heartbeat CPU 0 instructions: 60000000 cycles: 40066961 heartbeat IPC: 1.54287 cumulative IPC: 1.49749 (Simulation time: 0 hr 1 min 39 sec) 
Heartbeat CPU 0 instructions: 70000000 cycles: 47106238 heartbeat IPC: 1.4206 cumulative IPC: 1.486 (Simulation time: 0 hr 1 min 55 sec) 
Heartbeat CPU 0 instructions: 80000000 cycles: 54197845 heartbeat IPC: 1.41012 cumulative IPC: 1.47607 (Simulation time: 0 hr 2 min 11 sec) 
Heartbeat CPU 0 instructions: 90000003 cycles: 61204364 heartbeat IPC: 1.42724 cumulative IPC: 1.47048 (Simulation time: 0 hr 2 min 27 sec) 
Heartbeat CPU 0 instructions: 100000000 cycles: 68374109 heartbeat IPC: 1.39475 cumulative IPC: 1.46254 (Simulation time: 0 hr 2 min 42 sec) 

Warmup complete CPU 0 instructions: 100000004 cycles: 68374110 (Simulation time: 0 hr 2 min 42 sec) 

Heartbeat CPU 0 instructions: 110000003 cycles: 96591498 heartbeat IPC: 0.354392 cumulative IPC: 0.354391 (Simulation time: 0 hr 3 min 14 sec) 
Heartbeat CPU 0 instructions: 120000000 cycles: 124352789 heartbeat IPC: 0.360214 cumulative IPC: 0.357279 (Simulation time: 0 hr 3 min 45 sec) 
Heartbeat CPU 0 instructions: 130000000 cycles: 149499313 heartbeat IPC: 0.397669 cumulative IPC: 0.369799 (Simulation time: 0 hr 4 min 16 sec) 
Heartbeat CPU 0 instructions: 140000000 cycles: 179768934 heartbeat IPC: 0.330364 cumulative IPC: 0.359083 (Simulation time: 0 hr 4 min 48 sec) 
Heartbeat CPU 0 instructions: 150000000 cycles: 210309901 heartbeat IPC: 0.327429 cumulative IPC: 0.352272 (Simulation time: 0 hr 5 min 19 sec) 
Heartbeat CPU 0 instructions: 160000000 cycles: 237956637 heartbeat IPC: 0.361706 cumulative IPC: 0.35381 (Simulation time: 0 hr 5 min 49 sec) 
Heartbeat CPU 0 instructions: 170000001 cycles: 266245898 heartbeat IPC: 0.353491 cumulative IPC: 0.353764 (Simulation time: 0 hr 6 min 22 sec) 
Heartbeat CPU 0 instructions: 180000000 cycles: 295147476 heartbeat IPC: 0.346002 cumulative IPC: 0.352775 (Simulation time: 0 hr 6 min 54 sec) 
Heartbeat CPU 0 instructions: 190000002 cycles: 323522039 heartbeat IPC: 0.352428 cumulative IPC: 0.352737 (Simulation time: 0 hr 7 min 25 sec) 
Heartbeat CPU 0 instructions: 200000000 cycles: 352323476 heartbeat IPC: 0.347205 cumulative IPC: 0.352175 (Simulation time: 0 hr 7 min 58 sec) 
Heartbeat CPU 0 instructions: 210000002 cycles: 380442103 heartbeat IPC: 0.355636 cumulative IPC: 0.352487 (Simulation time: 0 hr 8 min 29 sec) 
Heartbeat CPU 0 instructions: 220000000 cycles: 410387107 heartbeat IPC: 0.333945 cumulative IPC: 0.350864 (Simulation time: 0 hr 9 min 0 sec) 
Heartbeat CPU 0 instructions: 230000000 cycles: 438380786 heartbeat IPC: 0.357224 cumulative IPC: 0.351345 (Simulation time: 0 hr 9 min 30 sec) 
Heartbeat CPU 0 instructions: 240000000 cycles: 464901847 heartbeat IPC: 0.377059 cumulative IPC: 0.353065 (Simulation time: 0 hr 10 min 0 sec) 
Heartbeat CPU 0 instructions: 250000000 cycles: 495518824 heartbeat IPC: 0.326616 cumulative IPC: 0.351169 (Simulation time: 0 hr 10 min 33 sec) 
Heartbeat CPU 0 instructions: 260000000 cycles: 522913290 heartbeat IPC: 0.365037 cumulative IPC: 0.352005 (Simulation time: 0 hr 11 min 4 sec) 
Heartbeat CPU 0 instructions: 270000003 cycles: 551594745 heartbeat IPC: 0.348657 cumulative IPC: 0.351806 (Simulation time: 0 hr 11 min 36 sec) 
Heartbeat CPU 0 instructions: 280000000 cycles: 580252597 heartbeat IPC: 0.348944 cumulative IPC: 0.351646 (Simulation time: 0 hr 12 min 9 sec) 
Heartbeat CPU 0 instructions: 290000000 cycles: 609415648 heartbeat IPC: 0.3429 cumulative IPC: 0.351175 (Simulation time: 0 hr 12 min 42 sec) 
Heartbeat CPU 0 instructions: 300000000 cycles: 639982452 heartbeat IPC: 0.327152 cumulative IPC: 0.34989 (Simulation time: 0 hr 13 min 13 sec) 
Heartbeat CPU 0 instructions: 310000001 cycles: 669964533 heartbeat IPC: 0.333533 cumulative IPC: 0.349075 (Simulation time: 0 hr 13 min 44 sec) 
Heartbeat CPU 0 instructions: 320000000 cycles: 698746535 heartbeat IPC: 0.347439 cumulative IPC: 0.349 (Simulation time: 0 hr 14 min 15 sec) 
Heartbeat CPU 0 instructions: 330000000 cycles: 727782763 heartbeat IPC: 0.344397 cumulative IPC: 0.348797 (Simulation time: 0 hr 14 min 46 sec) 
Heartbeat CPU 0 instructions: 340000000 cycles: 757705157 heartbeat IPC: 0.334198 cumulative IPC: 0.348164 (Simulation time: 0 hr 15 min 18 sec) 
Heartbeat CPU 0 instructions: 350000003 cycles: 784988239 heartbeat IPC: 0.366528 cumulative IPC: 0.348863 (Simulation time: 0 hr 15 min 48 sec) 
Heartbeat CPU 0 instructions: 360000000 cycles: 814301340 heartbeat IPC: 0.341144 cumulative IPC: 0.348559 (Simulation time: 0 hr 16 min 19 sec) 
Heartbeat CPU 0 instructions: 370000000 cycles: 843555953 heartbeat IPC: 0.341826 cumulative IPC: 0.348305 (Simulation time: 0 hr 16 min 49 sec) 
Heartbeat CPU 0 instructions: 380000000 cycles: 873140005 heartbeat IPC: 0.33802 cumulative IPC: 0.347927 (Simulation time: 0 hr 17 min 19 sec) 
Heartbeat CPU 0 instructions: 390000001 cycles: 901593420 heartbeat IPC: 0.351452 cumulative IPC: 0.348048 (Simulation time: 0 hr 17 min 49 sec) 
Heartbeat CPU 0 instructions: 400000000 cycles: 931232987 heartbeat IPC: 0.337387 cumulative IPC: 0.347681 (Simulation time: 0 hr 18 min 20 sec) 
Heartbeat CPU 0 instructions: 410000001 cycles: 959387685 heartbeat IPC: 0.355181 cumulative IPC: 0.347918 (Simulation time: 0 hr 18 min 50 sec) 
Heartbeat CPU 0 instructions: 420000000 cycles: 987397593 heartbeat IPC: 0.357016 cumulative IPC: 0.348196 (Simulation time: 0 hr 19 min 20 sec) 
Heartbeat CPU 0 instructions: 430000002 cycles: 1015924371 heartbeat IPC: 0.350548 cumulative IPC: 0.348266 (Simulation time: 0 hr 19 min 50 sec) 
Heartbeat CPU 0 instructions: 440000000 cycles: 1046324347 heartbeat IPC: 0.328948 cumulative IPC: 0.347666 (Simulation time: 0 hr 20 min 20 sec) 
Heartbeat CPU 0 instructions: 450000002 cycles: 1076524015 heartbeat IPC: 0.33113 cumulative IPC: 0.347171 (Simulation time: 0 hr 20 min 51 sec) 
Heartbeat CPU 0 instructions: 460000000 cycles: 1105023742 heartbeat IPC: 0.35088 cumulative IPC: 0.347273 (Simulation time: 0 hr 21 min 21 sec) 
Heartbeat CPU 0 instructions: 470000000 cycles: 1133339086 heartbeat IPC: 0.353165 cumulative IPC: 0.347429 (Simulation time: 0 hr 21 min 51 sec) 
Heartbeat CPU 0 instructions: 480000000 cycles: 1161909934 heartbeat IPC: 0.350007 cumulative IPC: 0.347497 (Simulation time: 0 hr 22 min 21 sec) 
Heartbeat CPU 0 instructions: 490000000 cycles: 1190199874 heartbeat IPC: 0.353483 cumulative IPC: 0.347648 (Simulation time: 0 hr 22 min 51 sec) 
Heartbeat CPU 0 instructions: 500000000 cycles: 1219064736 heartbeat IPC: 0.346442 cumulative IPC: 0.347617 (Simulation time: 0 hr 23 min 22 sec) 
Heartbeat CPU 0 instructions: 510000000 cycles: 1254736053 heartbeat IPC: 0.280337 cumulative IPC: 0.345594 (Simulation time: 0 hr 23 min 56 sec) 
Heartbeat CPU 0 instructions: 520000000 cycles: 1283221136 heartbeat IPC: 0.351061 cumulative IPC: 0.345723 (Simulation time: 0 hr 24 min 27 sec) 
Heartbeat CPU 0 instructions: 530000001 cycles: 1313543750 heartbeat IPC: 0.329787 cumulative IPC: 0.345334 (Simulation time: 0 hr 24 min 59 sec) 
Heartbeat CPU 0 instructions: 540000000 cycles: 1342380994 heartbeat IPC: 0.346774 cumulative IPC: 0.345367 (Simulation time: 0 hr 25 min 30 sec) 
Heartbeat CPU 0 instructions: 550000001 cycles: 1372025459 heartbeat IPC: 0.337331 cumulative IPC: 0.345184 (Simulation time: 0 hr 26 min 3 sec) 
Heartbeat CPU 0 instructions: 560000000 cycles: 1397842051 heartbeat IPC: 0.387348 cumulative IPC: 0.346003 (Simulation time: 0 hr 26 min 33 sec) 
Heartbeat CPU 0 instructions: 570000000 cycles: 1428216264 heartbeat IPC: 0.329227 cumulative IPC: 0.345628 (Simulation time: 0 hr 27 min 5 sec) 
Heartbeat CPU 0 instructions: 580000000 cycles: 1456968156 heartbeat IPC: 0.347803 cumulative IPC: 0.345673 (Simulation time: 0 hr 27 min 37 sec) 
Heartbeat CPU 0 instructions: 590000001 cycles: 1482162672 heartbeat IPC: 0.396912 cumulative IPC: 0.346586 (Simulation time: 0 hr 28 min 6 sec) 
Heartbeat CPU 0 instructions: 600000000 cycles: 1509027219 heartbeat IPC: 0.372238 cumulative IPC: 0.347065 (Simulation time: 0 hr 28 min 35 sec) 
Finished CPU 0 instructions: 500000000 cycles: 1440653131 cumulative IPC: 0.347065 (Simulation time: 0 hr 28 min 35 sec) 

CPU 0 Branch Prediction Accuracy: 86.4311% MPKI: 26.2662
Number of Branches: 96788573 Number of Mispredictions: 13133102
Number of LOAD Instructions: 164682285
Number of LOAD Instructions (ROI): 164682285
Number of STORE Instructions: 78194750
Number of STORE Instructions (ROI): 78194750
Total Destination Memory Operands: 83268534
Total Destination Memory Operands (ROI): 83268534
Total Source Memory Operands: 164712438
Total Source Memory Operands (ROI): 164712438
Number of DEPENDED LOADS: 7062434
Number of DEPENDED LOADS (ROI): 7062434
Number of SQ_ADDED: 83268522
Number of SQ_ADDED (ROI): 83268522
Number of LQ_ADDED: 236747335
Number of LQ_ADDED (ROI): 236747335
Number of Instructions read from trace: 600000066

ChampSim completed all CPUs

Region of Interest Statistics

CPU 0 cumulative IPC: 0.347065 instructions: 500000000 cycles: 1440653131
ITLB TOTAL     ACCESS:  100512989  HIT:  100308543  MISS:     204446
ITLB LOAD      ACCESS:  100512989  HIT:  100308543  MISS:     204446
ITLB RFO       ACCESS:          0  HIT:          0  MISS:          0
ITLB PREFETCH  ACCESS:          0  HIT:          0  MISS:          0
ITLB WRITEBACK ACCESS:          0  HIT:          0  MISS:          0
ITLB PREFETCH  REQUESTED:          0  ISSUED:          0  USEFUL:          0  USELESS:          0
ITLB TOTAL MSHR MERGED:     172422
ITLB LOAD MSHR MERGED:     172422
ITLB RFO MSHR MERGED:          0
ITLB PREFETCH MSHR MERGED:          0
ITLB WRITEBACK MSHR MERGED:          0
ITLB TOTAL ACCESSES:  100685411 HITS:  100308543 MISSES:     376868
ITLB LOAD ACCESSES:  100685411 HITS:  100308543 MISSES:     376868
ITLB RFO ACCESSES:          0 HITS:          0 MISSES:          0
ITLB PREFETCH ACCESSES:          0 HITS:          0 MISSES:          0
ITLB WRITEBACK ACCESSES:          0 HITS:          0 MISSES:          0
ITLB RQ ACCESS:  500000057
ITLB RQ TO_CACHE:  100685411
ITLB RQ MERGED:  399314646
ITLB RQ FORWARD:          0
ITLB WQ ACCESS:          0
ITLB WQ TO_CACHE:          0
ITLB WQ MERGED:          0
ITLB WQ FORWARD:          0
DTLB TOTAL     ACCESS:  165340190  HIT:  164705848  MISS:     634342
DTLB LOAD      ACCESS:  106292123  HIT:  105722121  MISS:     570002
DTLB RFO       ACCESS:   59048067  HIT:   58983727  MISS:      64340
DTLB PREFETCH  ACCESS:          0  HIT:          0  MISS:          0
DTLB WRITEBACK ACCESS:          0  HIT:          0  MISS:          0
DTLB PREFETCH  REQUESTED:          0  ISSUED:          0  USEFUL:          0  USELESS:          0
DTLB TOTAL MSHR MERGED:      99743
DTLB LOAD MSHR MERGED:      59269
DTLB RFO MSHR MERGED:      40474
DTLB PREFETCH MSHR MERGED:          0
DTLB WRITEBACK MSHR MERGED:          0
DTLB TOTAL ACCESSES:  165439933 HITS:  164705848 MISSES:     734085
DTLB LOAD ACCESSES:  106351392 HITS:  105722121 MISSES:     629271
DTLB RFO ACCESSES:   59088541 HITS:   58983727 MISSES:     104814
DTLB PREFETCH ACCESSES:          0 HITS:          0 MISSES:          0
DTLB WRITEBACK ACCESSES:          0 HITS:          0 MISSES:          0
DTLB RQ ACCESS:  200308532
DTLB RQ TO_CACHE:  165439933
DTLB RQ MERGED:   34868599
DTLB RQ FORWARD:          0
DTLB WQ ACCESS:          0
DTLB WQ TO_CACHE:          0
DTLB WQ MERGED:          0
DTLB WQ FORWARD:          0
L1D TOTAL     ACCESS:  281785486  HIT:  273876264  MISS:    7909222
L1D LOAD      ACCESS:  110414175  HIT:  107130311  MISS:    3283864
L1D RFO       ACCESS:   67109213  HIT:   66217995  MISS:     891218
L1D PREFETCH  ACCESS:  104262098  HIT:  100527958  MISS:    3734140
L1D WRITEBACK ACCESS:          0  HIT:          0  MISS:          0
L1D PREFETCH  REQUESTED:  110822329  ISSUED:  109122935  USEFUL:    1654959  USELESS:    2079145
L1D TOTAL MSHR MERGED:    2934019
L1D LOAD MSHR MERGED:     511959
L1D RFO MSHR MERGED:    1877210
L1D PREFETCH MSHR MERGED:     544850
L1D WRITEBACK MSHR MERGED:          0
L1D TOTAL ACCESSES:  284747025 HITS:  273903784 MISSES:   10843241
L1D LOAD ACCESSES:  110823852 HITS:  107131834 MISSES:    3692018
L1D RFO ACCESSES:   68973976 HITS:   66217995 MISSES:    2755981
L1D PREFETCH ACCESSES:  104949197 HITS:  100553955 MISSES:    4395242
L1D WRITEBACK ACCESSES:          0 HITS:          0 MISSES:          0
L1D RQ ACCESS:  130755929
L1D RQ TO_CACHE:  110822332
L1D RQ MERGED:   19932074
L1D RQ FORWARD:          0
L1D WQ ACCESS:   69552603
L1D WQ TO_CACHE:   68973977
L1D WQ MERGED:     578626
L1D WQ FORWARD:      27520
L1I TOTAL     ACCESS:  126558116  HIT:  122319567  MISS:    4238549
L1I LOAD      ACCESS:  126558116  HIT:  122319567  MISS:    4238549
L1I RFO       ACCESS:          0  HIT:          0  MISS:          0
L1I PREFETCH  ACCESS:          0  HIT:          0  MISS:          0
L1I WRITEBACK ACCESS:          0  HIT:          0  MISS:          0
L1I PREFETCH  REQUESTED:          0  ISSUED:          0  USEFUL:          0  USELESS:          0
L1I TOTAL MSHR MERGED:    1835938
L1I LOAD MSHR MERGED:    1835938
L1I RFO MSHR MERGED:          0
L1I PREFETCH MSHR MERGED:          0
L1I WRITEBACK MSHR MERGED:          0
L1I TOTAL ACCESSES:  128394057 HITS:  122319567 MISSES:    6074490
L1I LOAD ACCESSES:  128394057 HITS:  122319567 MISSES:    6074490
L1I RFO ACCESSES:          0 HITS:          0 MISSES:          0
L1I PREFETCH ACCESSES:          0 HITS:          0 MISSES:          0
L1I WRITEBACK ACCESSES:          0 HITS:          0 MISSES:          0
L1I RQ ACCESS:  500000057
L1I RQ TO_CACHE:  128394057
L1I RQ MERGED:  371606000
L1I RQ FORWARD:          0
L1I WQ ACCESS:          0
L1I WQ TO_CACHE:          0
L1I WQ MERGED:          0
L1I WQ FORWARD:          0
L2C TOTAL     ACCESS:   14904095  HIT:   11157628  MISS:    3746467
L2C LOAD      ACCESS:    7418402  HIT:    5098415  MISS:    2319987
L2C RFO       ACCESS:     878673  HIT:     409916  MISS:     468757
L2C PREFETCH  ACCESS:    4567807  HIT:    3627342  MISS:     940465
L2C WRITEBACK ACCESS:    2039213  HIT:    2021955  MISS:      17258
L2C PREFETCH  REQUESTED:     842268  ISSUED:     842268  USEFUL:     203161  USELESS:     737010
L2C TOTAL MSHR MERGED:       7672
L2C LOAD MSHR MERGED:        928
L2C RFO MSHR MERGED:          1
L2C PREFETCH MSHR MERGED:       6743
L2C WRITEBACK MSHR MERGED:          0
L2C TOTAL ACCESSES:   14912729 HITS:   11158075 MISSES:    3754654
L2C LOAD ACCESSES:    7418608 HITS:    5098621 MISSES:    2319987
L2C RFO ACCESSES:     878771 HITS:     410014 MISSES:     468757
L2C PREFETCH ACCESSES:    4576137 HITS:    3627485 MISSES:     948652
L2C WRITEBACK ACCESSES:    2039213 HITS:    2021955 MISSES:      17258
L2C RQ ACCESS:    8297382
L2C RQ TO_CACHE:    8297078
L2C RQ MERGED:          0
L2C RQ FORWARD:          0
L2C WQ ACCESS:    2039213
L2C WQ TO_CACHE:    2039213
L2C WQ MERGED:          0
L2C WQ FORWARD:        447
LLC TOTAL     ACCESS:    4609851  HIT:    3555758  MISS:    1054093
LLC LOAD      ACCESS:    2319048  HIT:    1841910  MISS:     477138
LLC RFO       ACCESS:     468747  HIT:     391940  MISS:      76807
LLC PREFETCH  ACCESS:     941767  HIT:     528164  MISS:     413603
LLC WRITEBACK ACCESS:     880289  HIT:     793744  MISS:      86545
LLC PREFETCH  REQUESTED:          0  ISSUED:          0  USEFUL:      12951  USELESS:     401776
LLC TOTAL MSHR MERGED:        118
LLC LOAD MSHR MERGED:         39
LLC RFO MSHR MERGED:          0
LLC PREFETCH MSHR MERGED:         79
LLC WRITEBACK MSHR MERGED:          0
LLC TOTAL ACCESSES:    4610001 HITS:    3555790 MISSES:    1054211
LLC LOAD ACCESSES:    2319059 HITS:    1841921 MISSES:     477138
LLC RFO ACCESSES:     468756 HITS:     391949 MISSES:      76807
LLC PREFETCH ACCESSES:     941897 HITS:     528176 MISSES:     413721
LLC WRITEBACK ACCESSES:     880289 HITS:     793744 MISSES:      86545
LLC 0 RQ ACCESS:    2787815
LLC 0 RQ TO_CACHE:    2787795
LLC 0 RQ MERGED:          0
LLC 0 RQ FORWARD:          0
LLC WQ ACCESS:     880289
LLC WQ TO_CACHE:     880289
LLC WQ MERGED:          0
LLC WQ FORWARD:         32
Major fault: 0 Minor fault: 12862
CPU 0 L1D next line prefetcher final stats
CPU 0 L2C PC-based stride prefetcher final stats
All Misses: 1229015
All Hits: 4197843
SD Algo Stats - Switches: 0 SRR-Repls: 534037 BRR-Repls: 0

DRAM Statistics
 CHANNEL 0
 RQ ROW_BUFFER_HIT:     183476  ROW_BUFFER_MISS:     780545
 DBUS_CONGESTED:     454432
 WQ ROW_BUFFER_HIT:      20263  ROW_BUFFER_MISS:     235006  FULL:          0

 AVG_CONGESTED_CYCLE: 13
LOADS RETIRED: 136549171
INSTR RETIRED: 500000000
