
*** ChampSim Multicore Out-of-Order Simulator ***

Warmup Instructions: 100000000
Simulation Instructions: 500000000
Number of CPUs: 1
LLC sets: 2048
LLC ways: 16
Clean RRIP Policies: 2313230223132302 Dirty RRIP Policies: 1303130213031302 PSEL Width: 10 Track Set: 4294967295 PSEL Mask: 1 Demote Mask: 1240100012401000DS Algo: 0Window size: 0
Off-chip DRAM Size: 4096 MB Channels: 1 Width: 64-bit Data Rate: 1600 MT/s

CPU 0 runs /mnt/beegfs/iconst01/spec2017/cactuBSSN.trace.gz
NOT SORTED
TRACE STRING: /mnt/beegfs/iconst01/spec2017/cactuBSSN.trace.gz
SORTED
TRACE STRING: /mnt/beegfs/iconst01/spec2017/cactuBSSN.trace.gz
INITIAL
TRACE STRING: /mnt/beegfs/iconst01/spec2017/cactuBSSN.trace.gz

champsim_seed used: 838

CPU 0 L1D next line prefetcher
CPU 0 L2C IP-based stride prefetcher
Initialize DRRIP state
Assign rand_sets[0]: 454  LLC: 2048
rand_sets[0]: 454
Assign rand_sets[1]: 1662  LLC: 2048
rand_sets[1]: 1662
Assign rand_sets[2]: 1921  LLC: 2048
rand_sets[2]: 1921
Assign rand_sets[3]: 1131  LLC: 2048
rand_sets[3]: 1131
Assign rand_sets[4]: 331  LLC: 2048
rand_sets[4]: 331
Assign rand_sets[5]: 1531  LLC: 2048
rand_sets[5]: 1531
Assign rand_sets[6]: 482  LLC: 2048
rand_sets[6]: 482
Assign rand_sets[7]: 1275  LLC: 2048
rand_sets[7]: 1275
Assign rand_sets[8]: 1876  LLC: 2048
rand_sets[8]: 1876
Assign rand_sets[9]: 2038  LLC: 2048
rand_sets[9]: 2038
Assign rand_sets[10]: 701  LLC: 2048
rand_sets[10]: 701
Assign rand_sets[11]: 479  LLC: 2048
rand_sets[11]: 479
Assign rand_sets[12]: 892  LLC: 2048
rand_sets[12]: 892
Assign rand_sets[13]: 1820  LLC: 2048
rand_sets[13]: 1820
Assign rand_sets[14]: 1505  LLC: 2048
rand_sets[14]: 1505
Assign rand_sets[15]: 1159  LLC: 2048
rand_sets[15]: 1159
Assign rand_sets[16]: 513  LLC: 2048
rand_sets[16]: 513
Assign rand_sets[17]: 703  LLC: 2048
rand_sets[17]: 703
Assign rand_sets[18]: 561  LLC: 2048
rand_sets[18]: 561
Assign rand_sets[19]: 990  LLC: 2048
rand_sets[19]: 990
Assign rand_sets[20]: 342  LLC: 2048
rand_sets[20]: 342
Assign rand_sets[21]: 882  LLC: 2048
rand_sets[21]: 882
Assign rand_sets[22]: 15  LLC: 2048
rand_sets[22]: 15
Assign rand_sets[23]: 71  LLC: 2048
rand_sets[23]: 71
Assign rand_sets[24]: 1127  LLC: 2048
rand_sets[24]: 1127
Assign rand_sets[25]: 1382  LLC: 2048
rand_sets[25]: 1382
Assign rand_sets[26]: 647  LLC: 2048
rand_sets[26]: 647
Assign rand_sets[27]: 857  LLC: 2048
rand_sets[27]: 857
Assign rand_sets[28]: 1450  LLC: 2048
rand_sets[28]: 1450
Assign rand_sets[29]: 1160  LLC: 2048
rand_sets[29]: 1160
Assign rand_sets[30]: 1852  LLC: 2048
rand_sets[30]: 1852
Assign rand_sets[31]: 1881  LLC: 2048
rand_sets[31]: 1881
Assign rand_sets[32]: 1770  LLC: 2048
rand_sets[32]: 1770
Assign rand_sets[33]: 1622  LLC: 2048
rand_sets[33]: 1622
Assign rand_sets[34]: 275  LLC: 2048
rand_sets[34]: 275
Assign rand_sets[35]: 635  LLC: 2048
rand_sets[35]: 635
Assign rand_sets[36]: 466  LLC: 2048
rand_sets[36]: 466
Assign rand_sets[37]: 1413  LLC: 2048
rand_sets[37]: 1413
Assign rand_sets[38]: 417  LLC: 2048
rand_sets[38]: 417
Assign rand_sets[39]: 472  LLC: 2048
rand_sets[39]: 472
Assign rand_sets[40]: 1340  LLC: 2048
rand_sets[40]: 1340
Assign rand_sets[41]: 852  LLC: 2048
rand_sets[41]: 852
Assign rand_sets[42]: 1365  LLC: 2048
rand_sets[42]: 1365
Assign rand_sets[43]: 47  LLC: 2048
rand_sets[43]: 47
Assign rand_sets[44]: 823  LLC: 2048
rand_sets[44]: 823
Assign rand_sets[45]: 686  LLC: 2048
rand_sets[45]: 686
Assign rand_sets[46]: 1637  LLC: 2048
rand_sets[46]: 1637
Assign rand_sets[47]: 1115  LLC: 2048
rand_sets[47]: 1115
Assign rand_sets[48]: 986  LLC: 2048
rand_sets[48]: 986
Assign rand_sets[49]: 258  LLC: 2048
rand_sets[49]: 258
Assign rand_sets[50]: 633  LLC: 2048
rand_sets[50]: 633
Assign rand_sets[51]: 920  LLC: 2048
rand_sets[51]: 920
Assign rand_sets[52]: 204  LLC: 2048
rand_sets[52]: 204
Assign rand_sets[53]: 227  LLC: 2048
rand_sets[53]: 227
Assign rand_sets[54]: 1818  LLC: 2048
rand_sets[54]: 1818
Assign rand_sets[55]: 886  LLC: 2048
rand_sets[55]: 886
Assign rand_sets[56]: 1422  LLC: 2048
rand_sets[56]: 1422
Assign rand_sets[57]: 607  LLC: 2048
rand_sets[57]: 607
Assign rand_sets[58]: 217  LLC: 2048
rand_sets[58]: 217
Assign rand_sets[59]: 1945  LLC: 2048
rand_sets[59]: 1945
Assign rand_sets[60]: 143  LLC: 2048
rand_sets[60]: 143
Assign rand_sets[61]: 1311  LLC: 2048
rand_sets[61]: 1311
Assign rand_sets[62]: 319  LLC: 2048
rand_sets[62]: 319
Assign rand_sets[63]: 1846  LLC: 2048
rand_sets[63]: 1846
 CLEAN-RRIP-POLICY-1: 2-3-1-3-2-3-0-2- CLEAN-RRIP-POLICY-2: 2-3-1-3-2-3-0-2-
 DIRTY-RRIP-POLICY-1: 1-3-0-3-1-3-0-2- DIRTY-RRIP-POLICY-2: 1-3-0-3-1-3-0-2-
 PSEL width: 10
Heartbeat CPU 0 instructions: 10000000 cycles: 6588002 heartbeat IPC: 1.51791 cumulative IPC: 1.51791 (Simulation time: 0 hr 0 min 25 sec) 
Heartbeat CPU 0 instructions: 20000000 cycles: 13179590 heartbeat IPC: 1.51709 cumulative IPC: 1.5175 (Simulation time: 0 hr 0 min 49 sec) 
Heartbeat CPU 0 instructions: 30000003 cycles: 19772909 heartbeat IPC: 1.51669 cumulative IPC: 1.51723 (Simulation time: 0 hr 1 min 14 sec) 
Heartbeat CPU 0 instructions: 40000000 cycles: 26364654 heartbeat IPC: 1.51705 cumulative IPC: 1.51718 (Simulation time: 0 hr 1 min 38 sec) 
Heartbeat CPU 0 instructions: 50000001 cycles: 32957331 heartbeat IPC: 1.51683 cumulative IPC: 1.51711 (Simulation time: 0 hr 2 min 3 sec) 
Heartbeat CPU 0 instructions: 60000000 cycles: 39556154 heartbeat IPC: 1.51542 cumulative IPC: 1.51683 (Simulation time: 0 hr 2 min 27 sec) 
Heartbeat CPU 0 instructions: 70000003 cycles: 46154526 heartbeat IPC: 1.51553 cumulative IPC: 1.51664 (Simulation time: 0 hr 2 min 52 sec) 
Heartbeat CPU 0 instructions: 80000000 cycles: 52752574 heartbeat IPC: 1.5156 cumulative IPC: 1.51651 (Simulation time: 0 hr 3 min 16 sec) 
Heartbeat CPU 0 instructions: 90000002 cycles: 59348265 heartbeat IPC: 1.51614 cumulative IPC: 1.51647 (Simulation time: 0 hr 3 min 41 sec) 
Heartbeat CPU 0 instructions: 100000000 cycles: 65943306 heartbeat IPC: 1.51629 cumulative IPC: 1.51645 (Simulation time: 0 hr 4 min 5 sec) 

Warmup complete CPU 0 instructions: 100000002 cycles: 65943307 (Simulation time: 0 hr 4 min 5 sec) 

Heartbeat CPU 0 instructions: 110000000 cycles: 79182291 heartbeat IPC: 0.755345 cumulative IPC: 0.755345 (Simulation time: 0 hr 4 min 35 sec) 
Heartbeat CPU 0 instructions: 120000000 cycles: 92375148 heartbeat IPC: 0.757986 cumulative IPC: 0.756663 (Simulation time: 0 hr 5 min 5 sec) 
Heartbeat CPU 0 instructions: 130000001 cycles: 105640058 heartbeat IPC: 0.753869 cumulative IPC: 0.755729 (Simulation time: 0 hr 5 min 35 sec) 
Heartbeat CPU 0 instructions: 140000000 cycles: 118807195 heartbeat IPC: 0.759466 cumulative IPC: 0.75666 (Simulation time: 0 hr 6 min 5 sec) 
Heartbeat CPU 0 instructions: 150000001 cycles: 131990018 heartbeat IPC: 0.758563 cumulative IPC: 0.75704 (Simulation time: 0 hr 6 min 35 sec) 
Heartbeat CPU 0 instructions: 160000000 cycles: 145224570 heartbeat IPC: 0.755598 cumulative IPC: 0.756799 (Simulation time: 0 hr 7 min 5 sec) 
Heartbeat CPU 0 instructions: 170000000 cycles: 158439371 heartbeat IPC: 0.756727 cumulative IPC: 0.756789 (Simulation time: 0 hr 7 min 36 sec) 
Heartbeat CPU 0 instructions: 180000000 cycles: 171636359 heartbeat IPC: 0.757749 cumulative IPC: 0.756909 (Simulation time: 0 hr 8 min 6 sec) 
Heartbeat CPU 0 instructions: 190000000 cycles: 184793775 heartbeat IPC: 0.760028 cumulative IPC: 0.757254 (Simulation time: 0 hr 8 min 36 sec) 
Heartbeat CPU 0 instructions: 200000000 cycles: 198045395 heartbeat IPC: 0.754625 cumulative IPC: 0.75699 (Simulation time: 0 hr 9 min 6 sec) 
Heartbeat CPU 0 instructions: 210000002 cycles: 211257001 heartbeat IPC: 0.75691 cumulative IPC: 0.756983 (Simulation time: 0 hr 9 min 36 sec) 
Heartbeat CPU 0 instructions: 220000000 cycles: 224436140 heartbeat IPC: 0.758775 cumulative IPC: 0.757132 (Simulation time: 0 hr 10 min 6 sec) 
Heartbeat CPU 0 instructions: 230000003 cycles: 237679195 heartbeat IPC: 0.755113 cumulative IPC: 0.756976 (Simulation time: 0 hr 10 min 36 sec) 
Heartbeat CPU 0 instructions: 240000000 cycles: 250865801 heartbeat IPC: 0.758345 cumulative IPC: 0.757074 (Simulation time: 0 hr 11 min 6 sec) 
Heartbeat CPU 0 instructions: 250000001 cycles: 264081667 heartbeat IPC: 0.756666 cumulative IPC: 0.757047 (Simulation time: 0 hr 11 min 36 sec) 
Heartbeat CPU 0 instructions: 260000000 cycles: 277289932 heartbeat IPC: 0.757102 cumulative IPC: 0.75705 (Simulation time: 0 hr 12 min 6 sec) 
Heartbeat CPU 0 instructions: 270000003 cycles: 290532061 heartbeat IPC: 0.755166 cumulative IPC: 0.756939 (Simulation time: 0 hr 12 min 36 sec) 
Heartbeat CPU 0 instructions: 280000000 cycles: 303732515 heartbeat IPC: 0.757549 cumulative IPC: 0.756973 (Simulation time: 0 hr 13 min 6 sec) 
Heartbeat CPU 0 instructions: 290000000 cycles: 316900962 heartbeat IPC: 0.759391 cumulative IPC: 0.7571 (Simulation time: 0 hr 13 min 36 sec) 
Heartbeat CPU 0 instructions: 300000000 cycles: 330156388 heartbeat IPC: 0.754408 cumulative IPC: 0.756965 (Simulation time: 0 hr 14 min 5 sec) 
Heartbeat CPU 0 instructions: 310000001 cycles: 343329939 heartbeat IPC: 0.759097 cumulative IPC: 0.757066 (Simulation time: 0 hr 14 min 35 sec) 
Heartbeat CPU 0 instructions: 320000000 cycles: 356522959 heartbeat IPC: 0.757976 cumulative IPC: 0.757107 (Simulation time: 0 hr 15 min 5 sec) 
Heartbeat CPU 0 instructions: 330000002 cycles: 369714514 heartbeat IPC: 0.758061 cumulative IPC: 0.757149 (Simulation time: 0 hr 15 min 35 sec) 
Heartbeat CPU 0 instructions: 340000000 cycles: 382953795 heartbeat IPC: 0.755328 cumulative IPC: 0.757073 (Simulation time: 0 hr 16 min 5 sec) 
Heartbeat CPU 0 instructions: 350000000 cycles: 396209421 heartbeat IPC: 0.754397 cumulative IPC: 0.756965 (Simulation time: 0 hr 16 min 35 sec) 
Heartbeat CPU 0 instructions: 360000000 cycles: 409428493 heartbeat IPC: 0.756483 cumulative IPC: 0.756947 (Simulation time: 0 hr 17 min 4 sec) 
Heartbeat CPU 0 instructions: 370000002 cycles: 422704290 heartbeat IPC: 0.753251 cumulative IPC: 0.756809 (Simulation time: 0 hr 17 min 34 sec) 
Heartbeat CPU 0 instructions: 380000000 cycles: 435912764 heartbeat IPC: 0.75709 cumulative IPC: 0.756819 (Simulation time: 0 hr 18 min 4 sec) 
Heartbeat CPU 0 instructions: 390000000 cycles: 449085810 heartbeat IPC: 0.759126 cumulative IPC: 0.756899 (Simulation time: 0 hr 18 min 34 sec) 
Heartbeat CPU 0 instructions: 400000000 cycles: 462282824 heartbeat IPC: 0.757747 cumulative IPC: 0.756927 (Simulation time: 0 hr 19 min 4 sec) 
Heartbeat CPU 0 instructions: 410000001 cycles: 475534703 heartbeat IPC: 0.75461 cumulative IPC: 0.756852 (Simulation time: 0 hr 19 min 33 sec) 
Heartbeat CPU 0 instructions: 420000000 cycles: 488715907 heartbeat IPC: 0.758656 cumulative IPC: 0.756908 (Simulation time: 0 hr 20 min 3 sec) 
Heartbeat CPU 0 instructions: 430000001 cycles: 501900635 heartbeat IPC: 0.758453 cumulative IPC: 0.756955 (Simulation time: 0 hr 20 min 33 sec) 
Heartbeat CPU 0 instructions: 440000000 cycles: 515064277 heartbeat IPC: 0.759668 cumulative IPC: 0.757034 (Simulation time: 0 hr 21 min 3 sec) 
Heartbeat CPU 0 instructions: 450000002 cycles: 528373229 heartbeat IPC: 0.751374 cumulative IPC: 0.756871 (Simulation time: 0 hr 21 min 32 sec) 
Heartbeat CPU 0 instructions: 460000000 cycles: 541591440 heartbeat IPC: 0.756532 cumulative IPC: 0.756862 (Simulation time: 0 hr 22 min 2 sec) 
Heartbeat CPU 0 instructions: 470000003 cycles: 554790089 heartbeat IPC: 0.757654 cumulative IPC: 0.756883 (Simulation time: 0 hr 22 min 32 sec) 
Heartbeat CPU 0 instructions: 480000000 cycles: 568036428 heartbeat IPC: 0.754925 cumulative IPC: 0.756832 (Simulation time: 0 hr 23 min 2 sec) 
Heartbeat CPU 0 instructions: 490000000 cycles: 581259519 heartbeat IPC: 0.756253 cumulative IPC: 0.756817 (Simulation time: 0 hr 23 min 31 sec) 
Heartbeat CPU 0 instructions: 500000000 cycles: 594456635 heartbeat IPC: 0.757741 cumulative IPC: 0.75684 (Simulation time: 0 hr 24 min 1 sec) 
Heartbeat CPU 0 instructions: 510000001 cycles: 607632548 heartbeat IPC: 0.758961 cumulative IPC: 0.756892 (Simulation time: 0 hr 24 min 31 sec) 
Heartbeat CPU 0 instructions: 520000000 cycles: 620928431 heartbeat IPC: 0.752112 cumulative IPC: 0.756777 (Simulation time: 0 hr 25 min 1 sec) 
Heartbeat CPU 0 instructions: 530000000 cycles: 634175359 heartbeat IPC: 0.754892 cumulative IPC: 0.756733 (Simulation time: 0 hr 25 min 30 sec) 
Heartbeat CPU 0 instructions: 540000000 cycles: 647405177 heartbeat IPC: 0.755868 cumulative IPC: 0.756713 (Simulation time: 0 hr 26 min 0 sec) 
Heartbeat CPU 0 instructions: 550000002 cycles: 660666670 heartbeat IPC: 0.754063 cumulative IPC: 0.756654 (Simulation time: 0 hr 26 min 30 sec) 
Heartbeat CPU 0 instructions: 560000000 cycles: 673864357 heartbeat IPC: 0.757708 cumulative IPC: 0.756677 (Simulation time: 0 hr 27 min 0 sec) 
Heartbeat CPU 0 instructions: 570000001 cycles: 687069593 heartbeat IPC: 0.757275 cumulative IPC: 0.75669 (Simulation time: 0 hr 27 min 29 sec) 
Heartbeat CPU 0 instructions: 580000000 cycles: 700283027 heartbeat IPC: 0.756805 cumulative IPC: 0.756692 (Simulation time: 0 hr 27 min 59 sec) 
Heartbeat CPU 0 instructions: 590000003 cycles: 713517011 heartbeat IPC: 0.755631 cumulative IPC: 0.756671 (Simulation time: 0 hr 28 min 29 sec) 
Heartbeat CPU 0 instructions: 600000000 cycles: 726776537 heartbeat IPC: 0.754175 cumulative IPC: 0.756621 (Simulation time: 0 hr 28 min 59 sec) 
Finished CPU 0 instructions: 500000000 cycles: 660833240 cumulative IPC: 0.756621 (Simulation time: 0 hr 28 min 59 sec) 

CPU 0 Branch Prediction Accuracy: 99.968% MPKI: 0.002246
Number of Branches: 3513331 Number of Mispredictions: 1123
Number of LOAD Instructions: 287251172
Number of LOAD Instructions (ROI): 287251172
Number of STORE Instructions: 51060820
Number of STORE Instructions (ROI): 51060820
Total Destination Memory Operands: 51166221
Total Destination Memory Operands (ROI): 51166221
Total Source Memory Operands: 287251172
Total Source Memory Operands (ROI): 287251172
Number of DEPENDED LOADS: 9555366
Number of DEPENDED LOADS (ROI): 9555366
Number of SQ_ADDED: 51166208
Number of SQ_ADDED (ROI): 51166208
Number of LQ_ADDED: 290422488
Number of LQ_ADDED (ROI): 290422488
Number of Instructions read from trace: 600000257

ChampSim completed all CPUs

Region of Interest Statistics

CPU 0 cumulative IPC: 0.756621 instructions: 500000000 cycles: 660833240
ITLB TOTAL     ACCESS:  108951630  HIT:  108951630  MISS:          0
ITLB LOAD      ACCESS:  108951630  HIT:  108951630  MISS:          0
ITLB RFO       ACCESS:          0  HIT:          0  MISS:          0
ITLB PREFETCH  ACCESS:          0  HIT:          0  MISS:          0
ITLB WRITEBACK ACCESS:          0  HIT:          0  MISS:          0
ITLB PREFETCH  REQUESTED:          0  ISSUED:          0  USEFUL:          0  USELESS:          0
ITLB TOTAL MSHR MERGED:          0
ITLB LOAD MSHR MERGED:          0
ITLB RFO MSHR MERGED:          0
ITLB PREFETCH MSHR MERGED:          0
ITLB WRITEBACK MSHR MERGED:          0
ITLB TOTAL ACCESSES:  108951630 HITS:  108951630 MISSES:          0
ITLB LOAD ACCESSES:  108951630 HITS:  108951630 MISSES:          0
ITLB RFO ACCESSES:          0 HITS:          0 MISSES:          0
ITLB PREFETCH ACCESSES:          0 HITS:          0 MISSES:          0
ITLB WRITEBACK ACCESSES:          0 HITS:          0 MISSES:          0
ITLB RQ ACCESS:  500000001
ITLB RQ TO_CACHE:  108951630
ITLB RQ MERGED:  391048371
ITLB RQ FORWARD:          0
ITLB WQ ACCESS:          0
ITLB WQ TO_CACHE:          0
ITLB WQ MERGED:          0
ITLB WQ FORWARD:          0
DTLB TOTAL     ACCESS:  171132182  HIT:  161115871  MISS:   10016311
DTLB LOAD      ACCESS:  143472513  HIT:  135596452  MISS:    7876061
DTLB RFO       ACCESS:   27659669  HIT:   25519419  MISS:    2140250
DTLB PREFETCH  ACCESS:          0  HIT:          0  MISS:          0
DTLB WRITEBACK ACCESS:          0  HIT:          0  MISS:          0
DTLB PREFETCH  REQUESTED:          0  ISSUED:          0  USEFUL:          0  USELESS:          0
DTLB TOTAL MSHR MERGED:     360385
DTLB LOAD MSHR MERGED:     360385
DTLB RFO MSHR MERGED:          0
DTLB PREFETCH MSHR MERGED:          0
DTLB WRITEBACK MSHR MERGED:          0
DTLB TOTAL ACCESSES:  171492567 HITS:  161115871 MISSES:   10376696
DTLB LOAD ACCESSES:  143832898 HITS:  135596452 MISSES:    8236446
DTLB RFO ACCESSES:   27659669 HITS:   25519419 MISSES:    2140250
DTLB PREFETCH ACCESSES:          0 HITS:          0 MISSES:          0
DTLB WRITEBACK ACCESSES:          0 HITS:          0 MISSES:          0
DTLB RQ ACCESS:  274072451
DTLB RQ TO_CACHE:  171492567
DTLB RQ MERGED:  102579884
DTLB RQ FORWARD:          0
DTLB WQ ACCESS:          0
DTLB WQ TO_CACHE:          0
DTLB WQ MERGED:          0
DTLB WQ FORWARD:          0
L1D TOTAL     ACCESS:  350927198  HIT:  283727305  MISS:   67199893
L1D LOAD      ACCESS:  175625248  HIT:  142585608  MISS:   33039640
L1D RFO       ACCESS:   42018926  HIT:   39213159  MISS:    2805767
L1D PREFETCH  ACCESS:  133283024  HIT:  101928538  MISS:   31354486
L1D WRITEBACK ACCESS:          0  HIT:          0  MISS:          0
L1D PREFETCH  REQUESTED:  176229306  ISSUED:  175290964  USEFUL:    2180348  USELESS:   29174140
L1D TOTAL MSHR MERGED:    1483814
L1D LOAD MSHR MERGED:     703961
L1D RFO MSHR MERGED:     350092
L1D PREFETCH MSHR MERGED:     429761
L1D WRITEBACK MSHR MERGED:          0
L1D TOTAL ACCESSES:  352525205 HITS:  283841498 MISSES:   68683707
L1D LOAD ACCESSES:  176237333 HITS:  142593635 MISSES:   33643698
L1D RFO ACCESSES:   42368326 HITS:   39213159 MISSES:    3155167
L1D PREFETCH ACCESSES:  133919546 HITS:  102034704 MISSES:   31884842
L1D WRITEBACK ACCESSES:          0 HITS:          0 MISSES:          0
L1D RQ ACCESS:  231433978
L1D RQ TO_CACHE:  176229306
L1D RQ MERGED:   55196645
L1D RQ FORWARD:          0
L1D WQ ACCESS:   42638475
L1D WQ TO_CACHE:   42368326
L1D WQ MERGED:     270149
L1D WQ FORWARD:     114193
L1I TOTAL     ACCESS:  109345238  HIT:   77829534  MISS:   31515704
L1I LOAD      ACCESS:  109345238  HIT:   77829534  MISS:   31515704
L1I RFO       ACCESS:          0  HIT:          0  MISS:          0
L1I PREFETCH  ACCESS:          0  HIT:          0  MISS:          0
L1I WRITEBACK ACCESS:          0  HIT:          0  MISS:          0
L1I PREFETCH  REQUESTED:          0  ISSUED:          0  USEFUL:          0  USELESS:          0
L1I TOTAL MSHR MERGED:   30750172
L1I LOAD MSHR MERGED:   30750172
L1I RFO MSHR MERGED:          0
L1I PREFETCH MSHR MERGED:          0
L1I WRITEBACK MSHR MERGED:          0
L1I TOTAL ACCESSES:  140095412 HITS:   77829534 MISSES:   62265878
L1I LOAD ACCESSES:  140095412 HITS:   77829534 MISSES:   62265878
L1I RFO ACCESSES:          0 HITS:          0 MISSES:          0
L1I PREFETCH ACCESSES:          0 HITS:          0 MISSES:          0
L1I WRITEBACK ACCESSES:          0 HITS:          0 MISSES:          0
L1I RQ ACCESS:  500000003
L1I RQ TO_CACHE:  140095412
L1I RQ MERGED:  359904591
L1I RQ FORWARD:          0
L1I WQ ACCESS:          0
L1I WQ TO_CACHE:          0
L1I WQ MERGED:          0
L1I WQ FORWARD:          0
L2C TOTAL     ACCESS:  113691654  HIT:  110690885  MISS:    3000769
L2C LOAD      ACCESS:   64453566  HIT:   63893496  MISS:     560070
L2C RFO       ACCESS:    2803186  HIT:    2194013  MISS:     609173
L2C PREFETCH  ACCESS:   43273988  HIT:   41448761  MISS:    1825227
L2C WRITEBACK ACCESS:    3160914  HIT:    3154615  MISS:       6299
L2C PREFETCH  REQUESTED:   15134589  ISSUED:   14621048  USEFUL:    1700550  USELESS:     124683
L2C TOTAL MSHR MERGED:      12953
L2C LOAD MSHR MERGED:          0
L2C RFO MSHR MERGED:          0
L2C PREFETCH MSHR MERGED:      12953
L2C WRITEBACK MSHR MERGED:          0
L2C TOTAL ACCESSES:  113907325 HITS:  110696755 MISSES:    3210570
L2C LOAD ACCESSES:   64455442 HITS:   63895371 MISSES:     560071
L2C RFO ACCESSES:    2805075 HITS:    2195902 MISSES:     609173
L2C PREFETCH ACCESSES:   43485894 HITS:   41450867 MISSES:    2035027
L2C WRITEBACK ACCESSES:    3160914 HITS:    3154615 MISSES:       6299
L2C RQ ACCESS:   67260518
L2C RQ TO_CACHE:   67256754
L2C RQ MERGED:          0
L2C RQ FORWARD:          0
L2C WQ ACCESS:    3160914
L2C WQ TO_CACHE:    3160914
L2C WQ MERGED:          0
L2C WQ FORWARD:       5870
LLC TOTAL     ACCESS:    3721808  HIT:    1761855  MISS:    1959953
LLC LOAD      ACCESS:     560041  HIT:     493558  MISS:      66483
LLC RFO       ACCESS:     527182  HIT:     238538  MISS:     288644
LLC PREFETCH  ACCESS:    2016382  HIT:     580104  MISS:    1436278
LLC WRITEBACK ACCESS:     618203  HIT:     449655  MISS:     168548
LLC PREFETCH  REQUESTED:          0  ISSUED:          0  USEFUL:      43301  USELESS:    1391198
LLC TOTAL MSHR MERGED:       5069
LLC LOAD MSHR MERGED:          0
LLC RFO MSHR MERGED:          0
LLC PREFETCH MSHR MERGED:       5069
LLC WRITEBACK MSHR MERGED:          0
LLC TOTAL ACCESSES:    3808981 HITS:    1843959 MISSES:    1965022
LLC LOAD ACCESSES:     560070 HITS:     493587 MISSES:      66483
LLC RFO ACCESSES:     609173 HITS:     320529 MISSES:     288644
LLC PREFETCH ACCESSES:    2021535 HITS:     580188 MISSES:    1441347
LLC WRITEBACK ACCESSES:     618203 HITS:     449655 MISSES:     168548
LLC 0 RQ ACCESS:    1169244
LLC 0 RQ TO_CACHE:    1087224
LLC 0 RQ MERGED:          0
LLC 0 RQ FORWARD:          0
LLC WQ ACCESS:     618203
LLC WQ TO_CACHE:     618203
LLC WQ MERGED:          0
LLC WQ FORWARD:      82104
Major fault: 0 Minor fault: 12800
CPU 0 L1D next line prefetcher final stats
CPU 0 L2C PC-based stride prefetcher final stats
All Misses: 2362665
All Hits: 2210087
SD Algo Stats - Switches: 0 SRR-Repls: 84271 BRR-Repls: 0

DRAM Statistics
 CHANNEL 0
 RQ ROW_BUFFER_HIT:     894256  ROW_BUFFER_MISS:     896618
 DBUS_CONGESTED:     964579
 WQ ROW_BUFFER_HIT:      44332  ROW_BUFFER_MISS:     253421  FULL:          0

 AVG_CONGESTED_CYCLE: 13
LOADS RETIRED: 239375970
INSTR RETIRED: 500000000
