
*** ChampSim Multicore Out-of-Order Simulator ***

Warmup Instructions: 100000000
Simulation Instructions: 500000000
Number of CPUs: 1
LLC sets: 2048
LLC ways: 16
Clean RRIP Policies: 2313230223132302 Dirty RRIP Policies: 1303130213031302 PSEL Width: 10 Track Set: 4294967295 PSEL Mask: 1 Demote Mask: 1240100012401000DS Algo: 0Window size: 0
Off-chip DRAM Size: 4096 MB Channels: 1 Width: 64-bit Data Rate: 1600 MT/s

CPU 0 runs /mnt/beegfs/iconst01/spec2017/Cam4.trace.gz
NOT SORTED
TRACE STRING: /mnt/beegfs/iconst01/spec2017/Cam4.trace.gz
SORTED
TRACE STRING: /mnt/beegfs/iconst01/spec2017/Cam4.trace.gz
INITIAL
TRACE STRING: /mnt/beegfs/iconst01/spec2017/Cam4.trace.gz

champsim_seed used: 325

CPU 0 L1D next line prefetcher
CPU 0 L2C IP-based stride prefetcher
Initialize DRRIP state
Assign rand_sets[0]: 454  LLC: 2048
rand_sets[0]: 454
Assign rand_sets[1]: 1662  LLC: 2048
rand_sets[1]: 1662
Assign rand_sets[2]: 1921  LLC: 2048
rand_sets[2]: 1921
Assign rand_sets[3]: 1131  LLC: 2048
rand_sets[3]: 1131
Assign rand_sets[4]: 331  LLC: 2048
rand_sets[4]: 331
Assign rand_sets[5]: 1531  LLC: 2048
rand_sets[5]: 1531
Assign rand_sets[6]: 482  LLC: 2048
rand_sets[6]: 482
Assign rand_sets[7]: 1275  LLC: 2048
rand_sets[7]: 1275
Assign rand_sets[8]: 1876  LLC: 2048
rand_sets[8]: 1876
Assign rand_sets[9]: 2038  LLC: 2048
rand_sets[9]: 2038
Assign rand_sets[10]: 701  LLC: 2048
rand_sets[10]: 701
Assign rand_sets[11]: 479  LLC: 2048
rand_sets[11]: 479
Assign rand_sets[12]: 892  LLC: 2048
rand_sets[12]: 892
Assign rand_sets[13]: 1820  LLC: 2048
rand_sets[13]: 1820
Assign rand_sets[14]: 1505  LLC: 2048
rand_sets[14]: 1505
Assign rand_sets[15]: 1159  LLC: 2048
rand_sets[15]: 1159
Assign rand_sets[16]: 513  LLC: 2048
rand_sets[16]: 513
Assign rand_sets[17]: 703  LLC: 2048
rand_sets[17]: 703
Assign rand_sets[18]: 561  LLC: 2048
rand_sets[18]: 561
Assign rand_sets[19]: 990  LLC: 2048
rand_sets[19]: 990
Assign rand_sets[20]: 342  LLC: 2048
rand_sets[20]: 342
Assign rand_sets[21]: 882  LLC: 2048
rand_sets[21]: 882
Assign rand_sets[22]: 15  LLC: 2048
rand_sets[22]: 15
Assign rand_sets[23]: 71  LLC: 2048
rand_sets[23]: 71
Assign rand_sets[24]: 1127  LLC: 2048
rand_sets[24]: 1127
Assign rand_sets[25]: 1382  LLC: 2048
rand_sets[25]: 1382
Assign rand_sets[26]: 647  LLC: 2048
rand_sets[26]: 647
Assign rand_sets[27]: 857  LLC: 2048
rand_sets[27]: 857
Assign rand_sets[28]: 1450  LLC: 2048
rand_sets[28]: 1450
Assign rand_sets[29]: 1160  LLC: 2048
rand_sets[29]: 1160
Assign rand_sets[30]: 1852  LLC: 2048
rand_sets[30]: 1852
Assign rand_sets[31]: 1881  LLC: 2048
rand_sets[31]: 1881
Assign rand_sets[32]: 1770  LLC: 2048
rand_sets[32]: 1770
Assign rand_sets[33]: 1622  LLC: 2048
rand_sets[33]: 1622
Assign rand_sets[34]: 275  LLC: 2048
rand_sets[34]: 275
Assign rand_sets[35]: 635  LLC: 2048
rand_sets[35]: 635
Assign rand_sets[36]: 466  LLC: 2048
rand_sets[36]: 466
Assign rand_sets[37]: 1413  LLC: 2048
rand_sets[37]: 1413
Assign rand_sets[38]: 417  LLC: 2048
rand_sets[38]: 417
Assign rand_sets[39]: 472  LLC: 2048
rand_sets[39]: 472
Assign rand_sets[40]: 1340  LLC: 2048
rand_sets[40]: 1340
Assign rand_sets[41]: 852  LLC: 2048
rand_sets[41]: 852
Assign rand_sets[42]: 1365  LLC: 2048
rand_sets[42]: 1365
Assign rand_sets[43]: 47  LLC: 2048
rand_sets[43]: 47
Assign rand_sets[44]: 823  LLC: 2048
rand_sets[44]: 823
Assign rand_sets[45]: 686  LLC: 2048
rand_sets[45]: 686
Assign rand_sets[46]: 1637  LLC: 2048
rand_sets[46]: 1637
Assign rand_sets[47]: 1115  LLC: 2048
rand_sets[47]: 1115
Assign rand_sets[48]: 986  LLC: 2048
rand_sets[48]: 986
Assign rand_sets[49]: 258  LLC: 2048
rand_sets[49]: 258
Assign rand_sets[50]: 633  LLC: 2048
rand_sets[50]: 633
Assign rand_sets[51]: 920  LLC: 2048
rand_sets[51]: 920
Assign rand_sets[52]: 204  LLC: 2048
rand_sets[52]: 204
Assign rand_sets[53]: 227  LLC: 2048
rand_sets[53]: 227
Assign rand_sets[54]: 1818  LLC: 2048
rand_sets[54]: 1818
Assign rand_sets[55]: 886  LLC: 2048
rand_sets[55]: 886
Assign rand_sets[56]: 1422  LLC: 2048
rand_sets[56]: 1422
Assign rand_sets[57]: 607  LLC: 2048
rand_sets[57]: 607
Assign rand_sets[58]: 217  LLC: 2048
rand_sets[58]: 217
Assign rand_sets[59]: 1945  LLC: 2048
rand_sets[59]: 1945
Assign rand_sets[60]: 143  LLC: 2048
rand_sets[60]: 143
Assign rand_sets[61]: 1311  LLC: 2048
rand_sets[61]: 1311
Assign rand_sets[62]: 319  LLC: 2048
rand_sets[62]: 319
Assign rand_sets[63]: 1846  LLC: 2048
rand_sets[63]: 1846
 CLEAN-RRIP-POLICY-1: 2-3-1-3-2-3-0-2- CLEAN-RRIP-POLICY-2: 2-3-1-3-2-3-0-2-
 DIRTY-RRIP-POLICY-1: 1-3-0-3-1-3-0-2- DIRTY-RRIP-POLICY-2: 1-3-0-3-1-3-0-2-
 PSEL width: 10
Heartbeat CPU 0 instructions: 10000000 cycles: 4859184 heartbeat IPC: 2.05796 cumulative IPC: 2.05796 (Simulation time: 0 hr 0 min 17 sec) 
Heartbeat CPU 0 instructions: 20000000 cycles: 9790793 heartbeat IPC: 2.02774 cumulative IPC: 2.04274 (Simulation time: 0 hr 0 min 33 sec) 
Heartbeat CPU 0 instructions: 30000001 cycles: 14563056 heartbeat IPC: 2.09544 cumulative IPC: 2.06001 (Simulation time: 0 hr 0 min 48 sec) 
Heartbeat CPU 0 instructions: 40000000 cycles: 19400255 heartbeat IPC: 2.06731 cumulative IPC: 2.06183 (Simulation time: 0 hr 1 min 5 sec) 
Heartbeat CPU 0 instructions: 50000000 cycles: 24256837 heartbeat IPC: 2.05906 cumulative IPC: 2.06127 (Simulation time: 0 hr 1 min 21 sec) 
Heartbeat CPU 0 instructions: 60000000 cycles: 29182147 heartbeat IPC: 2.03033 cumulative IPC: 2.05605 (Simulation time: 0 hr 1 min 38 sec) 
Heartbeat CPU 0 instructions: 70000001 cycles: 33956412 heartbeat IPC: 2.09456 cumulative IPC: 2.06147 (Simulation time: 0 hr 1 min 53 sec) 
Heartbeat CPU 0 instructions: 80000000 cycles: 38792720 heartbeat IPC: 2.06769 cumulative IPC: 2.06224 (Simulation time: 0 hr 2 min 10 sec) 
Heartbeat CPU 0 instructions: 90000002 cycles: 43646803 heartbeat IPC: 2.06012 cumulative IPC: 2.06201 (Simulation time: 0 hr 2 min 27 sec) 
Heartbeat CPU 0 instructions: 100000000 cycles: 48565409 heartbeat IPC: 2.0331 cumulative IPC: 2.05908 (Simulation time: 0 hr 2 min 44 sec) 

Warmup complete CPU 0 instructions: 100000001 cycles: 48565410 (Simulation time: 0 hr 2 min 44 sec) 

Heartbeat CPU 0 instructions: 110000000 cycles: 61592278 heartbeat IPC: 0.767644 cumulative IPC: 0.767644 (Simulation time: 0 hr 3 min 7 sec) 
Heartbeat CPU 0 instructions: 120000000 cycles: 75338460 heartbeat IPC: 0.727475 cumulative IPC: 0.74702 (Simulation time: 0 hr 3 min 32 sec) 
Heartbeat CPU 0 instructions: 130000000 cycles: 89080380 heartbeat IPC: 0.7277 cumulative IPC: 0.740467 (Simulation time: 0 hr 3 min 56 sec) 
Heartbeat CPU 0 instructions: 140000000 cycles: 103284821 heartbeat IPC: 0.704005 cumulative IPC: 0.731002 (Simulation time: 0 hr 4 min 22 sec) 
Heartbeat CPU 0 instructions: 150000003 cycles: 116401560 heartbeat IPC: 0.762385 cumulative IPC: 0.73707 (Simulation time: 0 hr 4 min 44 sec) 
Heartbeat CPU 0 instructions: 160000000 cycles: 130139289 heartbeat IPC: 0.727922 cumulative IPC: 0.73553 (Simulation time: 0 hr 5 min 9 sec) 
Heartbeat CPU 0 instructions: 170000001 cycles: 143919838 heartbeat IPC: 0.725661 cumulative IPC: 0.734103 (Simulation time: 0 hr 5 min 35 sec) 
Heartbeat CPU 0 instructions: 180000000 cycles: 158113647 heartbeat IPC: 0.704532 cumulative IPC: 0.730272 (Simulation time: 0 hr 6 min 0 sec) 
Heartbeat CPU 0 instructions: 190000003 cycles: 171194543 heartbeat IPC: 0.764474 cumulative IPC: 0.73392 (Simulation time: 0 hr 6 min 22 sec) 
Heartbeat CPU 0 instructions: 200000000 cycles: 184928815 heartbeat IPC: 0.728105 cumulative IPC: 0.733335 (Simulation time: 0 hr 6 min 47 sec) 
Heartbeat CPU 0 instructions: 210000002 cycles: 198710505 heartbeat IPC: 0.725601 cumulative IPC: 0.732625 (Simulation time: 0 hr 7 min 13 sec) 
Heartbeat CPU 0 instructions: 220000000 cycles: 212905113 heartbeat IPC: 0.704493 cumulative IPC: 0.730195 (Simulation time: 0 hr 7 min 38 sec) 
Heartbeat CPU 0 instructions: 230000001 cycles: 225933448 heartbeat IPC: 0.767558 cumulative IPC: 0.732939 (Simulation time: 0 hr 8 min 0 sec) 
Heartbeat CPU 0 instructions: 240000000 cycles: 239651492 heartbeat IPC: 0.728967 cumulative IPC: 0.732654 (Simulation time: 0 hr 8 min 25 sec) 
Heartbeat CPU 0 instructions: 250000001 cycles: 253378212 heartbeat IPC: 0.728506 cumulative IPC: 0.732376 (Simulation time: 0 hr 8 min 50 sec) 
Heartbeat CPU 0 instructions: 260000000 cycles: 267485413 heartbeat IPC: 0.708858 cumulative IPC: 0.730861 (Simulation time: 0 hr 9 min 15 sec) 
Heartbeat CPU 0 instructions: 270000003 cycles: 280647608 heartbeat IPC: 0.759752 cumulative IPC: 0.732499 (Simulation time: 0 hr 9 min 38 sec) 
Heartbeat CPU 0 instructions: 280000000 cycles: 294380444 heartbeat IPC: 0.728181 cumulative IPC: 0.732258 (Simulation time: 0 hr 10 min 3 sec) 
Heartbeat CPU 0 instructions: 290000001 cycles: 308152635 heartbeat IPC: 0.726101 cumulative IPC: 0.731931 (Simulation time: 0 hr 10 min 28 sec) 
Heartbeat CPU 0 instructions: 300000000 cycles: 322216851 heartbeat IPC: 0.711024 cumulative IPC: 0.730857 (Simulation time: 0 hr 10 min 53 sec) 
Heartbeat CPU 0 instructions: 310000000 cycles: 335390859 heartbeat IPC: 0.75907 cumulative IPC: 0.732153 (Simulation time: 0 hr 11 min 15 sec) 
Heartbeat CPU 0 instructions: 320000000 cycles: 349154182 heartbeat IPC: 0.726569 cumulative IPC: 0.731897 (Simulation time: 0 hr 11 min 40 sec) 
Heartbeat CPU 0 instructions: 330000000 cycles: 362939696 heartbeat IPC: 0.725399 cumulative IPC: 0.731612 (Simulation time: 0 hr 12 min 4 sec) 
Heartbeat CPU 0 instructions: 340000000 cycles: 376986129 heartbeat IPC: 0.711924 cumulative IPC: 0.73077 (Simulation time: 0 hr 12 min 29 sec) 
Heartbeat CPU 0 instructions: 350000000 cycles: 390209922 heartbeat IPC: 0.756213 cumulative IPC: 0.731755 (Simulation time: 0 hr 12 min 51 sec) 
Heartbeat CPU 0 instructions: 360000000 cycles: 403995073 heartbeat IPC: 0.725418 cumulative IPC: 0.731509 (Simulation time: 0 hr 13 min 15 sec) 
Heartbeat CPU 0 instructions: 370000003 cycles: 417783025 heartbeat IPC: 0.725271 cumulative IPC: 0.731276 (Simulation time: 0 hr 13 min 39 sec) 
Heartbeat CPU 0 instructions: 380000000 cycles: 431795815 heartbeat IPC: 0.713634 cumulative IPC: 0.730631 (Simulation time: 0 hr 14 min 4 sec) 
Heartbeat CPU 0 instructions: 390000003 cycles: 445017238 heartbeat IPC: 0.756348 cumulative IPC: 0.731489 (Simulation time: 0 hr 14 min 26 sec) 
Heartbeat CPU 0 instructions: 400000000 cycles: 458795383 heartbeat IPC: 0.725787 cumulative IPC: 0.731297 (Simulation time: 0 hr 14 min 50 sec) 
Heartbeat CPU 0 instructions: 410000000 cycles: 472550805 heartbeat IPC: 0.726986 cumulative IPC: 0.731157 (Simulation time: 0 hr 15 min 15 sec) 
Heartbeat CPU 0 instructions: 420000000 cycles: 486552383 heartbeat IPC: 0.714205 cumulative IPC: 0.730615 (Simulation time: 0 hr 15 min 39 sec) 
Heartbeat CPU 0 instructions: 430000003 cycles: 499817135 heartbeat IPC: 0.753878 cumulative IPC: 0.731299 (Simulation time: 0 hr 16 min 1 sec) 
Heartbeat CPU 0 instructions: 440000000 cycles: 513594898 heartbeat IPC: 0.725807 cumulative IPC: 0.731136 (Simulation time: 0 hr 16 min 26 sec) 
Heartbeat CPU 0 instructions: 450000000 cycles: 527365393 heartbeat IPC: 0.72619 cumulative IPC: 0.730994 (Simulation time: 0 hr 16 min 50 sec) 
Heartbeat CPU 0 instructions: 460000000 cycles: 541346218 heartbeat IPC: 0.715265 cumulative IPC: 0.730548 (Simulation time: 0 hr 17 min 14 sec) 
Heartbeat CPU 0 instructions: 470000001 cycles: 554521568 heartbeat IPC: 0.758993 cumulative IPC: 0.731289 (Simulation time: 0 hr 17 min 36 sec) 
Heartbeat CPU 0 instructions: 480000000 cycles: 568277734 heartbeat IPC: 0.726947 cumulative IPC: 0.731174 (Simulation time: 0 hr 18 min 1 sec) 
Heartbeat CPU 0 instructions: 490000002 cycles: 582029490 heartbeat IPC: 0.72718 cumulative IPC: 0.731071 (Simulation time: 0 hr 18 min 25 sec) 
Heartbeat CPU 0 instructions: 500000000 cycles: 596009821 heartbeat IPC: 0.71529 cumulative IPC: 0.730668 (Simulation time: 0 hr 18 min 50 sec) 
Heartbeat CPU 0 instructions: 510000002 cycles: 609234524 heartbeat IPC: 0.756161 cumulative IPC: 0.731269 (Simulation time: 0 hr 19 min 12 sec) 
Heartbeat CPU 0 instructions: 520000000 cycles: 622982745 heartbeat IPC: 0.727367 cumulative IPC: 0.731176 (Simulation time: 0 hr 19 min 36 sec) 
Heartbeat CPU 0 instructions: 530000003 cycles: 636719095 heartbeat IPC: 0.727996 cumulative IPC: 0.731101 (Simulation time: 0 hr 20 min 0 sec) 
Heartbeat CPU 0 instructions: 540000000 cycles: 650725900 heartbeat IPC: 0.713938 cumulative IPC: 0.730702 (Simulation time: 0 hr 20 min 25 sec) 
Heartbeat CPU 0 instructions: 550000003 cycles: 663942926 heartbeat IPC: 0.7566 cumulative IPC: 0.731258 (Simulation time: 0 hr 20 min 47 sec) 
Heartbeat CPU 0 instructions: 560000000 cycles: 677669128 heartbeat IPC: 0.728533 cumulative IPC: 0.731199 (Simulation time: 0 hr 21 min 11 sec) 
Heartbeat CPU 0 instructions: 570000001 cycles: 691430489 heartbeat IPC: 0.726672 cumulative IPC: 0.731102 (Simulation time: 0 hr 21 min 36 sec) 
Heartbeat CPU 0 instructions: 580000000 cycles: 705457755 heartbeat IPC: 0.712897 cumulative IPC: 0.730713 (Simulation time: 0 hr 22 min 0 sec) 
Heartbeat CPU 0 instructions: 590000000 cycles: 718610362 heartbeat IPC: 0.760306 cumulative IPC: 0.731294 (Simulation time: 0 hr 22 min 22 sec) 
Heartbeat CPU 0 instructions: 600000000 cycles: 732343860 heartbeat IPC: 0.728147 cumulative IPC: 0.731231 (Simulation time: 0 hr 22 min 46 sec) 
Finished CPU 0 instructions: 500000001 cycles: 683778458 cumulative IPC: 0.731231 (Simulation time: 0 hr 22 min 46 sec) 

CPU 0 Branch Prediction Accuracy: 97.5275% MPKI: 2.1997
Number of Branches: 44482865 Number of Mispredictions: 1099852
Number of LOAD Instructions: 144955155
Number of LOAD Instructions (ROI): 144955155
Number of STORE Instructions: 55921098
Number of STORE Instructions (ROI): 55921098
Total Destination Memory Operands: 57111147
Total Destination Memory Operands (ROI): 57111147
Total Source Memory Operands: 144955155
Total Source Memory Operands (ROI): 144955155
Number of DEPENDED LOADS: 13454738
Number of DEPENDED LOADS (ROI): 13454738
Number of SQ_ADDED: 57111126
Number of SQ_ADDED (ROI): 57111126
Number of LQ_ADDED: 174702925
Number of LQ_ADDED (ROI): 174702925
Number of Instructions read from trace: 600000256

ChampSim completed all CPUs

Region of Interest Statistics

CPU 0 cumulative IPC: 0.731231 instructions: 500000001 cycles: 683778458
ITLB TOTAL     ACCESS:  136083249  HIT:  136080696  MISS:       2553
ITLB LOAD      ACCESS:  136083249  HIT:  136080696  MISS:       2553
ITLB RFO       ACCESS:          0  HIT:          0  MISS:          0
ITLB PREFETCH  ACCESS:          0  HIT:          0  MISS:          0
ITLB WRITEBACK ACCESS:          0  HIT:          0  MISS:          0
ITLB PREFETCH  REQUESTED:          0  ISSUED:          0  USEFUL:          0  USELESS:          0
ITLB TOTAL MSHR MERGED:       4378
ITLB LOAD MSHR MERGED:       4378
ITLB RFO MSHR MERGED:          0
ITLB PREFETCH MSHR MERGED:          0
ITLB WRITEBACK MSHR MERGED:          0
ITLB TOTAL ACCESSES:  136087627 HITS:  136080696 MISSES:       6931
ITLB LOAD ACCESSES:  136087627 HITS:  136080696 MISSES:       6931
ITLB RFO ACCESSES:          0 HITS:          0 MISSES:          0
ITLB PREFETCH ACCESSES:          0 HITS:          0 MISSES:          0
ITLB WRITEBACK ACCESSES:          0 HITS:          0 MISSES:          0
ITLB RQ ACCESS:  500000202
ITLB RQ TO_CACHE:  136087627
ITLB RQ MERGED:  363912575
ITLB RQ FORWARD:          0
ITLB WQ ACCESS:          0
ITLB WQ TO_CACHE:          0
ITLB WQ MERGED:          0
ITLB WQ FORWARD:          0
DTLB TOTAL     ACCESS:  111538571  HIT:  111402377  MISS:     136194
DTLB LOAD      ACCESS:   78944509  HIT:   78818883  MISS:     125626
DTLB RFO       ACCESS:   32594062  HIT:   32583494  MISS:      10568
DTLB PREFETCH  ACCESS:          0  HIT:          0  MISS:          0
DTLB WRITEBACK ACCESS:          0  HIT:          0  MISS:          0
DTLB PREFETCH  REQUESTED:          0  ISSUED:          0  USEFUL:          0  USELESS:          0
DTLB TOTAL MSHR MERGED:      63890
DTLB LOAD MSHR MERGED:      51251
DTLB RFO MSHR MERGED:      12639
DTLB PREFETCH MSHR MERGED:          0
DTLB WRITEBACK MSHR MERGED:          0
DTLB TOTAL ACCESSES:  111602461 HITS:  111402377 MISSES:     200084
DTLB LOAD ACCESSES:   78995760 HITS:   78818883 MISSES:     176877
DTLB RFO ACCESSES:   32606701 HITS:   32583494 MISSES:      23207
DTLB PREFETCH ACCESSES:          0 HITS:          0 MISSES:          0
DTLB WRITEBACK ACCESSES:          0 HITS:          0 MISSES:          0
DTLB RQ ACCESS:  157180696
DTLB RQ TO_CACHE:  111602461
DTLB RQ MERGED:   45578235
DTLB RQ FORWARD:          0
DTLB WQ ACCESS:          0
DTLB WQ TO_CACHE:          0
DTLB WQ MERGED:          0
DTLB WQ FORWARD:          0
L1D TOTAL     ACCESS:  198102248  HIT:  188261268  MISS:    9840980
L1D LOAD      ACCESS:   79931556  HIT:   75648587  MISS:    4282969
L1D RFO       ACCESS:   44498033  HIT:   43597683  MISS:     900350
L1D PREFETCH  ACCESS:   73672659  HIT:   69014998  MISS:    4657661
L1D WRITEBACK ACCESS:          0  HIT:          0  MISS:          0
L1D PREFETCH  REQUESTED:   80340847  ISSUED:   79885061  USEFUL:    1799389  USELESS:    2858181
L1D TOTAL MSHR MERGED:    2621300
L1D LOAD MSHR MERGED:     553564
L1D RFO MSHR MERGED:    1454829
L1D PREFETCH MSHR MERGED:     612907
L1D WRITEBACK MSHR MERGED:          0
L1D TOTAL ACCESSES:  200745132 HITS:  188282852 MISSES:   12462280
L1D LOAD ACCESSES:   80353843 HITS:   75661583 MISSES:    4692260
L1D RFO ACCESSES:   45949939 HITS:   43597683 MISSES:    2352256
L1D PREFETCH ACCESSES:   74441350 HITS:   69023586 MISSES:    5417764
L1D WRITEBACK ACCESSES:          0 HITS:          0 MISSES:          0
L1D RQ ACCESS:  109538726
L1D RQ TO_CACHE:   80340847
L1D RQ MERGED:   29184883
L1D RQ FORWARD:          0
L1D WQ ACCESS:   47641970
L1D WQ TO_CACHE:   45949939
L1D WQ MERGED:    1692031
L1D WQ FORWARD:      21584
L1I TOTAL     ACCESS:  161557880  HIT:  161293904  MISS:     263976
L1I LOAD      ACCESS:  161557880  HIT:  161293904  MISS:     263976
L1I RFO       ACCESS:          0  HIT:          0  MISS:          0
L1I PREFETCH  ACCESS:          0  HIT:          0  MISS:          0
L1I WRITEBACK ACCESS:          0  HIT:          0  MISS:          0
L1I PREFETCH  REQUESTED:          0  ISSUED:          0  USEFUL:          0  USELESS:          0
L1I TOTAL MSHR MERGED:     259434
L1I LOAD MSHR MERGED:     259434
L1I RFO MSHR MERGED:          0
L1I PREFETCH MSHR MERGED:          0
L1I WRITEBACK MSHR MERGED:          0
L1I TOTAL ACCESSES:  161817314 HITS:  161293904 MISSES:     523410
L1I LOAD ACCESSES:  161817314 HITS:  161293904 MISSES:     523410
L1I RFO ACCESSES:          0 HITS:          0 MISSES:          0
L1I PREFETCH ACCESSES:          0 HITS:          0 MISSES:          0
L1I WRITEBACK ACCESSES:          0 HITS:          0 MISSES:          0
L1I RQ ACCESS:  500000202
L1I RQ TO_CACHE:  161817314
L1I RQ MERGED:  338182888
L1I RQ FORWARD:          0
L1I WQ ACCESS:          0
L1I WQ TO_CACHE:          0
L1I WQ MERGED:          0
L1I WQ FORWARD:          0
L2C TOTAL     ACCESS:   11772197  HIT:   10381606  MISS:    1390591
L2C LOAD      ACCESS:    4402608  HIT:    3905394  MISS:     497214
L2C RFO       ACCESS:     897362  HIT:     536326  MISS:     361036
L2C PREFETCH  ACCESS:    5284749  HIT:    4755358  MISS:     529391
L2C WRITEBACK ACCESS:    1187478  HIT:    1184528  MISS:       2950
L2C PREFETCH  REQUESTED:     504864  ISSUED:     504864  USEFUL:     115267  USELESS:     414312
L2C TOTAL MSHR MERGED:       1905
L2C LOAD MSHR MERGED:        354
L2C RFO MSHR MERGED:          0
L2C PREFETCH MSHR MERGED:       1551
L2C WRITEBACK MSHR MERGED:          0
L2C TOTAL ACCESSES:   11776539 HITS:   10381826 MISSES:    1394713
L2C LOAD ACCESSES:    4402672 HITS:    3905458 MISSES:     497214
L2C RFO ACCESSES:     897427 HITS:     536391 MISSES:     361036
L2C PREFETCH ACCESSES:    5288962 HITS:    4755449 MISSES:     533513
L2C WRITEBACK ACCESSES:    1187478 HITS:    1184528 MISSES:       2950
L2C RQ ACCESS:    5300099
L2C RQ TO_CACHE:    5299970
L2C RQ MERGED:          0
L2C RQ FORWARD:          0
L2C WQ ACCESS:    1187478
L2C WQ TO_CACHE:    1187478
L2C WQ MERGED:          0
L2C WQ FORWARD:        220
LLC TOTAL     ACCESS:    1850461  HIT:    1109312  MISS:     741149
LLC LOAD      ACCESS:     496857  HIT:     319852  MISS:     177005
LLC RFO       ACCESS:     361032  HIT:     198797  MISS:     162235
LLC PREFETCH  ACCESS:     531872  HIT:     284975  MISS:     246897
LLC WRITEBACK ACCESS:     460700  HIT:     305688  MISS:     155012
LLC PREFETCH  REQUESTED:          0  ISSUED:          0  USEFUL:       2326  USELESS:     244687
LLC TOTAL MSHR MERGED:         60
LLC LOAD MSHR MERGED:         21
LLC RFO MSHR MERGED:          0
LLC PREFETCH MSHR MERGED:         39
LLC WRITEBACK MSHR MERGED:          0
LLC TOTAL ACCESSES:    1850550 HITS:    1109341 MISSES:     741209
LLC LOAD ACCESSES:     496860 HITS:     319855 MISSES:     177005
LLC RFO ACCESSES:     361036 HITS:     198801 MISSES:     162235
LLC PREFETCH ACCESSES:     531954 HITS:     284997 MISSES:     246957
LLC WRITEBACK ACCESSES:     460700 HITS:     305688 MISSES:     155012
LLC 0 RQ ACCESS:     857896
LLC 0 RQ TO_CACHE:     857889
LLC 0 RQ MERGED:          0
LLC 0 RQ FORWARD:          0
LLC WQ ACCESS:     460700
LLC WQ TO_CACHE:     460700
LLC WQ MERGED:          0
LLC WQ FORWARD:         29
Major fault: 0 Minor fault: 3073
CPU 0 L1D next line prefetcher final stats
CPU 0 L2C PC-based stride prefetcher final stats
All Misses: 915595
All Hits: 1261766
SD Algo Stats - Switches: 0 SRR-Repls: 209946 BRR-Repls: 0

DRAM Statistics
 CHANNEL 0
 RQ ROW_BUFFER_HIT:     376257  ROW_BUFFER_MISS:     209324
 DBUS_CONGESTED:     453882
 WQ ROW_BUFFER_HIT:      64871  ROW_BUFFER_MISS:     104667  FULL:      30621

 AVG_CONGESTED_CYCLE: 13
LOADS RETIRED: 120673965
INSTR RETIRED: 500000000
