
*** ChampSim Multicore Out-of-Order Simulator ***

Warmup Instructions: 100000000
Simulation Instructions: 500000000
Number of CPUs: 1
LLC sets: 2048
LLC ways: 16
Clean RRIP Policies: 2313230223132302 Dirty RRIP Policies: 1303130213031302 PSEL Width: 10 Track Set: 4294967295 PSEL Mask: 1 Demote Mask: 1240100012401000DS Algo: 0Window size: 0
Off-chip DRAM Size: 4096 MB Channels: 1 Width: 64-bit Data Rate: 1600 MT/s

CPU 0 runs /mnt/beegfs/iconst01/spec2017/Xalancbmk.trace.gz
NOT SORTED
TRACE STRING: /mnt/beegfs/iconst01/spec2017/Xalancbmk.trace.gz
SORTED
TRACE STRING: /mnt/beegfs/iconst01/spec2017/Xalancbmk.trace.gz
INITIAL
TRACE STRING: /mnt/beegfs/iconst01/spec2017/Xalancbmk.trace.gz

champsim_seed used: 913

CPU 0 L1D next line prefetcher
CPU 0 L2C IP-based stride prefetcher
Initialize DRRIP state
Assign rand_sets[0]: 454  LLC: 2048
rand_sets[0]: 454
Assign rand_sets[1]: 1662  LLC: 2048
rand_sets[1]: 1662
Assign rand_sets[2]: 1921  LLC: 2048
rand_sets[2]: 1921
Assign rand_sets[3]: 1131  LLC: 2048
rand_sets[3]: 1131
Assign rand_sets[4]: 331  LLC: 2048
rand_sets[4]: 331
Assign rand_sets[5]: 1531  LLC: 2048
rand_sets[5]: 1531
Assign rand_sets[6]: 482  LLC: 2048
rand_sets[6]: 482
Assign rand_sets[7]: 1275  LLC: 2048
rand_sets[7]: 1275
Assign rand_sets[8]: 1876  LLC: 2048
rand_sets[8]: 1876
Assign rand_sets[9]: 2038  LLC: 2048
rand_sets[9]: 2038
Assign rand_sets[10]: 701  LLC: 2048
rand_sets[10]: 701
Assign rand_sets[11]: 479  LLC: 2048
rand_sets[11]: 479
Assign rand_sets[12]: 892  LLC: 2048
rand_sets[12]: 892
Assign rand_sets[13]: 1820  LLC: 2048
rand_sets[13]: 1820
Assign rand_sets[14]: 1505  LLC: 2048
rand_sets[14]: 1505
Assign rand_sets[15]: 1159  LLC: 2048
rand_sets[15]: 1159
Assign rand_sets[16]: 513  LLC: 2048
rand_sets[16]: 513
Assign rand_sets[17]: 703  LLC: 2048
rand_sets[17]: 703
Assign rand_sets[18]: 561  LLC: 2048
rand_sets[18]: 561
Assign rand_sets[19]: 990  LLC: 2048
rand_sets[19]: 990
Assign rand_sets[20]: 342  LLC: 2048
rand_sets[20]: 342
Assign rand_sets[21]: 882  LLC: 2048
rand_sets[21]: 882
Assign rand_sets[22]: 15  LLC: 2048
rand_sets[22]: 15
Assign rand_sets[23]: 71  LLC: 2048
rand_sets[23]: 71
Assign rand_sets[24]: 1127  LLC: 2048
rand_sets[24]: 1127
Assign rand_sets[25]: 1382  LLC: 2048
rand_sets[25]: 1382
Assign rand_sets[26]: 647  LLC: 2048
rand_sets[26]: 647
Assign rand_sets[27]: 857  LLC: 2048
rand_sets[27]: 857
Assign rand_sets[28]: 1450  LLC: 2048
rand_sets[28]: 1450
Assign rand_sets[29]: 1160  LLC: 2048
rand_sets[29]: 1160
Assign rand_sets[30]: 1852  LLC: 2048
rand_sets[30]: 1852
Assign rand_sets[31]: 1881  LLC: 2048
rand_sets[31]: 1881
Assign rand_sets[32]: 1770  LLC: 2048
rand_sets[32]: 1770
Assign rand_sets[33]: 1622  LLC: 2048
rand_sets[33]: 1622
Assign rand_sets[34]: 275  LLC: 2048
rand_sets[34]: 275
Assign rand_sets[35]: 635  LLC: 2048
rand_sets[35]: 635
Assign rand_sets[36]: 466  LLC: 2048
rand_sets[36]: 466
Assign rand_sets[37]: 1413  LLC: 2048
rand_sets[37]: 1413
Assign rand_sets[38]: 417  LLC: 2048
rand_sets[38]: 417
Assign rand_sets[39]: 472  LLC: 2048
rand_sets[39]: 472
Assign rand_sets[40]: 1340  LLC: 2048
rand_sets[40]: 1340
Assign rand_sets[41]: 852  LLC: 2048
rand_sets[41]: 852
Assign rand_sets[42]: 1365  LLC: 2048
rand_sets[42]: 1365
Assign rand_sets[43]: 47  LLC: 2048
rand_sets[43]: 47
Assign rand_sets[44]: 823  LLC: 2048
rand_sets[44]: 823
Assign rand_sets[45]: 686  LLC: 2048
rand_sets[45]: 686
Assign rand_sets[46]: 1637  LLC: 2048
rand_sets[46]: 1637
Assign rand_sets[47]: 1115  LLC: 2048
rand_sets[47]: 1115
Assign rand_sets[48]: 986  LLC: 2048
rand_sets[48]: 986
Assign rand_sets[49]: 258  LLC: 2048
rand_sets[49]: 258
Assign rand_sets[50]: 633  LLC: 2048
rand_sets[50]: 633
Assign rand_sets[51]: 920  LLC: 2048
rand_sets[51]: 920
Assign rand_sets[52]: 204  LLC: 2048
rand_sets[52]: 204
Assign rand_sets[53]: 227  LLC: 2048
rand_sets[53]: 227
Assign rand_sets[54]: 1818  LLC: 2048
rand_sets[54]: 1818
Assign rand_sets[55]: 886  LLC: 2048
rand_sets[55]: 886
Assign rand_sets[56]: 1422  LLC: 2048
rand_sets[56]: 1422
Assign rand_sets[57]: 607  LLC: 2048
rand_sets[57]: 607
Assign rand_sets[58]: 217  LLC: 2048
rand_sets[58]: 217
Assign rand_sets[59]: 1945  LLC: 2048
rand_sets[59]: 1945
Assign rand_sets[60]: 143  LLC: 2048
rand_sets[60]: 143
Assign rand_sets[61]: 1311  LLC: 2048
rand_sets[61]: 1311
Assign rand_sets[62]: 319  LLC: 2048
rand_sets[62]: 319
Assign rand_sets[63]: 1846  LLC: 2048
rand_sets[63]: 1846
 CLEAN-RRIP-POLICY-1: 2-3-1-3-2-3-0-2- CLEAN-RRIP-POLICY-2: 2-3-1-3-2-3-0-2-
 DIRTY-RRIP-POLICY-1: 1-3-0-3-1-3-0-2- DIRTY-RRIP-POLICY-2: 1-3-0-3-1-3-0-2-
 PSEL width: 10
Heartbeat CPU 0 instructions: 10000003 cycles: 4592426 heartbeat IPC: 2.1775 cumulative IPC: 2.1775 (Simulation time: 0 hr 0 min 15 sec) 
Heartbeat CPU 0 instructions: 20000000 cycles: 8984742 heartbeat IPC: 2.2767 cumulative IPC: 2.226 (Simulation time: 0 hr 0 min 28 sec) 
Heartbeat CPU 0 instructions: 30000000 cycles: 13393643 heartbeat IPC: 2.26814 cumulative IPC: 2.23987 (Simulation time: 0 hr 0 min 42 sec) 
Heartbeat CPU 0 instructions: 40000000 cycles: 18021953 heartbeat IPC: 2.16062 cumulative IPC: 2.21952 (Simulation time: 0 hr 0 min 58 sec) 
Heartbeat CPU 0 instructions: 50000002 cycles: 22438169 heartbeat IPC: 2.26438 cumulative IPC: 2.22835 (Simulation time: 0 hr 1 min 11 sec) 
Heartbeat CPU 0 instructions: 60000000 cycles: 27093558 heartbeat IPC: 2.14805 cumulative IPC: 2.21455 (Simulation time: 0 hr 1 min 27 sec) 
Heartbeat CPU 0 instructions: 70000003 cycles: 31498187 heartbeat IPC: 2.27034 cumulative IPC: 2.22235 (Simulation time: 0 hr 1 min 41 sec) 
Heartbeat CPU 0 instructions: 80000000 cycles: 35918679 heartbeat IPC: 2.26219 cumulative IPC: 2.22725 (Simulation time: 0 hr 1 min 55 sec) 
Heartbeat CPU 0 instructions: 90000002 cycles: 40373806 heartbeat IPC: 2.24461 cumulative IPC: 2.22917 (Simulation time: 0 hr 2 min 9 sec) 
Heartbeat CPU 0 instructions: 100000000 cycles: 44845242 heartbeat IPC: 2.23642 cumulative IPC: 2.22989 (Simulation time: 0 hr 2 min 23 sec) 

Warmup complete CPU 0 instructions: 100000003 cycles: 44845243 (Simulation time: 0 hr 2 min 23 sec) 

Heartbeat CPU 0 instructions: 110000000 cycles: 71821334 heartbeat IPC: 0.370699 cumulative IPC: 0.370699 (Simulation time: 0 hr 2 min 53 sec) 
Heartbeat CPU 0 instructions: 120000000 cycles: 100350896 heartbeat IPC: 0.350514 cumulative IPC: 0.360324 (Simulation time: 0 hr 3 min 25 sec) 
Heartbeat CPU 0 instructions: 130000000 cycles: 123715636 heartbeat IPC: 0.427995 cumulative IPC: 0.380371 (Simulation time: 0 hr 3 min 53 sec) 
Heartbeat CPU 0 instructions: 140000000 cycles: 146331579 heartbeat IPC: 0.442166 cumulative IPC: 0.394142 (Simulation time: 0 hr 4 min 20 sec) 
Heartbeat CPU 0 instructions: 150000000 cycles: 170716674 heartbeat IPC: 0.410087 cumulative IPC: 0.397231 (Simulation time: 0 hr 4 min 49 sec) 
Heartbeat CPU 0 instructions: 160000000 cycles: 195664456 heartbeat IPC: 0.400837 cumulative IPC: 0.397827 (Simulation time: 0 hr 5 min 17 sec) 
Heartbeat CPU 0 instructions: 170000002 cycles: 217023322 heartbeat IPC: 0.46819 cumulative IPC: 0.406556 (Simulation time: 0 hr 5 min 44 sec) 
Heartbeat CPU 0 instructions: 180000000 cycles: 239451483 heartbeat IPC: 0.445868 cumulative IPC: 0.411086 (Simulation time: 0 hr 6 min 11 sec) 
Heartbeat CPU 0 instructions: 190000000 cycles: 258401257 heartbeat IPC: 0.527711 cumulative IPC: 0.421435 (Simulation time: 0 hr 6 min 36 sec) 
Heartbeat CPU 0 instructions: 200000000 cycles: 279337196 heartbeat IPC: 0.477648 cumulative IPC: 0.426454 (Simulation time: 0 hr 7 min 2 sec) 
Heartbeat CPU 0 instructions: 210000001 cycles: 305749357 heartbeat IPC: 0.378614 cumulative IPC: 0.421611 (Simulation time: 0 hr 7 min 32 sec) 
Heartbeat CPU 0 instructions: 220000000 cycles: 331535895 heartbeat IPC: 0.387799 cumulative IPC: 0.41857 (Simulation time: 0 hr 8 min 2 sec) 
Heartbeat CPU 0 instructions: 230000000 cycles: 353837841 heartbeat IPC: 0.448391 cumulative IPC: 0.420722 (Simulation time: 0 hr 8 min 29 sec) 
Heartbeat CPU 0 instructions: 240000000 cycles: 379644753 heartbeat IPC: 0.387493 cumulative IPC: 0.418161 (Simulation time: 0 hr 8 min 59 sec) 
Heartbeat CPU 0 instructions: 250000001 cycles: 404548870 heartbeat IPC: 0.40154 cumulative IPC: 0.41701 (Simulation time: 0 hr 9 min 28 sec) 
Heartbeat CPU 0 instructions: 260000000 cycles: 425442301 heartbeat IPC: 0.478619 cumulative IPC: 0.420392 (Simulation time: 0 hr 9 min 54 sec) 
Heartbeat CPU 0 instructions: 270000000 cycles: 446936568 heartbeat IPC: 0.46524 cumulative IPC: 0.42279 (Simulation time: 0 hr 10 min 20 sec) 
Heartbeat CPU 0 instructions: 280000000 cycles: 474816189 heartbeat IPC: 0.358685 cumulative IPC: 0.418633 (Simulation time: 0 hr 10 min 51 sec) 
Heartbeat CPU 0 instructions: 290000000 cycles: 495889436 heartbeat IPC: 0.474535 cumulative IPC: 0.421245 (Simulation time: 0 hr 11 min 17 sec) 
Heartbeat CPU 0 instructions: 300000000 cycles: 516303837 heartbeat IPC: 0.48985 cumulative IPC: 0.424215 (Simulation time: 0 hr 11 min 42 sec) 
Heartbeat CPU 0 instructions: 310000000 cycles: 535432622 heartbeat IPC: 0.522772 cumulative IPC: 0.428058 (Simulation time: 0 hr 12 min 7 sec) 
Heartbeat CPU 0 instructions: 320000000 cycles: 564929712 heartbeat IPC: 0.339016 cumulative IPC: 0.423008 (Simulation time: 0 hr 12 min 38 sec) 
Heartbeat CPU 0 instructions: 330000001 cycles: 584338135 heartbeat IPC: 0.51524 cumulative IPC: 0.426326 (Simulation time: 0 hr 13 min 2 sec) 
Heartbeat CPU 0 instructions: 340000000 cycles: 603586546 heartbeat IPC: 0.519523 cumulative IPC: 0.429537 (Simulation time: 0 hr 13 min 27 sec) 
Heartbeat CPU 0 instructions: 350000001 cycles: 628818263 heartbeat IPC: 0.396327 cumulative IPC: 0.428102 (Simulation time: 0 hr 13 min 55 sec) 
Heartbeat CPU 0 instructions: 360000000 cycles: 651113464 heartbeat IPC: 0.448527 cumulative IPC: 0.428853 (Simulation time: 0 hr 14 min 22 sec) 
Heartbeat CPU 0 instructions: 370000001 cycles: 676231093 heartbeat IPC: 0.398127 cumulative IPC: 0.427631 (Simulation time: 0 hr 14 min 50 sec) 
Heartbeat CPU 0 instructions: 380000000 cycles: 699399353 heartbeat IPC: 0.431625 cumulative IPC: 0.427772 (Simulation time: 0 hr 15 min 17 sec) 
Heartbeat CPU 0 instructions: 390000000 cycles: 718166652 heartbeat IPC: 0.532842 cumulative IPC: 0.430701 (Simulation time: 0 hr 15 min 41 sec) 
Heartbeat CPU 0 instructions: 400000000 cycles: 737953703 heartbeat IPC: 0.505381 cumulative IPC: 0.432833 (Simulation time: 0 hr 16 min 6 sec) 
Heartbeat CPU 0 instructions: 410000001 cycles: 764243669 heartbeat IPC: 0.380373 cumulative IPC: 0.430916 (Simulation time: 0 hr 16 min 35 sec) 
Heartbeat CPU 0 instructions: 420000000 cycles: 788873041 heartbeat IPC: 0.406019 cumulative IPC: 0.430091 (Simulation time: 0 hr 17 min 3 sec) 
Heartbeat CPU 0 instructions: 430000002 cycles: 810019196 heartbeat IPC: 0.472899 cumulative IPC: 0.431274 (Simulation time: 0 hr 17 min 29 sec) 
Heartbeat CPU 0 instructions: 440000000 cycles: 830163020 heartbeat IPC: 0.49643 cumulative IPC: 0.432946 (Simulation time: 0 hr 17 min 54 sec) 
Heartbeat CPU 0 instructions: 450000002 cycles: 856985724 heartbeat IPC: 0.372819 cumulative IPC: 0.43096 (Simulation time: 0 hr 18 min 23 sec) 
Heartbeat CPU 0 instructions: 460000000 cycles: 883027355 heartbeat IPC: 0.384 cumulative IPC: 0.429501 (Simulation time: 0 hr 18 min 52 sec) 
Heartbeat CPU 0 instructions: 470000002 cycles: 908990369 heartbeat IPC: 0.385163 cumulative IPC: 0.428169 (Simulation time: 0 hr 19 min 21 sec) 
Heartbeat CPU 0 instructions: 480000000 cycles: 933259133 heartbeat IPC: 0.412052 cumulative IPC: 0.427729 (Simulation time: 0 hr 19 min 48 sec) 
Heartbeat CPU 0 instructions: 490000000 cycles: 954077706 heartbeat IPC: 0.48034 cumulative IPC: 0.428933 (Simulation time: 0 hr 20 min 14 sec) 
Heartbeat CPU 0 instructions: 500000000 cycles: 978909771 heartbeat IPC: 0.402705 cumulative IPC: 0.428236 (Simulation time: 0 hr 20 min 42 sec) 
Heartbeat CPU 0 instructions: 510000000 cycles: 1003949380 heartbeat IPC: 0.399367 cumulative IPC: 0.427482 (Simulation time: 0 hr 21 min 10 sec) 
Heartbeat CPU 0 instructions: 520000000 cycles: 1024942427 heartbeat IPC: 0.476348 cumulative IPC: 0.428529 (Simulation time: 0 hr 21 min 35 sec) 
Heartbeat CPU 0 instructions: 530000003 cycles: 1050648899 heartbeat IPC: 0.389007 cumulative IPC: 0.427519 (Simulation time: 0 hr 22 min 4 sec) 
Heartbeat CPU 0 instructions: 540000000 cycles: 1073569780 heartbeat IPC: 0.436283 cumulative IPC: 0.427714 (Simulation time: 0 hr 22 min 31 sec) 
Heartbeat CPU 0 instructions: 550000000 cycles: 1099137085 heartbeat IPC: 0.391125 cumulative IPC: 0.426827 (Simulation time: 0 hr 22 min 59 sec) 
Heartbeat CPU 0 instructions: 560000000 cycles: 1122205594 heartbeat IPC: 0.433491 cumulative IPC: 0.426969 (Simulation time: 0 hr 23 min 26 sec) 
Heartbeat CPU 0 instructions: 570000002 cycles: 1145655950 heartbeat IPC: 0.426433 cumulative IPC: 0.426958 (Simulation time: 0 hr 23 min 53 sec) 
Heartbeat CPU 0 instructions: 580000000 cycles: 1166553623 heartbeat IPC: 0.478522 cumulative IPC: 0.427919 (Simulation time: 0 hr 24 min 19 sec) 
Heartbeat CPU 0 instructions: 590000001 cycles: 1190518698 heartbeat IPC: 0.417274 cumulative IPC: 0.427696 (Simulation time: 0 hr 24 min 46 sec) 
Heartbeat CPU 0 instructions: 600000000 cycles: 1209640660 heartbeat IPC: 0.522959 cumulative IPC: 0.42926 (Simulation time: 0 hr 25 min 10 sec) 
Finished CPU 0 instructions: 500000000 cycles: 1164795438 cumulative IPC: 0.42926 (Simulation time: 0 hr 25 min 10 sec) 

CPU 0 Branch Prediction Accuracy: 99.5434% MPKI: 1.33026
Number of Branches: 145676990 Number of Mispredictions: 665128
Number of LOAD Instructions: 188863207
Number of LOAD Instructions (ROI): 188863207
Number of STORE Instructions: 7332002
Number of STORE Instructions (ROI): 7332002
Total Destination Memory Operands: 10029285
Total Destination Memory Operands (ROI): 10029285
Total Source Memory Operands: 188863207
Total Source Memory Operands (ROI): 188863207
Number of DEPENDED LOADS: 290090
Number of DEPENDED LOADS (ROI): 290090
Number of SQ_ADDED: 10029285
Number of SQ_ADDED (ROI): 10029285
Number of LQ_ADDED: 200484345
Number of LQ_ADDED (ROI): 200484345
Number of Instructions read from trace: 600000010

ChampSim completed all CPUs

Region of Interest Statistics

CPU 0 cumulative IPC: 0.42926 instructions: 500000000 cycles: 1164795438
ITLB TOTAL     ACCESS:  145826322  HIT:  145786795  MISS:      39527
ITLB LOAD      ACCESS:  145826322  HIT:  145786795  MISS:      39527
ITLB RFO       ACCESS:          0  HIT:          0  MISS:          0
ITLB PREFETCH  ACCESS:          0  HIT:          0  MISS:          0
ITLB WRITEBACK ACCESS:          0  HIT:          0  MISS:          0
ITLB PREFETCH  REQUESTED:          0  ISSUED:          0  USEFUL:          0  USELESS:          0
ITLB TOTAL MSHR MERGED:      57370
ITLB LOAD MSHR MERGED:      57370
ITLB RFO MSHR MERGED:          0
ITLB PREFETCH MSHR MERGED:          0
ITLB WRITEBACK MSHR MERGED:          0
ITLB TOTAL ACCESSES:  145883692 HITS:  145786795 MISSES:      96897
ITLB LOAD ACCESSES:  145883692 HITS:  145786795 MISSES:      96897
ITLB RFO ACCESSES:          0 HITS:          0 MISSES:          0
ITLB PREFETCH ACCESSES:          0 HITS:          0 MISSES:          0
ITLB WRITEBACK ACCESSES:          0 HITS:          0 MISSES:          0
ITLB RQ ACCESS:  499999754
ITLB RQ TO_CACHE:  145883692
ITLB RQ MERGED:  354116062
ITLB RQ FORWARD:          0
ITLB WQ ACCESS:          0
ITLB WQ TO_CACHE:          0
ITLB WQ MERGED:          0
ITLB WQ FORWARD:          0
DTLB TOTAL     ACCESS:  135199319  HIT:  134030961  MISS:    1168358
DTLB LOAD      ACCESS:  127158571  HIT:  125999317  MISS:    1159254
DTLB RFO       ACCESS:    8040748  HIT:    8031644  MISS:       9104
DTLB PREFETCH  ACCESS:          0  HIT:          0  MISS:          0
DTLB WRITEBACK ACCESS:          0  HIT:          0  MISS:          0
DTLB PREFETCH  REQUESTED:          0  ISSUED:          0  USEFUL:          0  USELESS:          0
DTLB TOTAL MSHR MERGED:     579134
DTLB LOAD MSHR MERGED:     574755
DTLB RFO MSHR MERGED:       4379
DTLB PREFETCH MSHR MERGED:          0
DTLB WRITEBACK MSHR MERGED:          0
DTLB TOTAL ACCESSES:  135778453 HITS:  134030961 MISSES:    1747492
DTLB LOAD ACCESSES:  127733326 HITS:  125999317 MISSES:    1734009
DTLB RFO ACCESSES:    8045127 HITS:    8031644 MISSES:      13483
DTLB PREFETCH ACCESSES:          0 HITS:          0 MISSES:          0
DTLB WRITEBACK ACCESSES:          0 HITS:          0 MISSES:          0
DTLB RQ ACCESS:  165764254
DTLB RQ TO_CACHE:  135778453
DTLB RQ MERGED:   29985801
DTLB RQ FORWARD:          0
DTLB WQ ACCESS:          0
DTLB WQ TO_CACHE:          0
DTLB WQ MERGED:          0
DTLB WQ FORWARD:          0
L1D TOTAL     ACCESS:  157084635  HIT:  139768938  MISS:   17315697
L1D LOAD      ACCESS:   90004527  HIT:   78867671  MISS:   11136856
L1D RFO       ACCESS:    8498532  HIT:    8411345  MISS:      87187
L1D PREFETCH  ACCESS:   58581576  HIT:   52489922  MISS:    6091654
L1D WRITEBACK ACCESS:          0  HIT:          0  MISS:          0
L1D PREFETCH  REQUESTED:   93721935  ISSUED:   92854290  USEFUL:    2010245  USELESS:    4081482
L1D TOTAL MSHR MERGED:   14981460
L1D LOAD MSHR MERGED:    7111142
L1D RFO MSHR MERGED:     125929
L1D PREFETCH MSHR MERGED:    7744389
L1D WRITEBACK MSHR MERGED:          0
L1D TOTAL ACCESSES:  172066248 HITS:  139769091 MISSES:   32297157
L1D LOAD ACCESSES:   93721939 HITS:   78867675 MISSES:   14854264
L1D RFO ACCESSES:    8622600 HITS:    8411345 MISSES:     211255
L1D PREFETCH ACCESSES:   69721709 HITS:   52490071 MISSES:   17231638
L1D WRITEBACK ACCESSES:          0 HITS:          0 MISSES:          0
L1D RQ ACCESS:  157125048
L1D RQ TO_CACHE:   93721935
L1D RQ MERGED:   63403109
L1D RQ FORWARD:          0
L1D WQ ACCESS:    8639208
L1D WQ TO_CACHE:    8622600
L1D WQ MERGED:      16608
L1D WQ FORWARD:        153
L1I TOTAL     ACCESS:  178807020  HIT:  178143359  MISS:     663661
L1I LOAD      ACCESS:  178807020  HIT:  178143359  MISS:     663661
L1I RFO       ACCESS:          0  HIT:          0  MISS:          0
L1I PREFETCH  ACCESS:          0  HIT:          0  MISS:          0
L1I WRITEBACK ACCESS:          0  HIT:          0  MISS:          0
L1I PREFETCH  REQUESTED:          0  ISSUED:          0  USEFUL:          0  USELESS:          0
L1I TOTAL MSHR MERGED:     596978
L1I LOAD MSHR MERGED:     596978
L1I RFO MSHR MERGED:          0
L1I PREFETCH MSHR MERGED:          0
L1I WRITEBACK MSHR MERGED:          0
L1I TOTAL ACCESSES:  179403998 HITS:  178143359 MISSES:    1260639
L1I LOAD ACCESSES:  179403998 HITS:  178143359 MISSES:    1260639
L1I RFO ACCESSES:          0 HITS:          0 MISSES:          0
L1I PREFETCH ACCESSES:          0 HITS:          0 MISSES:          0
L1I WRITEBACK ACCESSES:          0 HITS:          0 MISSES:          0
L1I RQ ACCESS:  499999757
L1I RQ TO_CACHE:  179403998
L1I RQ MERGED:  320595759
L1I RQ FORWARD:          0
L1I WQ ACCESS:          0
L1I WQ TO_CACHE:          0
L1I WQ MERGED:          0
L1I WQ FORWARD:          0
L2C TOTAL     ACCESS:   19277671  HIT:    2057904  MISS:   17219767
L2C LOAD      ACCESS:    8406678  HIT:     951390  MISS:    7455288
L2C RFO       ACCESS:      85303  HIT:      53740  MISS:      31563
L2C PREFETCH  ACCESS:   10500659  HIT:     770554  MISS:    9730105
L2C WRITEBACK ACCESS:     285031  HIT:     282220  MISS:       2811
L2C PREFETCH  REQUESTED:    1017777  ISSUED:    1017777  USEFUL:     274977  USELESS:    9454223
L2C TOTAL MSHR MERGED:        962
L2C LOAD MSHR MERGED:        203
L2C RFO MSHR MERGED:          1
L2C PREFETCH MSHR MERGED:        758
L2C WRITEBACK MSHR MERGED:          0
L2C TOTAL ACCESSES:   19280909 HITS:    2058098 MISSES:   17222811
L2C LOAD ACCESSES:    8406783 HITS:     951495 MISSES:    7455288
L2C RFO ACCESSES:      85326 HITS:      53763 MISSES:      31563
L2C PREFETCH ACCESSES:   10503769 HITS:     770620 MISSES:    9733149
L2C WRITEBACK ACCESSES:     285031 HITS:     282220 MISSES:       2811
L2C RQ ACCESS:    8492109
L2C RQ TO_CACHE:    8491981
L2C RQ MERGED:          0
L2C RQ FORWARD:          0
L2C WQ ACCESS:     285031
L2C WQ TO_CACHE:     285031
L2C WQ MERGED:          0
L2C WQ FORWARD:        194
LLC TOTAL     ACCESS:   17325092  HIT:    4956913  MISS:   12368179
LLC LOAD      ACCESS:    7455085  HIT:    3925210  MISS:    3529875
LLC RFO       ACCESS:      31562  HIT:      17313  MISS:      14249
LLC PREFETCH  ACCESS:    9732388  HIT:     930636  MISS:    8801752
LLC WRITEBACK ACCESS:     106057  HIT:      83754  MISS:      22303
LLC PREFETCH  REQUESTED:          0  ISSUED:          0  USEFUL:       2130  USELESS:    8798860
LLC TOTAL MSHR MERGED:          3
LLC LOAD MSHR MERGED:          0
LLC RFO MSHR MERGED:          0
LLC PREFETCH MSHR MERGED:          3
LLC WRITEBACK MSHR MERGED:          0
LLC TOTAL ACCESSES:   17325095 HITS:    4956913 MISSES:   12368182
LLC LOAD ACCESSES:    7455085 HITS:    3925210 MISSES:    3529875
LLC RFO ACCESSES:      31562 HITS:      17313 MISSES:      14249
LLC PREFETCH ACCESSES:    9732391 HITS:     930636 MISSES:    8801755
LLC WRITEBACK ACCESSES:     106057 HITS:      83754 MISSES:      22303
LLC 0 RQ ACCESS:    7486647
LLC 0 RQ TO_CACHE:    7486647
LLC 0 RQ MERGED:          0
LLC 0 RQ FORWARD:          0
LLC WQ ACCESS:     106057
LLC WQ TO_CACHE:     106057
LLC WQ MERGED:          0
LLC WQ FORWARD:          0
Major fault: 0 Minor fault: 6432
CPU 0 L1D next line prefetcher final stats
CPU 0 L2C PC-based stride prefetcher final stats
All Misses: 14601738
All Hits: 5943023
SD Algo Stats - Switches: 0 SRR-Repls: 3774498 BRR-Repls: 0

DRAM Statistics
 CHANNEL 0
 RQ ROW_BUFFER_HIT:    9335226  ROW_BUFFER_MISS:    3005472
 DBUS_CONGESTED:    5780320
 WQ ROW_BUFFER_HIT:       1504  ROW_BUFFER_MISS:      31396  FULL:          0

 AVG_CONGESTED_CYCLE: 12
LOADS RETIRED: 157382665
INSTR RETIRED: 500000000
