
*** ChampSim Multicore Out-of-Order Simulator ***

Warmup Instructions: 100000000
Simulation Instructions: 500000000
Number of CPUs: 1
LLC sets: 2048
LLC ways: 16
Clean RRIP Policies: 1012222010122220 Dirty RRIP Policies: 22020000220200 PSEL Width: 10 Track Set: 4294967295 PSEL Mask: 1 Demote Mask: 4013424140134241DS Algo: 0Window size: 0
Off-chip DRAM Size: 4096 MB Channels: 1 Width: 64-bit Data Rate: 1600 MT/s

CPU 0 runs /mnt/beegfs/iconst01/spec2017/Fotonik3d.trace.gz
NOT SORTED
TRACE STRING: /mnt/beegfs/iconst01/spec2017/Fotonik3d.trace.gz
SORTED
TRACE STRING: /mnt/beegfs/iconst01/spec2017/Fotonik3d.trace.gz
INITIAL
TRACE STRING: /mnt/beegfs/iconst01/spec2017/Fotonik3d.trace.gz

champsim_seed used: 881

CPU 0 L1D next line prefetcher
CPU 0 L2C IP-based stride prefetcher
Initialize DRRIP state
Assign rand_sets[0]: 454  LLC: 2048
rand_sets[0]: 454
Assign rand_sets[1]: 1662  LLC: 2048
rand_sets[1]: 1662
Assign rand_sets[2]: 1921  LLC: 2048
rand_sets[2]: 1921
Assign rand_sets[3]: 1131  LLC: 2048
rand_sets[3]: 1131
Assign rand_sets[4]: 331  LLC: 2048
rand_sets[4]: 331
Assign rand_sets[5]: 1531  LLC: 2048
rand_sets[5]: 1531
Assign rand_sets[6]: 482  LLC: 2048
rand_sets[6]: 482
Assign rand_sets[7]: 1275  LLC: 2048
rand_sets[7]: 1275
Assign rand_sets[8]: 1876  LLC: 2048
rand_sets[8]: 1876
Assign rand_sets[9]: 2038  LLC: 2048
rand_sets[9]: 2038
Assign rand_sets[10]: 701  LLC: 2048
rand_sets[10]: 701
Assign rand_sets[11]: 479  LLC: 2048
rand_sets[11]: 479
Assign rand_sets[12]: 892  LLC: 2048
rand_sets[12]: 892
Assign rand_sets[13]: 1820  LLC: 2048
rand_sets[13]: 1820
Assign rand_sets[14]: 1505  LLC: 2048
rand_sets[14]: 1505
Assign rand_sets[15]: 1159  LLC: 2048
rand_sets[15]: 1159
Assign rand_sets[16]: 513  LLC: 2048
rand_sets[16]: 513
Assign rand_sets[17]: 703  LLC: 2048
rand_sets[17]: 703
Assign rand_sets[18]: 561  LLC: 2048
rand_sets[18]: 561
Assign rand_sets[19]: 990  LLC: 2048
rand_sets[19]: 990
Assign rand_sets[20]: 342  LLC: 2048
rand_sets[20]: 342
Assign rand_sets[21]: 882  LLC: 2048
rand_sets[21]: 882
Assign rand_sets[22]: 15  LLC: 2048
rand_sets[22]: 15
Assign rand_sets[23]: 71  LLC: 2048
rand_sets[23]: 71
Assign rand_sets[24]: 1127  LLC: 2048
rand_sets[24]: 1127
Assign rand_sets[25]: 1382  LLC: 2048
rand_sets[25]: 1382
Assign rand_sets[26]: 647  LLC: 2048
rand_sets[26]: 647
Assign rand_sets[27]: 857  LLC: 2048
rand_sets[27]: 857
Assign rand_sets[28]: 1450  LLC: 2048
rand_sets[28]: 1450
Assign rand_sets[29]: 1160  LLC: 2048
rand_sets[29]: 1160
Assign rand_sets[30]: 1852  LLC: 2048
rand_sets[30]: 1852
Assign rand_sets[31]: 1881  LLC: 2048
rand_sets[31]: 1881
Assign rand_sets[32]: 1770  LLC: 2048
rand_sets[32]: 1770
Assign rand_sets[33]: 1622  LLC: 2048
rand_sets[33]: 1622
Assign rand_sets[34]: 275  LLC: 2048
rand_sets[34]: 275
Assign rand_sets[35]: 635  LLC: 2048
rand_sets[35]: 635
Assign rand_sets[36]: 466  LLC: 2048
rand_sets[36]: 466
Assign rand_sets[37]: 1413  LLC: 2048
rand_sets[37]: 1413
Assign rand_sets[38]: 417  LLC: 2048
rand_sets[38]: 417
Assign rand_sets[39]: 472  LLC: 2048
rand_sets[39]: 472
Assign rand_sets[40]: 1340  LLC: 2048
rand_sets[40]: 1340
Assign rand_sets[41]: 852  LLC: 2048
rand_sets[41]: 852
Assign rand_sets[42]: 1365  LLC: 2048
rand_sets[42]: 1365
Assign rand_sets[43]: 47  LLC: 2048
rand_sets[43]: 47
Assign rand_sets[44]: 823  LLC: 2048
rand_sets[44]: 823
Assign rand_sets[45]: 686  LLC: 2048
rand_sets[45]: 686
Assign rand_sets[46]: 1637  LLC: 2048
rand_sets[46]: 1637
Assign rand_sets[47]: 1115  LLC: 2048
rand_sets[47]: 1115
Assign rand_sets[48]: 986  LLC: 2048
rand_sets[48]: 986
Assign rand_sets[49]: 258  LLC: 2048
rand_sets[49]: 258
Assign rand_sets[50]: 633  LLC: 2048
rand_sets[50]: 633
Assign rand_sets[51]: 920  LLC: 2048
rand_sets[51]: 920
Assign rand_sets[52]: 204  LLC: 2048
rand_sets[52]: 204
Assign rand_sets[53]: 227  LLC: 2048
rand_sets[53]: 227
Assign rand_sets[54]: 1818  LLC: 2048
rand_sets[54]: 1818
Assign rand_sets[55]: 886  LLC: 2048
rand_sets[55]: 886
Assign rand_sets[56]: 1422  LLC: 2048
rand_sets[56]: 1422
Assign rand_sets[57]: 607  LLC: 2048
rand_sets[57]: 607
Assign rand_sets[58]: 217  LLC: 2048
rand_sets[58]: 217
Assign rand_sets[59]: 1945  LLC: 2048
rand_sets[59]: 1945
Assign rand_sets[60]: 143  LLC: 2048
rand_sets[60]: 143
Assign rand_sets[61]: 1311  LLC: 2048
rand_sets[61]: 1311
Assign rand_sets[62]: 319  LLC: 2048
rand_sets[62]: 319
Assign rand_sets[63]: 1846  LLC: 2048
rand_sets[63]: 1846
 CLEAN-RRIP-POLICY-1: 1-0-1-2-2-2-2-0- CLEAN-RRIP-POLICY-2: 1-0-1-2-2-2-2-0-
 DIRTY-RRIP-POLICY-1: 0-0-2-2-0-2-0-0- DIRTY-RRIP-POLICY-2: 0-0-2-2-0-2-0-0-
 PSEL width: 10
Heartbeat CPU 0 instructions: 10000002 cycles: 7306810 heartbeat IPC: 1.36859 cumulative IPC: 1.36859 (Simulation time: 0 hr 0 min 24 sec) 
Heartbeat CPU 0 instructions: 20000000 cycles: 14613918 heartbeat IPC: 1.36853 cumulative IPC: 1.36856 (Simulation time: 0 hr 0 min 49 sec) 
Heartbeat CPU 0 instructions: 30000001 cycles: 21920897 heartbeat IPC: 1.36855 cumulative IPC: 1.36856 (Simulation time: 0 hr 1 min 13 sec) 
Heartbeat CPU 0 instructions: 40000000 cycles: 29227737 heartbeat IPC: 1.36858 cumulative IPC: 1.36856 (Simulation time: 0 hr 1 min 37 sec) 
Heartbeat CPU 0 instructions: 50000001 cycles: 36534523 heartbeat IPC: 1.36859 cumulative IPC: 1.36857 (Simulation time: 0 hr 2 min 2 sec) 
Heartbeat CPU 0 instructions: 60000000 cycles: 43841591 heartbeat IPC: 1.36854 cumulative IPC: 1.36856 (Simulation time: 0 hr 2 min 26 sec) 
Heartbeat CPU 0 instructions: 70000002 cycles: 51148435 heartbeat IPC: 1.36858 cumulative IPC: 1.36857 (Simulation time: 0 hr 2 min 50 sec) 
Heartbeat CPU 0 instructions: 80000000 cycles: 58455243 heartbeat IPC: 1.36859 cumulative IPC: 1.36857 (Simulation time: 0 hr 3 min 15 sec) 
Heartbeat CPU 0 instructions: 90000003 cycles: 65765902 heartbeat IPC: 1.36787 cumulative IPC: 1.36849 (Simulation time: 0 hr 3 min 39 sec) 
Heartbeat CPU 0 instructions: 100000000 cycles: 73076591 heartbeat IPC: 1.36786 cumulative IPC: 1.36843 (Simulation time: 0 hr 4 min 4 sec) 

Warmup complete CPU 0 instructions: 100000002 cycles: 73076603 (Simulation time: 0 hr 4 min 4 sec) 

Heartbeat CPU 0 instructions: 110000001 cycles: 85554989 heartbeat IPC: 0.801385 cumulative IPC: 0.801386 (Simulation time: 0 hr 4 min 33 sec) 
Heartbeat CPU 0 instructions: 120000000 cycles: 97963829 heartbeat IPC: 0.805877 cumulative IPC: 0.803625 (Simulation time: 0 hr 5 min 2 sec) 
Heartbeat CPU 0 instructions: 130000000 cycles: 110413382 heartbeat IPC: 0.803242 cumulative IPC: 0.803497 (Simulation time: 0 hr 5 min 31 sec) 
Heartbeat CPU 0 instructions: 140000000 cycles: 122862189 heartbeat IPC: 0.80329 cumulative IPC: 0.803445 (Simulation time: 0 hr 6 min 0 sec) 
Heartbeat CPU 0 instructions: 150000000 cycles: 135263450 heartbeat IPC: 0.80637 cumulative IPC: 0.804029 (Simulation time: 0 hr 6 min 29 sec) 
Heartbeat CPU 0 instructions: 160000000 cycles: 147686767 heartbeat IPC: 0.804938 cumulative IPC: 0.80418 (Simulation time: 0 hr 6 min 58 sec) 
Heartbeat CPU 0 instructions: 170000001 cycles: 160122107 heartbeat IPC: 0.80416 cumulative IPC: 0.804177 (Simulation time: 0 hr 7 min 27 sec) 
Heartbeat CPU 0 instructions: 180000000 cycles: 172560860 heartbeat IPC: 0.803939 cumulative IPC: 0.804147 (Simulation time: 0 hr 7 min 56 sec) 
Heartbeat CPU 0 instructions: 190000000 cycles: 185019263 heartbeat IPC: 0.802671 cumulative IPC: 0.803983 (Simulation time: 0 hr 8 min 25 sec) 
Heartbeat CPU 0 instructions: 200000000 cycles: 197448694 heartbeat IPC: 0.804542 cumulative IPC: 0.804039 (Simulation time: 0 hr 8 min 54 sec) 
Heartbeat CPU 0 instructions: 210000002 cycles: 209909376 heartbeat IPC: 0.802524 cumulative IPC: 0.803901 (Simulation time: 0 hr 9 min 23 sec) 
Heartbeat CPU 0 instructions: 220000000 cycles: 222388717 heartbeat IPC: 0.801324 cumulative IPC: 0.803686 (Simulation time: 0 hr 9 min 52 sec) 
Heartbeat CPU 0 instructions: 230000002 cycles: 234807967 heartbeat IPC: 0.805202 cumulative IPC: 0.803802 (Simulation time: 0 hr 10 min 21 sec) 
Heartbeat CPU 0 instructions: 240000000 cycles: 247905371 heartbeat IPC: 0.76351 cumulative IPC: 0.800784 (Simulation time: 0 hr 10 min 51 sec) 
Heartbeat CPU 0 instructions: 250000001 cycles: 265656857 heartbeat IPC: 0.563333 cumulative IPC: 0.778896 (Simulation time: 0 hr 11 min 23 sec) 
Heartbeat CPU 0 instructions: 260000000 cycles: 283326344 heartbeat IPC: 0.565947 cumulative IPC: 0.761 (Simulation time: 0 hr 11 min 55 sec) 
Heartbeat CPU 0 instructions: 270000000 cycles: 301105284 heartbeat IPC: 0.562463 cumulative IPC: 0.74552 (Simulation time: 0 hr 12 min 27 sec) 
Heartbeat CPU 0 instructions: 280000000 cycles: 318830534 heartbeat IPC: 0.564167 cumulative IPC: 0.73244 (Simulation time: 0 hr 12 min 59 sec) 
Heartbeat CPU 0 instructions: 290000000 cycles: 347764744 heartbeat IPC: 0.345612 cumulative IPC: 0.691693 (Simulation time: 0 hr 13 min 39 sec) 
Heartbeat CPU 0 instructions: 300000000 cycles: 385381767 heartbeat IPC: 0.265837 cumulative IPC: 0.640399 (Simulation time: 0 hr 14 min 25 sec) 
Heartbeat CPU 0 instructions: 310000000 cycles: 402611402 heartbeat IPC: 0.580395 cumulative IPC: 0.637262 (Simulation time: 0 hr 14 min 56 sec) 
Heartbeat CPU 0 instructions: 320000000 cycles: 419697154 heartbeat IPC: 0.585283 cumulative IPC: 0.6347 (Simulation time: 0 hr 15 min 28 sec) 
Heartbeat CPU 0 instructions: 330000003 cycles: 436920215 heartbeat IPC: 0.580617 cumulative IPC: 0.63214 (Simulation time: 0 hr 15 min 59 sec) 
Heartbeat CPU 0 instructions: 340000000 cycles: 454062642 heartbeat IPC: 0.583348 cumulative IPC: 0.629944 (Simulation time: 0 hr 16 min 31 sec) 
Heartbeat CPU 0 instructions: 350000001 cycles: 469381067 heartbeat IPC: 0.652809 cumulative IPC: 0.630828 (Simulation time: 0 hr 17 min 1 sec) 
Heartbeat CPU 0 instructions: 360000000 cycles: 481361140 heartbeat IPC: 0.834719 cumulative IPC: 0.636811 (Simulation time: 0 hr 17 min 28 sec) 
Heartbeat CPU 0 instructions: 370000002 cycles: 493059828 heartbeat IPC: 0.854797 cumulative IPC: 0.642883 (Simulation time: 0 hr 17 min 55 sec) 
Heartbeat CPU 0 instructions: 380000000 cycles: 504967933 heartbeat IPC: 0.839764 cumulative IPC: 0.648311 (Simulation time: 0 hr 18 min 22 sec) 
Heartbeat CPU 0 instructions: 390000003 cycles: 518296539 heartbeat IPC: 0.750266 cumulative IPC: 0.651363 (Simulation time: 0 hr 18 min 50 sec) 
Heartbeat CPU 0 instructions: 400000000 cycles: 530580640 heartbeat IPC: 0.81406 cumulative IPC: 0.655732 (Simulation time: 0 hr 19 min 18 sec) 
Heartbeat CPU 0 instructions: 410000003 cycles: 542600457 heartbeat IPC: 0.83196 cumulative IPC: 0.660243 (Simulation time: 0 hr 19 min 46 sec) 
Heartbeat CPU 0 instructions: 420000000 cycles: 555360882 heartbeat IPC: 0.783673 cumulative IPC: 0.663509 (Simulation time: 0 hr 20 min 14 sec) 
Heartbeat CPU 0 instructions: 430000003 cycles: 573694295 heartbeat IPC: 0.545452 cumulative IPC: 0.659186 (Simulation time: 0 hr 20 min 39 sec) 
Heartbeat CPU 0 instructions: 440000000 cycles: 592235504 heartbeat IPC: 0.539339 cumulative IPC: 0.654905 (Simulation time: 0 hr 21 min 4 sec) 
Heartbeat CPU 0 instructions: 450000003 cycles: 610864490 heartbeat IPC: 0.536798 cumulative IPC: 0.650814 (Simulation time: 0 hr 21 min 29 sec) 
Heartbeat CPU 0 instructions: 460000000 cycles: 629502303 heartbeat IPC: 0.536543 cumulative IPC: 0.646987 (Simulation time: 0 hr 21 min 55 sec) 
Heartbeat CPU 0 instructions: 470000003 cycles: 648168361 heartbeat IPC: 0.535732 cumulative IPC: 0.643376 (Simulation time: 0 hr 22 min 20 sec) 
Heartbeat CPU 0 instructions: 480000000 cycles: 666830230 heartbeat IPC: 0.535852 cumulative IPC: 0.639996 (Simulation time: 0 hr 22 min 45 sec) 
Heartbeat CPU 0 instructions: 490000003 cycles: 685519210 heartbeat IPC: 0.535075 cumulative IPC: 0.636794 (Simulation time: 0 hr 23 min 11 sec) 
Heartbeat CPU 0 instructions: 500000000 cycles: 704231468 heartbeat IPC: 0.534409 cumulative IPC: 0.633759 (Simulation time: 0 hr 23 min 36 sec) 
Heartbeat CPU 0 instructions: 510000003 cycles: 722941683 heartbeat IPC: 0.534468 cumulative IPC: 0.6309 (Simulation time: 0 hr 24 min 1 sec) 
Heartbeat CPU 0 instructions: 520000000 cycles: 741684910 heartbeat IPC: 0.533526 cumulative IPC: 0.62817 (Simulation time: 0 hr 24 min 27 sec) 
Heartbeat CPU 0 instructions: 530000001 cycles: 760454793 heartbeat IPC: 0.532768 cumulative IPC: 0.625565 (Simulation time: 0 hr 24 min 52 sec) 
Heartbeat CPU 0 instructions: 540000000 cycles: 779160373 heartbeat IPC: 0.5346 cumulative IPC: 0.623156 (Simulation time: 0 hr 25 min 17 sec) 
Heartbeat CPU 0 instructions: 550000001 cycles: 797862850 heartbeat IPC: 0.534689 cumulative IPC: 0.620873 (Simulation time: 0 hr 25 min 43 sec) 
Heartbeat CPU 0 instructions: 560000000 cycles: 816573983 heartbeat IPC: 0.534441 cumulative IPC: 0.618698 (Simulation time: 0 hr 26 min 8 sec) 
Heartbeat CPU 0 instructions: 570000001 cycles: 835298668 heartbeat IPC: 0.534054 cumulative IPC: 0.616618 (Simulation time: 0 hr 26 min 34 sec) 
Heartbeat CPU 0 instructions: 580000000 cycles: 854036207 heartbeat IPC: 0.533688 cumulative IPC: 0.614628 (Simulation time: 0 hr 26 min 59 sec) 
Heartbeat CPU 0 instructions: 590000001 cycles: 872775473 heartbeat IPC: 0.533639 cumulative IPC: 0.612731 (Simulation time: 0 hr 27 min 24 sec) 
Heartbeat CPU 0 instructions: 600000000 cycles: 891494954 heartbeat IPC: 0.534203 cumulative IPC: 0.610934 (Simulation time: 0 hr 27 min 50 sec) 
Finished CPU 0 instructions: 500000002 cycles: 818418365 cumulative IPC: 0.610934 (Simulation time: 0 hr 27 min 50 sec) 

CPU 0 Branch Prediction Accuracy: 99.5931% MPKI: 0.08288
Number of Branches: 10184133 Number of Mispredictions: 41440
Number of LOAD Instructions: 261155957
Number of LOAD Instructions (ROI): 261155957
Number of STORE Instructions: 57884062
Number of STORE Instructions (ROI): 57884062
Total Destination Memory Operands: 83293336
Total Destination Memory Operands (ROI): 83293336
Total Source Memory Operands: 261155957
Total Source Memory Operands (ROI): 261155957
Number of DEPENDED LOADS: 22256898
Number of DEPENDED LOADS (ROI): 22256898
Number of SQ_ADDED: 83293300
Number of SQ_ADDED (ROI): 83293300
Number of LQ_ADDED: 1773459422
Number of LQ_ADDED (ROI): 1773459422
Number of Instructions read from trace: 600000257

ChampSim completed all CPUs

Region of Interest Statistics

CPU 0 cumulative IPC: 0.610934 instructions: 500000002 cycles: 818418365
ITLB TOTAL     ACCESS:   94827686  HIT:   94827648  MISS:         38
ITLB LOAD      ACCESS:   94827686  HIT:   94827648  MISS:         38
ITLB RFO       ACCESS:          0  HIT:          0  MISS:          0
ITLB PREFETCH  ACCESS:          0  HIT:          0  MISS:          0
ITLB WRITEBACK ACCESS:          0  HIT:          0  MISS:          0
ITLB PREFETCH  REQUESTED:          0  ISSUED:          0  USEFUL:          0  USELESS:          0
ITLB TOTAL MSHR MERGED:         93
ITLB LOAD MSHR MERGED:         93
ITLB RFO MSHR MERGED:          0
ITLB PREFETCH MSHR MERGED:          0
ITLB WRITEBACK MSHR MERGED:          0
ITLB TOTAL ACCESSES:   94827779 HITS:   94827648 MISSES:        131
ITLB LOAD ACCESSES:   94827779 HITS:   94827648 MISSES:        131
ITLB RFO ACCESSES:          0 HITS:          0 MISSES:          0
ITLB PREFETCH ACCESSES:          0 HITS:          0 MISSES:          0
ITLB WRITEBACK ACCESSES:          0 HITS:          0 MISSES:          0
ITLB RQ ACCESS:  500000001
ITLB RQ TO_CACHE:   94827780
ITLB RQ MERGED:  405172221
ITLB RQ FORWARD:          0
ITLB WQ ACCESS:          0
ITLB WQ TO_CACHE:          0
ITLB WQ MERGED:          0
ITLB WQ FORWARD:          0
DTLB TOTAL     ACCESS:  149221078  HIT:  148624118  MISS:     596960
DTLB LOAD      ACCESS:  107348216  HIT:  106751267  MISS:     596949
DTLB RFO       ACCESS:   41872862  HIT:   41872851  MISS:         11
DTLB PREFETCH  ACCESS:          0  HIT:          0  MISS:          0
DTLB WRITEBACK ACCESS:          0  HIT:          0  MISS:          0
DTLB PREFETCH  REQUESTED:          0  ISSUED:          0  USEFUL:          0  USELESS:          0
DTLB TOTAL MSHR MERGED:     134269
DTLB LOAD MSHR MERGED:     134269
DTLB RFO MSHR MERGED:          0
DTLB PREFETCH MSHR MERGED:          0
DTLB WRITEBACK MSHR MERGED:          0
DTLB TOTAL ACCESSES:  149355347 HITS:  148624118 MISSES:     731229
DTLB LOAD ACCESSES:  107482485 HITS:  106751267 MISSES:     731218
DTLB RFO ACCESSES:   41872862 HITS:   41872851 MISSES:         11
DTLB PREFETCH ACCESSES:          0 HITS:          0 MISSES:          0
DTLB WRITEBACK ACCESSES:          0 HITS:          0 MISSES:          0
DTLB RQ ACCESS:  259758997
DTLB RQ TO_CACHE:  149355347
DTLB RQ MERGED:  110403650
DTLB RQ FORWARD:          0
DTLB WQ ACCESS:          0
DTLB WQ TO_CACHE:          0
DTLB WQ MERGED:          0
DTLB WQ FORWARD:          0
L1D TOTAL     ACCESS:  261353708  HIT:  245927612  MISS:   15426096
L1D LOAD      ACCESS:  118071967  HIT:  112592924  MISS:    5479043
L1D RFO       ACCESS:   68946683  HIT:   68932276  MISS:      14407
L1D PREFETCH  ACCESS:   74335058  HIT:   64402412  MISS:    9932646
L1D WRITEBACK ACCESS:          0  HIT:          0  MISS:          0
L1D PREFETCH  REQUESTED:  120654746  ISSUED:  119214235  USEFUL:    8033650  USELESS:    1899018
L1D TOTAL MSHR MERGED:   16421561
L1D LOAD MSHR MERGED:    4980556
L1D RFO MSHR MERGED:      21888
L1D PREFETCH MSHR MERGED:   11419117
L1D WRITEBACK MSHR MERGED:          0
L1D TOTAL ACCESSES:  277885215 HITS:  246037558 MISSES:   31847657
L1D LOAD ACCESSES:  120662269 HITS:  112600447 MISSES:    8061822
L1D RFO ACCESSES:   68968571 HITS:   68932276 MISSES:      36295
L1D PREFETCH ACCESSES:   88254375 HITS:   64504835 MISSES:   23749540
L1D WRITEBACK ACCESSES:          0 HITS:          0 MISSES:          0
L1D RQ ACCESS:  190684681
L1D RQ TO_CACHE:  120654746
L1D RQ MERGED:   70022412
L1D RQ FORWARD:          0
L1D WQ ACCESS:   69074336
L1D WQ TO_CACHE:   68968573
L1D WQ MERGED:     105763
L1D WQ FORWARD:     109946
L1I TOTAL     ACCESS:  121711871  HIT:  121710798  MISS:       1073
L1I LOAD      ACCESS:  121711871  HIT:  121710798  MISS:       1073
L1I RFO       ACCESS:          0  HIT:          0  MISS:          0
L1I PREFETCH  ACCESS:          0  HIT:          0  MISS:          0
L1I WRITEBACK ACCESS:          0  HIT:          0  MISS:          0
L1I PREFETCH  REQUESTED:          0  ISSUED:          0  USEFUL:          0  USELESS:          0
L1I TOTAL MSHR MERGED:       1075
L1I LOAD MSHR MERGED:       1075
L1I RFO MSHR MERGED:          0
L1I PREFETCH MSHR MERGED:          0
L1I WRITEBACK MSHR MERGED:          0
L1I TOTAL ACCESSES:  121712946 HITS:  121710798 MISSES:       2148
L1I LOAD ACCESSES:  121712946 HITS:  121710798 MISSES:       2148
L1I RFO ACCESSES:          0 HITS:          0 MISSES:          0
L1I PREFETCH ACCESSES:          0 HITS:          0 MISSES:          0
L1I WRITEBACK ACCESSES:          0 HITS:          0 MISSES:          0
L1I RQ ACCESS:  500000000
L1I RQ TO_CACHE:  121712946
L1I RQ MERGED:  378287054
L1I RQ FORWARD:          0
L1I WQ ACCESS:          0
L1I WQ TO_CACHE:          0
L1I WQ MERGED:          0
L1I WQ FORWARD:          0
L2C TOTAL     ACCESS:   22492871  HIT:    9146272  MISS:   13346599
L2C LOAD      ACCESS:    3082303  HIT:     412548  MISS:    2669755
L2C RFO       ACCESS:      14407  HIT:      13992  MISS:        415
L2C PREFETCH  ACCESS:   12766209  HIT:    2091568  MISS:   10674641
L2C WRITEBACK ACCESS:    6629952  HIT:    6628164  MISS:       1788
L2C PREFETCH  REQUESTED:     682753  ISSUED:     682753  USEFUL:     183780  USELESS:   10491654
L2C TOTAL MSHR MERGED:      70032
L2C LOAD MSHR MERGED:      22121
L2C RFO MSHR MERGED:          0
L2C PREFETCH MSHR MERGED:      47911
L2C WRITEBACK MSHR MERGED:          0
L2C TOTAL ACCESSES:   22699861 HITS:    9146316 MISSES:   13553545
L2C LOAD ACCESSES:    3082339 HITS:     412584 MISSES:    2669755
L2C RFO ACCESSES:      14407 HITS:      13992 MISSES:        415
L2C PREFETCH ACCESSES:   12973163 HITS:    2091576 MISSES:   10881587
L2C WRITEBACK ACCESSES:    6629952 HITS:    6628164 MISSES:       1788
L2C RQ ACCESS:    3096746
L2C RQ TO_CACHE:    3096710
L2C RQ MERGED:          0
L2C RQ FORWARD:          0
L2C WQ ACCESS:    6629952
L2C WQ TO_CACHE:    6629952
L2C WQ MERGED:          0
L2C WQ FORWARD:         44
LLC TOTAL     ACCESS:   20050341  HIT:    4992432  MISS:   15057909
LLC LOAD      ACCESS:    2647634  HIT:     244059  MISS:    2403575
LLC RFO       ACCESS:        415  HIT:         13  MISS:        402
LLC PREFETCH  ACCESS:   10811061  HIT:     253068  MISS:   10557993
LLC WRITEBACK ACCESS:    6591231  HIT:    4495292  MISS:    2095939
LLC PREFETCH  REQUESTED:          0  ISSUED:          0  USEFUL:      56127  USELESS:   10505439
LLC TOTAL MSHR MERGED:      21184
LLC LOAD MSHR MERGED:      10008
LLC RFO MSHR MERGED:          0
LLC PREFETCH MSHR MERGED:      11176
LLC WRITEBACK MSHR MERGED:          0
LLC TOTAL ACCESSES:   20071527 HITS:    4992433 MISSES:   15079094
LLC LOAD ACCESSES:    2647634 HITS:     244059 MISSES:    2403575
LLC RFO ACCESSES:        415 HITS:         13 MISSES:        402
LLC PREFETCH ACCESSES:   10832247 HITS:     253069 MISSES:   10579178
LLC WRITEBACK ACCESSES:    6591231 HITS:    4495292 MISSES:    2095939
LLC 0 RQ ACCESS:    2648049
LLC 0 RQ TO_CACHE:    2648049
LLC 0 RQ MERGED:          0
LLC 0 RQ FORWARD:          0
LLC WQ ACCESS:    6591232
LLC WQ TO_CACHE:    6591232
LLC WQ MERGED:          0
LLC WQ FORWARD:          1
Major fault: 0 Minor fault: 183991
CPU 0 L1D next line prefetcher final stats
CPU 0 L2C PC-based stride prefetcher final stats
All Misses: 17746769
All Hits: 5234618
SD Algo Stats - Switches: 0 SRR-Repls: 2465777 BRR-Repls: 0

DRAM Statistics
 CHANNEL 0
 RQ ROW_BUFFER_HIT:    7203096  ROW_BUFFER_MISS:    5758872
 DBUS_CONGESTED:   11245525
 WQ ROW_BUFFER_HIT:    1243899  ROW_BUFFER_MISS:    5327580  FULL:          0

 AVG_CONGESTED_CYCLE: 13
LOADS RETIRED: 204440772
INSTR RETIRED: 500000000
