
*** ChampSim Multicore Out-of-Order Simulator ***

Warmup Instructions: 100000000
Simulation Instructions: 500000000
Number of CPUs: 1
LLC sets: 2048
LLC ways: 16
Clean RRIP Policies: 1211230112112301 Dirty RRIP Policies: 1201130112011301 PSEL Width: 10 Track Set: 4294967295 PSEL Mask: 1 Demote Mask: 3040100030401000DS Algo: 0Window size: 0
Off-chip DRAM Size: 4096 MB Channels: 1 Width: 64-bit Data Rate: 1600 MT/s

CPU 0 runs /mnt/beegfs/iconst01/spec2017/Cam4.trace.gz
NOT SORTED
TRACE STRING: /mnt/beegfs/iconst01/spec2017/Cam4.trace.gz
SORTED
TRACE STRING: /mnt/beegfs/iconst01/spec2017/Cam4.trace.gz
INITIAL
TRACE STRING: /mnt/beegfs/iconst01/spec2017/Cam4.trace.gz

champsim_seed used: 325

CPU 0 L1D next line prefetcher
CPU 0 L2C IP-based stride prefetcher
Initialize DRRIP state
Assign rand_sets[0]: 454  LLC: 2048
rand_sets[0]: 454
Assign rand_sets[1]: 1662  LLC: 2048
rand_sets[1]: 1662
Assign rand_sets[2]: 1921  LLC: 2048
rand_sets[2]: 1921
Assign rand_sets[3]: 1131  LLC: 2048
rand_sets[3]: 1131
Assign rand_sets[4]: 331  LLC: 2048
rand_sets[4]: 331
Assign rand_sets[5]: 1531  LLC: 2048
rand_sets[5]: 1531
Assign rand_sets[6]: 482  LLC: 2048
rand_sets[6]: 482
Assign rand_sets[7]: 1275  LLC: 2048
rand_sets[7]: 1275
Assign rand_sets[8]: 1876  LLC: 2048
rand_sets[8]: 1876
Assign rand_sets[9]: 2038  LLC: 2048
rand_sets[9]: 2038
Assign rand_sets[10]: 701  LLC: 2048
rand_sets[10]: 701
Assign rand_sets[11]: 479  LLC: 2048
rand_sets[11]: 479
Assign rand_sets[12]: 892  LLC: 2048
rand_sets[12]: 892
Assign rand_sets[13]: 1820  LLC: 2048
rand_sets[13]: 1820
Assign rand_sets[14]: 1505  LLC: 2048
rand_sets[14]: 1505
Assign rand_sets[15]: 1159  LLC: 2048
rand_sets[15]: 1159
Assign rand_sets[16]: 513  LLC: 2048
rand_sets[16]: 513
Assign rand_sets[17]: 703  LLC: 2048
rand_sets[17]: 703
Assign rand_sets[18]: 561  LLC: 2048
rand_sets[18]: 561
Assign rand_sets[19]: 990  LLC: 2048
rand_sets[19]: 990
Assign rand_sets[20]: 342  LLC: 2048
rand_sets[20]: 342
Assign rand_sets[21]: 882  LLC: 2048
rand_sets[21]: 882
Assign rand_sets[22]: 15  LLC: 2048
rand_sets[22]: 15
Assign rand_sets[23]: 71  LLC: 2048
rand_sets[23]: 71
Assign rand_sets[24]: 1127  LLC: 2048
rand_sets[24]: 1127
Assign rand_sets[25]: 1382  LLC: 2048
rand_sets[25]: 1382
Assign rand_sets[26]: 647  LLC: 2048
rand_sets[26]: 647
Assign rand_sets[27]: 857  LLC: 2048
rand_sets[27]: 857
Assign rand_sets[28]: 1450  LLC: 2048
rand_sets[28]: 1450
Assign rand_sets[29]: 1160  LLC: 2048
rand_sets[29]: 1160
Assign rand_sets[30]: 1852  LLC: 2048
rand_sets[30]: 1852
Assign rand_sets[31]: 1881  LLC: 2048
rand_sets[31]: 1881
Assign rand_sets[32]: 1770  LLC: 2048
rand_sets[32]: 1770
Assign rand_sets[33]: 1622  LLC: 2048
rand_sets[33]: 1622
Assign rand_sets[34]: 275  LLC: 2048
rand_sets[34]: 275
Assign rand_sets[35]: 635  LLC: 2048
rand_sets[35]: 635
Assign rand_sets[36]: 466  LLC: 2048
rand_sets[36]: 466
Assign rand_sets[37]: 1413  LLC: 2048
rand_sets[37]: 1413
Assign rand_sets[38]: 417  LLC: 2048
rand_sets[38]: 417
Assign rand_sets[39]: 472  LLC: 2048
rand_sets[39]: 472
Assign rand_sets[40]: 1340  LLC: 2048
rand_sets[40]: 1340
Assign rand_sets[41]: 852  LLC: 2048
rand_sets[41]: 852
Assign rand_sets[42]: 1365  LLC: 2048
rand_sets[42]: 1365
Assign rand_sets[43]: 47  LLC: 2048
rand_sets[43]: 47
Assign rand_sets[44]: 823  LLC: 2048
rand_sets[44]: 823
Assign rand_sets[45]: 686  LLC: 2048
rand_sets[45]: 686
Assign rand_sets[46]: 1637  LLC: 2048
rand_sets[46]: 1637
Assign rand_sets[47]: 1115  LLC: 2048
rand_sets[47]: 1115
Assign rand_sets[48]: 986  LLC: 2048
rand_sets[48]: 986
Assign rand_sets[49]: 258  LLC: 2048
rand_sets[49]: 258
Assign rand_sets[50]: 633  LLC: 2048
rand_sets[50]: 633
Assign rand_sets[51]: 920  LLC: 2048
rand_sets[51]: 920
Assign rand_sets[52]: 204  LLC: 2048
rand_sets[52]: 204
Assign rand_sets[53]: 227  LLC: 2048
rand_sets[53]: 227
Assign rand_sets[54]: 1818  LLC: 2048
rand_sets[54]: 1818
Assign rand_sets[55]: 886  LLC: 2048
rand_sets[55]: 886
Assign rand_sets[56]: 1422  LLC: 2048
rand_sets[56]: 1422
Assign rand_sets[57]: 607  LLC: 2048
rand_sets[57]: 607
Assign rand_sets[58]: 217  LLC: 2048
rand_sets[58]: 217
Assign rand_sets[59]: 1945  LLC: 2048
rand_sets[59]: 1945
Assign rand_sets[60]: 143  LLC: 2048
rand_sets[60]: 143
Assign rand_sets[61]: 1311  LLC: 2048
rand_sets[61]: 1311
Assign rand_sets[62]: 319  LLC: 2048
rand_sets[62]: 319
Assign rand_sets[63]: 1846  LLC: 2048
rand_sets[63]: 1846
 CLEAN-RRIP-POLICY-1: 1-2-1-1-2-3-0-1- CLEAN-RRIP-POLICY-2: 1-2-1-1-2-3-0-1-
 DIRTY-RRIP-POLICY-1: 1-2-0-1-1-3-0-1- DIRTY-RRIP-POLICY-2: 1-2-0-1-1-3-0-1-
 PSEL width: 10
Heartbeat CPU 0 instructions: 10000000 cycles: 4859184 heartbeat IPC: 2.05796 cumulative IPC: 2.05796 (Simulation time: 0 hr 0 min 16 sec) 
Heartbeat CPU 0 instructions: 20000000 cycles: 9790761 heartbeat IPC: 2.02775 cumulative IPC: 2.04274 (Simulation time: 0 hr 0 min 33 sec) 
Heartbeat CPU 0 instructions: 30000001 cycles: 14563010 heartbeat IPC: 2.09545 cumulative IPC: 2.06001 (Simulation time: 0 hr 0 min 48 sec) 
Heartbeat CPU 0 instructions: 40000000 cycles: 19400039 heartbeat IPC: 2.06738 cumulative IPC: 2.06185 (Simulation time: 0 hr 1 min 5 sec) 
Heartbeat CPU 0 instructions: 50000000 cycles: 24256634 heartbeat IPC: 2.05906 cumulative IPC: 2.06129 (Simulation time: 0 hr 1 min 22 sec) 
Heartbeat CPU 0 instructions: 60000000 cycles: 29182121 heartbeat IPC: 2.03026 cumulative IPC: 2.05605 (Simulation time: 0 hr 1 min 39 sec) 
Heartbeat CPU 0 instructions: 70000001 cycles: 33957128 heartbeat IPC: 2.09424 cumulative IPC: 2.06142 (Simulation time: 0 hr 1 min 54 sec) 
Heartbeat CPU 0 instructions: 80000000 cycles: 38793473 heartbeat IPC: 2.06768 cumulative IPC: 2.0622 (Simulation time: 0 hr 2 min 11 sec) 
Heartbeat CPU 0 instructions: 90000002 cycles: 43647548 heartbeat IPC: 2.06013 cumulative IPC: 2.06197 (Simulation time: 0 hr 2 min 28 sec) 
Heartbeat CPU 0 instructions: 100000000 cycles: 48566406 heartbeat IPC: 2.03299 cumulative IPC: 2.05904 (Simulation time: 0 hr 2 min 45 sec) 

Warmup complete CPU 0 instructions: 100000001 cycles: 48566407 (Simulation time: 0 hr 2 min 45 sec) 

Heartbeat CPU 0 instructions: 110000000 cycles: 61902697 heartbeat IPC: 0.749834 cumulative IPC: 0.749834 (Simulation time: 0 hr 3 min 8 sec) 
Heartbeat CPU 0 instructions: 120000000 cycles: 75672446 heartbeat IPC: 0.72623 cumulative IPC: 0.737843 (Simulation time: 0 hr 3 min 33 sec) 
Heartbeat CPU 0 instructions: 130000000 cycles: 89432209 heartbeat IPC: 0.726757 cumulative IPC: 0.73411 (Simulation time: 0 hr 3 min 58 sec) 
Heartbeat CPU 0 instructions: 140000000 cycles: 103720214 heartbeat IPC: 0.699888 cumulative IPC: 0.725245 (Simulation time: 0 hr 4 min 23 sec) 
Heartbeat CPU 0 instructions: 150000003 cycles: 117093350 heartbeat IPC: 0.747768 cumulative IPC: 0.72964 (Simulation time: 0 hr 4 min 46 sec) 
Heartbeat CPU 0 instructions: 160000000 cycles: 130869292 heartbeat IPC: 0.725903 cumulative IPC: 0.729015 (Simulation time: 0 hr 5 min 11 sec) 
Heartbeat CPU 0 instructions: 170000001 cycles: 144665303 heartbeat IPC: 0.724847 cumulative IPC: 0.728416 (Simulation time: 0 hr 5 min 37 sec) 
Heartbeat CPU 0 instructions: 180000000 cycles: 158935668 heartbeat IPC: 0.700753 cumulative IPC: 0.72484 (Simulation time: 0 hr 6 min 2 sec) 
Heartbeat CPU 0 instructions: 190000003 cycles: 172271706 heartbeat IPC: 0.749848 cumulative IPC: 0.727536 (Simulation time: 0 hr 6 min 25 sec) 
Heartbeat CPU 0 instructions: 200000000 cycles: 186046144 heartbeat IPC: 0.725982 cumulative IPC: 0.72738 (Simulation time: 0 hr 6 min 50 sec) 
Heartbeat CPU 0 instructions: 210000002 cycles: 199845854 heartbeat IPC: 0.724653 cumulative IPC: 0.727131 (Simulation time: 0 hr 7 min 15 sec) 
Heartbeat CPU 0 instructions: 220000000 cycles: 214112677 heartbeat IPC: 0.700927 cumulative IPC: 0.724873 (Simulation time: 0 hr 7 min 40 sec) 
Heartbeat CPU 0 instructions: 230000001 cycles: 227387519 heartbeat IPC: 0.753305 cumulative IPC: 0.726983 (Simulation time: 0 hr 8 min 3 sec) 
Heartbeat CPU 0 instructions: 240000000 cycles: 241151011 heartbeat IPC: 0.72656 cumulative IPC: 0.726953 (Simulation time: 0 hr 8 min 29 sec) 
Heartbeat CPU 0 instructions: 250000001 cycles: 254898715 heartbeat IPC: 0.727394 cumulative IPC: 0.726983 (Simulation time: 0 hr 8 min 54 sec) 
Heartbeat CPU 0 instructions: 260000000 cycles: 269052645 heartbeat IPC: 0.706517 cumulative IPC: 0.725669 (Simulation time: 0 hr 9 min 19 sec) 
Heartbeat CPU 0 instructions: 270000003 cycles: 282462268 heartbeat IPC: 0.745733 cumulative IPC: 0.726819 (Simulation time: 0 hr 9 min 42 sec) 
Heartbeat CPU 0 instructions: 280000000 cycles: 296250449 heartbeat IPC: 0.725259 cumulative IPC: 0.726732 (Simulation time: 0 hr 10 min 7 sec) 
Heartbeat CPU 0 instructions: 290000001 cycles: 310048067 heartbeat IPC: 0.724763 cumulative IPC: 0.726628 (Simulation time: 0 hr 10 min 32 sec) 
Heartbeat CPU 0 instructions: 300000000 cycles: 324141305 heartbeat IPC: 0.70956 cumulative IPC: 0.725756 (Simulation time: 0 hr 10 min 57 sec) 
Heartbeat CPU 0 instructions: 310000000 cycles: 337592787 heartbeat IPC: 0.743412 cumulative IPC: 0.726577 (Simulation time: 0 hr 11 min 20 sec) 
Heartbeat CPU 0 instructions: 320000000 cycles: 351421249 heartbeat IPC: 0.723146 cumulative IPC: 0.726421 (Simulation time: 0 hr 11 min 46 sec) 
Heartbeat CPU 0 instructions: 330000000 cycles: 365231336 heartbeat IPC: 0.724108 cumulative IPC: 0.72632 (Simulation time: 0 hr 12 min 11 sec) 
Heartbeat CPU 0 instructions: 340000000 cycles: 379297772 heartbeat IPC: 0.710912 cumulative IPC: 0.725664 (Simulation time: 0 hr 12 min 36 sec) 
Heartbeat CPU 0 instructions: 350000000 cycles: 392793844 heartbeat IPC: 0.740956 cumulative IPC: 0.726264 (Simulation time: 0 hr 12 min 58 sec) 
Heartbeat CPU 0 instructions: 360000000 cycles: 406662236 heartbeat IPC: 0.721064 cumulative IPC: 0.726063 (Simulation time: 0 hr 13 min 23 sec) 
Heartbeat CPU 0 instructions: 370000003 cycles: 420478279 heartbeat IPC: 0.723796 cumulative IPC: 0.725978 (Simulation time: 0 hr 13 min 48 sec) 
Heartbeat CPU 0 instructions: 380000000 cycles: 434509891 heartbeat IPC: 0.712676 cumulative IPC: 0.725495 (Simulation time: 0 hr 14 min 14 sec) 
Heartbeat CPU 0 instructions: 390000003 cycles: 448036518 heartbeat IPC: 0.739283 cumulative IPC: 0.725962 (Simulation time: 0 hr 14 min 36 sec) 
Heartbeat CPU 0 instructions: 400000000 cycles: 461898142 heartbeat IPC: 0.721416 cumulative IPC: 0.725809 (Simulation time: 0 hr 15 min 1 sec) 
Heartbeat CPU 0 instructions: 410000000 cycles: 475679965 heartbeat IPC: 0.725593 cumulative IPC: 0.725802 (Simulation time: 0 hr 15 min 26 sec) 
Heartbeat CPU 0 instructions: 420000000 cycles: 489701841 heartbeat IPC: 0.713171 cumulative IPC: 0.725401 (Simulation time: 0 hr 15 min 51 sec) 
Heartbeat CPU 0 instructions: 430000003 cycles: 503247703 heartbeat IPC: 0.738233 cumulative IPC: 0.725783 (Simulation time: 0 hr 16 min 14 sec) 
Heartbeat CPU 0 instructions: 440000000 cycles: 517105883 heartbeat IPC: 0.721595 cumulative IPC: 0.725659 (Simulation time: 0 hr 16 min 39 sec) 
Heartbeat CPU 0 instructions: 450000000 cycles: 530916444 heartbeat IPC: 0.724084 cumulative IPC: 0.725614 (Simulation time: 0 hr 17 min 4 sec) 
Heartbeat CPU 0 instructions: 460000000 cycles: 544918776 heartbeat IPC: 0.714167 cumulative IPC: 0.725291 (Simulation time: 0 hr 17 min 29 sec) 
Heartbeat CPU 0 instructions: 470000001 cycles: 558463768 heartbeat IPC: 0.73828 cumulative IPC: 0.725636 (Simulation time: 0 hr 17 min 52 sec) 
Heartbeat CPU 0 instructions: 480000000 cycles: 572300222 heartbeat IPC: 0.722728 cumulative IPC: 0.725559 (Simulation time: 0 hr 18 min 17 sec) 
Heartbeat CPU 0 instructions: 490000002 cycles: 586077797 heartbeat IPC: 0.725817 cumulative IPC: 0.725566 (Simulation time: 0 hr 18 min 42 sec) 
Heartbeat CPU 0 instructions: 500000000 cycles: 600076604 heartbeat IPC: 0.714346 cumulative IPC: 0.725281 (Simulation time: 0 hr 19 min 7 sec) 
Heartbeat CPU 0 instructions: 510000002 cycles: 613576591 heartbeat IPC: 0.740742 cumulative IPC: 0.725651 (Simulation time: 0 hr 19 min 30 sec) 
Heartbeat CPU 0 instructions: 520000000 cycles: 627402410 heartbeat IPC: 0.723284 cumulative IPC: 0.725594 (Simulation time: 0 hr 19 min 55 sec) 
Heartbeat CPU 0 instructions: 530000003 cycles: 641162627 heartbeat IPC: 0.726733 cumulative IPC: 0.725621 (Simulation time: 0 hr 20 min 20 sec) 
Heartbeat CPU 0 instructions: 540000000 cycles: 655183861 heartbeat IPC: 0.713204 cumulative IPC: 0.725334 (Simulation time: 0 hr 20 min 45 sec) 
Heartbeat CPU 0 instructions: 550000003 cycles: 668721390 heartbeat IPC: 0.738687 cumulative IPC: 0.725625 (Simulation time: 0 hr 21 min 8 sec) 
Heartbeat CPU 0 instructions: 560000000 cycles: 682522404 heartbeat IPC: 0.724584 cumulative IPC: 0.725602 (Simulation time: 0 hr 21 min 32 sec) 
Heartbeat CPU 0 instructions: 570000001 cycles: 696310955 heartbeat IPC: 0.725239 cumulative IPC: 0.725595 (Simulation time: 0 hr 21 min 57 sec) 
Heartbeat CPU 0 instructions: 580000000 cycles: 710354375 heartbeat IPC: 0.712077 cumulative IPC: 0.725308 (Simulation time: 0 hr 22 min 22 sec) 
Heartbeat CPU 0 instructions: 590000000 cycles: 723815026 heartbeat IPC: 0.742906 cumulative IPC: 0.725659 (Simulation time: 0 hr 22 min 45 sec) 
Heartbeat CPU 0 instructions: 600000000 cycles: 737627504 heartbeat IPC: 0.723983 cumulative IPC: 0.725625 (Simulation time: 0 hr 23 min 10 sec) 
Finished CPU 0 instructions: 500000001 cycles: 689061105 cumulative IPC: 0.725625 (Simulation time: 0 hr 23 min 10 sec) 

CPU 0 Branch Prediction Accuracy: 97.5275% MPKI: 2.1997
Number of Branches: 44482865 Number of Mispredictions: 1099852
Number of LOAD Instructions: 144955155
Number of LOAD Instructions (ROI): 144955155
Number of STORE Instructions: 55921098
Number of STORE Instructions (ROI): 55921098
Total Destination Memory Operands: 57111147
Total Destination Memory Operands (ROI): 57111147
Total Source Memory Operands: 144955155
Total Source Memory Operands (ROI): 144955155
Number of DEPENDED LOADS: 13454933
Number of DEPENDED LOADS (ROI): 13454933
Number of SQ_ADDED: 57111126
Number of SQ_ADDED (ROI): 57111126
Number of LQ_ADDED: 174521699
Number of LQ_ADDED (ROI): 174521699
Number of Instructions read from trace: 600000256

ChampSim completed all CPUs

Region of Interest Statistics

CPU 0 cumulative IPC: 0.725625 instructions: 500000001 cycles: 689061105
ITLB TOTAL     ACCESS:  136068280  HIT:  136065727  MISS:       2553
ITLB LOAD      ACCESS:  136068280  HIT:  136065727  MISS:       2553
ITLB RFO       ACCESS:          0  HIT:          0  MISS:          0
ITLB PREFETCH  ACCESS:          0  HIT:          0  MISS:          0
ITLB WRITEBACK ACCESS:          0  HIT:          0  MISS:          0
ITLB PREFETCH  REQUESTED:          0  ISSUED:          0  USEFUL:          0  USELESS:          0
ITLB TOTAL MSHR MERGED:       4365
ITLB LOAD MSHR MERGED:       4365
ITLB RFO MSHR MERGED:          0
ITLB PREFETCH MSHR MERGED:          0
ITLB WRITEBACK MSHR MERGED:          0
ITLB TOTAL ACCESSES:  136072645 HITS:  136065727 MISSES:       6918
ITLB LOAD ACCESSES:  136072645 HITS:  136065727 MISSES:       6918
ITLB RFO ACCESSES:          0 HITS:          0 MISSES:          0
ITLB PREFETCH ACCESSES:          0 HITS:          0 MISSES:          0
ITLB WRITEBACK ACCESSES:          0 HITS:          0 MISSES:          0
ITLB RQ ACCESS:  500000202
ITLB RQ TO_CACHE:  136072645
ITLB RQ MERGED:  363927557
ITLB RQ FORWARD:          0
ITLB WQ ACCESS:          0
ITLB WQ TO_CACHE:          0
ITLB WQ MERGED:          0
ITLB WQ FORWARD:          0
DTLB TOTAL     ACCESS:  111547673  HIT:  111411480  MISS:     136193
DTLB LOAD      ACCESS:   78951856  HIT:   78826232  MISS:     125624
DTLB RFO       ACCESS:   32595817  HIT:   32585248  MISS:      10569
DTLB PREFETCH  ACCESS:          0  HIT:          0  MISS:          0
DTLB WRITEBACK ACCESS:          0  HIT:          0  MISS:          0
DTLB PREFETCH  REQUESTED:          0  ISSUED:          0  USEFUL:          0  USELESS:          0
DTLB TOTAL MSHR MERGED:      63164
DTLB LOAD MSHR MERGED:      50871
DTLB RFO MSHR MERGED:      12293
DTLB PREFETCH MSHR MERGED:          0
DTLB WRITEBACK MSHR MERGED:          0
DTLB TOTAL ACCESSES:  111610837 HITS:  111411480 MISSES:     199357
DTLB LOAD ACCESSES:   79002727 HITS:   78826232 MISSES:     176495
DTLB RFO ACCESSES:   32608110 HITS:   32585248 MISSES:      22862
DTLB PREFETCH ACCESSES:          0 HITS:          0 MISSES:          0
DTLB WRITEBACK ACCESSES:          0 HITS:          0 MISSES:          0
DTLB RQ ACCESS:  157180487
DTLB RQ TO_CACHE:  111610837
DTLB RQ MERGED:   45569650
DTLB RQ FORWARD:          0
DTLB WQ ACCESS:          0
DTLB WQ TO_CACHE:          0
DTLB WQ MERGED:          0
DTLB WQ FORWARD:          0
L1D TOTAL     ACCESS:  198195734  HIT:  188354768  MISS:    9840966
L1D LOAD      ACCESS:   79948810  HIT:   75686290  MISS:    4262520
L1D RFO       ACCESS:   44495307  HIT:   43594774  MISS:     900533
L1D PREFETCH  ACCESS:   73751617  HIT:   69073704  MISS:    4677913
L1D WRITEBACK ACCESS:          0  HIT:          0  MISS:          0
L1D PREFETCH  REQUESTED:   80346417  ISSUED:   79891015  USEFUL:    1819678  USELESS:    2858144
L1D TOTAL MSHR MERGED:    2532592
L1D LOAD MSHR MERGED:     521305
L1D RFO MSHR MERGED:    1456810
L1D PREFETCH MSHR MERGED:     554477
L1D WRITEBACK MSHR MERGED:          0
L1D TOTAL ACCESSES:  200750448 HITS:  188376890 MISSES:   12373558
L1D LOAD ACCESSES:   80359876 HITS:   75699749 MISSES:    4660127
L1D RFO ACCESSES:   45948953 HITS:   43594774 MISSES:    2354179
L1D PREFETCH ACCESSES:   74441619 HITS:   69082367 MISSES:    5359252
L1D WRITEBACK ACCESSES:          0 HITS:          0 MISSES:          0
L1D RQ ACCESS:  109538517
L1D RQ TO_CACHE:   80346417
L1D RQ MERGED:   29178641
L1D RQ FORWARD:          0
L1D WQ ACCESS:   47641970
L1D WQ TO_CACHE:   45948953
L1D WQ MERGED:    1693017
L1D WQ FORWARD:      22122
L1I TOTAL     ACCESS:  161537757  HIT:  161273791  MISS:     263966
L1I LOAD      ACCESS:  161537757  HIT:  161273791  MISS:     263966
L1I RFO       ACCESS:          0  HIT:          0  MISS:          0
L1I PREFETCH  ACCESS:          0  HIT:          0  MISS:          0
L1I WRITEBACK ACCESS:          0  HIT:          0  MISS:          0
L1I PREFETCH  REQUESTED:          0  ISSUED:          0  USEFUL:          0  USELESS:          0
L1I TOTAL MSHR MERGED:     261131
L1I LOAD MSHR MERGED:     261131
L1I RFO MSHR MERGED:          0
L1I PREFETCH MSHR MERGED:          0
L1I WRITEBACK MSHR MERGED:          0
L1I TOTAL ACCESSES:  161798888 HITS:  161273791 MISSES:     525097
L1I LOAD ACCESSES:  161798888 HITS:  161273791 MISSES:     525097
L1I RFO ACCESSES:          0 HITS:          0 MISSES:          0
L1I PREFETCH ACCESSES:          0 HITS:          0 MISSES:          0
L1I WRITEBACK ACCESSES:          0 HITS:          0 MISSES:          0
L1I RQ ACCESS:  500000202
L1I RQ TO_CACHE:  161798888
L1I RQ MERGED:  338201314
L1I RQ FORWARD:          0
L1I WQ ACCESS:          0
L1I WQ TO_CACHE:          0
L1I WQ MERGED:          0
L1I WQ FORWARD:          0
L2C TOTAL     ACCESS:   11771708  HIT:   10382388  MISS:    1389320
L2C LOAD      ACCESS:    4402722  HIT:    3906033  MISS:     496689
L2C RFO       ACCESS:     897300  HIT:     536199  MISS:     361101
L2C PREFETCH  ACCESS:    5284185  HIT:    4755601  MISS:     528584
L2C WRITEBACK ACCESS:    1187501  HIT:    1184555  MISS:       2946
L2C PREFETCH  REQUESTED:     504730  ISSUED:     504730  USEFUL:     114988  USELESS:     413787
L2C TOTAL MSHR MERGED:       1916
L2C LOAD MSHR MERGED:        364
L2C RFO MSHR MERGED:          0
L2C PREFETCH MSHR MERGED:       1552
L2C WRITEBACK MSHR MERGED:          0
L2C TOTAL ACCESSES:   11776428 HITS:   10382611 MISSES:    1393817
L2C LOAD ACCESSES:    4402788 HITS:    3906099 MISSES:     496689
L2C RFO ACCESSES:     897369 HITS:     536268 MISSES:     361101
L2C PREFETCH ACCESSES:    5288770 HITS:    4755689 MISSES:     533081
L2C WRITEBACK ACCESSES:    1187501 HITS:    1184555 MISSES:       2946
L2C RQ ACCESS:    5300157
L2C RQ TO_CACHE:    5300022
L2C RQ MERGED:          0
L2C RQ FORWARD:          0
L2C WQ ACCESS:    1187501
L2C WQ TO_CACHE:    1187501
L2C WQ MERGED:          0
L2C WQ FORWARD:        223
LLC TOTAL     ACCESS:    1849571  HIT:     934125  MISS:     915446
LLC LOAD      ACCESS:     496322  HIT:     200526  MISS:     295796
LLC RFO       ACCESS:     361098  HIT:     149757  MISS:     211341
LLC PREFETCH  ACCESS:     531407  HIT:     315939  MISS:     215468
LLC WRITEBACK ACCESS:     460744  HIT:     267903  MISS:     192841
LLC PREFETCH  REQUESTED:          0  ISSUED:          0  USEFUL:      13869  USELESS:     201656
LLC TOTAL MSHR MERGED:         88
LLC LOAD MSHR MERGED:         37
LLC RFO MSHR MERGED:          0
LLC PREFETCH MSHR MERGED:         51
LLC WRITEBACK MSHR MERGED:          0
LLC TOTAL ACCESSES:    1849681 HITS:     934147 MISSES:     915534
LLC LOAD ACCESSES:     496325 HITS:     200529 MISSES:     295796
LLC RFO ACCESSES:     361101 HITS:     149760 MISSES:     211341
LLC PREFETCH ACCESSES:     531511 HITS:     315955 MISSES:     215556
LLC WRITEBACK ACCESSES:     460744 HITS:     267903 MISSES:     192841
LLC 0 RQ ACCESS:     857426
LLC 0 RQ TO_CACHE:     857420
LLC 0 RQ MERGED:          0
LLC 0 RQ FORWARD:          0
LLC WQ ACCESS:     460744
LLC WQ TO_CACHE:     460744
LLC WQ MERGED:          0
LLC WQ FORWARD:         22
Major fault: 0 Minor fault: 3073
CPU 0 L1D next line prefetcher final stats
CPU 0 L2C PC-based stride prefetcher final stats
All Misses: 1086364
All Hits: 1089898
SD Algo Stats - Switches: 0 SRR-Repls: 335942 BRR-Repls: 0

DRAM Statistics
 CHANNEL 0
 RQ ROW_BUFFER_HIT:     462230  ROW_BUFFER_MISS:     260115
 DBUS_CONGESTED:     596871
 WQ ROW_BUFFER_HIT:      29505  ROW_BUFFER_MISS:     194466  FULL:          0

 AVG_CONGESTED_CYCLE: 13
LOADS RETIRED: 120673965
INSTR RETIRED: 500000000
