
*** ChampSim Multicore Out-of-Order Simulator ***

Warmup Instructions: 100000000
Simulation Instructions: 500000000
Number of CPUs: 1
LLC sets: 2048
LLC ways: 16
Clean RRIP Policies: 2213230222132302 Dirty RRIP Policies: 2203130222031302 PSEL Width: 10 Track Set: 4294967295 PSEL Mask: 1 Demote Mask: 3042100030421000DS Algo: 0Window size: 0
Off-chip DRAM Size: 4096 MB Channels: 1 Width: 64-bit Data Rate: 1600 MT/s

CPU 0 runs /mnt/beegfs/iconst01/spec2017/Omnetpp.trace.gz
NOT SORTED
TRACE STRING: /mnt/beegfs/iconst01/spec2017/Omnetpp.trace.gz
SORTED
TRACE STRING: /mnt/beegfs/iconst01/spec2017/Omnetpp.trace.gz
INITIAL
TRACE STRING: /mnt/beegfs/iconst01/spec2017/Omnetpp.trace.gz

champsim_seed used: 739

CPU 0 L1D next line prefetcher
CPU 0 L2C IP-based stride prefetcher
Initialize DRRIP state
Assign rand_sets[0]: 454  LLC: 2048
rand_sets[0]: 454
Assign rand_sets[1]: 1662  LLC: 2048
rand_sets[1]: 1662
Assign rand_sets[2]: 1921  LLC: 2048
rand_sets[2]: 1921
Assign rand_sets[3]: 1131  LLC: 2048
rand_sets[3]: 1131
Assign rand_sets[4]: 331  LLC: 2048
rand_sets[4]: 331
Assign rand_sets[5]: 1531  LLC: 2048
rand_sets[5]: 1531
Assign rand_sets[6]: 482  LLC: 2048
rand_sets[6]: 482
Assign rand_sets[7]: 1275  LLC: 2048
rand_sets[7]: 1275
Assign rand_sets[8]: 1876  LLC: 2048
rand_sets[8]: 1876
Assign rand_sets[9]: 2038  LLC: 2048
rand_sets[9]: 2038
Assign rand_sets[10]: 701  LLC: 2048
rand_sets[10]: 701
Assign rand_sets[11]: 479  LLC: 2048
rand_sets[11]: 479
Assign rand_sets[12]: 892  LLC: 2048
rand_sets[12]: 892
Assign rand_sets[13]: 1820  LLC: 2048
rand_sets[13]: 1820
Assign rand_sets[14]: 1505  LLC: 2048
rand_sets[14]: 1505
Assign rand_sets[15]: 1159  LLC: 2048
rand_sets[15]: 1159
Assign rand_sets[16]: 513  LLC: 2048
rand_sets[16]: 513
Assign rand_sets[17]: 703  LLC: 2048
rand_sets[17]: 703
Assign rand_sets[18]: 561  LLC: 2048
rand_sets[18]: 561
Assign rand_sets[19]: 990  LLC: 2048
rand_sets[19]: 990
Assign rand_sets[20]: 342  LLC: 2048
rand_sets[20]: 342
Assign rand_sets[21]: 882  LLC: 2048
rand_sets[21]: 882
Assign rand_sets[22]: 15  LLC: 2048
rand_sets[22]: 15
Assign rand_sets[23]: 71  LLC: 2048
rand_sets[23]: 71
Assign rand_sets[24]: 1127  LLC: 2048
rand_sets[24]: 1127
Assign rand_sets[25]: 1382  LLC: 2048
rand_sets[25]: 1382
Assign rand_sets[26]: 647  LLC: 2048
rand_sets[26]: 647
Assign rand_sets[27]: 857  LLC: 2048
rand_sets[27]: 857
Assign rand_sets[28]: 1450  LLC: 2048
rand_sets[28]: 1450
Assign rand_sets[29]: 1160  LLC: 2048
rand_sets[29]: 1160
Assign rand_sets[30]: 1852  LLC: 2048
rand_sets[30]: 1852
Assign rand_sets[31]: 1881  LLC: 2048
rand_sets[31]: 1881
Assign rand_sets[32]: 1770  LLC: 2048
rand_sets[32]: 1770
Assign rand_sets[33]: 1622  LLC: 2048
rand_sets[33]: 1622
Assign rand_sets[34]: 275  LLC: 2048
rand_sets[34]: 275
Assign rand_sets[35]: 635  LLC: 2048
rand_sets[35]: 635
Assign rand_sets[36]: 466  LLC: 2048
rand_sets[36]: 466
Assign rand_sets[37]: 1413  LLC: 2048
rand_sets[37]: 1413
Assign rand_sets[38]: 417  LLC: 2048
rand_sets[38]: 417
Assign rand_sets[39]: 472  LLC: 2048
rand_sets[39]: 472
Assign rand_sets[40]: 1340  LLC: 2048
rand_sets[40]: 1340
Assign rand_sets[41]: 852  LLC: 2048
rand_sets[41]: 852
Assign rand_sets[42]: 1365  LLC: 2048
rand_sets[42]: 1365
Assign rand_sets[43]: 47  LLC: 2048
rand_sets[43]: 47
Assign rand_sets[44]: 823  LLC: 2048
rand_sets[44]: 823
Assign rand_sets[45]: 686  LLC: 2048
rand_sets[45]: 686
Assign rand_sets[46]: 1637  LLC: 2048
rand_sets[46]: 1637
Assign rand_sets[47]: 1115  LLC: 2048
rand_sets[47]: 1115
Assign rand_sets[48]: 986  LLC: 2048
rand_sets[48]: 986
Assign rand_sets[49]: 258  LLC: 2048
rand_sets[49]: 258
Assign rand_sets[50]: 633  LLC: 2048
rand_sets[50]: 633
Assign rand_sets[51]: 920  LLC: 2048
rand_sets[51]: 920
Assign rand_sets[52]: 204  LLC: 2048
rand_sets[52]: 204
Assign rand_sets[53]: 227  LLC: 2048
rand_sets[53]: 227
Assign rand_sets[54]: 1818  LLC: 2048
rand_sets[54]: 1818
Assign rand_sets[55]: 886  LLC: 2048
rand_sets[55]: 886
Assign rand_sets[56]: 1422  LLC: 2048
rand_sets[56]: 1422
Assign rand_sets[57]: 607  LLC: 2048
rand_sets[57]: 607
Assign rand_sets[58]: 217  LLC: 2048
rand_sets[58]: 217
Assign rand_sets[59]: 1945  LLC: 2048
rand_sets[59]: 1945
Assign rand_sets[60]: 143  LLC: 2048
rand_sets[60]: 143
Assign rand_sets[61]: 1311  LLC: 2048
rand_sets[61]: 1311
Assign rand_sets[62]: 319  LLC: 2048
rand_sets[62]: 319
Assign rand_sets[63]: 1846  LLC: 2048
rand_sets[63]: 1846
 CLEAN-RRIP-POLICY-1: 2-2-1-3-2-3-0-2- CLEAN-RRIP-POLICY-2: 2-2-1-3-2-3-0-2-
 DIRTY-RRIP-POLICY-1: 2-2-0-3-1-3-0-2- DIRTY-RRIP-POLICY-2: 2-2-0-3-1-3-0-2-
 PSEL width: 10
Heartbeat CPU 0 instructions: 10000000 cycles: 7319993 heartbeat IPC: 1.36612 cumulative IPC: 1.36612 (Simulation time: 0 hr 0 min 19 sec) 
Heartbeat CPU 0 instructions: 20000000 cycles: 14623766 heartbeat IPC: 1.36916 cumulative IPC: 1.36764 (Simulation time: 0 hr 0 min 39 sec) 
Heartbeat CPU 0 instructions: 30000003 cycles: 21925222 heartbeat IPC: 1.36959 cumulative IPC: 1.36829 (Simulation time: 0 hr 0 min 58 sec) 
Heartbeat CPU 0 instructions: 40000000 cycles: 29213494 heartbeat IPC: 1.37207 cumulative IPC: 1.36923 (Simulation time: 0 hr 1 min 18 sec) 
Heartbeat CPU 0 instructions: 50000000 cycles: 36490109 heartbeat IPC: 1.37427 cumulative IPC: 1.37023 (Simulation time: 0 hr 1 min 38 sec) 
Heartbeat CPU 0 instructions: 60000000 cycles: 43770157 heartbeat IPC: 1.37362 cumulative IPC: 1.3708 (Simulation time: 0 hr 1 min 58 sec) 
Heartbeat CPU 0 instructions: 70000001 cycles: 51055477 heartbeat IPC: 1.37262 cumulative IPC: 1.37106 (Simulation time: 0 hr 2 min 18 sec) 
Heartbeat CPU 0 instructions: 80000000 cycles: 58330551 heartbeat IPC: 1.37456 cumulative IPC: 1.37149 (Simulation time: 0 hr 2 min 38 sec) 
Heartbeat CPU 0 instructions: 90000000 cycles: 65636995 heartbeat IPC: 1.36865 cumulative IPC: 1.37118 (Simulation time: 0 hr 2 min 58 sec) 
Heartbeat CPU 0 instructions: 100000000 cycles: 72929180 heartbeat IPC: 1.37133 cumulative IPC: 1.37119 (Simulation time: 0 hr 3 min 18 sec) 

Warmup complete CPU 0 instructions: 100000002 cycles: 72929181 (Simulation time: 0 hr 3 min 18 sec) 

Heartbeat CPU 0 instructions: 110000002 cycles: 113417245 heartbeat IPC: 0.246986 cumulative IPC: 0.246986 (Simulation time: 0 hr 3 min 57 sec) 
Heartbeat CPU 0 instructions: 120000000 cycles: 153623389 heartbeat IPC: 0.248718 cumulative IPC: 0.247849 (Simulation time: 0 hr 4 min 37 sec) 
Heartbeat CPU 0 instructions: 130000002 cycles: 194046182 heartbeat IPC: 0.247385 cumulative IPC: 0.247694 (Simulation time: 0 hr 5 min 17 sec) 
Heartbeat CPU 0 instructions: 140000000 cycles: 234609659 heartbeat IPC: 0.246527 cumulative IPC: 0.247402 (Simulation time: 0 hr 5 min 57 sec) 
Heartbeat CPU 0 instructions: 150000002 cycles: 274730098 heartbeat IPC: 0.24925 cumulative IPC: 0.247769 (Simulation time: 0 hr 6 min 37 sec) 
Heartbeat CPU 0 instructions: 160000000 cycles: 314886258 heartbeat IPC: 0.249028 cumulative IPC: 0.247978 (Simulation time: 0 hr 7 min 17 sec) 
Heartbeat CPU 0 instructions: 170000001 cycles: 354282838 heartbeat IPC: 0.253829 cumulative IPC: 0.248797 (Simulation time: 0 hr 7 min 57 sec) 
Heartbeat CPU 0 instructions: 180000000 cycles: 394399083 heartbeat IPC: 0.249276 cumulative IPC: 0.248857 (Simulation time: 0 hr 8 min 36 sec) 
Heartbeat CPU 0 instructions: 190000002 cycles: 434500932 heartbeat IPC: 0.249365 cumulative IPC: 0.248913 (Simulation time: 0 hr 9 min 16 sec) 
Heartbeat CPU 0 instructions: 200000000 cycles: 475829011 heartbeat IPC: 0.241966 cumulative IPC: 0.248201 (Simulation time: 0 hr 9 min 56 sec) 
Heartbeat CPU 0 instructions: 210000003 cycles: 516010081 heartbeat IPC: 0.248873 cumulative IPC: 0.248262 (Simulation time: 0 hr 10 min 36 sec) 
Heartbeat CPU 0 instructions: 220000000 cycles: 556401490 heartbeat IPC: 0.247577 cumulative IPC: 0.248204 (Simulation time: 0 hr 11 min 16 sec) 
Heartbeat CPU 0 instructions: 230000000 cycles: 596746389 heartbeat IPC: 0.247863 cumulative IPC: 0.248178 (Simulation time: 0 hr 11 min 56 sec) 
Heartbeat CPU 0 instructions: 240000000 cycles: 636829143 heartbeat IPC: 0.249484 cumulative IPC: 0.248271 (Simulation time: 0 hr 12 min 35 sec) 
Heartbeat CPU 0 instructions: 250000000 cycles: 676954534 heartbeat IPC: 0.249219 cumulative IPC: 0.248334 (Simulation time: 0 hr 13 min 14 sec) 
Heartbeat CPU 0 instructions: 260000000 cycles: 717177916 heartbeat IPC: 0.248612 cumulative IPC: 0.248351 (Simulation time: 0 hr 13 min 54 sec) 
Heartbeat CPU 0 instructions: 270000000 cycles: 757486585 heartbeat IPC: 0.248086 cumulative IPC: 0.248336 (Simulation time: 0 hr 14 min 33 sec) 
Heartbeat CPU 0 instructions: 280000000 cycles: 798126469 heartbeat IPC: 0.246064 cumulative IPC: 0.248208 (Simulation time: 0 hr 15 min 12 sec) 
Heartbeat CPU 0 instructions: 290000001 cycles: 837988659 heartbeat IPC: 0.250864 cumulative IPC: 0.248347 (Simulation time: 0 hr 15 min 51 sec) 
Heartbeat CPU 0 instructions: 300000000 cycles: 878556681 heartbeat IPC: 0.2465 cumulative IPC: 0.248254 (Simulation time: 0 hr 16 min 30 sec) 
Heartbeat CPU 0 instructions: 310000000 cycles: 919047971 heartbeat IPC: 0.246967 cumulative IPC: 0.248192 (Simulation time: 0 hr 17 min 9 sec) 
Heartbeat CPU 0 instructions: 320000000 cycles: 959250079 heartbeat IPC: 0.248743 cumulative IPC: 0.248217 (Simulation time: 0 hr 17 min 48 sec) 
Heartbeat CPU 0 instructions: 330000000 cycles: 999421441 heartbeat IPC: 0.248934 cumulative IPC: 0.248248 (Simulation time: 0 hr 18 min 27 sec) 
Heartbeat CPU 0 instructions: 340000000 cycles: 1040224603 heartbeat IPC: 0.245079 cumulative IPC: 0.248114 (Simulation time: 0 hr 19 min 6 sec) 
Heartbeat CPU 0 instructions: 350000001 cycles: 1080472644 heartbeat IPC: 0.248459 cumulative IPC: 0.248128 (Simulation time: 0 hr 19 min 44 sec) 
Heartbeat CPU 0 instructions: 360000000 cycles: 1121014090 heartbeat IPC: 0.246661 cumulative IPC: 0.248072 (Simulation time: 0 hr 20 min 23 sec) 
Heartbeat CPU 0 instructions: 370000000 cycles: 1160666131 heartbeat IPC: 0.252194 cumulative IPC: 0.248222 (Simulation time: 0 hr 21 min 1 sec) 
Heartbeat CPU 0 instructions: 380000000 cycles: 1201199092 heartbeat IPC: 0.246713 cumulative IPC: 0.248168 (Simulation time: 0 hr 21 min 40 sec) 
Heartbeat CPU 0 instructions: 390000001 cycles: 1241278509 heartbeat IPC: 0.249505 cumulative IPC: 0.248213 (Simulation time: 0 hr 22 min 18 sec) 
Heartbeat CPU 0 instructions: 400000000 cycles: 1281444993 heartbeat IPC: 0.248964 cumulative IPC: 0.248238 (Simulation time: 0 hr 22 min 57 sec) 
Heartbeat CPU 0 instructions: 410000000 cycles: 1321462107 heartbeat IPC: 0.249893 cumulative IPC: 0.248291 (Simulation time: 0 hr 23 min 35 sec) 
Heartbeat CPU 0 instructions: 420000000 cycles: 1361518467 heartbeat IPC: 0.249648 cumulative IPC: 0.248334 (Simulation time: 0 hr 24 min 14 sec) 
Heartbeat CPU 0 instructions: 430000000 cycles: 1401619917 heartbeat IPC: 0.249368 cumulative IPC: 0.248365 (Simulation time: 0 hr 24 min 52 sec) 
Heartbeat CPU 0 instructions: 440000000 cycles: 1441778701 heartbeat IPC: 0.249012 cumulative IPC: 0.248384 (Simulation time: 0 hr 25 min 31 sec) 
Heartbeat CPU 0 instructions: 450000002 cycles: 1481805310 heartbeat IPC: 0.249834 cumulative IPC: 0.248425 (Simulation time: 0 hr 26 min 9 sec) 
Heartbeat CPU 0 instructions: 460000000 cycles: 1521261335 heartbeat IPC: 0.253447 cumulative IPC: 0.248562 (Simulation time: 0 hr 26 min 47 sec) 
Heartbeat CPU 0 instructions: 470000000 cycles: 1561573691 heartbeat IPC: 0.248063 cumulative IPC: 0.248548 (Simulation time: 0 hr 27 min 26 sec) 
Heartbeat CPU 0 instructions: 480000000 cycles: 1601537455 heartbeat IPC: 0.250227 cumulative IPC: 0.248592 (Simulation time: 0 hr 28 min 5 sec) 
Heartbeat CPU 0 instructions: 490000001 cycles: 1641652846 heartbeat IPC: 0.249281 cumulative IPC: 0.24861 (Simulation time: 0 hr 28 min 43 sec) 
Heartbeat CPU 0 instructions: 500000000 cycles: 1681949142 heartbeat IPC: 0.248162 cumulative IPC: 0.248599 (Simulation time: 0 hr 29 min 21 sec) 
Heartbeat CPU 0 instructions: 510000000 cycles: 1721713126 heartbeat IPC: 0.251484 cumulative IPC: 0.248668 (Simulation time: 0 hr 29 min 58 sec) 
Heartbeat CPU 0 instructions: 520000000 cycles: 1762256091 heartbeat IPC: 0.246652 cumulative IPC: 0.24862 (Simulation time: 0 hr 30 min 36 sec) 
Heartbeat CPU 0 instructions: 530000000 cycles: 1802244887 heartbeat IPC: 0.25007 cumulative IPC: 0.248653 (Simulation time: 0 hr 31 min 12 sec) 
Heartbeat CPU 0 instructions: 540000000 cycles: 1842016242 heartbeat IPC: 0.251437 cumulative IPC: 0.248716 (Simulation time: 0 hr 31 min 48 sec) 
Heartbeat CPU 0 instructions: 550000001 cycles: 1882477443 heartbeat IPC: 0.24715 cumulative IPC: 0.248681 (Simulation time: 0 hr 32 min 24 sec) 
Heartbeat CPU 0 instructions: 560000000 cycles: 1923048035 heartbeat IPC: 0.246484 cumulative IPC: 0.248633 (Simulation time: 0 hr 33 min 1 sec) 
Heartbeat CPU 0 instructions: 570000003 cycles: 1963554263 heartbeat IPC: 0.246876 cumulative IPC: 0.248595 (Simulation time: 0 hr 33 min 37 sec) 
Heartbeat CPU 0 instructions: 580000000 cycles: 2003893189 heartbeat IPC: 0.247899 cumulative IPC: 0.248581 (Simulation time: 0 hr 34 min 13 sec) 
Heartbeat CPU 0 instructions: 590000001 cycles: 2044634077 heartbeat IPC: 0.245454 cumulative IPC: 0.248516 (Simulation time: 0 hr 34 min 50 sec) 
Heartbeat CPU 0 instructions: 600000000 cycles: 2085182870 heartbeat IPC: 0.246616 cumulative IPC: 0.248478 (Simulation time: 0 hr 35 min 26 sec) 
Finished CPU 0 instructions: 500000000 cycles: 2012253697 cumulative IPC: 0.248478 (Simulation time: 0 hr 35 min 26 sec) 

CPU 0 Branch Prediction Accuracy: 96.2429% MPKI: 5.85335
Number of Branches: 77897976 Number of Mispredictions: 2926674
Number of LOAD Instructions: 193081861
Number of LOAD Instructions (ROI): 193081861
Number of STORE Instructions: 97310749
Number of STORE Instructions (ROI): 97310749
Total Destination Memory Operands: 106368027
Total Destination Memory Operands (ROI): 106368027
Total Source Memory Operands: 193081861
Total Source Memory Operands (ROI): 193081861
Number of DEPENDED LOADS: 6434706
Number of DEPENDED LOADS (ROI): 6434706
Number of SQ_ADDED: 106367982
Number of SQ_ADDED (ROI): 106367982
Number of LQ_ADDED: 427955102
Number of LQ_ADDED (ROI): 427955102
Number of Instructions read from trace: 600000256

ChampSim completed all CPUs

Region of Interest Statistics

CPU 0 cumulative IPC: 0.248478 instructions: 500000000 cycles: 2012253697
ITLB TOTAL     ACCESS:  151297918  HIT:  151282087  MISS:      15831
ITLB LOAD      ACCESS:  151297918  HIT:  151282087  MISS:      15831
ITLB RFO       ACCESS:          0  HIT:          0  MISS:          0
ITLB PREFETCH  ACCESS:          0  HIT:          0  MISS:          0
ITLB WRITEBACK ACCESS:          0  HIT:          0  MISS:          0
ITLB PREFETCH  REQUESTED:          0  ISSUED:          0  USEFUL:          0  USELESS:          0
ITLB TOTAL MSHR MERGED:      17508
ITLB LOAD MSHR MERGED:      17508
ITLB RFO MSHR MERGED:          0
ITLB PREFETCH MSHR MERGED:          0
ITLB WRITEBACK MSHR MERGED:          0
ITLB TOTAL ACCESSES:  151315426 HITS:  151282087 MISSES:      33339
ITLB LOAD ACCESSES:  151315426 HITS:  151282087 MISSES:      33339
ITLB RFO ACCESSES:          0 HITS:          0 MISSES:          0
ITLB PREFETCH ACCESSES:          0 HITS:          0 MISSES:          0
ITLB WRITEBACK ACCESSES:          0 HITS:          0 MISSES:          0
ITLB RQ ACCESS:  500000242
ITLB RQ TO_CACHE:  151315426
ITLB RQ MERGED:  348684816
ITLB RQ FORWARD:          0
ITLB WQ ACCESS:          0
ITLB WQ TO_CACHE:          0
ITLB WQ MERGED:          0
ITLB WQ FORWARD:          0
DTLB TOTAL     ACCESS:  199568215  HIT:  194189138  MISS:    5379077
DTLB LOAD      ACCESS:  123141965  HIT:  118123370  MISS:    5018595
DTLB RFO       ACCESS:   76426250  HIT:   76065768  MISS:     360482
DTLB PREFETCH  ACCESS:          0  HIT:          0  MISS:          0
DTLB WRITEBACK ACCESS:          0  HIT:          0  MISS:          0
DTLB PREFETCH  REQUESTED:          0  ISSUED:          0  USEFUL:          0  USELESS:          0
DTLB TOTAL MSHR MERGED:     917453
DTLB LOAD MSHR MERGED:     807512
DTLB RFO MSHR MERGED:     109941
DTLB PREFETCH MSHR MERGED:          0
DTLB WRITEBACK MSHR MERGED:          0
DTLB TOTAL ACCESSES:  200485668 HITS:  194189138 MISSES:    6296530
DTLB LOAD ACCESSES:  123949477 HITS:  118123370 MISSES:    5826107
DTLB RFO ACCESSES:   76536191 HITS:   76065768 MISSES:     470423
DTLB PREFETCH ACCESSES:          0 HITS:          0 MISSES:          0
DTLB WRITEBACK ACCESSES:          0 HITS:          0 MISSES:          0
DTLB RQ ACCESS:  243890839
DTLB RQ TO_CACHE:  200485668
DTLB RQ MERGED:   43405171
DTLB RQ FORWARD:          0
DTLB WQ ACCESS:          0
DTLB WQ TO_CACHE:          0
DTLB WQ MERGED:          0
DTLB WQ FORWARD:          0
L1D TOTAL     ACCESS:  335639293  HIT:  317543182  MISS:   18096111
L1D LOAD      ACCESS:  127704903  HIT:  118763175  MISS:    8941728
L1D RFO       ACCESS:   87079286  HIT:   86300710  MISS:     778576
L1D PREFETCH  ACCESS:  120855104  HIT:  112479297  MISS:    8375807
L1D WRITEBACK ACCESS:          0  HIT:          0  MISS:          0
L1D PREFETCH  REQUESTED:  128483423  ISSUED:  126885420  USEFUL:    1744309  USELESS:    6631510
L1D TOTAL MSHR MERGED:    3829365
L1D LOAD MSHR MERGED:     941016
L1D RFO MSHR MERGED:    1063385
L1D PREFETCH MSHR MERGED:    1824964
L1D WRITEBACK MSHR MERGED:          0
L1D TOTAL ACCESSES:  339555493 HITS:  317630017 MISSES:   21925476
L1D LOAD ACCESSES:  128483882 HITS:  118763634 MISSES:    9720248
L1D RFO ACCESSES:   88084442 HITS:   86300710 MISSES:    1783732
L1D PREFETCH ACCESSES:  122987169 HITS:  112565673 MISSES:   10421496
L1D WRITEBACK ACCESSES:          0 HITS:          0 MISSES:          0
L1D RQ ACCESS:  155259454
L1D RQ TO_CACHE:  128483423
L1D RQ MERGED:   26775572
L1D RQ FORWARD:          0
L1D WQ ACCESS:   88631385
L1D WQ TO_CACHE:   88084441
L1D WQ MERGED:     546944
L1D WQ FORWARD:      86835
L1I TOTAL     ACCESS:  175598832  HIT:  175332361  MISS:     266471
L1I LOAD      ACCESS:  175598832  HIT:  175332361  MISS:     266471
L1I RFO       ACCESS:          0  HIT:          0  MISS:          0
L1I PREFETCH  ACCESS:          0  HIT:          0  MISS:          0
L1I WRITEBACK ACCESS:          0  HIT:          0  MISS:          0
L1I PREFETCH  REQUESTED:          0  ISSUED:          0  USEFUL:          0  USELESS:          0
L1I TOTAL MSHR MERGED:     213349
L1I LOAD MSHR MERGED:     213349
L1I RFO MSHR MERGED:          0
L1I PREFETCH MSHR MERGED:          0
L1I WRITEBACK MSHR MERGED:          0
L1I TOTAL ACCESSES:  175812181 HITS:  175332361 MISSES:     479820
L1I LOAD ACCESSES:  175812181 HITS:  175332361 MISSES:     479820
L1I RFO ACCESSES:          0 HITS:          0 MISSES:          0
L1I PREFETCH ACCESSES:          0 HITS:          0 MISSES:          0
L1I WRITEBACK ACCESSES:          0 HITS:          0 MISSES:          0
L1I RQ ACCESS:  500000242
L1I RQ TO_CACHE:  175812181
L1I RQ MERGED:  324188061
L1I RQ FORWARD:          0
L1I WQ ACCESS:          0
L1I WQ TO_CACHE:          0
L1I WQ MERGED:          0
L1I WQ FORWARD:          0
L2C TOTAL     ACCESS:   23738647  HIT:   12112889  MISS:   11625758
L2C LOAD      ACCESS:    9044527  HIT:    3564936  MISS:    5479591
L2C RFO       ACCESS:     720291  HIT:     130123  MISS:     590168
L2C PREFETCH  ACCESS:    8613527  HIT:    3086215  MISS:    5527312
L2C WRITEBACK ACCESS:    5360302  HIT:    5331615  MISS:      28687
L2C PREFETCH  REQUESTED:      18040  ISSUED:      18040  USEFUL:     322997  USELESS:    5204490
L2C TOTAL MSHR MERGED:         24
L2C LOAD MSHR MERGED:          2
L2C RFO MSHR MERGED:          0
L2C PREFETCH MSHR MERGED:         22
L2C WRITEBACK MSHR MERGED:          0
L2C TOTAL ACCESSES:   23740465 HITS:   12114675 MISSES:   11625790
L2C LOAD ACCESSES:    9045703 HITS:    3566112 MISSES:    5479591
L2C RFO ACCESSES:     720347 HITS:     130179 MISSES:     590168
L2C PREFETCH ACCESSES:    8614113 HITS:    3086769 MISSES:    5527344
L2C WRITEBACK ACCESSES:    5360302 HITS:    5331615 MISSES:      28687
L2C RQ ACCESS:    9766050
L2C RQ TO_CACHE:    9764818
L2C RQ MERGED:          0
L2C RQ FORWARD:          0
L2C WQ ACCESS:    5360302
L2C WQ TO_CACHE:    5360302
L2C WQ MERGED:          0
L2C WQ FORWARD:       1786
LLC TOTAL     ACCESS:   15448687  HIT:    6488882  MISS:    8959805
LLC LOAD      ACCESS:    5479560  HIT:    2033868  MISS:    3445692
LLC RFO       ACCESS:     590166  HIT:     286790  MISS:     303376
LLC PREFETCH  ACCESS:    5527305  HIT:    1100439  MISS:    4426866
LLC WRITEBACK ACCESS:    3851656  HIT:    3067785  MISS:     783871
LLC PREFETCH  REQUESTED:          0  ISSUED:          0  USEFUL:      24656  USELESS:    4402725
LLC TOTAL MSHR MERGED:          0
LLC LOAD MSHR MERGED:          0
LLC RFO MSHR MERGED:          0
LLC PREFETCH MSHR MERGED:          0
LLC WRITEBACK MSHR MERGED:          0
LLC TOTAL ACCESSES:   15448735 HITS:    6488930 MISSES:    8959805
LLC LOAD ACCESSES:    5479589 HITS:    2033897 MISSES:    3445692
LLC RFO ACCESSES:     590168 HITS:     286792 MISSES:     303376
LLC PREFETCH ACCESSES:    5527322 HITS:    1100456 MISSES:    4426866
LLC WRITEBACK ACCESSES:    3851656 HITS:    3067785 MISSES:     783871
LLC 0 RQ ACCESS:    6069757
LLC 0 RQ TO_CACHE:    6069726
LLC 0 RQ MERGED:          0
LLC 0 RQ FORWARD:          0
LLC WQ ACCESS:    3851656
LLC WQ TO_CACHE:    3851656
LLC WQ MERGED:          0
LLC WQ FORWARD:         48
Major fault: 0 Minor fault: 44814
CPU 0 L1D next line prefetcher final stats
CPU 0 L2C PC-based stride prefetcher final stats
All Misses: 10838350
All Hits: 7782838
SD Algo Stats - Switches: 0 SRR-Repls: 3931900 BRR-Repls: 0

DRAM Statistics
 CHANNEL 0
 RQ ROW_BUFFER_HIT:    1450681  ROW_BUFFER_MISS:    6724114
 DBUS_CONGESTED:    5429048
 WQ ROW_BUFFER_HIT:     166346  ROW_BUFFER_MISS:    2038184  FULL:          0

 AVG_CONGESTED_CYCLE: 13
LOADS RETIRED: 160808997
INSTR RETIRED: 500000000
