
*** ChampSim Multicore Out-of-Order Simulator ***

Warmup Instructions: 100000000
Simulation Instructions: 500000000
Number of CPUs: 1
LLC sets: 2048
LLC ways: 16
Clean RRIP Policies: 2213230122132301 Dirty RRIP Policies: 2203132122031321 PSEL Width: 10 Track Set: 4294967295 PSEL Mask: 1 Demote Mask: 3044100030441000DS Algo: 0Window size: 0
Off-chip DRAM Size: 4096 MB Channels: 1 Width: 64-bit Data Rate: 1600 MT/s

CPU 0 runs /mnt/beegfs/iconst01/spec2017/Blender.trace.gz
NOT SORTED
TRACE STRING: /mnt/beegfs/iconst01/spec2017/Blender.trace.gz
SORTED
TRACE STRING: /mnt/beegfs/iconst01/spec2017/Blender.trace.gz
INITIAL
TRACE STRING: /mnt/beegfs/iconst01/spec2017/Blender.trace.gz

champsim_seed used: 700

CPU 0 L1D next line prefetcher
CPU 0 L2C IP-based stride prefetcher
Initialize DRRIP state
Assign rand_sets[0]: 454  LLC: 2048
rand_sets[0]: 454
Assign rand_sets[1]: 1662  LLC: 2048
rand_sets[1]: 1662
Assign rand_sets[2]: 1921  LLC: 2048
rand_sets[2]: 1921
Assign rand_sets[3]: 1131  LLC: 2048
rand_sets[3]: 1131
Assign rand_sets[4]: 331  LLC: 2048
rand_sets[4]: 331
Assign rand_sets[5]: 1531  LLC: 2048
rand_sets[5]: 1531
Assign rand_sets[6]: 482  LLC: 2048
rand_sets[6]: 482
Assign rand_sets[7]: 1275  LLC: 2048
rand_sets[7]: 1275
Assign rand_sets[8]: 1876  LLC: 2048
rand_sets[8]: 1876
Assign rand_sets[9]: 2038  LLC: 2048
rand_sets[9]: 2038
Assign rand_sets[10]: 701  LLC: 2048
rand_sets[10]: 701
Assign rand_sets[11]: 479  LLC: 2048
rand_sets[11]: 479
Assign rand_sets[12]: 892  LLC: 2048
rand_sets[12]: 892
Assign rand_sets[13]: 1820  LLC: 2048
rand_sets[13]: 1820
Assign rand_sets[14]: 1505  LLC: 2048
rand_sets[14]: 1505
Assign rand_sets[15]: 1159  LLC: 2048
rand_sets[15]: 1159
Assign rand_sets[16]: 513  LLC: 2048
rand_sets[16]: 513
Assign rand_sets[17]: 703  LLC: 2048
rand_sets[17]: 703
Assign rand_sets[18]: 561  LLC: 2048
rand_sets[18]: 561
Assign rand_sets[19]: 990  LLC: 2048
rand_sets[19]: 990
Assign rand_sets[20]: 342  LLC: 2048
rand_sets[20]: 342
Assign rand_sets[21]: 882  LLC: 2048
rand_sets[21]: 882
Assign rand_sets[22]: 15  LLC: 2048
rand_sets[22]: 15
Assign rand_sets[23]: 71  LLC: 2048
rand_sets[23]: 71
Assign rand_sets[24]: 1127  LLC: 2048
rand_sets[24]: 1127
Assign rand_sets[25]: 1382  LLC: 2048
rand_sets[25]: 1382
Assign rand_sets[26]: 647  LLC: 2048
rand_sets[26]: 647
Assign rand_sets[27]: 857  LLC: 2048
rand_sets[27]: 857
Assign rand_sets[28]: 1450  LLC: 2048
rand_sets[28]: 1450
Assign rand_sets[29]: 1160  LLC: 2048
rand_sets[29]: 1160
Assign rand_sets[30]: 1852  LLC: 2048
rand_sets[30]: 1852
Assign rand_sets[31]: 1881  LLC: 2048
rand_sets[31]: 1881
Assign rand_sets[32]: 1770  LLC: 2048
rand_sets[32]: 1770
Assign rand_sets[33]: 1622  LLC: 2048
rand_sets[33]: 1622
Assign rand_sets[34]: 275  LLC: 2048
rand_sets[34]: 275
Assign rand_sets[35]: 635  LLC: 2048
rand_sets[35]: 635
Assign rand_sets[36]: 466  LLC: 2048
rand_sets[36]: 466
Assign rand_sets[37]: 1413  LLC: 2048
rand_sets[37]: 1413
Assign rand_sets[38]: 417  LLC: 2048
rand_sets[38]: 417
Assign rand_sets[39]: 472  LLC: 2048
rand_sets[39]: 472
Assign rand_sets[40]: 1340  LLC: 2048
rand_sets[40]: 1340
Assign rand_sets[41]: 852  LLC: 2048
rand_sets[41]: 852
Assign rand_sets[42]: 1365  LLC: 2048
rand_sets[42]: 1365
Assign rand_sets[43]: 47  LLC: 2048
rand_sets[43]: 47
Assign rand_sets[44]: 823  LLC: 2048
rand_sets[44]: 823
Assign rand_sets[45]: 686  LLC: 2048
rand_sets[45]: 686
Assign rand_sets[46]: 1637  LLC: 2048
rand_sets[46]: 1637
Assign rand_sets[47]: 1115  LLC: 2048
rand_sets[47]: 1115
Assign rand_sets[48]: 986  LLC: 2048
rand_sets[48]: 986
Assign rand_sets[49]: 258  LLC: 2048
rand_sets[49]: 258
Assign rand_sets[50]: 633  LLC: 2048
rand_sets[50]: 633
Assign rand_sets[51]: 920  LLC: 2048
rand_sets[51]: 920
Assign rand_sets[52]: 204  LLC: 2048
rand_sets[52]: 204
Assign rand_sets[53]: 227  LLC: 2048
rand_sets[53]: 227
Assign rand_sets[54]: 1818  LLC: 2048
rand_sets[54]: 1818
Assign rand_sets[55]: 886  LLC: 2048
rand_sets[55]: 886
Assign rand_sets[56]: 1422  LLC: 2048
rand_sets[56]: 1422
Assign rand_sets[57]: 607  LLC: 2048
rand_sets[57]: 607
Assign rand_sets[58]: 217  LLC: 2048
rand_sets[58]: 217
Assign rand_sets[59]: 1945  LLC: 2048
rand_sets[59]: 1945
Assign rand_sets[60]: 143  LLC: 2048
rand_sets[60]: 143
Assign rand_sets[61]: 1311  LLC: 2048
rand_sets[61]: 1311
Assign rand_sets[62]: 319  LLC: 2048
rand_sets[62]: 319
Assign rand_sets[63]: 1846  LLC: 2048
rand_sets[63]: 1846
 CLEAN-RRIP-POLICY-1: 2-2-1-3-2-3-0-1- CLEAN-RRIP-POLICY-2: 2-2-1-3-2-3-0-1-
 DIRTY-RRIP-POLICY-1: 2-2-0-3-1-3-2-1- DIRTY-RRIP-POLICY-2: 2-2-0-3-1-3-2-1-
 PSEL width: 10
Heartbeat CPU 0 instructions: 10000002 cycles: 5480930 heartbeat IPC: 1.82451 cumulative IPC: 1.82451 (Simulation time: 0 hr 0 min 14 sec) 
Heartbeat CPU 0 instructions: 20000000 cycles: 10913521 heartbeat IPC: 1.84074 cumulative IPC: 1.83259 (Simulation time: 0 hr 0 min 27 sec) 
Heartbeat CPU 0 instructions: 30000000 cycles: 16447389 heartbeat IPC: 1.80705 cumulative IPC: 1.824 (Simulation time: 0 hr 0 min 41 sec) 
Heartbeat CPU 0 instructions: 40000000 cycles: 21898152 heartbeat IPC: 1.83461 cumulative IPC: 1.82664 (Simulation time: 0 hr 0 min 55 sec) 
Heartbeat CPU 0 instructions: 50000000 cycles: 27400066 heartbeat IPC: 1.81755 cumulative IPC: 1.82481 (Simulation time: 0 hr 1 min 8 sec) 
Heartbeat CPU 0 instructions: 60000000 cycles: 32778896 heartbeat IPC: 1.85914 cumulative IPC: 1.83045 (Simulation time: 0 hr 1 min 22 sec) 
Heartbeat CPU 0 instructions: 70000001 cycles: 38335186 heartbeat IPC: 1.79976 cumulative IPC: 1.826 (Simulation time: 0 hr 1 min 36 sec) 
Heartbeat CPU 0 instructions: 80000000 cycles: 43795390 heartbeat IPC: 1.83143 cumulative IPC: 1.82668 (Simulation time: 0 hr 1 min 49 sec) 
Heartbeat CPU 0 instructions: 90000000 cycles: 49242148 heartbeat IPC: 1.83595 cumulative IPC: 1.8277 (Simulation time: 0 hr 2 min 3 sec) 
Heartbeat CPU 0 instructions: 100000000 cycles: 54787286 heartbeat IPC: 1.80338 cumulative IPC: 1.82524 (Simulation time: 0 hr 2 min 17 sec) 

Warmup complete CPU 0 instructions: 100000002 cycles: 54787287 (Simulation time: 0 hr 2 min 17 sec) 

Heartbeat CPU 0 instructions: 110000001 cycles: 69189729 heartbeat IPC: 0.694327 cumulative IPC: 0.694327 (Simulation time: 0 hr 2 min 36 sec) 
Heartbeat CPU 0 instructions: 120000000 cycles: 84195635 heartbeat IPC: 0.666404 cumulative IPC: 0.680079 (Simulation time: 0 hr 2 min 56 sec) 
Heartbeat CPU 0 instructions: 130000000 cycles: 98697142 heartbeat IPC: 0.689583 cumulative IPC: 0.683218 (Simulation time: 0 hr 3 min 16 sec) 
Heartbeat CPU 0 instructions: 140000000 cycles: 113041710 heartbeat IPC: 0.697128 cumulative IPC: 0.686643 (Simulation time: 0 hr 3 min 35 sec) 
Heartbeat CPU 0 instructions: 150000000 cycles: 127750688 heartbeat IPC: 0.679857 cumulative IPC: 0.685275 (Simulation time: 0 hr 3 min 55 sec) 
Heartbeat CPU 0 instructions: 160000000 cycles: 142872163 heartbeat IPC: 0.661311 cumulative IPC: 0.681161 (Simulation time: 0 hr 4 min 15 sec) 
Heartbeat CPU 0 instructions: 170000001 cycles: 157736582 heartbeat IPC: 0.672747 cumulative IPC: 0.679946 (Simulation time: 0 hr 4 min 34 sec) 
Heartbeat CPU 0 instructions: 180000000 cycles: 172667871 heartbeat IPC: 0.669734 cumulative IPC: 0.678653 (Simulation time: 0 hr 4 min 54 sec) 
Heartbeat CPU 0 instructions: 190000002 cycles: 187144217 heartbeat IPC: 0.690782 cumulative IPC: 0.67998 (Simulation time: 0 hr 5 min 13 sec) 
Heartbeat CPU 0 instructions: 200000000 cycles: 201501439 heartbeat IPC: 0.696513 cumulative IPC: 0.681597 (Simulation time: 0 hr 5 min 33 sec) 
Heartbeat CPU 0 instructions: 210000003 cycles: 216124329 heartbeat IPC: 0.68386 cumulative IPC: 0.681803 (Simulation time: 0 hr 5 min 53 sec) 
Heartbeat CPU 0 instructions: 220000000 cycles: 230820726 heartbeat IPC: 0.680439 cumulative IPC: 0.681689 (Simulation time: 0 hr 6 min 13 sec) 
Heartbeat CPU 0 instructions: 230000001 cycles: 245934457 heartbeat IPC: 0.66165 cumulative IPC: 0.680104 (Simulation time: 0 hr 6 min 33 sec) 
Heartbeat CPU 0 instructions: 240000000 cycles: 260848714 heartbeat IPC: 0.670499 cumulative IPC: 0.679409 (Simulation time: 0 hr 6 min 52 sec) 
Heartbeat CPU 0 instructions: 250000003 cycles: 275679601 heartbeat IPC: 0.674269 cumulative IPC: 0.679064 (Simulation time: 0 hr 7 min 11 sec) 
Heartbeat CPU 0 instructions: 260000000 cycles: 291167932 heartbeat IPC: 0.645647 cumulative IPC: 0.676874 (Simulation time: 0 hr 7 min 31 sec) 
Heartbeat CPU 0 instructions: 270000003 cycles: 305752028 heartbeat IPC: 0.685679 cumulative IPC: 0.677386 (Simulation time: 0 hr 7 min 51 sec) 
Heartbeat CPU 0 instructions: 280000000 cycles: 320248997 heartbeat IPC: 0.689799 cumulative IPC: 0.678064 (Simulation time: 0 hr 8 min 11 sec) 
Heartbeat CPU 0 instructions: 290000002 cycles: 334698587 heartbeat IPC: 0.692061 cumulative IPC: 0.678786 (Simulation time: 0 hr 8 min 30 sec) 
Heartbeat CPU 0 instructions: 300000000 cycles: 350091321 heartbeat IPC: 0.649657 cumulative IPC: 0.677268 (Simulation time: 0 hr 8 min 50 sec) 
Heartbeat CPU 0 instructions: 310000000 cycles: 365065747 heartbeat IPC: 0.667805 cumulative IPC: 0.676811 (Simulation time: 0 hr 9 min 10 sec) 
Heartbeat CPU 0 instructions: 320000000 cycles: 379871993 heartbeat IPC: 0.675391 cumulative IPC: 0.676747 (Simulation time: 0 hr 9 min 29 sec) 
Heartbeat CPU 0 instructions: 330000000 cycles: 395630495 heartbeat IPC: 0.634578 cumulative IPC: 0.674797 (Simulation time: 0 hr 9 min 49 sec) 
Heartbeat CPU 0 instructions: 340000000 cycles: 410267092 heartbeat IPC: 0.683219 cumulative IPC: 0.675144 (Simulation time: 0 hr 10 min 9 sec) 
Heartbeat CPU 0 instructions: 350000000 cycles: 424898830 heartbeat IPC: 0.683446 cumulative IPC: 0.675472 (Simulation time: 0 hr 10 min 28 sec) 
Heartbeat CPU 0 instructions: 360000000 cycles: 439562644 heartbeat IPC: 0.681951 cumulative IPC: 0.675719 (Simulation time: 0 hr 10 min 48 sec) 
Heartbeat CPU 0 instructions: 370000002 cycles: 454985729 heartbeat IPC: 0.648379 cumulative IPC: 0.674665 (Simulation time: 0 hr 11 min 8 sec) 
Heartbeat CPU 0 instructions: 380000000 cycles: 469840628 heartbeat IPC: 0.673178 cumulative IPC: 0.674612 (Simulation time: 0 hr 11 min 27 sec) 
Heartbeat CPU 0 instructions: 390000003 cycles: 484798862 heartbeat IPC: 0.668528 cumulative IPC: 0.6744 (Simulation time: 0 hr 11 min 47 sec) 
Heartbeat CPU 0 instructions: 400000000 cycles: 500648637 heartbeat IPC: 0.630924 cumulative IPC: 0.672855 (Simulation time: 0 hr 12 min 7 sec) 
Heartbeat CPU 0 instructions: 410000001 cycles: 515674844 heartbeat IPC: 0.665504 cumulative IPC: 0.672615 (Simulation time: 0 hr 12 min 26 sec) 
Heartbeat CPU 0 instructions: 420000000 cycles: 530405135 heartbeat IPC: 0.678873 cumulative IPC: 0.672809 (Simulation time: 0 hr 12 min 45 sec) 
Heartbeat CPU 0 instructions: 430000000 cycles: 545815560 heartbeat IPC: 0.648911 cumulative IPC: 0.672059 (Simulation time: 0 hr 13 min 5 sec) 
Heartbeat CPU 0 instructions: 440000000 cycles: 560617589 heartbeat IPC: 0.675583 cumulative IPC: 0.672162 (Simulation time: 0 hr 13 min 24 sec) 
Heartbeat CPU 0 instructions: 450000000 cycles: 575595794 heartbeat IPC: 0.667637 cumulative IPC: 0.672032 (Simulation time: 0 hr 13 min 43 sec) 
Heartbeat CPU 0 instructions: 460000000 cycles: 591335489 heartbeat IPC: 0.635336 cumulative IPC: 0.670956 (Simulation time: 0 hr 14 min 3 sec) 
Heartbeat CPU 0 instructions: 470000000 cycles: 606410955 heartbeat IPC: 0.663329 cumulative IPC: 0.670747 (Simulation time: 0 hr 14 min 22 sec) 
Heartbeat CPU 0 instructions: 480000000 cycles: 621275329 heartbeat IPC: 0.672749 cumulative IPC: 0.6708 (Simulation time: 0 hr 14 min 41 sec) 
Heartbeat CPU 0 instructions: 490000002 cycles: 636545110 heartbeat IPC: 0.654888 cumulative IPC: 0.670382 (Simulation time: 0 hr 15 min 1 sec) 
Heartbeat CPU 0 instructions: 500000000 cycles: 651415745 heartbeat IPC: 0.672466 cumulative IPC: 0.670434 (Simulation time: 0 hr 15 min 20 sec) 
Heartbeat CPU 0 instructions: 510000001 cycles: 666524052 heartbeat IPC: 0.661888 cumulative IPC: 0.670223 (Simulation time: 0 hr 15 min 39 sec) 
Heartbeat CPU 0 instructions: 520000000 cycles: 681989918 heartbeat IPC: 0.646585 cumulative IPC: 0.66964 (Simulation time: 0 hr 15 min 58 sec) 
Heartbeat CPU 0 instructions: 530000001 cycles: 697406394 heartbeat IPC: 0.648657 cumulative IPC: 0.669137 (Simulation time: 0 hr 16 min 18 sec) 
Heartbeat CPU 0 instructions: 540000000 cycles: 711987499 heartbeat IPC: 0.685819 cumulative IPC: 0.669507 (Simulation time: 0 hr 16 min 36 sec) 
Heartbeat CPU 0 instructions: 550000001 cycles: 727243651 heartbeat IPC: 0.655473 cumulative IPC: 0.669188 (Simulation time: 0 hr 16 min 56 sec) 
Heartbeat CPU 0 instructions: 560000000 cycles: 742043841 heartbeat IPC: 0.675667 cumulative IPC: 0.669328 (Simulation time: 0 hr 17 min 15 sec) 
Heartbeat CPU 0 instructions: 570000002 cycles: 757192078 heartbeat IPC: 0.660143 cumulative IPC: 0.66913 (Simulation time: 0 hr 17 min 33 sec) 
Heartbeat CPU 0 instructions: 580000000 cycles: 772199590 heartbeat IPC: 0.666333 cumulative IPC: 0.669071 (Simulation time: 0 hr 17 min 51 sec) 
Heartbeat CPU 0 instructions: 590000001 cycles: 787197313 heartbeat IPC: 0.666768 cumulative IPC: 0.669024 (Simulation time: 0 hr 18 min 9 sec) 
Heartbeat CPU 0 instructions: 600000000 cycles: 801847220 heartbeat IPC: 0.682598 cumulative IPC: 0.66929 (Simulation time: 0 hr 18 min 27 sec) 
Finished CPU 0 instructions: 500000000 cycles: 747059941 cumulative IPC: 0.66929 (Simulation time: 0 hr 18 min 27 sec) 

CPU 0 Branch Prediction Accuracy: 93.7783% MPKI: 10.0718
Number of Branches: 80940586 Number of Mispredictions: 5035908
Number of LOAD Instructions: 184238101
Number of LOAD Instructions (ROI): 184238101
Number of STORE Instructions: 33143298
Number of STORE Instructions (ROI): 33143298
Total Destination Memory Operands: 33324321
Total Destination Memory Operands (ROI): 33324321
Total Source Memory Operands: 184238101
Total Source Memory Operands (ROI): 184238101
Number of DEPENDED LOADS: 4461366
Number of DEPENDED LOADS (ROI): 4461366
Number of SQ_ADDED: 33324292
Number of SQ_ADDED (ROI): 33324292
Number of LQ_ADDED: 184867516
Number of LQ_ADDED (ROI): 184867516
Number of Instructions read from trace: 600000256

ChampSim completed all CPUs

Region of Interest Statistics

CPU 0 cumulative IPC: 0.66929 instructions: 500000000 cycles: 747059941
ITLB TOTAL     ACCESS:   77746064  HIT:   77746064  MISS:          0
ITLB LOAD      ACCESS:   77746064  HIT:   77746064  MISS:          0
ITLB RFO       ACCESS:          0  HIT:          0  MISS:          0
ITLB PREFETCH  ACCESS:          0  HIT:          0  MISS:          0
ITLB WRITEBACK ACCESS:          0  HIT:          0  MISS:          0
ITLB PREFETCH  REQUESTED:          0  ISSUED:          0  USEFUL:          0  USELESS:          0
ITLB TOTAL MSHR MERGED:          0
ITLB LOAD MSHR MERGED:          0
ITLB RFO MSHR MERGED:          0
ITLB PREFETCH MSHR MERGED:          0
ITLB WRITEBACK MSHR MERGED:          0
ITLB TOTAL ACCESSES:   77746064 HITS:   77746064 MISSES:          0
ITLB LOAD ACCESSES:   77746064 HITS:   77746064 MISSES:          0
ITLB RFO ACCESSES:          0 HITS:          0 MISSES:          0
ITLB PREFETCH ACCESSES:          0 HITS:          0 MISSES:          0
ITLB WRITEBACK ACCESSES:          0 HITS:          0 MISSES:          0
ITLB RQ ACCESS:  500000245
ITLB RQ TO_CACHE:   77746064
ITLB RQ MERGED:  422254181
ITLB RQ FORWARD:          0
ITLB WQ ACCESS:          0
ITLB WQ TO_CACHE:          0
ITLB WQ MERGED:          0
ITLB WQ FORWARD:          0
DTLB TOTAL     ACCESS:   88436767  HIT:   87299917  MISS:    1136850
DTLB LOAD      ACCESS:   66310055  HIT:   65177445  MISS:    1132610
DTLB RFO       ACCESS:   22126712  HIT:   22122472  MISS:       4240
DTLB PREFETCH  ACCESS:          0  HIT:          0  MISS:          0
DTLB WRITEBACK ACCESS:          0  HIT:          0  MISS:          0
DTLB PREFETCH  REQUESTED:          0  ISSUED:          0  USEFUL:          0  USELESS:          0
DTLB TOTAL MSHR MERGED:     135526
DTLB LOAD MSHR MERGED:     133709
DTLB RFO MSHR MERGED:       1817
DTLB PREFETCH MSHR MERGED:          0
DTLB WRITEBACK MSHR MERGED:          0
DTLB TOTAL ACCESSES:   88572293 HITS:   87299917 MISSES:    1272376
DTLB LOAD ACCESSES:   66443764 HITS:   65177445 MISSES:    1266319
DTLB RFO ACCESSES:   22128529 HITS:   22122472 MISSES:       6057
DTLB PREFETCH ACCESSES:          0 HITS:          0 MISSES:          0
DTLB WRITEBACK ACCESSES:          0 HITS:          0 MISSES:          0
DTLB RQ ACCESS:  177579372
DTLB RQ TO_CACHE:   88572293
DTLB RQ MERGED:   89007079
DTLB RQ FORWARD:          0
DTLB WQ ACCESS:          0
DTLB WQ TO_CACHE:          0
DTLB WQ MERGED:          0
DTLB WQ FORWARD:          0
L1D TOTAL     ACCESS:  142081254  HIT:  136522207  MISS:    5559047
L1D LOAD      ACCESS:   61383983  HIT:   58275584  MISS:    3108399
L1D RFO       ACCESS:   27668860  HIT:   27587051  MISS:      81809
L1D PREFETCH  ACCESS:   53028411  HIT:   50659572  MISS:    2368839
L1D WRITEBACK ACCESS:          0  HIT:          0  MISS:          0
L1D PREFETCH  REQUESTED:   61670196  ISSUED:   60752029  USEFUL:     661959  USELESS:    1706885
L1D TOTAL MSHR MERGED:    1198266
L1D LOAD MSHR MERGED:     388975
L1D RFO MSHR MERGED:     164219
L1D PREFETCH MSHR MERGED:     645072
L1D WRITEBACK MSHR MERGED:          0
L1D TOTAL ACCESSES:  143377134 HITS:  136619821 MISSES:    6757313
L1D LOAD ACCESSES:   61670206 HITS:   58275594 MISSES:    3394612
L1D RFO ACCESSES:   27829287 HITS:   27587051 MISSES:     242236
L1D PREFETCH ACCESSES:   53877641 HITS:   50757176 MISSES:    3120465
L1D WRITEBACK ACCESSES:          0 HITS:          0 MISSES:          0
L1D RQ ACCESS:  149746406
L1D RQ TO_CACHE:   61670196
L1D RQ MERGED:   88076200
L1D RQ FORWARD:          0
L1D WQ ACCESS:   27832966
L1D WQ TO_CACHE:   27829287
L1D WQ MERGED:       3679
L1D WQ FORWARD:      97614
L1I TOTAL     ACCESS:   96223405  HIT:   96064137  MISS:     159268
L1I LOAD      ACCESS:   96223405  HIT:   96064137  MISS:     159268
L1I RFO       ACCESS:          0  HIT:          0  MISS:          0
L1I PREFETCH  ACCESS:          0  HIT:          0  MISS:          0
L1I WRITEBACK ACCESS:          0  HIT:          0  MISS:          0
L1I PREFETCH  REQUESTED:          0  ISSUED:          0  USEFUL:          0  USELESS:          0
L1I TOTAL MSHR MERGED:     130257
L1I LOAD MSHR MERGED:     130257
L1I RFO MSHR MERGED:          0
L1I PREFETCH MSHR MERGED:          0
L1I WRITEBACK MSHR MERGED:          0
L1I TOTAL ACCESSES:   96353662 HITS:   96064137 MISSES:     289525
L1I LOAD ACCESSES:   96353662 HITS:   96064137 MISSES:     289525
L1I RFO ACCESSES:          0 HITS:          0 MISSES:          0
L1I PREFETCH ACCESSES:          0 HITS:          0 MISSES:          0
L1I WRITEBACK ACCESSES:          0 HITS:          0 MISSES:          0
L1I RQ ACCESS:  500000245
L1I RQ TO_CACHE:   96353662
L1I RQ MERGED:  403646583
L1I RQ FORWARD:          0
L1I WQ ACCESS:          0
L1I WQ TO_CACHE:          0
L1I WQ MERGED:          0
L1I WQ FORWARD:          0
L2C TOTAL     ACCESS:    5910942  HIT:    3062270  MISS:    2848672
L2C LOAD      ACCESS:    3164895  HIT:    1583006  MISS:    1581889
L2C RFO       ACCESS:      77941  HIT:      45087  MISS:      32854
L2C PREFETCH  ACCESS:    2524576  HIT:    1296230  MISS:    1228346
L2C WRITEBACK ACCESS:     143530  HIT:     137947  MISS:       5583
L2C PREFETCH  REQUESTED:      52724  ISSUED:      52724  USEFUL:      18664  USELESS:    1209722
L2C TOTAL MSHR MERGED:       2608
L2C LOAD MSHR MERGED:        944
L2C RFO MSHR MERGED:          0
L2C PREFETCH MSHR MERGED:       1664
L2C WRITEBACK MSHR MERGED:          0
L2C TOTAL ACCESSES:    5913644 HITS:    3062356 MISSES:    2851288
L2C LOAD ACCESSES:    3164905 HITS:    1583016 MISSES:    1581889
L2C RFO ACCESSES:      78017 HITS:      45163 MISSES:      32854
L2C PREFETCH ACCESSES:    2527192 HITS:    1296230 MISSES:    1230962
L2C WRITEBACK ACCESSES:     143530 HITS:     137947 MISSES:       5583
L2C RQ ACCESS:    3242922
L2C RQ TO_CACHE:    3242836
L2C RQ MERGED:          0
L2C RQ FORWARD:          0
L2C WQ ACCESS:     143530
L2C WQ TO_CACHE:     143530
L2C WQ MERGED:          0
L2C WQ FORWARD:         86
LLC TOTAL     ACCESS:    2892632  HIT:    1807871  MISS:    1084761
LLC LOAD      ACCESS:    1580945  HIT:    1132837  MISS:     448108
LLC RFO       ACCESS:      32844  HIT:      32440  MISS:        404
LLC PREFETCH  ACCESS:    1229298  HIT:     593679  MISS:     635619
LLC WRITEBACK ACCESS:      49545  HIT:      48915  MISS:        630
LLC PREFETCH  REQUESTED:          0  ISSUED:          0  USEFUL:       3092  USELESS:     632567
LLC TOTAL MSHR MERGED:          0
LLC LOAD MSHR MERGED:          0
LLC RFO MSHR MERGED:          0
LLC PREFETCH MSHR MERGED:          0
LLC WRITEBACK MSHR MERGED:          0
LLC TOTAL ACCESSES:    2892642 HITS:    1807881 MISSES:    1084761
LLC LOAD ACCESSES:    1580945 HITS:    1132837 MISSES:     448108
LLC RFO ACCESSES:      32854 HITS:      32450 MISSES:        404
LLC PREFETCH ACCESSES:    1229298 HITS:     593679 MISSES:     635619
LLC WRITEBACK ACCESSES:      49545 HITS:      48915 MISSES:        630
LLC 0 RQ ACCESS:    1613799
LLC 0 RQ TO_CACHE:    1613789
LLC 0 RQ MERGED:          0
LLC 0 RQ FORWARD:          0
LLC WQ ACCESS:      49545
LLC WQ TO_CACHE:      49545
LLC WQ MERGED:          0
LLC WQ FORWARD:         10
Major fault: 0 Minor fault: 8460
CPU 0 L1D next line prefetcher final stats
CPU 0 L2C PC-based stride prefetcher final stats
All Misses: 1316924
All Hits: 2112304
SD Algo Stats - Switches: 0 SRR-Repls: 519324 BRR-Repls: 0

DRAM Statistics
 CHANNEL 0
 RQ ROW_BUFFER_HIT:     370262  ROW_BUFFER_MISS:     713600
 DBUS_CONGESTED:     332766
 WQ ROW_BUFFER_HIT:         79  ROW_BUFFER_MISS:        876  FULL:          0

 AVG_CONGESTED_CYCLE: 12
LOADS RETIRED: 153532848
INSTR RETIRED: 500000000
