
*** ChampSim Multicore Out-of-Order Simulator ***

Warmup Instructions: 100000000
Simulation Instructions: 500000000
Number of CPUs: 1
LLC sets: 2048
LLC ways: 16
Clean RRIP Policies: 2213230122132301 Dirty RRIP Policies: 2203132122031321 PSEL Width: 10 Track Set: 4294967295 PSEL Mask: 1 Demote Mask: 3044100030441000DS Algo: 0Window size: 0
Off-chip DRAM Size: 4096 MB Channels: 1 Width: 64-bit Data Rate: 1600 MT/s

CPU 0 runs /mnt/beegfs/iconst01/spec2017/Wrf.trace.gz
NOT SORTED
TRACE STRING: /mnt/beegfs/iconst01/spec2017/Wrf.trace.gz
SORTED
TRACE STRING: /mnt/beegfs/iconst01/spec2017/Wrf.trace.gz
INITIAL
TRACE STRING: /mnt/beegfs/iconst01/spec2017/Wrf.trace.gz

champsim_seed used: 303

CPU 0 L1D next line prefetcher
CPU 0 L2C IP-based stride prefetcher
Initialize DRRIP state
Assign rand_sets[0]: 454  LLC: 2048
rand_sets[0]: 454
Assign rand_sets[1]: 1662  LLC: 2048
rand_sets[1]: 1662
Assign rand_sets[2]: 1921  LLC: 2048
rand_sets[2]: 1921
Assign rand_sets[3]: 1131  LLC: 2048
rand_sets[3]: 1131
Assign rand_sets[4]: 331  LLC: 2048
rand_sets[4]: 331
Assign rand_sets[5]: 1531  LLC: 2048
rand_sets[5]: 1531
Assign rand_sets[6]: 482  LLC: 2048
rand_sets[6]: 482
Assign rand_sets[7]: 1275  LLC: 2048
rand_sets[7]: 1275
Assign rand_sets[8]: 1876  LLC: 2048
rand_sets[8]: 1876
Assign rand_sets[9]: 2038  LLC: 2048
rand_sets[9]: 2038
Assign rand_sets[10]: 701  LLC: 2048
rand_sets[10]: 701
Assign rand_sets[11]: 479  LLC: 2048
rand_sets[11]: 479
Assign rand_sets[12]: 892  LLC: 2048
rand_sets[12]: 892
Assign rand_sets[13]: 1820  LLC: 2048
rand_sets[13]: 1820
Assign rand_sets[14]: 1505  LLC: 2048
rand_sets[14]: 1505
Assign rand_sets[15]: 1159  LLC: 2048
rand_sets[15]: 1159
Assign rand_sets[16]: 513  LLC: 2048
rand_sets[16]: 513
Assign rand_sets[17]: 703  LLC: 2048
rand_sets[17]: 703
Assign rand_sets[18]: 561  LLC: 2048
rand_sets[18]: 561
Assign rand_sets[19]: 990  LLC: 2048
rand_sets[19]: 990
Assign rand_sets[20]: 342  LLC: 2048
rand_sets[20]: 342
Assign rand_sets[21]: 882  LLC: 2048
rand_sets[21]: 882
Assign rand_sets[22]: 15  LLC: 2048
rand_sets[22]: 15
Assign rand_sets[23]: 71  LLC: 2048
rand_sets[23]: 71
Assign rand_sets[24]: 1127  LLC: 2048
rand_sets[24]: 1127
Assign rand_sets[25]: 1382  LLC: 2048
rand_sets[25]: 1382
Assign rand_sets[26]: 647  LLC: 2048
rand_sets[26]: 647
Assign rand_sets[27]: 857  LLC: 2048
rand_sets[27]: 857
Assign rand_sets[28]: 1450  LLC: 2048
rand_sets[28]: 1450
Assign rand_sets[29]: 1160  LLC: 2048
rand_sets[29]: 1160
Assign rand_sets[30]: 1852  LLC: 2048
rand_sets[30]: 1852
Assign rand_sets[31]: 1881  LLC: 2048
rand_sets[31]: 1881
Assign rand_sets[32]: 1770  LLC: 2048
rand_sets[32]: 1770
Assign rand_sets[33]: 1622  LLC: 2048
rand_sets[33]: 1622
Assign rand_sets[34]: 275  LLC: 2048
rand_sets[34]: 275
Assign rand_sets[35]: 635  LLC: 2048
rand_sets[35]: 635
Assign rand_sets[36]: 466  LLC: 2048
rand_sets[36]: 466
Assign rand_sets[37]: 1413  LLC: 2048
rand_sets[37]: 1413
Assign rand_sets[38]: 417  LLC: 2048
rand_sets[38]: 417
Assign rand_sets[39]: 472  LLC: 2048
rand_sets[39]: 472
Assign rand_sets[40]: 1340  LLC: 2048
rand_sets[40]: 1340
Assign rand_sets[41]: 852  LLC: 2048
rand_sets[41]: 852
Assign rand_sets[42]: 1365  LLC: 2048
rand_sets[42]: 1365
Assign rand_sets[43]: 47  LLC: 2048
rand_sets[43]: 47
Assign rand_sets[44]: 823  LLC: 2048
rand_sets[44]: 823
Assign rand_sets[45]: 686  LLC: 2048
rand_sets[45]: 686
Assign rand_sets[46]: 1637  LLC: 2048
rand_sets[46]: 1637
Assign rand_sets[47]: 1115  LLC: 2048
rand_sets[47]: 1115
Assign rand_sets[48]: 986  LLC: 2048
rand_sets[48]: 986
Assign rand_sets[49]: 258  LLC: 2048
rand_sets[49]: 258
Assign rand_sets[50]: 633  LLC: 2048
rand_sets[50]: 633
Assign rand_sets[51]: 920  LLC: 2048
rand_sets[51]: 920
Assign rand_sets[52]: 204  LLC: 2048
rand_sets[52]: 204
Assign rand_sets[53]: 227  LLC: 2048
rand_sets[53]: 227
Assign rand_sets[54]: 1818  LLC: 2048
rand_sets[54]: 1818
Assign rand_sets[55]: 886  LLC: 2048
rand_sets[55]: 886
Assign rand_sets[56]: 1422  LLC: 2048
rand_sets[56]: 1422
Assign rand_sets[57]: 607  LLC: 2048
rand_sets[57]: 607
Assign rand_sets[58]: 217  LLC: 2048
rand_sets[58]: 217
Assign rand_sets[59]: 1945  LLC: 2048
rand_sets[59]: 1945
Assign rand_sets[60]: 143  LLC: 2048
rand_sets[60]: 143
Assign rand_sets[61]: 1311  LLC: 2048
rand_sets[61]: 1311
Assign rand_sets[62]: 319  LLC: 2048
rand_sets[62]: 319
Assign rand_sets[63]: 1846  LLC: 2048
rand_sets[63]: 1846
 CLEAN-RRIP-POLICY-1: 2-2-1-3-2-3-0-1- CLEAN-RRIP-POLICY-2: 2-2-1-3-2-3-0-1-
 DIRTY-RRIP-POLICY-1: 2-2-0-3-1-3-2-1- DIRTY-RRIP-POLICY-2: 2-2-0-3-1-3-2-1-
 PSEL width: 10
Heartbeat CPU 0 instructions: 10000002 cycles: 6559549 heartbeat IPC: 1.5245 cumulative IPC: 1.5245 (Simulation time: 0 hr 0 min 22 sec) 
Heartbeat CPU 0 instructions: 20000000 cycles: 12222129 heartbeat IPC: 1.76598 cumulative IPC: 1.63638 (Simulation time: 0 hr 0 min 43 sec) 
Heartbeat CPU 0 instructions: 30000003 cycles: 18203886 heartbeat IPC: 1.67175 cumulative IPC: 1.648 (Simulation time: 0 hr 1 min 4 sec) 
Heartbeat CPU 0 instructions: 40000000 cycles: 24059222 heartbeat IPC: 1.70784 cumulative IPC: 1.66256 (Simulation time: 0 hr 1 min 25 sec) 
Heartbeat CPU 0 instructions: 50000000 cycles: 29527566 heartbeat IPC: 1.82871 cumulative IPC: 1.69333 (Simulation time: 0 hr 1 min 46 sec) 
Heartbeat CPU 0 instructions: 60000000 cycles: 35640356 heartbeat IPC: 1.63591 cumulative IPC: 1.68348 (Simulation time: 0 hr 2 min 8 sec) 
Heartbeat CPU 0 instructions: 70000000 cycles: 41360103 heartbeat IPC: 1.74833 cumulative IPC: 1.69245 (Simulation time: 0 hr 2 min 29 sec) 
Heartbeat CPU 0 instructions: 80000000 cycles: 47231087 heartbeat IPC: 1.70329 cumulative IPC: 1.6938 (Simulation time: 0 hr 2 min 50 sec) 
Heartbeat CPU 0 instructions: 90000000 cycles: 52984618 heartbeat IPC: 1.73806 cumulative IPC: 1.69861 (Simulation time: 0 hr 3 min 11 sec) 
Heartbeat CPU 0 instructions: 100000000 cycles: 58537381 heartbeat IPC: 1.80091 cumulative IPC: 1.70831 (Simulation time: 0 hr 3 min 32 sec) 

Warmup complete CPU 0 instructions: 100000004 cycles: 58537383 (Simulation time: 0 hr 3 min 32 sec) 

Heartbeat CPU 0 instructions: 110000001 cycles: 72413659 heartbeat IPC: 0.720654 cumulative IPC: 0.720654 (Simulation time: 0 hr 3 min 58 sec) 
Heartbeat CPU 0 instructions: 120000000 cycles: 83202044 heartbeat IPC: 0.926923 cumulative IPC: 0.810877 (Simulation time: 0 hr 4 min 23 sec) 
Heartbeat CPU 0 instructions: 130000000 cycles: 92998184 heartbeat IPC: 1.02081 cumulative IPC: 0.870554 (Simulation time: 0 hr 4 min 46 sec) 
Heartbeat CPU 0 instructions: 140000000 cycles: 103594439 heartbeat IPC: 0.94373 cumulative IPC: 0.887763 (Simulation time: 0 hr 5 min 10 sec) 
Heartbeat CPU 0 instructions: 150000002 cycles: 114439575 heartbeat IPC: 0.922073 cumulative IPC: 0.894419 (Simulation time: 0 hr 5 min 35 sec) 
Heartbeat CPU 0 instructions: 160000000 cycles: 123412921 heartbeat IPC: 1.11441 cumulative IPC: 0.924848 (Simulation time: 0 hr 5 min 57 sec) 
Heartbeat CPU 0 instructions: 170000003 cycles: 133740192 heartbeat IPC: 0.96831 cumulative IPC: 0.930816 (Simulation time: 0 hr 6 min 21 sec) 
Heartbeat CPU 0 instructions: 180000000 cycles: 146203273 heartbeat IPC: 0.80237 cumulative IPC: 0.912556 (Simulation time: 0 hr 6 min 46 sec) 
Heartbeat CPU 0 instructions: 190000000 cycles: 161280415 heartbeat IPC: 0.663256 cumulative IPC: 0.875972 (Simulation time: 0 hr 7 min 11 sec) 
Heartbeat CPU 0 instructions: 200000000 cycles: 176320037 heartbeat IPC: 0.66491 cumulative IPC: 0.849021 (Simulation time: 0 hr 7 min 36 sec) 
Heartbeat CPU 0 instructions: 210000000 cycles: 191346043 heartbeat IPC: 0.665513 cumulative IPC: 0.828259 (Simulation time: 0 hr 8 min 1 sec) 
Heartbeat CPU 0 instructions: 220000000 cycles: 207317469 heartbeat IPC: 0.626118 cumulative IPC: 0.80656 (Simulation time: 0 hr 8 min 28 sec) 
Heartbeat CPU 0 instructions: 230000003 cycles: 225816121 heartbeat IPC: 0.54058 cumulative IPC: 0.777146 (Simulation time: 0 hr 8 min 57 sec) 
Heartbeat CPU 0 instructions: 240000000 cycles: 234944543 heartbeat IPC: 1.09548 cumulative IPC: 0.793619 (Simulation time: 0 hr 9 min 20 sec) 
Heartbeat CPU 0 instructions: 250000000 cycles: 243650825 heartbeat IPC: 1.1486 cumulative IPC: 0.810314 (Simulation time: 0 hr 9 min 42 sec) 
Heartbeat CPU 0 instructions: 260000000 cycles: 252764905 heartbeat IPC: 1.0972 cumulative IPC: 0.823776 (Simulation time: 0 hr 10 min 4 sec) 
Heartbeat CPU 0 instructions: 270000000 cycles: 262406066 heartbeat IPC: 1.03722 cumulative IPC: 0.83387 (Simulation time: 0 hr 10 min 28 sec) 
Heartbeat CPU 0 instructions: 280000000 cycles: 272181343 heartbeat IPC: 1.02299 cumulative IPC: 0.842523 (Simulation time: 0 hr 10 min 52 sec) 
Heartbeat CPU 0 instructions: 290000000 cycles: 282284138 heartbeat IPC: 0.989825 cumulative IPC: 0.849174 (Simulation time: 0 hr 11 min 18 sec) 
Heartbeat CPU 0 instructions: 300000000 cycles: 291185447 heartbeat IPC: 1.12343 cumulative IPC: 0.859668 (Simulation time: 0 hr 11 min 41 sec) 
Heartbeat CPU 0 instructions: 310000002 cycles: 305770699 heartbeat IPC: 0.685624 cumulative IPC: 0.8494 (Simulation time: 0 hr 12 min 8 sec) 
Heartbeat CPU 0 instructions: 320000000 cycles: 321900737 heartbeat IPC: 0.619961 cumulative IPC: 0.835348 (Simulation time: 0 hr 12 min 37 sec) 
Heartbeat CPU 0 instructions: 330000002 cycles: 332595721 heartbeat IPC: 0.935018 cumulative IPC: 0.839237 (Simulation time: 0 hr 13 min 1 sec) 
Heartbeat CPU 0 instructions: 340000000 cycles: 343072058 heartbeat IPC: 0.954532 cumulative IPC: 0.843482 (Simulation time: 0 hr 13 min 26 sec) 
Heartbeat CPU 0 instructions: 350000002 cycles: 356017260 heartbeat IPC: 0.772487 cumulative IPC: 0.840393 (Simulation time: 0 hr 13 min 52 sec) 
Heartbeat CPU 0 instructions: 360000000 cycles: 367223096 heartbeat IPC: 0.892392 cumulative IPC: 0.842281 (Simulation time: 0 hr 14 min 17 sec) 
Heartbeat CPU 0 instructions: 370000000 cycles: 377988846 heartbeat IPC: 0.928872 cumulative IPC: 0.845199 (Simulation time: 0 hr 14 min 41 sec) 
Heartbeat CPU 0 instructions: 380000000 cycles: 388566343 heartbeat IPC: 0.945403 cumulative IPC: 0.84841 (Simulation time: 0 hr 15 min 6 sec) 
Heartbeat CPU 0 instructions: 390000003 cycles: 405892521 heartbeat IPC: 0.577161 cumulative IPC: 0.83488 (Simulation time: 0 hr 15 min 35 sec) 
Heartbeat CPU 0 instructions: 400000000 cycles: 416613849 heartbeat IPC: 0.93272 cumulative IPC: 0.83781 (Simulation time: 0 hr 15 min 58 sec) 
Heartbeat CPU 0 instructions: 410000002 cycles: 426598965 heartbeat IPC: 1.00149 cumulative IPC: 0.84225 (Simulation time: 0 hr 16 min 21 sec) 
Heartbeat CPU 0 instructions: 420000000 cycles: 436385618 heartbeat IPC: 1.0218 cumulative IPC: 0.846901 (Simulation time: 0 hr 16 min 43 sec) 
Heartbeat CPU 0 instructions: 430000001 cycles: 446270840 heartbeat IPC: 1.01161 cumulative IPC: 0.8511 (Simulation time: 0 hr 17 min 5 sec) 
Heartbeat CPU 0 instructions: 440000000 cycles: 457868876 heartbeat IPC: 0.862215 cumulative IPC: 0.851423 (Simulation time: 0 hr 17 min 28 sec) 
Heartbeat CPU 0 instructions: 450000002 cycles: 472952234 heartbeat IPC: 0.662982 cumulative IPC: 0.844564 (Simulation time: 0 hr 17 min 51 sec) 
Heartbeat CPU 0 instructions: 460000000 cycles: 488006745 heartbeat IPC: 0.664253 cumulative IPC: 0.838244 (Simulation time: 0 hr 18 min 15 sec) 
Heartbeat CPU 0 instructions: 470000003 cycles: 503044523 heartbeat IPC: 0.664992 cumulative IPC: 0.832383 (Simulation time: 0 hr 18 min 38 sec) 
Heartbeat CPU 0 instructions: 480000000 cycles: 519035015 heartbeat IPC: 0.625371 cumulative IPC: 0.825194 (Simulation time: 0 hr 19 min 3 sec) 
Heartbeat CPU 0 instructions: 490000002 cycles: 537654556 heartbeat IPC: 0.53707 cumulative IPC: 0.813997 (Simulation time: 0 hr 19 min 31 sec) 
Heartbeat CPU 0 instructions: 500000000 cycles: 546739605 heartbeat IPC: 1.10071 cumulative IPC: 0.819333 (Simulation time: 0 hr 19 min 52 sec) 
Heartbeat CPU 0 instructions: 510000002 cycles: 555507527 heartbeat IPC: 1.14052 cumulative IPC: 0.824999 (Simulation time: 0 hr 20 min 13 sec) 
Heartbeat CPU 0 instructions: 520000000 cycles: 564613252 heartbeat IPC: 1.09821 cumulative IPC: 0.829915 (Simulation time: 0 hr 20 min 34 sec) 
Heartbeat CPU 0 instructions: 530000002 cycles: 574246792 heartbeat IPC: 1.03804 cumulative IPC: 0.833803 (Simulation time: 0 hr 20 min 56 sec) 
Heartbeat CPU 0 instructions: 540000000 cycles: 583972176 heartbeat IPC: 1.02824 cumulative IPC: 0.837402 (Simulation time: 0 hr 21 min 19 sec) 
Heartbeat CPU 0 instructions: 550000002 cycles: 594106798 heartbeat IPC: 0.986717 cumulative IPC: 0.840227 (Simulation time: 0 hr 21 min 42 sec) 
Heartbeat CPU 0 instructions: 560000000 cycles: 603001206 heartbeat IPC: 1.1243 cumulative IPC: 0.844868 (Simulation time: 0 hr 22 min 4 sec) 
Heartbeat CPU 0 instructions: 570000001 cycles: 617416713 heartbeat IPC: 0.693698 cumulative IPC: 0.840969 (Simulation time: 0 hr 22 min 30 sec) 
Heartbeat CPU 0 instructions: 580000000 cycles: 633682850 heartbeat IPC: 0.614774 cumulative IPC: 0.834571 (Simulation time: 0 hr 22 min 57 sec) 
Heartbeat CPU 0 instructions: 590000002 cycles: 643951613 heartbeat IPC: 0.973827 cumulative IPC: 0.837014 (Simulation time: 0 hr 23 min 20 sec) 
Heartbeat CPU 0 instructions: 600000000 cycles: 654828431 heartbeat IPC: 0.919386 cumulative IPC: 0.838517 (Simulation time: 0 hr 23 min 43 sec) 
Finished CPU 0 instructions: 500000000 cycles: 596291067 cumulative IPC: 0.838517 (Simulation time: 0 hr 23 min 43 sec) 

CPU 0 Branch Prediction Accuracy: 99.5219% MPKI: 0.251582
Number of Branches: 26312578 Number of Mispredictions: 125791
Number of LOAD Instructions: 235643083
Number of LOAD Instructions (ROI): 235643083
Number of STORE Instructions: 37593550
Number of STORE Instructions (ROI): 37593550
Total Destination Memory Operands: 40480968
Total Destination Memory Operands (ROI): 40480968
Total Source Memory Operands: 235643083
Total Source Memory Operands (ROI): 235643083
Number of DEPENDED LOADS: 6698895
Number of DEPENDED LOADS (ROI): 6698895
Number of SQ_ADDED: 40480950
Number of SQ_ADDED (ROI): 40480950
Number of LQ_ADDED: 389460258
Number of LQ_ADDED (ROI): 389460258
Number of Instructions read from trace: 600000259

ChampSim completed all CPUs

Region of Interest Statistics

CPU 0 cumulative IPC: 0.838517 instructions: 500000000 cycles: 596291067
ITLB TOTAL     ACCESS:  109323805  HIT:  109323292  MISS:        513
ITLB LOAD      ACCESS:  109323805  HIT:  109323292  MISS:        513
ITLB RFO       ACCESS:          0  HIT:          0  MISS:          0
ITLB PREFETCH  ACCESS:          0  HIT:          0  MISS:          0
ITLB WRITEBACK ACCESS:          0  HIT:          0  MISS:          0
ITLB PREFETCH  REQUESTED:          0  ISSUED:          0  USEFUL:          0  USELESS:          0
ITLB TOTAL MSHR MERGED:        969
ITLB LOAD MSHR MERGED:        969
ITLB RFO MSHR MERGED:          0
ITLB PREFETCH MSHR MERGED:          0
ITLB WRITEBACK MSHR MERGED:          0
ITLB TOTAL ACCESSES:  109324774 HITS:  109323292 MISSES:       1482
ITLB LOAD ACCESSES:  109324774 HITS:  109323292 MISSES:       1482
ITLB RFO ACCESSES:          0 HITS:          0 MISSES:          0
ITLB PREFETCH ACCESSES:          0 HITS:          0 MISSES:          0
ITLB WRITEBACK ACCESSES:          0 HITS:          0 MISSES:          0
ITLB RQ ACCESS:  500000003
ITLB RQ TO_CACHE:  109324774
ITLB RQ MERGED:  390675229
ITLB RQ FORWARD:          0
ITLB WQ ACCESS:          0
ITLB WQ TO_CACHE:          0
ITLB WQ MERGED:          0
ITLB WQ FORWARD:          0
DTLB TOTAL     ACCESS:  130438171  HIT:  130180500  MISS:     257671
DTLB LOAD      ACCESS:  109036317  HIT:  108815518  MISS:     220799
DTLB RFO       ACCESS:   21401854  HIT:   21364982  MISS:      36872
DTLB PREFETCH  ACCESS:          0  HIT:          0  MISS:          0
DTLB WRITEBACK ACCESS:          0  HIT:          0  MISS:          0
DTLB PREFETCH  REQUESTED:          0  ISSUED:          0  USEFUL:          0  USELESS:          0
DTLB TOTAL MSHR MERGED:     122155
DTLB LOAD MSHR MERGED:      84040
DTLB RFO MSHR MERGED:      38115
DTLB PREFETCH MSHR MERGED:          0
DTLB WRITEBACK MSHR MERGED:          0
DTLB TOTAL ACCESSES:  130560326 HITS:  130180500 MISSES:     379826
DTLB LOAD ACCESSES:  109120357 HITS:  108815518 MISSES:     304839
DTLB RFO ACCESSES:   21439969 HITS:   21364982 MISSES:      74987
DTLB PREFETCH ACCESSES:          0 HITS:          0 MISSES:          0
DTLB WRITEBACK ACCESSES:          0 HITS:          0 MISSES:          0
DTLB RQ ACCESS:  218635510
DTLB RQ TO_CACHE:  130560327
DTLB RQ MERGED:   88075183
DTLB RQ FORWARD:          0
DTLB WQ ACCESS:          0
DTLB WQ TO_CACHE:          0
DTLB WQ MERGED:          0
DTLB WQ FORWARD:          0
L1D TOTAL     ACCESS:  204695693  HIT:  193621466  MISS:   11074227
L1D LOAD      ACCESS:  106320085  HIT:  103161000  MISS:    3159085
L1D RFO       ACCESS:   26964548  HIT:   25214264  MISS:    1750284
L1D PREFETCH  ACCESS:   71411060  HIT:   65246202  MISS:    6164858
L1D WRITEBACK ACCESS:          0  HIT:          0  MISS:          0
L1D PREFETCH  REQUESTED:  108924939  ISSUED:  107265534  USEFUL:    5707947  USELESS:     456905
L1D TOTAL MSHR MERGED:   18257795
L1D LOAD MSHR MERGED:    4600920
L1D RFO MSHR MERGED:    6476913
L1D PREFETCH MSHR MERGED:    7179962
L1D WRITEBACK MSHR MERGED:          0
L1D TOTAL ACCESSES:  223013139 HITS:  193681117 MISSES:   29332022
L1D LOAD ACCESSES:  108948907 HITS:  103184968 MISSES:    5763939
L1D RFO ACCESSES:   33439177 HITS:   25214264 MISSES:    8224913
L1D PREFETCH ACCESSES:   80625055 HITS:   65281885 MISSES:   15343170
L1D WRITEBACK ACCESSES:          0 HITS:          0 MISSES:          0
L1D RQ ACCESS:  184992072
L1D RQ TO_CACHE:  108924939
L1D RQ MERGED:   76043165
L1D RQ FORWARD:          0
L1D WQ ACCESS:   33643426
L1D WQ TO_CACHE:   33439176
L1D WQ MERGED:     204250
L1D WQ FORWARD:      59651
L1I TOTAL     ACCESS:  134009149  HIT:  133984572  MISS:      24577
L1I LOAD      ACCESS:  134009149  HIT:  133984572  MISS:      24577
L1I RFO       ACCESS:          0  HIT:          0  MISS:          0
L1I PREFETCH  ACCESS:          0  HIT:          0  MISS:          0
L1I WRITEBACK ACCESS:          0  HIT:          0  MISS:          0
L1I PREFETCH  REQUESTED:          0  ISSUED:          0  USEFUL:          0  USELESS:          0
L1I TOTAL MSHR MERGED:      30720
L1I LOAD MSHR MERGED:      30720
L1I RFO MSHR MERGED:          0
L1I PREFETCH MSHR MERGED:          0
L1I WRITEBACK MSHR MERGED:          0
L1I TOTAL ACCESSES:  134039869 HITS:  133984572 MISSES:      55297
L1I LOAD ACCESSES:  134039869 HITS:  133984572 MISSES:      55297
L1I RFO ACCESSES:          0 HITS:          0 MISSES:          0
L1I PREFETCH ACCESSES:          0 HITS:          0 MISSES:          0
L1I WRITEBACK ACCESSES:          0 HITS:          0 MISSES:          0
L1I RQ ACCESS:  500000005
L1I RQ TO_CACHE:  134039869
L1I RQ MERGED:  365960136
L1I RQ FORWARD:          0
L1I WQ ACCESS:          0
L1I WQ TO_CACHE:          0
L1I WQ MERGED:          0
L1I WQ FORWARD:          0
L2C TOTAL     ACCESS:   14945089  HIT:    6945384  MISS:    7999705
L2C LOAD      ACCESS:    1187400  HIT:     299227  MISS:     888173
L2C RFO       ACCESS:    1747783  HIT:     369356  MISS:    1378427
L2C PREFETCH  ACCESS:    8328079  HIT:    2603653  MISS:    5724426
L2C WRITEBACK ACCESS:    3681827  HIT:    3673148  MISS:       8679
L2C PREFETCH  REQUESTED:     389924  ISSUED:     389918  USEFUL:     114897  USELESS:    5610365
L2C TOTAL MSHR MERGED:      41616
L2C LOAD MSHR MERGED:       2358
L2C RFO MSHR MERGED:       1379
L2C PREFETCH MSHR MERGED:      37879
L2C WRITEBACK MSHR MERGED:          0
L2C TOTAL ACCESSES:   15106779 HITS:    6946091 MISSES:    8160688
L2C LOAD ACCESSES:    1187596 HITS:     299423 MISSES:     888173
L2C RFO ACCESSES:    1748000 HITS:     369573 MISSES:    1378427
L2C PREFETCH ACCESSES:    8489356 HITS:    2603947 MISSES:    5885409
L2C WRITEBACK ACCESSES:    3681827 HITS:    3673148 MISSES:       8679
L2C RQ ACCESS:    2935596
L2C RQ TO_CACHE:    2935183
L2C RQ MERGED:          0
L2C RQ FORWARD:          0
L2C WQ ACCESS:    3681827
L2C WQ TO_CACHE:    3681827
L2C WQ MERGED:          0
L2C WQ FORWARD:        707
LLC TOTAL     ACCESS:   11185365  HIT:    3002517  MISS:    8182848
LLC LOAD      ACCESS:     885811  HIT:     301949  MISS:     583862
LLC RFO       ACCESS:    1377045  HIT:     241216  MISS:    1135829
LLC PREFETCH  ACCESS:    5817841  HIT:    1166518  MISS:    4651323
LLC WRITEBACK ACCESS:    3104668  HIT:    1292834  MISS:    1811834
LLC PREFETCH  REQUESTED:          0  ISSUED:          0  USEFUL:      31870  USELESS:    4618883
LLC TOTAL MSHR MERGED:      22543
LLC LOAD MSHR MERGED:       6866
LLC RFO MSHR MERGED:        626
LLC PREFETCH MSHR MERGED:      15051
LLC WRITEBACK MSHR MERGED:          0
LLC TOTAL ACCESSES:   11207923 HITS:    3002532 MISSES:    8205391
LLC LOAD ACCESSES:     885815 HITS:     301953 MISSES:     583862
LLC RFO ACCESSES:    1377048 HITS:     241219 MISSES:    1135829
LLC PREFETCH ACCESSES:    5840392 HITS:    1166526 MISSES:    4673866
LLC WRITEBACK ACCESSES:    3104668 HITS:    1292834 MISSES:    1811834
LLC 0 RQ ACCESS:    2262863
LLC 0 RQ TO_CACHE:    2262856
LLC 0 RQ MERGED:          0
LLC 0 RQ FORWARD:          0
LLC WQ ACCESS:    3104668
LLC WQ TO_CACHE:    3104668
LLC WQ MERGED:          0
LLC WQ FORWARD:         15
Major fault: 0 Minor fault: 11519
CPU 0 L1D next line prefetcher final stats
CPU 0 L2C PC-based stride prefetcher final stats
All Misses: 10294632
All Hits: 3501761
SD Algo Stats - Switches: 0 SRR-Repls: 655974 BRR-Repls: 0

DRAM Statistics
 CHANNEL 0
 RQ ROW_BUFFER_HIT:    3879961  ROW_BUFFER_MISS:    2490300
 DBUS_CONGESTED:    4377110
 WQ ROW_BUFFER_HIT:     375872  ROW_BUFFER_MISS:    1781278  FULL:        241

 AVG_CONGESTED_CYCLE: 13
LOADS RETIRED: 190375692
INSTR RETIRED: 500000000
