
*** ChampSim Multicore Out-of-Order Simulator ***

Warmup Instructions: 100000000
Simulation Instructions: 500000000
Number of CPUs: 1
LLC sets: 2048
LLC ways: 16
Clean RRIP Policies: 2213230122132301 Dirty RRIP Policies: 2203132122031321 PSEL Width: 10 Track Set: 4294967295 PSEL Mask: 1 Demote Mask: 3044100030441000DS Algo: 0Window size: 0
Off-chip DRAM Size: 4096 MB Channels: 1 Width: 64-bit Data Rate: 1600 MT/s

CPU 0 runs /mnt/beegfs/iconst01/spec2017/Xz.trace.gz
NOT SORTED
TRACE STRING: /mnt/beegfs/iconst01/spec2017/Xz.trace.gz
SORTED
TRACE STRING: /mnt/beegfs/iconst01/spec2017/Xz.trace.gz
INITIAL
TRACE STRING: /mnt/beegfs/iconst01/spec2017/Xz.trace.gz

champsim_seed used: 210

CPU 0 L1D next line prefetcher
CPU 0 L2C IP-based stride prefetcher
Initialize DRRIP state
Assign rand_sets[0]: 454  LLC: 2048
rand_sets[0]: 454
Assign rand_sets[1]: 1662  LLC: 2048
rand_sets[1]: 1662
Assign rand_sets[2]: 1921  LLC: 2048
rand_sets[2]: 1921
Assign rand_sets[3]: 1131  LLC: 2048
rand_sets[3]: 1131
Assign rand_sets[4]: 331  LLC: 2048
rand_sets[4]: 331
Assign rand_sets[5]: 1531  LLC: 2048
rand_sets[5]: 1531
Assign rand_sets[6]: 482  LLC: 2048
rand_sets[6]: 482
Assign rand_sets[7]: 1275  LLC: 2048
rand_sets[7]: 1275
Assign rand_sets[8]: 1876  LLC: 2048
rand_sets[8]: 1876
Assign rand_sets[9]: 2038  LLC: 2048
rand_sets[9]: 2038
Assign rand_sets[10]: 701  LLC: 2048
rand_sets[10]: 701
Assign rand_sets[11]: 479  LLC: 2048
rand_sets[11]: 479
Assign rand_sets[12]: 892  LLC: 2048
rand_sets[12]: 892
Assign rand_sets[13]: 1820  LLC: 2048
rand_sets[13]: 1820
Assign rand_sets[14]: 1505  LLC: 2048
rand_sets[14]: 1505
Assign rand_sets[15]: 1159  LLC: 2048
rand_sets[15]: 1159
Assign rand_sets[16]: 513  LLC: 2048
rand_sets[16]: 513
Assign rand_sets[17]: 703  LLC: 2048
rand_sets[17]: 703
Assign rand_sets[18]: 561  LLC: 2048
rand_sets[18]: 561
Assign rand_sets[19]: 990  LLC: 2048
rand_sets[19]: 990
Assign rand_sets[20]: 342  LLC: 2048
rand_sets[20]: 342
Assign rand_sets[21]: 882  LLC: 2048
rand_sets[21]: 882
Assign rand_sets[22]: 15  LLC: 2048
rand_sets[22]: 15
Assign rand_sets[23]: 71  LLC: 2048
rand_sets[23]: 71
Assign rand_sets[24]: 1127  LLC: 2048
rand_sets[24]: 1127
Assign rand_sets[25]: 1382  LLC: 2048
rand_sets[25]: 1382
Assign rand_sets[26]: 647  LLC: 2048
rand_sets[26]: 647
Assign rand_sets[27]: 857  LLC: 2048
rand_sets[27]: 857
Assign rand_sets[28]: 1450  LLC: 2048
rand_sets[28]: 1450
Assign rand_sets[29]: 1160  LLC: 2048
rand_sets[29]: 1160
Assign rand_sets[30]: 1852  LLC: 2048
rand_sets[30]: 1852
Assign rand_sets[31]: 1881  LLC: 2048
rand_sets[31]: 1881
Assign rand_sets[32]: 1770  LLC: 2048
rand_sets[32]: 1770
Assign rand_sets[33]: 1622  LLC: 2048
rand_sets[33]: 1622
Assign rand_sets[34]: 275  LLC: 2048
rand_sets[34]: 275
Assign rand_sets[35]: 635  LLC: 2048
rand_sets[35]: 635
Assign rand_sets[36]: 466  LLC: 2048
rand_sets[36]: 466
Assign rand_sets[37]: 1413  LLC: 2048
rand_sets[37]: 1413
Assign rand_sets[38]: 417  LLC: 2048
rand_sets[38]: 417
Assign rand_sets[39]: 472  LLC: 2048
rand_sets[39]: 472
Assign rand_sets[40]: 1340  LLC: 2048
rand_sets[40]: 1340
Assign rand_sets[41]: 852  LLC: 2048
rand_sets[41]: 852
Assign rand_sets[42]: 1365  LLC: 2048
rand_sets[42]: 1365
Assign rand_sets[43]: 47  LLC: 2048
rand_sets[43]: 47
Assign rand_sets[44]: 823  LLC: 2048
rand_sets[44]: 823
Assign rand_sets[45]: 686  LLC: 2048
rand_sets[45]: 686
Assign rand_sets[46]: 1637  LLC: 2048
rand_sets[46]: 1637
Assign rand_sets[47]: 1115  LLC: 2048
rand_sets[47]: 1115
Assign rand_sets[48]: 986  LLC: 2048
rand_sets[48]: 986
Assign rand_sets[49]: 258  LLC: 2048
rand_sets[49]: 258
Assign rand_sets[50]: 633  LLC: 2048
rand_sets[50]: 633
Assign rand_sets[51]: 920  LLC: 2048
rand_sets[51]: 920
Assign rand_sets[52]: 204  LLC: 2048
rand_sets[52]: 204
Assign rand_sets[53]: 227  LLC: 2048
rand_sets[53]: 227
Assign rand_sets[54]: 1818  LLC: 2048
rand_sets[54]: 1818
Assign rand_sets[55]: 886  LLC: 2048
rand_sets[55]: 886
Assign rand_sets[56]: 1422  LLC: 2048
rand_sets[56]: 1422
Assign rand_sets[57]: 607  LLC: 2048
rand_sets[57]: 607
Assign rand_sets[58]: 217  LLC: 2048
rand_sets[58]: 217
Assign rand_sets[59]: 1945  LLC: 2048
rand_sets[59]: 1945
Assign rand_sets[60]: 143  LLC: 2048
rand_sets[60]: 143
Assign rand_sets[61]: 1311  LLC: 2048
rand_sets[61]: 1311
Assign rand_sets[62]: 319  LLC: 2048
rand_sets[62]: 319
Assign rand_sets[63]: 1846  LLC: 2048
rand_sets[63]: 1846
 CLEAN-RRIP-POLICY-1: 2-2-1-3-2-3-0-1- CLEAN-RRIP-POLICY-2: 2-2-1-3-2-3-0-1-
 DIRTY-RRIP-POLICY-1: 2-2-0-3-1-3-2-1- DIRTY-RRIP-POLICY-2: 2-2-0-3-1-3-2-1-
 PSEL width: 10
Heartbeat CPU 0 instructions: 10000000 cycles: 4305270 heartbeat IPC: 2.32273 cumulative IPC: 2.32273 (Simulation time: 0 hr 0 min 12 sec) 
Heartbeat CPU 0 instructions: 20000000 cycles: 8617101 heartbeat IPC: 2.3192 cumulative IPC: 2.32097 (Simulation time: 0 hr 0 min 24 sec) 
Heartbeat CPU 0 instructions: 30000003 cycles: 13160978 heartbeat IPC: 2.20076 cumulative IPC: 2.27947 (Simulation time: 0 hr 0 min 37 sec) 
Heartbeat CPU 0 instructions: 40000000 cycles: 17515462 heartbeat IPC: 2.29648 cumulative IPC: 2.2837 (Simulation time: 0 hr 0 min 49 sec) 
Heartbeat CPU 0 instructions: 50000001 cycles: 21878287 heartbeat IPC: 2.29209 cumulative IPC: 2.28537 (Simulation time: 0 hr 1 min 1 sec) 
Heartbeat CPU 0 instructions: 60000000 cycles: 26178497 heartbeat IPC: 2.32547 cumulative IPC: 2.29196 (Simulation time: 0 hr 1 min 13 sec) 
Heartbeat CPU 0 instructions: 70000001 cycles: 30244385 heartbeat IPC: 2.45949 cumulative IPC: 2.31448 (Simulation time: 0 hr 1 min 24 sec) 
Heartbeat CPU 0 instructions: 80000000 cycles: 34523176 heartbeat IPC: 2.33711 cumulative IPC: 2.31728 (Simulation time: 0 hr 1 min 36 sec) 
Heartbeat CPU 0 instructions: 90000001 cycles: 38739800 heartbeat IPC: 2.37157 cumulative IPC: 2.32319 (Simulation time: 0 hr 1 min 47 sec) 
Heartbeat CPU 0 instructions: 100000000 cycles: 42980222 heartbeat IPC: 2.35826 cumulative IPC: 2.32665 (Simulation time: 0 hr 1 min 59 sec) 

Warmup complete CPU 0 instructions: 100000001 cycles: 42980223 (Simulation time: 0 hr 1 min 59 sec) 

Heartbeat CPU 0 instructions: 110000000 cycles: 53118489 heartbeat IPC: 0.986362 cumulative IPC: 0.986362 (Simulation time: 0 hr 2 min 16 sec) 
Heartbeat CPU 0 instructions: 120000000 cycles: 63757683 heartbeat IPC: 0.939921 cumulative IPC: 0.962582 (Simulation time: 0 hr 2 min 34 sec) 
Heartbeat CPU 0 instructions: 130000001 cycles: 74372472 heartbeat IPC: 0.942082 cumulative IPC: 0.95565 (Simulation time: 0 hr 2 min 52 sec) 
Heartbeat CPU 0 instructions: 140000000 cycles: 84075240 heartbeat IPC: 1.03063 cumulative IPC: 0.973354 (Simulation time: 0 hr 3 min 9 sec) 
Heartbeat CPU 0 instructions: 150000001 cycles: 94396799 heartbeat IPC: 0.968846 cumulative IPC: 0.972449 (Simulation time: 0 hr 3 min 27 sec) 
Heartbeat CPU 0 instructions: 160000000 cycles: 104456356 heartbeat IPC: 0.994079 cumulative IPC: 0.975989 (Simulation time: 0 hr 3 min 44 sec) 
Heartbeat CPU 0 instructions: 170000000 cycles: 114138587 heartbeat IPC: 1.03282 cumulative IPC: 0.983721 (Simulation time: 0 hr 4 min 1 sec) 
Heartbeat CPU 0 instructions: 180000000 cycles: 124695633 heartbeat IPC: 0.947235 cumulative IPC: 0.979007 (Simulation time: 0 hr 4 min 19 sec) 
Heartbeat CPU 0 instructions: 190000001 cycles: 134969149 heartbeat IPC: 0.973377 cumulative IPC: 0.978379 (Simulation time: 0 hr 4 min 36 sec) 
Heartbeat CPU 0 instructions: 200000000 cycles: 145558851 heartbeat IPC: 0.944314 cumulative IPC: 0.974862 (Simulation time: 0 hr 4 min 54 sec) 
Heartbeat CPU 0 instructions: 210000002 cycles: 158034449 heartbeat IPC: 0.801565 cumulative IPC: 0.956071 (Simulation time: 0 hr 5 min 13 sec) 
Heartbeat CPU 0 instructions: 220000000 cycles: 170590120 heartbeat IPC: 0.796453 cumulative IPC: 0.940366 (Simulation time: 0 hr 5 min 32 sec) 
Heartbeat CPU 0 instructions: 230000000 cycles: 182796209 heartbeat IPC: 0.819263 cumulative IPC: 0.929794 (Simulation time: 0 hr 5 min 51 sec) 
Heartbeat CPU 0 instructions: 240000000 cycles: 194956585 heartbeat IPC: 0.822343 cumulative IPC: 0.921196 (Simulation time: 0 hr 6 min 9 sec) 
Heartbeat CPU 0 instructions: 250000000 cycles: 206956207 heartbeat IPC: 0.83336 cumulative IPC: 0.914768 (Simulation time: 0 hr 6 min 28 sec) 
Heartbeat CPU 0 instructions: 260000000 cycles: 218536131 heartbeat IPC: 0.863564 cumulative IPC: 0.911391 (Simulation time: 0 hr 6 min 47 sec) 
Heartbeat CPU 0 instructions: 270000003 cycles: 230443771 heartbeat IPC: 0.839797 cumulative IPC: 0.906843 (Simulation time: 0 hr 7 min 5 sec) 
Heartbeat CPU 0 instructions: 280000000 cycles: 242007567 heartbeat IPC: 0.864768 cumulative IPC: 0.904398 (Simulation time: 0 hr 7 min 24 sec) 
Heartbeat CPU 0 instructions: 290000002 cycles: 253547729 heartbeat IPC: 0.866539 cumulative IPC: 0.902323 (Simulation time: 0 hr 7 min 42 sec) 
Heartbeat CPU 0 instructions: 300000000 cycles: 266022458 heartbeat IPC: 0.80162 cumulative IPC: 0.896691 (Simulation time: 0 hr 8 min 1 sec) 
Heartbeat CPU 0 instructions: 310000000 cycles: 278199333 heartbeat IPC: 0.821229 cumulative IPC: 0.892785 (Simulation time: 0 hr 8 min 20 sec) 
Heartbeat CPU 0 instructions: 320000000 cycles: 290882310 heartbeat IPC: 0.788458 cumulative IPC: 0.887447 (Simulation time: 0 hr 8 min 39 sec) 
Heartbeat CPU 0 instructions: 330000003 cycles: 302857721 heartbeat IPC: 0.835045 cumulative IPC: 0.885032 (Simulation time: 0 hr 8 min 57 sec) 
Heartbeat CPU 0 instructions: 340000000 cycles: 315002936 heartbeat IPC: 0.823369 cumulative IPC: 0.882279 (Simulation time: 0 hr 9 min 16 sec) 
Heartbeat CPU 0 instructions: 350000001 cycles: 326018331 heartbeat IPC: 0.90782 cumulative IPC: 0.883273 (Simulation time: 0 hr 9 min 34 sec) 
Heartbeat CPU 0 instructions: 360000000 cycles: 337836103 heartbeat IPC: 0.846183 cumulative IPC: 0.881787 (Simulation time: 0 hr 9 min 52 sec) 
Heartbeat CPU 0 instructions: 370000001 cycles: 349276451 heartbeat IPC: 0.874099 cumulative IPC: 0.8815 (Simulation time: 0 hr 10 min 11 sec) 
Heartbeat CPU 0 instructions: 380000000 cycles: 360300463 heartbeat IPC: 0.907111 cumulative IPC: 0.882389 (Simulation time: 0 hr 10 min 29 sec) 
Heartbeat CPU 0 instructions: 390000003 cycles: 370953153 heartbeat IPC: 0.93873 cumulative IPC: 0.884219 (Simulation time: 0 hr 10 min 47 sec) 
Heartbeat CPU 0 instructions: 400000000 cycles: 381198276 heartbeat IPC: 0.976074 cumulative IPC: 0.887002 (Simulation time: 0 hr 11 min 5 sec) 
Heartbeat CPU 0 instructions: 410000000 cycles: 391748318 heartbeat IPC: 0.947864 cumulative IPC: 0.888843 (Simulation time: 0 hr 11 min 23 sec) 
Heartbeat CPU 0 instructions: 420000000 cycles: 401151798 heartbeat IPC: 1.06344 cumulative IPC: 0.893427 (Simulation time: 0 hr 11 min 40 sec) 
Heartbeat CPU 0 instructions: 430000002 cycles: 410246462 heartbeat IPC: 1.09955 cumulative IPC: 0.898531 (Simulation time: 0 hr 11 min 58 sec) 
Heartbeat CPU 0 instructions: 440000000 cycles: 420538422 heartbeat IPC: 0.971632 cumulative IPC: 0.900523 (Simulation time: 0 hr 12 min 16 sec) 
Heartbeat CPU 0 instructions: 450000002 cycles: 431659373 heartbeat IPC: 0.899204 cumulative IPC: 0.900486 (Simulation time: 0 hr 12 min 33 sec) 
Heartbeat CPU 0 instructions: 460000000 cycles: 443239063 heartbeat IPC: 0.863581 cumulative IPC: 0.899418 (Simulation time: 0 hr 12 min 52 sec) 
Heartbeat CPU 0 instructions: 470000003 cycles: 453452007 heartbeat IPC: 0.97915 cumulative IPC: 0.901402 (Simulation time: 0 hr 13 min 9 sec) 
Heartbeat CPU 0 instructions: 480000000 cycles: 464007831 heartbeat IPC: 0.947344 cumulative IPC: 0.902554 (Simulation time: 0 hr 13 min 27 sec) 
Heartbeat CPU 0 instructions: 490000000 cycles: 473983256 heartbeat IPC: 1.00246 cumulative IPC: 0.904866 (Simulation time: 0 hr 13 min 44 sec) 
Heartbeat CPU 0 instructions: 500000000 cycles: 485794064 heartbeat IPC: 0.846682 cumulative IPC: 0.903314 (Simulation time: 0 hr 14 min 3 sec) 
Heartbeat CPU 0 instructions: 510000002 cycles: 498232200 heartbeat IPC: 0.803979 cumulative IPC: 0.9006 (Simulation time: 0 hr 14 min 21 sec) 
Heartbeat CPU 0 instructions: 520000000 cycles: 510116735 heartbeat IPC: 0.841429 cumulative IPC: 0.899095 (Simulation time: 0 hr 14 min 40 sec) 
Heartbeat CPU 0 instructions: 530000001 cycles: 521991908 heartbeat IPC: 0.842093 cumulative IPC: 0.897682 (Simulation time: 0 hr 14 min 58 sec) 
Heartbeat CPU 0 instructions: 540000000 cycles: 533627051 heartbeat IPC: 0.859465 cumulative IPC: 0.896775 (Simulation time: 0 hr 15 min 16 sec) 
Heartbeat CPU 0 instructions: 550000001 cycles: 545040421 heartbeat IPC: 0.876166 cumulative IPC: 0.896307 (Simulation time: 0 hr 15 min 34 sec) 
Heartbeat CPU 0 instructions: 560000000 cycles: 556614449 heartbeat IPC: 0.864003 cumulative IPC: 0.895579 (Simulation time: 0 hr 15 min 52 sec) 
Heartbeat CPU 0 instructions: 570000000 cycles: 568032730 heartbeat IPC: 0.875789 cumulative IPC: 0.895149 (Simulation time: 0 hr 16 min 11 sec) 
Heartbeat CPU 0 instructions: 580000000 cycles: 578806706 heartbeat IPC: 0.928162 cumulative IPC: 0.895812 (Simulation time: 0 hr 16 min 28 sec) 
Heartbeat CPU 0 instructions: 590000003 cycles: 590229484 heartbeat IPC: 0.875444 cumulative IPC: 0.895387 (Simulation time: 0 hr 16 min 46 sec) 
Heartbeat CPU 0 instructions: 600000000 cycles: 600832248 heartbeat IPC: 0.94315 cumulative IPC: 0.896295 (Simulation time: 0 hr 17 min 4 sec) 
Finished CPU 0 instructions: 500000001 cycles: 557852033 cumulative IPC: 0.896295 (Simulation time: 0 hr 17 min 4 sec) 

CPU 0 Branch Prediction Accuracy: 93.0095% MPKI: 10.0046
Number of Branches: 71558147 Number of Mispredictions: 5002285
Number of LOAD Instructions: 145708893
Number of LOAD Instructions (ROI): 145708893
Number of STORE Instructions: 40463820
Number of STORE Instructions (ROI): 40463820
Total Destination Memory Operands: 45240498
Total Destination Memory Operands (ROI): 45240498
Total Source Memory Operands: 145708893
Total Source Memory Operands (ROI): 145708893
Number of DEPENDED LOADS: 10672393
Number of DEPENDED LOADS (ROI): 10672393
Number of SQ_ADDED: 45240498
Number of SQ_ADDED (ROI): 45240498
Number of LQ_ADDED: 193331106
Number of LQ_ADDED (ROI): 193331106
Number of Instructions read from trace: 600000002

ChampSim completed all CPUs

Region of Interest Statistics

CPU 0 cumulative IPC: 0.896295 instructions: 500000001 cycles: 557852033
ITLB TOTAL     ACCESS:   77990916  HIT:   77990915  MISS:          1
ITLB LOAD      ACCESS:   77990916  HIT:   77990915  MISS:          1
ITLB RFO       ACCESS:          0  HIT:          0  MISS:          0
ITLB PREFETCH  ACCESS:          0  HIT:          0  MISS:          0
ITLB WRITEBACK ACCESS:          0  HIT:          0  MISS:          0
ITLB PREFETCH  REQUESTED:          0  ISSUED:          0  USEFUL:          0  USELESS:          0
ITLB TOTAL MSHR MERGED:          0
ITLB LOAD MSHR MERGED:          0
ITLB RFO MSHR MERGED:          0
ITLB PREFETCH MSHR MERGED:          0
ITLB WRITEBACK MSHR MERGED:          0
ITLB TOTAL ACCESSES:   77990916 HITS:   77990915 MISSES:          1
ITLB LOAD ACCESSES:   77990916 HITS:   77990915 MISSES:          1
ITLB RFO ACCESSES:          0 HITS:          0 MISSES:          0
ITLB PREFETCH ACCESSES:          0 HITS:          0 MISSES:          0
ITLB WRITEBACK ACCESSES:          0 HITS:          0 MISSES:          0
ITLB RQ ACCESS:  499999995
ITLB RQ TO_CACHE:   77990916
ITLB RQ MERGED:  422009079
ITLB RQ FORWARD:          0
ITLB WQ ACCESS:          0
ITLB WQ TO_CACHE:          0
ITLB WQ MERGED:          0
ITLB WQ FORWARD:          0
DTLB TOTAL     ACCESS:   98671636  HIT:   97790299  MISS:     881337
DTLB LOAD      ACCESS:   70891920  HIT:   70030386  MISS:     861534
DTLB RFO       ACCESS:   27779716  HIT:   27759913  MISS:      19803
DTLB PREFETCH  ACCESS:          0  HIT:          0  MISS:          0
DTLB WRITEBACK ACCESS:          0  HIT:          0  MISS:          0
DTLB PREFETCH  REQUESTED:          0  ISSUED:          0  USEFUL:          0  USELESS:          0
DTLB TOTAL MSHR MERGED:      87319
DTLB LOAD MSHR MERGED:      65572
DTLB RFO MSHR MERGED:      21747
DTLB PREFETCH MSHR MERGED:          0
DTLB WRITEBACK MSHR MERGED:          0
DTLB TOTAL ACCESSES:   98758955 HITS:   97790299 MISSES:     968656
DTLB LOAD ACCESSES:   70957492 HITS:   70030386 MISSES:     927106
DTLB RFO ACCESSES:   27801463 HITS:   27759913 MISSES:      41550
DTLB PREFETCH ACCESSES:          0 HITS:          0 MISSES:          0
DTLB WRITEBACK ACCESSES:          0 HITS:          0 MISSES:          0
DTLB RQ ACCESS:  150272653
DTLB RQ TO_CACHE:   98758955
DTLB RQ MERGED:   51513698
DTLB RQ FORWARD:          0
DTLB WQ ACCESS:          0
DTLB WQ TO_CACHE:          0
DTLB WQ MERGED:          0
DTLB WQ FORWARD:          0
L1D TOTAL     ACCESS:  173326863  HIT:  169158240  MISS:    4168623
L1D LOAD      ACCESS:   75281068  HIT:   73399778  MISS:    1881290
L1D RFO       ACCESS:   36778251  HIT:   36571642  MISS:     206609
L1D PREFETCH  ACCESS:   61267544  HIT:   59186820  MISS:    2080724
L1D WRITEBACK ACCESS:          0  HIT:          0  MISS:          0
L1D PREFETCH  REQUESTED:   75385129  ISSUED:   74820938  USEFUL:     415166  USELESS:    1665547
L1D TOTAL MSHR MERGED:     376099
L1D LOAD MSHR MERGED:     112791
L1D RFO MSHR MERGED:     133115
L1D PREFETCH MSHR MERGED:     130193
L1D WRITEBACK MSHR MERGED:          0
L1D TOTAL ACCESSES:  173854581 HITS:  169309859 MISSES:    4544722
L1D LOAD ACCESSES:   75388096 HITS:   73402745 MISSES:    1985351
L1D RFO ACCESSES:   36909969 HITS:   36571642 MISSES:     338327
L1D PREFETCH ACCESSES:   61556516 HITS:   59335472 MISSES:    2221044
L1D WRITEBACK ACCESSES:          0 HITS:          0 MISSES:          0
L1D RQ ACCESS:  112610250
L1D RQ TO_CACHE:   75385129
L1D RQ MERGED:   37222154
L1D RQ FORWARD:          0
L1D WQ ACCESS:   37662403
L1D WQ TO_CACHE:   36909969
L1D WQ MERGED:     752434
L1D WQ FORWARD:     151619
L1I TOTAL     ACCESS:  100698955  HIT:  100698930  MISS:         25
L1I LOAD      ACCESS:  100698955  HIT:  100698930  MISS:         25
L1I RFO       ACCESS:          0  HIT:          0  MISS:          0
L1I PREFETCH  ACCESS:          0  HIT:          0  MISS:          0
L1I WRITEBACK ACCESS:          0  HIT:          0  MISS:          0
L1I PREFETCH  REQUESTED:          0  ISSUED:          0  USEFUL:          0  USELESS:          0
L1I TOTAL MSHR MERGED:         10
L1I LOAD MSHR MERGED:         10
L1I RFO MSHR MERGED:          0
L1I PREFETCH MSHR MERGED:          0
L1I WRITEBACK MSHR MERGED:          0
L1I TOTAL ACCESSES:  100698965 HITS:  100698930 MISSES:         35
L1I LOAD ACCESSES:  100698965 HITS:  100698930 MISSES:         35
L1I RFO ACCESSES:          0 HITS:          0 MISSES:          0
L1I PREFETCH ACCESSES:          0 HITS:          0 MISSES:          0
L1I WRITEBACK ACCESSES:          0 HITS:          0 MISSES:          0
L1I RQ ACCESS:  499999995
L1I RQ TO_CACHE:  100698965
L1I RQ MERGED:  399301030
L1I RQ FORWARD:          0
L1I WQ ACCESS:          0
L1I WQ TO_CACHE:          0
L1I WQ MERGED:          0
L1I WQ FORWARD:          0
L2C TOTAL     ACCESS:    5852591  HIT:    4009398  MISS:    1843193
L2C LOAD      ACCESS:    1872459  HIT:    1061499  MISS:     810960
L2C RFO       ACCESS:     205204  HIT:     100565  MISS:     104639
L2C PREFETCH  ACCESS:    2169297  HIT:    1246123  MISS:     923174
L2C WRITEBACK ACCESS:    1605631  HIT:    1601211  MISS:       4420
L2C PREFETCH  REQUESTED:      91705  ISSUED:      91705  USEFUL:      86455  USELESS:     836742
L2C TOTAL MSHR MERGED:       1017
L2C LOAD MSHR MERGED:        258
L2C RFO MSHR MERGED:          0
L2C PREFETCH MSHR MERGED:        759
L2C WRITEBACK MSHR MERGED:          0
L2C TOTAL ACCESSES:    5853924 HITS:    4009569 MISSES:    1844355
L2C LOAD ACCESSES:    1872585 HITS:    1061625 MISSES:     810960
L2C RFO ACCESSES:     205212 HITS:     100573 MISSES:     104639
L2C PREFETCH ACCESSES:    2170496 HITS:    1246160 MISSES:     924336
L2C WRITEBACK ACCESSES:    1605631 HITS:    1601211 MISSES:       4420
L2C RQ ACCESS:    2077797
L2C RQ TO_CACHE:    2077663
L2C RQ MERGED:          0
L2C RQ FORWARD:          0
L2C WQ ACCESS:    1605631
L2C WQ TO_CACHE:    1605631
L2C WQ MERGED:          0
L2C WQ FORWARD:        171
LLC TOTAL     ACCESS:    2673570  HIT:    2164194  MISS:     509376
LLC LOAD      ACCESS:     810694  HIT:     627294  MISS:     183400
LLC RFO       ACCESS:     104639  HIT:      59816  MISS:      44823
LLC PREFETCH  ACCESS:     923561  HIT:     677924  MISS:     245637
LLC WRITEBACK ACCESS:     834676  HIT:     799160  MISS:      35516
LLC PREFETCH  REQUESTED:          0  ISSUED:          0  USEFUL:       8814  USELESS:     237033
LLC TOTAL MSHR MERGED:          4
LLC LOAD MSHR MERGED:          2
LLC RFO MSHR MERGED:          0
LLC PREFETCH MSHR MERGED:          2
LLC WRITEBACK MSHR MERGED:          0
LLC TOTAL ACCESSES:    2673584 HITS:    2164204 MISSES:     509380
LLC LOAD ACCESSES:     810702 HITS:     627302 MISSES:     183400
LLC RFO ACCESSES:     104639 HITS:      59816 MISSES:      44823
LLC PREFETCH ACCESSES:     923567 HITS:     677926 MISSES:     245641
LLC WRITEBACK ACCESSES:     834676 HITS:     799160 MISSES:      35516
LLC 0 RQ ACCESS:     915341
LLC 0 RQ TO_CACHE:     915333
LLC 0 RQ MERGED:          0
LLC 0 RQ FORWARD:          0
LLC WQ ACCESS:     834676
LLC WQ TO_CACHE:     834676
LLC WQ MERGED:          0
LLC WQ FORWARD:         10
Major fault: 0 Minor fault: 11278
CPU 0 L1D next line prefetcher final stats
CPU 0 L2C PC-based stride prefetcher final stats
All Misses: 623372
All Hits: 2431216
SD Algo Stats - Switches: 0 SRR-Repls: 216764 BRR-Repls: 0

DRAM Statistics
 CHANNEL 0
 RQ ROW_BUFFER_HIT:      29279  ROW_BUFFER_MISS:     444080
 DBUS_CONGESTED:     362377
 WQ ROW_BUFFER_HIT:      15617  ROW_BUFFER_MISS:     212601  FULL:          0

 AVG_CONGESTED_CYCLE: 13
LOADS RETIRED: 121769268
INSTR RETIRED: 500000000
