
*** ChampSim Multicore Out-of-Order Simulator ***

Warmup Instructions: 100000000
Simulation Instructions: 500000000
Number of CPUs: 1
LLC sets: 2048
LLC ways: 16
Clean RRIP Policies: 2213230122132301 Dirty RRIP Policies: 1203130112031301 PSEL Width: 10 Track Set: 4294967295 PSEL Mask: 1 Demote Mask: 1040101010401010DS Algo: 0Window size: 0
Off-chip DRAM Size: 4096 MB Channels: 1 Width: 64-bit Data Rate: 1600 MT/s

CPU 0 runs /mnt/beegfs/iconst01/spec2017/x264.trace.gz
NOT SORTED
TRACE STRING: /mnt/beegfs/iconst01/spec2017/x264.trace.gz
SORTED
TRACE STRING: /mnt/beegfs/iconst01/spec2017/x264.trace.gz
INITIAL
TRACE STRING: /mnt/beegfs/iconst01/spec2017/x264.trace.gz

champsim_seed used: 276

CPU 0 L1D next line prefetcher
CPU 0 L2C IP-based stride prefetcher
Initialize DRRIP state
Assign rand_sets[0]: 454  LLC: 2048
rand_sets[0]: 454
Assign rand_sets[1]: 1662  LLC: 2048
rand_sets[1]: 1662
Assign rand_sets[2]: 1921  LLC: 2048
rand_sets[2]: 1921
Assign rand_sets[3]: 1131  LLC: 2048
rand_sets[3]: 1131
Assign rand_sets[4]: 331  LLC: 2048
rand_sets[4]: 331
Assign rand_sets[5]: 1531  LLC: 2048
rand_sets[5]: 1531
Assign rand_sets[6]: 482  LLC: 2048
rand_sets[6]: 482
Assign rand_sets[7]: 1275  LLC: 2048
rand_sets[7]: 1275
Assign rand_sets[8]: 1876  LLC: 2048
rand_sets[8]: 1876
Assign rand_sets[9]: 2038  LLC: 2048
rand_sets[9]: 2038
Assign rand_sets[10]: 701  LLC: 2048
rand_sets[10]: 701
Assign rand_sets[11]: 479  LLC: 2048
rand_sets[11]: 479
Assign rand_sets[12]: 892  LLC: 2048
rand_sets[12]: 892
Assign rand_sets[13]: 1820  LLC: 2048
rand_sets[13]: 1820
Assign rand_sets[14]: 1505  LLC: 2048
rand_sets[14]: 1505
Assign rand_sets[15]: 1159  LLC: 2048
rand_sets[15]: 1159
Assign rand_sets[16]: 513  LLC: 2048
rand_sets[16]: 513
Assign rand_sets[17]: 703  LLC: 2048
rand_sets[17]: 703
Assign rand_sets[18]: 561  LLC: 2048
rand_sets[18]: 561
Assign rand_sets[19]: 990  LLC: 2048
rand_sets[19]: 990
Assign rand_sets[20]: 342  LLC: 2048
rand_sets[20]: 342
Assign rand_sets[21]: 882  LLC: 2048
rand_sets[21]: 882
Assign rand_sets[22]: 15  LLC: 2048
rand_sets[22]: 15
Assign rand_sets[23]: 71  LLC: 2048
rand_sets[23]: 71
Assign rand_sets[24]: 1127  LLC: 2048
rand_sets[24]: 1127
Assign rand_sets[25]: 1382  LLC: 2048
rand_sets[25]: 1382
Assign rand_sets[26]: 647  LLC: 2048
rand_sets[26]: 647
Assign rand_sets[27]: 857  LLC: 2048
rand_sets[27]: 857
Assign rand_sets[28]: 1450  LLC: 2048
rand_sets[28]: 1450
Assign rand_sets[29]: 1160  LLC: 2048
rand_sets[29]: 1160
Assign rand_sets[30]: 1852  LLC: 2048
rand_sets[30]: 1852
Assign rand_sets[31]: 1881  LLC: 2048
rand_sets[31]: 1881
Assign rand_sets[32]: 1770  LLC: 2048
rand_sets[32]: 1770
Assign rand_sets[33]: 1622  LLC: 2048
rand_sets[33]: 1622
Assign rand_sets[34]: 275  LLC: 2048
rand_sets[34]: 275
Assign rand_sets[35]: 635  LLC: 2048
rand_sets[35]: 635
Assign rand_sets[36]: 466  LLC: 2048
rand_sets[36]: 466
Assign rand_sets[37]: 1413  LLC: 2048
rand_sets[37]: 1413
Assign rand_sets[38]: 417  LLC: 2048
rand_sets[38]: 417
Assign rand_sets[39]: 472  LLC: 2048
rand_sets[39]: 472
Assign rand_sets[40]: 1340  LLC: 2048
rand_sets[40]: 1340
Assign rand_sets[41]: 852  LLC: 2048
rand_sets[41]: 852
Assign rand_sets[42]: 1365  LLC: 2048
rand_sets[42]: 1365
Assign rand_sets[43]: 47  LLC: 2048
rand_sets[43]: 47
Assign rand_sets[44]: 823  LLC: 2048
rand_sets[44]: 823
Assign rand_sets[45]: 686  LLC: 2048
rand_sets[45]: 686
Assign rand_sets[46]: 1637  LLC: 2048
rand_sets[46]: 1637
Assign rand_sets[47]: 1115  LLC: 2048
rand_sets[47]: 1115
Assign rand_sets[48]: 986  LLC: 2048
rand_sets[48]: 986
Assign rand_sets[49]: 258  LLC: 2048
rand_sets[49]: 258
Assign rand_sets[50]: 633  LLC: 2048
rand_sets[50]: 633
Assign rand_sets[51]: 920  LLC: 2048
rand_sets[51]: 920
Assign rand_sets[52]: 204  LLC: 2048
rand_sets[52]: 204
Assign rand_sets[53]: 227  LLC: 2048
rand_sets[53]: 227
Assign rand_sets[54]: 1818  LLC: 2048
rand_sets[54]: 1818
Assign rand_sets[55]: 886  LLC: 2048
rand_sets[55]: 886
Assign rand_sets[56]: 1422  LLC: 2048
rand_sets[56]: 1422
Assign rand_sets[57]: 607  LLC: 2048
rand_sets[57]: 607
Assign rand_sets[58]: 217  LLC: 2048
rand_sets[58]: 217
Assign rand_sets[59]: 1945  LLC: 2048
rand_sets[59]: 1945
Assign rand_sets[60]: 143  LLC: 2048
rand_sets[60]: 143
Assign rand_sets[61]: 1311  LLC: 2048
rand_sets[61]: 1311
Assign rand_sets[62]: 319  LLC: 2048
rand_sets[62]: 319
Assign rand_sets[63]: 1846  LLC: 2048
rand_sets[63]: 1846
 CLEAN-RRIP-POLICY-1: 2-2-1-3-2-3-0-1- CLEAN-RRIP-POLICY-2: 2-2-1-3-2-3-0-1-
 DIRTY-RRIP-POLICY-1: 1-2-0-3-1-3-0-1- DIRTY-RRIP-POLICY-2: 1-2-0-3-1-3-0-1-
 PSEL width: 10
Heartbeat CPU 0 instructions: 10000000 cycles: 4124759 heartbeat IPC: 2.42438 cumulative IPC: 2.42438 (Simulation time: 0 hr 0 min 14 sec) 
Heartbeat CPU 0 instructions: 20000000 cycles: 8233863 heartbeat IPC: 2.43362 cumulative IPC: 2.42899 (Simulation time: 0 hr 0 min 27 sec) 
Heartbeat CPU 0 instructions: 30000003 cycles: 12464696 heartbeat IPC: 2.3636 cumulative IPC: 2.4068 (Simulation time: 0 hr 0 min 39 sec) 
Heartbeat CPU 0 instructions: 40000000 cycles: 16636669 heartbeat IPC: 2.39695 cumulative IPC: 2.40433 (Simulation time: 0 hr 0 min 52 sec) 
Heartbeat CPU 0 instructions: 50000000 cycles: 20699138 heartbeat IPC: 2.46156 cumulative IPC: 2.41556 (Simulation time: 0 hr 1 min 6 sec) 
Heartbeat CPU 0 instructions: 60000000 cycles: 25022617 heartbeat IPC: 2.31295 cumulative IPC: 2.39783 (Simulation time: 0 hr 1 min 19 sec) 
Heartbeat CPU 0 instructions: 70000000 cycles: 29370875 heartbeat IPC: 2.29977 cumulative IPC: 2.38331 (Simulation time: 0 hr 1 min 31 sec) 
Heartbeat CPU 0 instructions: 80000000 cycles: 33721007 heartbeat IPC: 2.29878 cumulative IPC: 2.37241 (Simulation time: 0 hr 1 min 44 sec) 
Heartbeat CPU 0 instructions: 90000002 cycles: 38031995 heartbeat IPC: 2.31965 cumulative IPC: 2.36643 (Simulation time: 0 hr 1 min 57 sec) 
Heartbeat CPU 0 instructions: 100000000 cycles: 42328908 heartbeat IPC: 2.32725 cumulative IPC: 2.36245 (Simulation time: 0 hr 2 min 10 sec) 

Warmup complete CPU 0 instructions: 100000001 cycles: 42328909 (Simulation time: 0 hr 2 min 10 sec) 

Heartbeat CPU 0 instructions: 110000001 cycles: 49379740 heartbeat IPC: 1.41827 cumulative IPC: 1.41827 (Simulation time: 0 hr 2 min 26 sec) 
Heartbeat CPU 0 instructions: 120000000 cycles: 58865523 heartbeat IPC: 1.05421 cumulative IPC: 1.20944 (Simulation time: 0 hr 2 min 45 sec) 
Heartbeat CPU 0 instructions: 130000000 cycles: 63683686 heartbeat IPC: 2.07548 cumulative IPC: 1.40484 (Simulation time: 0 hr 3 min 1 sec) 
Heartbeat CPU 0 instructions: 140000000 cycles: 68612475 heartbeat IPC: 2.0289 cumulative IPC: 1.52186 (Simulation time: 0 hr 3 min 17 sec) 
Heartbeat CPU 0 instructions: 150000002 cycles: 75421410 heartbeat IPC: 1.46866 cumulative IPC: 1.51092 (Simulation time: 0 hr 3 min 35 sec) 
Heartbeat CPU 0 instructions: 160000000 cycles: 83249723 heartbeat IPC: 1.27741 cumulative IPC: 1.46625 (Simulation time: 0 hr 3 min 52 sec) 
Heartbeat CPU 0 instructions: 170000000 cycles: 90645362 heartbeat IPC: 1.35215 cumulative IPC: 1.44878 (Simulation time: 0 hr 4 min 8 sec) 
Heartbeat CPU 0 instructions: 180000000 cycles: 97945031 heartbeat IPC: 1.36993 cumulative IPC: 1.43843 (Simulation time: 0 hr 4 min 25 sec) 
Heartbeat CPU 0 instructions: 190000002 cycles: 105113906 heartbeat IPC: 1.39492 cumulative IPC: 1.43346 (Simulation time: 0 hr 4 min 41 sec) 
Heartbeat CPU 0 instructions: 200000000 cycles: 112342089 heartbeat IPC: 1.38347 cumulative IPC: 1.4283 (Simulation time: 0 hr 4 min 58 sec) 
Heartbeat CPU 0 instructions: 210000000 cycles: 119212806 heartbeat IPC: 1.45545 cumulative IPC: 1.43073 (Simulation time: 0 hr 5 min 14 sec) 
Heartbeat CPU 0 instructions: 220000000 cycles: 125977792 heartbeat IPC: 1.4782 cumulative IPC: 1.43457 (Simulation time: 0 hr 5 min 30 sec) 
Heartbeat CPU 0 instructions: 230000003 cycles: 132705859 heartbeat IPC: 1.48631 cumulative IPC: 1.43842 (Simulation time: 0 hr 5 min 46 sec) 
Heartbeat CPU 0 instructions: 240000000 cycles: 139451539 heartbeat IPC: 1.48243 cumulative IPC: 1.44148 (Simulation time: 0 hr 6 min 2 sec) 
Heartbeat CPU 0 instructions: 250000001 cycles: 146174023 heartbeat IPC: 1.48755 cumulative IPC: 1.44446 (Simulation time: 0 hr 6 min 18 sec) 
Heartbeat CPU 0 instructions: 260000000 cycles: 152874858 heartbeat IPC: 1.49235 cumulative IPC: 1.44736 (Simulation time: 0 hr 6 min 34 sec) 
Heartbeat CPU 0 instructions: 270000001 cycles: 159847378 heartbeat IPC: 1.4342 cumulative IPC: 1.44658 (Simulation time: 0 hr 6 min 50 sec) 
Heartbeat CPU 0 instructions: 280000000 cycles: 167379934 heartbeat IPC: 1.32757 cumulative IPC: 1.43941 (Simulation time: 0 hr 7 min 7 sec) 
Heartbeat CPU 0 instructions: 290000000 cycles: 175299069 heartbeat IPC: 1.26276 cumulative IPC: 1.42889 (Simulation time: 0 hr 7 min 24 sec) 
Heartbeat CPU 0 instructions: 300000000 cycles: 183477543 heartbeat IPC: 1.22272 cumulative IPC: 1.41695 (Simulation time: 0 hr 7 min 41 sec) 
Heartbeat CPU 0 instructions: 310000002 cycles: 191792407 heartbeat IPC: 1.20267 cumulative IPC: 1.40503 (Simulation time: 0 hr 7 min 59 sec) 
Heartbeat CPU 0 instructions: 320000000 cycles: 201819450 heartbeat IPC: 0.997303 cumulative IPC: 1.37939 (Simulation time: 0 hr 8 min 18 sec) 
Heartbeat CPU 0 instructions: 330000002 cycles: 206458595 heartbeat IPC: 2.15557 cumulative IPC: 1.40133 (Simulation time: 0 hr 8 min 34 sec) 
Heartbeat CPU 0 instructions: 340000000 cycles: 211702439 heartbeat IPC: 1.907 cumulative IPC: 1.41699 (Simulation time: 0 hr 8 min 51 sec) 
Heartbeat CPU 0 instructions: 350000000 cycles: 218886518 heartbeat IPC: 1.39197 cumulative IPC: 1.41597 (Simulation time: 0 hr 9 min 8 sec) 
Heartbeat CPU 0 instructions: 360000000 cycles: 226535393 heartbeat IPC: 1.30738 cumulative IPC: 1.41146 (Simulation time: 0 hr 9 min 25 sec) 
Heartbeat CPU 0 instructions: 370000000 cycles: 233932671 heartbeat IPC: 1.35185 cumulative IPC: 1.40916 (Simulation time: 0 hr 9 min 42 sec) 
Heartbeat CPU 0 instructions: 380000000 cycles: 241198913 heartbeat IPC: 1.37623 cumulative IPC: 1.40795 (Simulation time: 0 hr 9 min 58 sec) 
Heartbeat CPU 0 instructions: 390000000 cycles: 249310564 heartbeat IPC: 1.23279 cumulative IPC: 1.40109 (Simulation time: 0 hr 10 min 16 sec) 
Heartbeat CPU 0 instructions: 400000000 cycles: 257511753 heartbeat IPC: 1.21934 cumulative IPC: 1.39416 (Simulation time: 0 hr 10 min 33 sec) 
Heartbeat CPU 0 instructions: 410000001 cycles: 265327596 heartbeat IPC: 1.27945 cumulative IPC: 1.39014 (Simulation time: 0 hr 10 min 50 sec) 
Heartbeat CPU 0 instructions: 420000000 cycles: 273377294 heartbeat IPC: 1.24228 cumulative IPC: 1.38499 (Simulation time: 0 hr 11 min 8 sec) 
Heartbeat CPU 0 instructions: 430000001 cycles: 281638065 heartbeat IPC: 1.21054 cumulative IPC: 1.37897 (Simulation time: 0 hr 11 min 25 sec) 
Heartbeat CPU 0 instructions: 440000000 cycles: 289679848 heartbeat IPC: 1.24351 cumulative IPC: 1.37457 (Simulation time: 0 hr 11 min 42 sec) 
Heartbeat CPU 0 instructions: 450000001 cycles: 297545785 heartbeat IPC: 1.2713 cumulative IPC: 1.37138 (Simulation time: 0 hr 12 min 0 sec) 
Heartbeat CPU 0 instructions: 460000000 cycles: 307524179 heartbeat IPC: 1.00217 cumulative IPC: 1.35749 (Simulation time: 0 hr 12 min 19 sec) 
Heartbeat CPU 0 instructions: 470000002 cycles: 312156904 heartbeat IPC: 2.15856 cumulative IPC: 1.37124 (Simulation time: 0 hr 12 min 35 sec) 
Heartbeat CPU 0 instructions: 480000000 cycles: 317422061 heartbeat IPC: 1.89928 cumulative IPC: 1.38135 (Simulation time: 0 hr 12 min 51 sec) 
Heartbeat CPU 0 instructions: 490000001 cycles: 324740698 heartbeat IPC: 1.36637 cumulative IPC: 1.38096 (Simulation time: 0 hr 13 min 9 sec) 
Heartbeat CPU 0 instructions: 500000000 cycles: 333469750 heartbeat IPC: 1.1456 cumulative IPC: 1.37391 (Simulation time: 0 hr 13 min 29 sec) 
Heartbeat CPU 0 instructions: 510000002 cycles: 342201729 heartbeat IPC: 1.14522 cumulative IPC: 1.36725 (Simulation time: 0 hr 13 min 48 sec) 
Heartbeat CPU 0 instructions: 520000000 cycles: 350931983 heartbeat IPC: 1.14544 cumulative IPC: 1.36097 (Simulation time: 0 hr 14 min 8 sec) 
Heartbeat CPU 0 instructions: 530000000 cycles: 359638450 heartbeat IPC: 1.14857 cumulative IPC: 1.35514 (Simulation time: 0 hr 14 min 27 sec) 
Heartbeat CPU 0 instructions: 540000000 cycles: 367894485 heartbeat IPC: 1.21124 cumulative IPC: 1.35149 (Simulation time: 0 hr 14 min 45 sec) 
Heartbeat CPU 0 instructions: 550000000 cycles: 374932254 heartbeat IPC: 1.4209 cumulative IPC: 1.35296 (Simulation time: 0 hr 15 min 2 sec) 
Heartbeat CPU 0 instructions: 560000000 cycles: 381542249 heartbeat IPC: 1.51286 cumulative IPC: 1.35608 (Simulation time: 0 hr 15 min 19 sec) 
Heartbeat CPU 0 instructions: 570000002 cycles: 388121961 heartbeat IPC: 1.51982 cumulative IPC: 1.35919 (Simulation time: 0 hr 15 min 35 sec) 
Heartbeat CPU 0 instructions: 580000000 cycles: 394764512 heartbeat IPC: 1.50545 cumulative IPC: 1.36195 (Simulation time: 0 hr 15 min 52 sec) 
Heartbeat CPU 0 instructions: 590000002 cycles: 401447646 heartbeat IPC: 1.4963 cumulative IPC: 1.36445 (Simulation time: 0 hr 16 min 8 sec) 
Heartbeat CPU 0 instructions: 600000000 cycles: 408254227 heartbeat IPC: 1.46917 cumulative IPC: 1.3664 (Simulation time: 0 hr 16 min 25 sec) 
Finished CPU 0 instructions: 500000000 cycles: 365925326 cumulative IPC: 1.3664 (Simulation time: 0 hr 16 min 25 sec) 

CPU 0 Branch Prediction Accuracy: 93.4682% MPKI: 2.44079
Number of Branches: 18683822 Number of Mispredictions: 1220394
Number of LOAD Instructions: 142551610
Number of LOAD Instructions (ROI): 142551610
Number of STORE Instructions: 44807454
Number of STORE Instructions (ROI): 44807454
Total Destination Memory Operands: 48357071
Total Destination Memory Operands (ROI): 48357071
Total Source Memory Operands: 142551610
Total Source Memory Operands (ROI): 142551610
Number of DEPENDED LOADS: 7395222
Number of DEPENDED LOADS (ROI): 7395222
Number of SQ_ADDED: 48357051
Number of SQ_ADDED (ROI): 48357051
Number of LQ_ADDED: 157224470
Number of LQ_ADDED (ROI): 157224470
Number of Instructions read from trace: 600000256

ChampSim completed all CPUs

Region of Interest Statistics

CPU 0 cumulative IPC: 1.3664 instructions: 500000000 cycles: 365925326
ITLB TOTAL     ACCESS:   88176564  HIT:   88176495  MISS:         69
ITLB LOAD      ACCESS:   88176564  HIT:   88176495  MISS:         69
ITLB RFO       ACCESS:          0  HIT:          0  MISS:          0
ITLB PREFETCH  ACCESS:          0  HIT:          0  MISS:          0
ITLB WRITEBACK ACCESS:          0  HIT:          0  MISS:          0
ITLB PREFETCH  REQUESTED:          0  ISSUED:          0  USEFUL:          0  USELESS:          0
ITLB TOTAL MSHR MERGED:         85
ITLB LOAD MSHR MERGED:         85
ITLB RFO MSHR MERGED:          0
ITLB PREFETCH MSHR MERGED:          0
ITLB WRITEBACK MSHR MERGED:          0
ITLB TOTAL ACCESSES:   88176649 HITS:   88176495 MISSES:        154
ITLB LOAD ACCESSES:   88176649 HITS:   88176495 MISSES:        154
ITLB RFO ACCESSES:          0 HITS:          0 MISSES:          0
ITLB PREFETCH ACCESSES:          0 HITS:          0 MISSES:          0
ITLB WRITEBACK ACCESSES:          0 HITS:          0 MISSES:          0
ITLB RQ ACCESS:  500000000
ITLB RQ TO_CACHE:   88176649
ITLB RQ MERGED:  411823351
ITLB RQ FORWARD:          0
ITLB WQ ACCESS:          0
ITLB WQ TO_CACHE:          0
ITLB WQ MERGED:          0
ITLB WQ FORWARD:          0
DTLB TOTAL     ACCESS:   88203459  HIT:   88076042  MISS:     127417
DTLB LOAD      ACCESS:   59485544  HIT:   59393083  MISS:      92461
DTLB RFO       ACCESS:   28717915  HIT:   28682959  MISS:      34956
DTLB PREFETCH  ACCESS:          0  HIT:          0  MISS:          0
DTLB WRITEBACK ACCESS:          0  HIT:          0  MISS:          0
DTLB PREFETCH  REQUESTED:          0  ISSUED:          0  USEFUL:          0  USELESS:          0
DTLB TOTAL MSHR MERGED:     141043
DTLB LOAD MSHR MERGED:     107616
DTLB RFO MSHR MERGED:      33427
DTLB PREFETCH MSHR MERGED:          0
DTLB WRITEBACK MSHR MERGED:          0
DTLB TOTAL ACCESSES:   88344502 HITS:   88076042 MISSES:     268460
DTLB LOAD ACCESSES:   59593160 HITS:   59393083 MISSES:     200077
DTLB RFO ACCESSES:   28751342 HITS:   28682959 MISSES:      68383
DTLB PREFETCH ACCESSES:          0 HITS:          0 MISSES:          0
DTLB WRITEBACK ACCESSES:          0 HITS:          0 MISSES:          0
DTLB RQ ACCESS:  154558670
DTLB RQ TO_CACHE:   88344502
DTLB RQ MERGED:   66214168
DTLB RQ FORWARD:          0
DTLB WQ ACCESS:          0
DTLB WQ TO_CACHE:          0
DTLB WQ MERGED:          0
DTLB WQ FORWARD:          0
L1D TOTAL     ACCESS:  128052751  HIT:  124827423  MISS:    3225328
L1D LOAD      ACCESS:   53172383  HIT:   51976999  MISS:    1195384
L1D RFO       ACCESS:   37363606  HIT:   36749404  MISS:     614202
L1D PREFETCH  ACCESS:   37516762  HIT:   36101020  MISS:    1415742
L1D WRITEBACK ACCESS:          0  HIT:          0  MISS:          0
L1D PREFETCH  REQUESTED:   53657200  ISSUED:   52456623  USEFUL:     352036  USELESS:    1063671
L1D TOTAL MSHR MERGED:    2839157
L1D LOAD MSHR MERGED:     523629
L1D RFO MSHR MERGED:    1590739
L1D PREFETCH MSHR MERGED:     724789
L1D WRITEBACK MSHR MERGED:          0
L1D TOTAL ACCESSES:  130926768 HITS:  124862283 MISSES:    6064485
L1D LOAD ACCESSES:   53660070 HITS:   51979869 MISSES:    1680201
L1D RFO ACCESSES:   38952842 HITS:   36749404 MISSES:    2203438
L1D PREFETCH ACCESSES:   38313856 HITS:   36133010 MISSES:    2180846
L1D WRITEBACK ACCESSES:          0 HITS:          0 MISSES:          0
L1D RQ ACCESS:  113713778
L1D RQ TO_CACHE:   53657200
L1D RQ MERGED:   60053708
L1D RQ FORWARD:          0
L1D WQ ACCESS:   40844891
L1D WQ TO_CACHE:   38952842
L1D WQ MERGED:    1892049
L1D WQ FORWARD:      34860
L1I TOTAL     ACCESS:  108368687  HIT:  107809554  MISS:     559133
L1I LOAD      ACCESS:  108368687  HIT:  107809554  MISS:     559133
L1I RFO       ACCESS:          0  HIT:          0  MISS:          0
L1I PREFETCH  ACCESS:          0  HIT:          0  MISS:          0
L1I WRITEBACK ACCESS:          0  HIT:          0  MISS:          0
L1I PREFETCH  REQUESTED:          0  ISSUED:          0  USEFUL:          0  USELESS:          0
L1I TOTAL MSHR MERGED:     525531
L1I LOAD MSHR MERGED:     525531
L1I RFO MSHR MERGED:          0
L1I PREFETCH MSHR MERGED:          0
L1I WRITEBACK MSHR MERGED:          0
L1I TOTAL ACCESSES:  108894218 HITS:  107809554 MISSES:    1084664
L1I LOAD ACCESSES:  108894218 HITS:  107809554 MISSES:    1084664
L1I RFO ACCESSES:          0 HITS:          0 MISSES:          0
L1I PREFETCH ACCESSES:          0 HITS:          0 MISSES:          0
L1I WRITEBACK ACCESSES:          0 HITS:          0 MISSES:          0
L1I RQ ACCESS:  500000002
L1I RQ TO_CACHE:  108894218
L1I RQ MERGED:  391105784
L1I RQ FORWARD:          0
L1I WQ ACCESS:          0
L1I WQ TO_CACHE:          0
L1I WQ MERGED:          0
L1I WQ FORWARD:          0
L2C TOTAL     ACCESS:    4691372  HIT:    3865557  MISS:     825815
L2C LOAD      ACCESS:    1715596  HIT:    1562488  MISS:     153108
L2C RFO       ACCESS:     611268  HIT:     421208  MISS:     190060
L2C PREFETCH  ACCESS:    1661581  HIT:    1181122  MISS:     480459
L2C WRITEBACK ACCESS:     702927  HIT:     700739  MISS:       2188
L2C PREFETCH  REQUESTED:     256361  ISSUED:     256361  USEFUL:     172893  USELESS:     308232
L2C TOTAL MSHR MERGED:      13381
L2C LOAD MSHR MERGED:       4139
L2C RFO MSHR MERGED:          0
L2C PREFETCH MSHR MERGED:       9242
L2C WRITEBACK MSHR MERGED:          0
L2C TOTAL ACCESSES:    4712087 HITS:    3867165 MISSES:     844922
L2C LOAD ACCESSES:    1715705 HITS:    1562597 MISSES:     153108
L2C RFO ACCESSES:     612699 HITS:     422639 MISSES:     190060
L2C PREFETCH ACCESSES:    1680756 HITS:    1181190 MISSES:     499566
L2C WRITEBACK ACCESSES:     702927 HITS:     700739 MISSES:       2188
L2C RQ ACCESS:    2328404
L2C RQ TO_CACHE:    2326864
L2C RQ MERGED:          0
L2C RQ FORWARD:          0
L2C WQ ACCESS:     702927
L2C WQ TO_CACHE:     702927
L2C WQ MERGED:          0
L2C WQ FORWARD:       1608
LLC TOTAL     ACCESS:    1047300  HIT:     279926  MISS:     767374
LLC LOAD      ACCESS:     148965  HIT:      89888  MISS:      59077
LLC RFO       ACCESS:     190053  HIT:       7336  MISS:     182717
LLC PREFETCH  ACCESS:     487403  HIT:     143408  MISS:     343995
LLC WRITEBACK ACCESS:     220879  HIT:      39294  MISS:     181585
LLC PREFETCH  REQUESTED:          0  ISSUED:          0  USEFUL:       2317  USELESS:     342291
LLC TOTAL MSHR MERGED:       2167
LLC LOAD MSHR MERGED:        833
LLC RFO MSHR MERGED:          0
LLC PREFETCH MSHR MERGED:       1334
LLC WRITEBACK MSHR MERGED:          0
LLC TOTAL ACCESSES:    1049478 HITS:     279937 MISSES:     769541
LLC LOAD ACCESSES:     148969 HITS:      89892 MISSES:      59077
LLC RFO ACCESSES:     190060 HITS:       7343 MISSES:     182717
LLC PREFETCH ACCESSES:     489570 HITS:     143408 MISSES:     346162
LLC WRITEBACK ACCESSES:     220879 HITS:      39294 MISSES:     181585
LLC 0 RQ ACCESS:     339029
LLC 0 RQ TO_CACHE:     339018
LLC 0 RQ MERGED:          0
LLC 0 RQ FORWARD:          0
LLC WQ ACCESS:     220879
LLC WQ TO_CACHE:     220879
LLC WQ MERGED:          0
LLC WQ FORWARD:         11
Major fault: 0 Minor fault: 6811
CPU 0 L1D next line prefetcher final stats
CPU 0 L2C PC-based stride prefetcher final stats
All Misses: 906475
All Hits: 347808
SD Algo Stats - Switches: 0 SRR-Repls: 66445 BRR-Repls: 0

DRAM Statistics
 CHANNEL 0
 RQ ROW_BUFFER_HIT:     297095  ROW_BUFFER_MISS:     288599
 DBUS_CONGESTED:     406588
 WQ ROW_BUFFER_HIT:      28664  ROW_BUFFER_MISS:     187122  FULL:          0

 AVG_CONGESTED_CYCLE: 13
LOADS RETIRED: 119922929
INSTR RETIRED: 500000000
