
*** ChampSim Multicore Out-of-Order Simulator ***

Warmup Instructions: 100000000
Simulation Instructions: 500000000
Number of CPUs: 1
LLC sets: 2048
LLC ways: 16
Clean RRIP Policies: 113030001130300 Dirty RRIP Policies: 2113130021131300 PSEL Width: 10 Track Set: 4294967295 PSEL Mask: 1 Demote Mask: 421021404210214DS Algo: 0Window size: 0
Off-chip DRAM Size: 4096 MB Channels: 1 Width: 64-bit Data Rate: 1600 MT/s

CPU 0 runs /mnt/beegfs/iconst01/spec2017/Mcf.trace.gz
NOT SORTED
TRACE STRING: /mnt/beegfs/iconst01/spec2017/Mcf.trace.gz
SORTED
TRACE STRING: /mnt/beegfs/iconst01/spec2017/Mcf.trace.gz
INITIAL
TRACE STRING: /mnt/beegfs/iconst01/spec2017/Mcf.trace.gz

champsim_seed used: 278

CPU 0 L1D next line prefetcher
CPU 0 L2C IP-based stride prefetcher
Initialize DRRIP state
Assign rand_sets[0]: 454  LLC: 2048
rand_sets[0]: 454
Assign rand_sets[1]: 1662  LLC: 2048
rand_sets[1]: 1662
Assign rand_sets[2]: 1921  LLC: 2048
rand_sets[2]: 1921
Assign rand_sets[3]: 1131  LLC: 2048
rand_sets[3]: 1131
Assign rand_sets[4]: 331  LLC: 2048
rand_sets[4]: 331
Assign rand_sets[5]: 1531  LLC: 2048
rand_sets[5]: 1531
Assign rand_sets[6]: 482  LLC: 2048
rand_sets[6]: 482
Assign rand_sets[7]: 1275  LLC: 2048
rand_sets[7]: 1275
Assign rand_sets[8]: 1876  LLC: 2048
rand_sets[8]: 1876
Assign rand_sets[9]: 2038  LLC: 2048
rand_sets[9]: 2038
Assign rand_sets[10]: 701  LLC: 2048
rand_sets[10]: 701
Assign rand_sets[11]: 479  LLC: 2048
rand_sets[11]: 479
Assign rand_sets[12]: 892  LLC: 2048
rand_sets[12]: 892
Assign rand_sets[13]: 1820  LLC: 2048
rand_sets[13]: 1820
Assign rand_sets[14]: 1505  LLC: 2048
rand_sets[14]: 1505
Assign rand_sets[15]: 1159  LLC: 2048
rand_sets[15]: 1159
Assign rand_sets[16]: 513  LLC: 2048
rand_sets[16]: 513
Assign rand_sets[17]: 703  LLC: 2048
rand_sets[17]: 703
Assign rand_sets[18]: 561  LLC: 2048
rand_sets[18]: 561
Assign rand_sets[19]: 990  LLC: 2048
rand_sets[19]: 990
Assign rand_sets[20]: 342  LLC: 2048
rand_sets[20]: 342
Assign rand_sets[21]: 882  LLC: 2048
rand_sets[21]: 882
Assign rand_sets[22]: 15  LLC: 2048
rand_sets[22]: 15
Assign rand_sets[23]: 71  LLC: 2048
rand_sets[23]: 71
Assign rand_sets[24]: 1127  LLC: 2048
rand_sets[24]: 1127
Assign rand_sets[25]: 1382  LLC: 2048
rand_sets[25]: 1382
Assign rand_sets[26]: 647  LLC: 2048
rand_sets[26]: 647
Assign rand_sets[27]: 857  LLC: 2048
rand_sets[27]: 857
Assign rand_sets[28]: 1450  LLC: 2048
rand_sets[28]: 1450
Assign rand_sets[29]: 1160  LLC: 2048
rand_sets[29]: 1160
Assign rand_sets[30]: 1852  LLC: 2048
rand_sets[30]: 1852
Assign rand_sets[31]: 1881  LLC: 2048
rand_sets[31]: 1881
Assign rand_sets[32]: 1770  LLC: 2048
rand_sets[32]: 1770
Assign rand_sets[33]: 1622  LLC: 2048
rand_sets[33]: 1622
Assign rand_sets[34]: 275  LLC: 2048
rand_sets[34]: 275
Assign rand_sets[35]: 635  LLC: 2048
rand_sets[35]: 635
Assign rand_sets[36]: 466  LLC: 2048
rand_sets[36]: 466
Assign rand_sets[37]: 1413  LLC: 2048
rand_sets[37]: 1413
Assign rand_sets[38]: 417  LLC: 2048
rand_sets[38]: 417
Assign rand_sets[39]: 472  LLC: 2048
rand_sets[39]: 472
Assign rand_sets[40]: 1340  LLC: 2048
rand_sets[40]: 1340
Assign rand_sets[41]: 852  LLC: 2048
rand_sets[41]: 852
Assign rand_sets[42]: 1365  LLC: 2048
rand_sets[42]: 1365
Assign rand_sets[43]: 47  LLC: 2048
rand_sets[43]: 47
Assign rand_sets[44]: 823  LLC: 2048
rand_sets[44]: 823
Assign rand_sets[45]: 686  LLC: 2048
rand_sets[45]: 686
Assign rand_sets[46]: 1637  LLC: 2048
rand_sets[46]: 1637
Assign rand_sets[47]: 1115  LLC: 2048
rand_sets[47]: 1115
Assign rand_sets[48]: 986  LLC: 2048
rand_sets[48]: 986
Assign rand_sets[49]: 258  LLC: 2048
rand_sets[49]: 258
Assign rand_sets[50]: 633  LLC: 2048
rand_sets[50]: 633
Assign rand_sets[51]: 920  LLC: 2048
rand_sets[51]: 920
Assign rand_sets[52]: 204  LLC: 2048
rand_sets[52]: 204
Assign rand_sets[53]: 227  LLC: 2048
rand_sets[53]: 227
Assign rand_sets[54]: 1818  LLC: 2048
rand_sets[54]: 1818
Assign rand_sets[55]: 886  LLC: 2048
rand_sets[55]: 886
Assign rand_sets[56]: 1422  LLC: 2048
rand_sets[56]: 1422
Assign rand_sets[57]: 607  LLC: 2048
rand_sets[57]: 607
Assign rand_sets[58]: 217  LLC: 2048
rand_sets[58]: 217
Assign rand_sets[59]: 1945  LLC: 2048
rand_sets[59]: 1945
Assign rand_sets[60]: 143  LLC: 2048
rand_sets[60]: 143
Assign rand_sets[61]: 1311  LLC: 2048
rand_sets[61]: 1311
Assign rand_sets[62]: 319  LLC: 2048
rand_sets[62]: 319
Assign rand_sets[63]: 1846  LLC: 2048
rand_sets[63]: 1846
 CLEAN-RRIP-POLICY-1: 0-1-1-3-0-3-0-0- CLEAN-RRIP-POLICY-2: 0-1-1-3-0-3-0-0-
 DIRTY-RRIP-POLICY-1: 2-1-1-3-1-3-0-0- DIRTY-RRIP-POLICY-2: 2-1-1-3-1-3-0-0-
 PSEL width: 10
Heartbeat CPU 0 instructions: 10000002 cycles: 6248763 heartbeat IPC: 1.60032 cumulative IPC: 1.60032 (Simulation time: 0 hr 0 min 13 sec) 
Heartbeat CPU 0 instructions: 20000000 cycles: 12470991 heartbeat IPC: 1.60714 cumulative IPC: 1.60372 (Simulation time: 0 hr 0 min 26 sec) 
Heartbeat CPU 0 instructions: 30000000 cycles: 18682961 heartbeat IPC: 1.6098 cumulative IPC: 1.60574 (Simulation time: 0 hr 0 min 38 sec) 
Heartbeat CPU 0 instructions: 40000000 cycles: 24894872 heartbeat IPC: 1.60981 cumulative IPC: 1.60676 (Simulation time: 0 hr 0 min 51 sec) 
Heartbeat CPU 0 instructions: 50000003 cycles: 31108500 heartbeat IPC: 1.60937 cumulative IPC: 1.60728 (Simulation time: 0 hr 1 min 4 sec) 
Heartbeat CPU 0 instructions: 60000000 cycles: 37305907 heartbeat IPC: 1.61358 cumulative IPC: 1.60832 (Simulation time: 0 hr 1 min 17 sec) 
Heartbeat CPU 0 instructions: 70000003 cycles: 43525527 heartbeat IPC: 1.60782 cumulative IPC: 1.60825 (Simulation time: 0 hr 1 min 29 sec) 
Heartbeat CPU 0 instructions: 80000000 cycles: 49756949 heartbeat IPC: 1.60477 cumulative IPC: 1.60782 (Simulation time: 0 hr 1 min 42 sec) 
Heartbeat CPU 0 instructions: 90000000 cycles: 55986815 heartbeat IPC: 1.60517 cumulative IPC: 1.60752 (Simulation time: 0 hr 1 min 55 sec) 
Heartbeat CPU 0 instructions: 100000000 cycles: 62206805 heartbeat IPC: 1.60772 cumulative IPC: 1.60754 (Simulation time: 0 hr 2 min 8 sec) 

Warmup complete CPU 0 instructions: 100000001 cycles: 62206806 (Simulation time: 0 hr 2 min 8 sec) 

Heartbeat CPU 0 instructions: 110000000 cycles: 87523703 heartbeat IPC: 0.394993 cumulative IPC: 0.394993 (Simulation time: 0 hr 2 min 32 sec) 
Heartbeat CPU 0 instructions: 120000000 cycles: 112857657 heartbeat IPC: 0.394727 cumulative IPC: 0.39486 (Simulation time: 0 hr 2 min 57 sec) 
Heartbeat CPU 0 instructions: 130000000 cycles: 138242634 heartbeat IPC: 0.393934 cumulative IPC: 0.394551 (Simulation time: 0 hr 3 min 22 sec) 
Heartbeat CPU 0 instructions: 140000000 cycles: 163541907 heartbeat IPC: 0.395268 cumulative IPC: 0.39473 (Simulation time: 0 hr 3 min 46 sec) 
Heartbeat CPU 0 instructions: 150000003 cycles: 188687088 heartbeat IPC: 0.397691 cumulative IPC: 0.395319 (Simulation time: 0 hr 4 min 11 sec) 
Heartbeat CPU 0 instructions: 160000000 cycles: 214098136 heartbeat IPC: 0.39353 cumulative IPC: 0.395019 (Simulation time: 0 hr 4 min 36 sec) 
Heartbeat CPU 0 instructions: 170000001 cycles: 239355755 heartbeat IPC: 0.39592 cumulative IPC: 0.395148 (Simulation time: 0 hr 5 min 1 sec) 
Heartbeat CPU 0 instructions: 180000000 cycles: 264628340 heartbeat IPC: 0.395686 cumulative IPC: 0.395215 (Simulation time: 0 hr 5 min 25 sec) 
Heartbeat CPU 0 instructions: 190000003 cycles: 289829456 heartbeat IPC: 0.396808 cumulative IPC: 0.395391 (Simulation time: 0 hr 5 min 50 sec) 
Heartbeat CPU 0 instructions: 200000000 cycles: 315035305 heartbeat IPC: 0.396733 cumulative IPC: 0.395525 (Simulation time: 0 hr 6 min 15 sec) 
Heartbeat CPU 0 instructions: 210000003 cycles: 340304170 heartbeat IPC: 0.395744 cumulative IPC: 0.395545 (Simulation time: 0 hr 6 min 40 sec) 
Heartbeat CPU 0 instructions: 220000000 cycles: 365798061 heartbeat IPC: 0.392251 cumulative IPC: 0.395268 (Simulation time: 0 hr 7 min 4 sec) 
Heartbeat CPU 0 instructions: 230000002 cycles: 390898453 heartbeat IPC: 0.3984 cumulative IPC: 0.395507 (Simulation time: 0 hr 7 min 29 sec) 
Heartbeat CPU 0 instructions: 240000000 cycles: 416310380 heartbeat IPC: 0.393516 cumulative IPC: 0.395365 (Simulation time: 0 hr 7 min 54 sec) 
Heartbeat CPU 0 instructions: 250000000 cycles: 441543695 heartbeat IPC: 0.396301 cumulative IPC: 0.395427 (Simulation time: 0 hr 8 min 19 sec) 
Heartbeat CPU 0 instructions: 260000000 cycles: 466744894 heartbeat IPC: 0.396807 cumulative IPC: 0.395513 (Simulation time: 0 hr 8 min 44 sec) 
Heartbeat CPU 0 instructions: 270000001 cycles: 492035397 heartbeat IPC: 0.395405 cumulative IPC: 0.395507 (Simulation time: 0 hr 9 min 8 sec) 
Heartbeat CPU 0 instructions: 280000000 cycles: 517228688 heartbeat IPC: 0.396931 cumulative IPC: 0.395585 (Simulation time: 0 hr 9 min 33 sec) 
Heartbeat CPU 0 instructions: 290000001 cycles: 542504047 heartbeat IPC: 0.395642 cumulative IPC: 0.395588 (Simulation time: 0 hr 9 min 58 sec) 
Heartbeat CPU 0 instructions: 300000000 cycles: 567981420 heartbeat IPC: 0.392505 cumulative IPC: 0.395433 (Simulation time: 0 hr 10 min 23 sec) 
Heartbeat CPU 0 instructions: 310000003 cycles: 593079669 heartbeat IPC: 0.398434 cumulative IPC: 0.395575 (Simulation time: 0 hr 10 min 48 sec) 
Heartbeat CPU 0 instructions: 320000000 cycles: 618524524 heartbeat IPC: 0.393007 cumulative IPC: 0.395457 (Simulation time: 0 hr 11 min 13 sec) 
Heartbeat CPU 0 instructions: 330000003 cycles: 643655068 heartbeat IPC: 0.397922 cumulative IPC: 0.395564 (Simulation time: 0 hr 11 min 38 sec) 
Heartbeat CPU 0 instructions: 340000000 cycles: 669115564 heartbeat IPC: 0.392765 cumulative IPC: 0.395447 (Simulation time: 0 hr 12 min 3 sec) 
Heartbeat CPU 0 instructions: 350000002 cycles: 694552877 heartbeat IPC: 0.393123 cumulative IPC: 0.395353 (Simulation time: 0 hr 12 min 27 sec) 
Heartbeat CPU 0 instructions: 360000000 cycles: 720119472 heartbeat IPC: 0.391135 cumulative IPC: 0.395189 (Simulation time: 0 hr 12 min 52 sec) 
Heartbeat CPU 0 instructions: 370000000 cycles: 745461646 heartbeat IPC: 0.394599 cumulative IPC: 0.395167 (Simulation time: 0 hr 13 min 17 sec) 
Heartbeat CPU 0 instructions: 380000000 cycles: 770636719 heartbeat IPC: 0.397218 cumulative IPC: 0.39524 (Simulation time: 0 hr 13 min 42 sec) 
Heartbeat CPU 0 instructions: 390000002 cycles: 795815012 heartbeat IPC: 0.397168 cumulative IPC: 0.395306 (Simulation time: 0 hr 14 min 6 sec) 
Heartbeat CPU 0 instructions: 400000000 cycles: 821160415 heartbeat IPC: 0.394549 cumulative IPC: 0.395281 (Simulation time: 0 hr 14 min 31 sec) 
Heartbeat CPU 0 instructions: 410000002 cycles: 846377663 heartbeat IPC: 0.396554 cumulative IPC: 0.395322 (Simulation time: 0 hr 14 min 56 sec) 
Heartbeat CPU 0 instructions: 420000000 cycles: 871395566 heartbeat IPC: 0.399714 cumulative IPC: 0.395458 (Simulation time: 0 hr 15 min 21 sec) 
Heartbeat CPU 0 instructions: 430000000 cycles: 896675104 heartbeat IPC: 0.395577 cumulative IPC: 0.395461 (Simulation time: 0 hr 15 min 46 sec) 
Heartbeat CPU 0 instructions: 440000000 cycles: 921628398 heartbeat IPC: 0.400749 cumulative IPC: 0.395615 (Simulation time: 0 hr 16 min 10 sec) 
Heartbeat CPU 0 instructions: 450000000 cycles: 947137147 heartbeat IPC: 0.392022 cumulative IPC: 0.395511 (Simulation time: 0 hr 16 min 36 sec) 
Heartbeat CPU 0 instructions: 460000000 cycles: 972546117 heartbeat IPC: 0.393562 cumulative IPC: 0.395457 (Simulation time: 0 hr 17 min 2 sec) 
Heartbeat CPU 0 instructions: 470000001 cycles: 997750466 heartbeat IPC: 0.396757 cumulative IPC: 0.395492 (Simulation time: 0 hr 17 min 28 sec) 
Heartbeat CPU 0 instructions: 480000000 cycles: 1023114572 heartbeat IPC: 0.394258 cumulative IPC: 0.395459 (Simulation time: 0 hr 17 min 54 sec) 
Heartbeat CPU 0 instructions: 490000000 cycles: 1048588939 heartbeat IPC: 0.392551 cumulative IPC: 0.395384 (Simulation time: 0 hr 18 min 20 sec) 
Heartbeat CPU 0 instructions: 500000000 cycles: 1074340871 heartbeat IPC: 0.38832 cumulative IPC: 0.395205 (Simulation time: 0 hr 18 min 46 sec) 
Heartbeat CPU 0 instructions: 510000003 cycles: 1099983417 heartbeat IPC: 0.389977 cumulative IPC: 0.395075 (Simulation time: 0 hr 19 min 12 sec) 
Heartbeat CPU 0 instructions: 520000000 cycles: 1125768249 heartbeat IPC: 0.387825 cumulative IPC: 0.3949 (Simulation time: 0 hr 19 min 38 sec) 
Heartbeat CPU 0 instructions: 530000003 cycles: 1151588731 heartbeat IPC: 0.38729 cumulative IPC: 0.394719 (Simulation time: 0 hr 20 min 4 sec) 
Heartbeat CPU 0 instructions: 540000000 cycles: 1177345418 heartbeat IPC: 0.388249 cumulative IPC: 0.39457 (Simulation time: 0 hr 20 min 30 sec) 
Heartbeat CPU 0 instructions: 550000000 cycles: 1203069770 heartbeat IPC: 0.388737 cumulative IPC: 0.394438 (Simulation time: 0 hr 20 min 56 sec) 
Heartbeat CPU 0 instructions: 560000000 cycles: 1229131827 heartbeat IPC: 0.3837 cumulative IPC: 0.394198 (Simulation time: 0 hr 21 min 22 sec) 
Heartbeat CPU 0 instructions: 570000001 cycles: 1255113991 heartbeat IPC: 0.384879 cumulative IPC: 0.393995 (Simulation time: 0 hr 21 min 48 sec) 
Heartbeat CPU 0 instructions: 580000000 cycles: 1281117571 heartbeat IPC: 0.384562 cumulative IPC: 0.393794 (Simulation time: 0 hr 22 min 14 sec) 
Heartbeat CPU 0 instructions: 590000000 cycles: 1307266635 heartbeat IPC: 0.382423 cumulative IPC: 0.393555 (Simulation time: 0 hr 22 min 40 sec) 
Heartbeat CPU 0 instructions: 600000000 cycles: 1333503411 heartbeat IPC: 0.381144 cumulative IPC: 0.393299 (Simulation time: 0 hr 23 min 6 sec) 
Finished CPU 0 instructions: 500000003 cycles: 1271296618 cumulative IPC: 0.393299 (Simulation time: 0 hr 23 min 6 sec) 

CPU 0 Branch Prediction Accuracy: 91.1342% MPKI: 18.7968
Number of Branches: 106006945 Number of Mispredictions: 9398408
Number of LOAD Instructions: 207894007
Number of LOAD Instructions (ROI): 207894007
Number of STORE Instructions: 54285997
Number of STORE Instructions (ROI): 54285997
Total Destination Memory Operands: 57463404
Total Destination Memory Operands (ROI): 57463404
Total Source Memory Operands: 207894007
Total Source Memory Operands (ROI): 207894007
Number of DEPENDED LOADS: 18120043
Number of DEPENDED LOADS (ROI): 18120043
Number of SQ_ADDED: 57463404
Number of SQ_ADDED (ROI): 57463404
Number of LQ_ADDED: 209303833
Number of LQ_ADDED (ROI): 209303833
Number of Instructions read from trace: 600000039

ChampSim completed all CPUs

Region of Interest Statistics

CPU 0 cumulative IPC: 0.393299 instructions: 500000003 cycles: 1271296618
ITLB TOTAL     ACCESS:   96398004  HIT:   96398004  MISS:          0
ITLB LOAD      ACCESS:   96398004  HIT:   96398004  MISS:          0
ITLB RFO       ACCESS:          0  HIT:          0  MISS:          0
ITLB PREFETCH  ACCESS:          0  HIT:          0  MISS:          0
ITLB WRITEBACK ACCESS:          0  HIT:          0  MISS:          0
ITLB PREFETCH  REQUESTED:          0  ISSUED:          0  USEFUL:          0  USELESS:          0
ITLB TOTAL MSHR MERGED:          0
ITLB LOAD MSHR MERGED:          0
ITLB RFO MSHR MERGED:          0
ITLB PREFETCH MSHR MERGED:          0
ITLB WRITEBACK MSHR MERGED:          0
ITLB TOTAL ACCESSES:   96398004 HITS:   96398004 MISSES:          0
ITLB LOAD ACCESSES:   96398004 HITS:   96398004 MISSES:          0
ITLB RFO ACCESSES:          0 HITS:          0 MISSES:          0
ITLB PREFETCH ACCESSES:          0 HITS:          0 MISSES:          0
ITLB WRITEBACK ACCESSES:          0 HITS:          0 MISSES:          0
ITLB RQ ACCESS:  499999980
ITLB RQ TO_CACHE:   96398004
ITLB RQ MERGED:  403601976
ITLB RQ FORWARD:          0
ITLB WQ ACCESS:          0
ITLB WQ TO_CACHE:          0
ITLB WQ MERGED:          0
ITLB WQ FORWARD:          0
DTLB TOTAL     ACCESS:  155158476  HIT:  150246434  MISS:    4912042
DTLB LOAD      ACCESS:  117708989  HIT:  113318594  MISS:    4390395
DTLB RFO       ACCESS:   37449487  HIT:   36927840  MISS:     521647
DTLB PREFETCH  ACCESS:          0  HIT:          0  MISS:          0
DTLB WRITEBACK ACCESS:          0  HIT:          0  MISS:          0
DTLB PREFETCH  REQUESTED:          0  ISSUED:          0  USEFUL:          0  USELESS:          0
DTLB TOTAL MSHR MERGED:     450844
DTLB LOAD MSHR MERGED:     159578
DTLB RFO MSHR MERGED:     291266
DTLB PREFETCH MSHR MERGED:          0
DTLB WRITEBACK MSHR MERGED:          0
DTLB TOTAL ACCESSES:  155609320 HITS:  150246434 MISSES:    5362886
DTLB LOAD ACCESSES:  117868567 HITS:  113318594 MISSES:    4549973
DTLB RFO ACCESSES:   37740753 HITS:   36927840 MISSES:     812913
DTLB PREFETCH ACCESSES:          0 HITS:          0 MISSES:          0
DTLB WRITEBACK ACCESSES:          0 HITS:          0 MISSES:          0
DTLB RQ ACCESS:  205963556
DTLB RQ TO_CACHE:  155609320
DTLB RQ MERGED:   50354236
DTLB RQ FORWARD:          0
DTLB WQ ACCESS:          0
DTLB WQ TO_CACHE:          0
DTLB WQ MERGED:          0
DTLB WQ FORWARD:          0
L1D TOTAL     ACCESS:  277125514  HIT:  242304299  MISS:   34821215
L1D LOAD      ACCESS:  125412487  HIT:  107775087  MISS:   17637400
L1D RFO       ACCESS:   41130754  HIT:   38818938  MISS:    2311816
L1D PREFETCH  ACCESS:  110582273  HIT:   95710274  MISS:   14871999
L1D WRITEBACK ACCESS:          0  HIT:          0  MISS:          0
L1D PREFETCH  REQUESTED:  126251700  ISSUED:  124732574  USEFUL:    2707131  USELESS:   12164894
L1D TOTAL MSHR MERGED:    8488232
L1D LOAD MSHR MERGED:    1515939
L1D RFO MSHR MERGED:    3771632
L1D PREFETCH MSHR MERGED:    3200661
L1D WRITEBACK MSHR MERGED:          0
L1D TOTAL ACCESSES:  285701077 HITS:  242391629 MISSES:   43309448
L1D LOAD ACCESSES:  126251739 HITS:  107775126 MISSES:   18476613
L1D RFO ACCESSES:   44901890 HITS:   38818938 MISSES:    6082952
L1D PREFETCH ACCESSES:  114547448 HITS:   95797565 MISSES:   18749883
L1D WRITEBACK ACCESSES:          0 HITS:          0 MISSES:          0
L1D RQ ACCESS:  158416675
L1D RQ TO_CACHE:  126251700
L1D RQ MERGED:   32164936
L1D RQ FORWARD:          0
L1D WQ ACCESS:   47546882
L1D WQ TO_CACHE:   44901890
L1D WQ MERGED:    2644992
L1D WQ FORWARD:      87330
L1I TOTAL     ACCESS:  132803986  HIT:  132803986  MISS:          0
L1I LOAD      ACCESS:  132803986  HIT:  132803986  MISS:          0
L1I RFO       ACCESS:          0  HIT:          0  MISS:          0
L1I PREFETCH  ACCESS:          0  HIT:          0  MISS:          0
L1I WRITEBACK ACCESS:          0  HIT:          0  MISS:          0
L1I PREFETCH  REQUESTED:          0  ISSUED:          0  USEFUL:          0  USELESS:          0
L1I TOTAL MSHR MERGED:          0
L1I LOAD MSHR MERGED:          0
L1I RFO MSHR MERGED:          0
L1I PREFETCH MSHR MERGED:          0
L1I WRITEBACK MSHR MERGED:          0
L1I TOTAL ACCESSES:  132803986 HITS:  132803986 MISSES:          0
L1I LOAD ACCESSES:  132803986 HITS:  132803986 MISSES:          0
L1I RFO ACCESSES:          0 HITS:          0 MISSES:          0
L1I PREFETCH ACCESSES:          0 HITS:          0 MISSES:          0
L1I WRITEBACK ACCESSES:          0 HITS:          0 MISSES:          0
L1I RQ ACCESS:  499999980
L1I RQ TO_CACHE:  132803986
L1I RQ MERGED:  367195994
L1I RQ FORWARD:          0
L1I WQ ACCESS:          0
L1I WQ TO_CACHE:          0
L1I WQ MERGED:          0
L1I WQ FORWARD:          0
L2C TOTAL     ACCESS:   39601091  HIT:   20632303  MISS:   18968788
L2C LOAD      ACCESS:   16960611  HIT:    8567721  MISS:    8392890
L2C RFO       ACCESS:    2311267  HIT:     630823  MISS:    1680444
L2C PREFETCH  ACCESS:   17106816  HIT:    8215110  MISS:    8891706
L2C WRITEBACK ACCESS:    3222397  HIT:    3218649  MISS:       3748
L2C PREFETCH  REQUESTED:    2919897  ISSUED:    2919897  USEFUL:    1306962  USELESS:    7584496
L2C TOTAL MSHR MERGED:     542341
L2C LOAD MSHR MERGED:      97357
L2C RFO MSHR MERGED:          0
L2C PREFETCH MSHR MERGED:     444984
L2C WRITEBACK MSHR MERGED:          0
L2C TOTAL ACCESSES:   40298376 HITS:   20632470 MISSES:   19665906
L2C LOAD ACCESSES:   16960674 HITS:    8567784 MISSES:    8392890
L2C RFO ACCESSES:    2311320 HITS:     630876 MISSES:    1680444
L2C PREFETCH ACCESSES:   17803985 HITS:    8215161 MISSES:    9588824
L2C WRITEBACK ACCESSES:    3222397 HITS:    3218649 MISSES:       3748
L2C RQ ACCESS:   19271994
L2C RQ TO_CACHE:   19271878
L2C RQ MERGED:          0
L2C RQ FORWARD:          0
L2C WQ ACCESS:    3222397
L2C WQ TO_CACHE:    3222397
L2C WQ MERGED:          0
L2C WQ FORWARD:        167
LLC TOTAL     ACCESS:   21215803  HIT:   13004859  MISS:    8210944
LLC LOAD      ACCESS:    8295510  HIT:    5623581  MISS:    2671929
LLC RFO       ACCESS:    1680381  HIT:    1632765  MISS:      47616
LLC PREFETCH  ACCESS:    9064266  HIT:    3618903  MISS:    5445363
LLC WRITEBACK ACCESS:    2175646  HIT:    2129610  MISS:      46036
LLC PREFETCH  REQUESTED:          0  ISSUED:          0  USEFUL:     186331  USELESS:    5260507
LLC TOTAL MSHR MERGED:      66579
LLC LOAD MSHR MERGED:      21840
LLC RFO MSHR MERGED:          0
LLC PREFETCH MSHR MERGED:      44739
LLC WRITEBACK MSHR MERGED:          0
LLC TOTAL ACCESSES:   21282498 HITS:   13004974 MISSES:    8277524
LLC LOAD ACCESSES:    8295533 HITS:    5623604 MISSES:    2671929
LLC RFO ACCESSES:    1680444 HITS:    1632828 MISSES:      47616
LLC PREFETCH ACCESSES:    9130875 HITS:    3618932 MISSES:    5511943
LLC WRITEBACK ACCESSES:    2175646 HITS:    2129610 MISSES:      46036
LLC 0 RQ ACCESS:    9975977
LLC 0 RQ TO_CACHE:    9975891
LLC 0 RQ MERGED:          0
LLC 0 RQ FORWARD:          0
LLC WQ ACCESS:    2175647
LLC WQ TO_CACHE:    2175647
LLC WQ MERGED:          0
LLC WQ FORWARD:        115
Major fault: 0 Minor fault: 56391
CPU 0 L1D next line prefetcher final stats
CPU 0 L2C PC-based stride prefetcher final stats
All Misses: 9640937
All Hits: 14951704
SD Algo Stats - Switches: 0 SRR-Repls: 2832650 BRR-Repls: 0

DRAM Statistics
 CHANNEL 0
 RQ ROW_BUFFER_HIT:    4602328  ROW_BUFFER_MISS:    3525539
 DBUS_CONGESTED:    3748674
 WQ ROW_BUFFER_HIT:       5656  ROW_BUFFER_MISS:      98318  FULL:          0

 AVG_CONGESTED_CYCLE: 12
LOADS RETIRED: 173631671
INSTR RETIRED: 500000000
