
*** ChampSim Multicore Out-of-Order Simulator ***

Warmup Instructions: 100000000
Simulation Instructions: 500000000
Number of CPUs: 1
LLC sets: 2048
LLC ways: 16
Clean RRIP Policies: 2213230222132302 Dirty RRIP Policies: 1203131212031312 PSEL Width: 10 Track Set: 4294967295 PSEL Mask: 1 Demote Mask: 1140100011401000DS Algo: 0Window size: 0
Off-chip DRAM Size: 4096 MB Channels: 1 Width: 64-bit Data Rate: 1600 MT/s

CPU 0 runs /mnt/beegfs/iconst01/spec2017/x264.trace.gz
NOT SORTED
TRACE STRING: /mnt/beegfs/iconst01/spec2017/x264.trace.gz
SORTED
TRACE STRING: /mnt/beegfs/iconst01/spec2017/x264.trace.gz
INITIAL
TRACE STRING: /mnt/beegfs/iconst01/spec2017/x264.trace.gz

champsim_seed used: 276

CPU 0 L1D next line prefetcher
CPU 0 L2C IP-based stride prefetcher
Initialize DRRIP state
Assign rand_sets[0]: 454  LLC: 2048
rand_sets[0]: 454
Assign rand_sets[1]: 1662  LLC: 2048
rand_sets[1]: 1662
Assign rand_sets[2]: 1921  LLC: 2048
rand_sets[2]: 1921
Assign rand_sets[3]: 1131  LLC: 2048
rand_sets[3]: 1131
Assign rand_sets[4]: 331  LLC: 2048
rand_sets[4]: 331
Assign rand_sets[5]: 1531  LLC: 2048
rand_sets[5]: 1531
Assign rand_sets[6]: 482  LLC: 2048
rand_sets[6]: 482
Assign rand_sets[7]: 1275  LLC: 2048
rand_sets[7]: 1275
Assign rand_sets[8]: 1876  LLC: 2048
rand_sets[8]: 1876
Assign rand_sets[9]: 2038  LLC: 2048
rand_sets[9]: 2038
Assign rand_sets[10]: 701  LLC: 2048
rand_sets[10]: 701
Assign rand_sets[11]: 479  LLC: 2048
rand_sets[11]: 479
Assign rand_sets[12]: 892  LLC: 2048
rand_sets[12]: 892
Assign rand_sets[13]: 1820  LLC: 2048
rand_sets[13]: 1820
Assign rand_sets[14]: 1505  LLC: 2048
rand_sets[14]: 1505
Assign rand_sets[15]: 1159  LLC: 2048
rand_sets[15]: 1159
Assign rand_sets[16]: 513  LLC: 2048
rand_sets[16]: 513
Assign rand_sets[17]: 703  LLC: 2048
rand_sets[17]: 703
Assign rand_sets[18]: 561  LLC: 2048
rand_sets[18]: 561
Assign rand_sets[19]: 990  LLC: 2048
rand_sets[19]: 990
Assign rand_sets[20]: 342  LLC: 2048
rand_sets[20]: 342
Assign rand_sets[21]: 882  LLC: 2048
rand_sets[21]: 882
Assign rand_sets[22]: 15  LLC: 2048
rand_sets[22]: 15
Assign rand_sets[23]: 71  LLC: 2048
rand_sets[23]: 71
Assign rand_sets[24]: 1127  LLC: 2048
rand_sets[24]: 1127
Assign rand_sets[25]: 1382  LLC: 2048
rand_sets[25]: 1382
Assign rand_sets[26]: 647  LLC: 2048
rand_sets[26]: 647
Assign rand_sets[27]: 857  LLC: 2048
rand_sets[27]: 857
Assign rand_sets[28]: 1450  LLC: 2048
rand_sets[28]: 1450
Assign rand_sets[29]: 1160  LLC: 2048
rand_sets[29]: 1160
Assign rand_sets[30]: 1852  LLC: 2048
rand_sets[30]: 1852
Assign rand_sets[31]: 1881  LLC: 2048
rand_sets[31]: 1881
Assign rand_sets[32]: 1770  LLC: 2048
rand_sets[32]: 1770
Assign rand_sets[33]: 1622  LLC: 2048
rand_sets[33]: 1622
Assign rand_sets[34]: 275  LLC: 2048
rand_sets[34]: 275
Assign rand_sets[35]: 635  LLC: 2048
rand_sets[35]: 635
Assign rand_sets[36]: 466  LLC: 2048
rand_sets[36]: 466
Assign rand_sets[37]: 1413  LLC: 2048
rand_sets[37]: 1413
Assign rand_sets[38]: 417  LLC: 2048
rand_sets[38]: 417
Assign rand_sets[39]: 472  LLC: 2048
rand_sets[39]: 472
Assign rand_sets[40]: 1340  LLC: 2048
rand_sets[40]: 1340
Assign rand_sets[41]: 852  LLC: 2048
rand_sets[41]: 852
Assign rand_sets[42]: 1365  LLC: 2048
rand_sets[42]: 1365
Assign rand_sets[43]: 47  LLC: 2048
rand_sets[43]: 47
Assign rand_sets[44]: 823  LLC: 2048
rand_sets[44]: 823
Assign rand_sets[45]: 686  LLC: 2048
rand_sets[45]: 686
Assign rand_sets[46]: 1637  LLC: 2048
rand_sets[46]: 1637
Assign rand_sets[47]: 1115  LLC: 2048
rand_sets[47]: 1115
Assign rand_sets[48]: 986  LLC: 2048
rand_sets[48]: 986
Assign rand_sets[49]: 258  LLC: 2048
rand_sets[49]: 258
Assign rand_sets[50]: 633  LLC: 2048
rand_sets[50]: 633
Assign rand_sets[51]: 920  LLC: 2048
rand_sets[51]: 920
Assign rand_sets[52]: 204  LLC: 2048
rand_sets[52]: 204
Assign rand_sets[53]: 227  LLC: 2048
rand_sets[53]: 227
Assign rand_sets[54]: 1818  LLC: 2048
rand_sets[54]: 1818
Assign rand_sets[55]: 886  LLC: 2048
rand_sets[55]: 886
Assign rand_sets[56]: 1422  LLC: 2048
rand_sets[56]: 1422
Assign rand_sets[57]: 607  LLC: 2048
rand_sets[57]: 607
Assign rand_sets[58]: 217  LLC: 2048
rand_sets[58]: 217
Assign rand_sets[59]: 1945  LLC: 2048
rand_sets[59]: 1945
Assign rand_sets[60]: 143  LLC: 2048
rand_sets[60]: 143
Assign rand_sets[61]: 1311  LLC: 2048
rand_sets[61]: 1311
Assign rand_sets[62]: 319  LLC: 2048
rand_sets[62]: 319
Assign rand_sets[63]: 1846  LLC: 2048
rand_sets[63]: 1846
 CLEAN-RRIP-POLICY-1: 2-2-1-3-2-3-0-2- CLEAN-RRIP-POLICY-2: 2-2-1-3-2-3-0-2-
 DIRTY-RRIP-POLICY-1: 1-2-0-3-1-3-1-2- DIRTY-RRIP-POLICY-2: 1-2-0-3-1-3-1-2-
 PSEL width: 10
Heartbeat CPU 0 instructions: 10000000 cycles: 4124759 heartbeat IPC: 2.42438 cumulative IPC: 2.42438 (Simulation time: 0 hr 0 min 14 sec) 
Heartbeat CPU 0 instructions: 20000000 cycles: 8233863 heartbeat IPC: 2.43362 cumulative IPC: 2.42899 (Simulation time: 0 hr 0 min 27 sec) 
Heartbeat CPU 0 instructions: 30000003 cycles: 12464696 heartbeat IPC: 2.3636 cumulative IPC: 2.4068 (Simulation time: 0 hr 0 min 40 sec) 
Heartbeat CPU 0 instructions: 40000000 cycles: 16636669 heartbeat IPC: 2.39695 cumulative IPC: 2.40433 (Simulation time: 0 hr 0 min 54 sec) 
Heartbeat CPU 0 instructions: 50000000 cycles: 20699150 heartbeat IPC: 2.46155 cumulative IPC: 2.41556 (Simulation time: 0 hr 1 min 7 sec) 
Heartbeat CPU 0 instructions: 60000000 cycles: 25022635 heartbeat IPC: 2.31295 cumulative IPC: 2.39783 (Simulation time: 0 hr 1 min 20 sec) 
Heartbeat CPU 0 instructions: 70000000 cycles: 29370923 heartbeat IPC: 2.29976 cumulative IPC: 2.38331 (Simulation time: 0 hr 1 min 33 sec) 
Heartbeat CPU 0 instructions: 80000000 cycles: 33721035 heartbeat IPC: 2.29879 cumulative IPC: 2.37241 (Simulation time: 0 hr 1 min 46 sec) 
Heartbeat CPU 0 instructions: 90000002 cycles: 38032055 heartbeat IPC: 2.31964 cumulative IPC: 2.36642 (Simulation time: 0 hr 1 min 59 sec) 
Heartbeat CPU 0 instructions: 100000000 cycles: 42328971 heartbeat IPC: 2.32725 cumulative IPC: 2.36245 (Simulation time: 0 hr 2 min 13 sec) 

Warmup complete CPU 0 instructions: 100000001 cycles: 42328972 (Simulation time: 0 hr 2 min 13 sec) 

Heartbeat CPU 0 instructions: 110000001 cycles: 49397749 heartbeat IPC: 1.41467 cumulative IPC: 1.41467 (Simulation time: 0 hr 2 min 30 sec) 
Heartbeat CPU 0 instructions: 120000000 cycles: 58886339 heartbeat IPC: 1.0539 cumulative IPC: 1.20792 (Simulation time: 0 hr 2 min 49 sec) 
Heartbeat CPU 0 instructions: 130000000 cycles: 63714354 heartbeat IPC: 2.07124 cumulative IPC: 1.40283 (Simulation time: 0 hr 3 min 6 sec) 
Heartbeat CPU 0 instructions: 140000000 cycles: 68664223 heartbeat IPC: 2.02026 cumulative IPC: 1.51888 (Simulation time: 0 hr 3 min 22 sec) 
Heartbeat CPU 0 instructions: 150000002 cycles: 75488576 heartbeat IPC: 1.46534 cumulative IPC: 1.50786 (Simulation time: 0 hr 3 min 40 sec) 
Heartbeat CPU 0 instructions: 160000000 cycles: 83349595 heartbeat IPC: 1.2721 cumulative IPC: 1.46268 (Simulation time: 0 hr 3 min 58 sec) 
Heartbeat CPU 0 instructions: 170000000 cycles: 90770945 heartbeat IPC: 1.34746 cumulative IPC: 1.44503 (Simulation time: 0 hr 4 min 15 sec) 
Heartbeat CPU 0 instructions: 180000000 cycles: 98095456 heartbeat IPC: 1.36528 cumulative IPC: 1.43455 (Simulation time: 0 hr 4 min 33 sec) 
Heartbeat CPU 0 instructions: 190000002 cycles: 105284629 heartbeat IPC: 1.39098 cumulative IPC: 1.42958 (Simulation time: 0 hr 4 min 50 sec) 
Heartbeat CPU 0 instructions: 200000000 cycles: 112532148 heartbeat IPC: 1.37978 cumulative IPC: 1.42444 (Simulation time: 0 hr 5 min 7 sec) 
Heartbeat CPU 0 instructions: 210000000 cycles: 119405963 heartbeat IPC: 1.4548 cumulative IPC: 1.42714 (Simulation time: 0 hr 5 min 24 sec) 
Heartbeat CPU 0 instructions: 220000000 cycles: 126180689 heartbeat IPC: 1.47607 cumulative IPC: 1.4311 (Simulation time: 0 hr 5 min 40 sec) 
Heartbeat CPU 0 instructions: 230000003 cycles: 132904833 heartbeat IPC: 1.48718 cumulative IPC: 1.43526 (Simulation time: 0 hr 5 min 57 sec) 
Heartbeat CPU 0 instructions: 240000000 cycles: 139657914 heartbeat IPC: 1.48081 cumulative IPC: 1.43842 (Simulation time: 0 hr 6 min 13 sec) 
Heartbeat CPU 0 instructions: 250000001 cycles: 146392325 heartbeat IPC: 1.48491 cumulative IPC: 1.44143 (Simulation time: 0 hr 6 min 30 sec) 
Heartbeat CPU 0 instructions: 260000000 cycles: 153098223 heartbeat IPC: 1.49122 cumulative IPC: 1.44444 (Simulation time: 0 hr 6 min 46 sec) 
Heartbeat CPU 0 instructions: 270000001 cycles: 160068895 heartbeat IPC: 1.43458 cumulative IPC: 1.44386 (Simulation time: 0 hr 7 min 3 sec) 
Heartbeat CPU 0 instructions: 280000000 cycles: 167606299 heartbeat IPC: 1.32672 cumulative IPC: 1.43681 (Simulation time: 0 hr 7 min 21 sec) 
Heartbeat CPU 0 instructions: 290000000 cycles: 175525726 heartbeat IPC: 1.26272 cumulative IPC: 1.42646 (Simulation time: 0 hr 7 min 38 sec) 
Heartbeat CPU 0 instructions: 300000000 cycles: 183692757 heartbeat IPC: 1.22444 cumulative IPC: 1.41479 (Simulation time: 0 hr 7 min 56 sec) 
Heartbeat CPU 0 instructions: 310000002 cycles: 191992312 heartbeat IPC: 1.20488 cumulative IPC: 1.40315 (Simulation time: 0 hr 8 min 15 sec) 
Heartbeat CPU 0 instructions: 320000000 cycles: 202049521 heartbeat IPC: 0.994311 cumulative IPC: 1.37741 (Simulation time: 0 hr 8 min 35 sec) 
Heartbeat CPU 0 instructions: 330000002 cycles: 206705335 heartbeat IPC: 2.14785 cumulative IPC: 1.39923 (Simulation time: 0 hr 8 min 51 sec) 
Heartbeat CPU 0 instructions: 340000000 cycles: 211985406 heartbeat IPC: 1.89391 cumulative IPC: 1.41462 (Simulation time: 0 hr 9 min 8 sec) 
Heartbeat CPU 0 instructions: 350000000 cycles: 219208068 heartbeat IPC: 1.38453 cumulative IPC: 1.41339 (Simulation time: 0 hr 9 min 26 sec) 
Heartbeat CPU 0 instructions: 360000000 cycles: 226901629 heartbeat IPC: 1.29979 cumulative IPC: 1.40866 (Simulation time: 0 hr 9 min 44 sec) 
Heartbeat CPU 0 instructions: 370000000 cycles: 234327006 heartbeat IPC: 1.34673 cumulative IPC: 1.40626 (Simulation time: 0 hr 10 min 1 sec) 
Heartbeat CPU 0 instructions: 380000000 cycles: 241613618 heartbeat IPC: 1.37238 cumulative IPC: 1.40503 (Simulation time: 0 hr 10 min 18 sec) 
Heartbeat CPU 0 instructions: 390000000 cycles: 249731362 heartbeat IPC: 1.23187 cumulative IPC: 1.39825 (Simulation time: 0 hr 10 min 36 sec) 
Heartbeat CPU 0 instructions: 400000000 cycles: 257925800 heartbeat IPC: 1.22034 cumulative IPC: 1.39149 (Simulation time: 0 hr 10 min 54 sec) 
Heartbeat CPU 0 instructions: 410000001 cycles: 265746299 heartbeat IPC: 1.27869 cumulative IPC: 1.38754 (Simulation time: 0 hr 11 min 12 sec) 
Heartbeat CPU 0 instructions: 420000000 cycles: 273794144 heartbeat IPC: 1.24257 cumulative IPC: 1.3825 (Simulation time: 0 hr 11 min 30 sec) 
Heartbeat CPU 0 instructions: 430000001 cycles: 282048351 heartbeat IPC: 1.2115 cumulative IPC: 1.37661 (Simulation time: 0 hr 11 min 48 sec) 
Heartbeat CPU 0 instructions: 440000000 cycles: 290088798 heartbeat IPC: 1.24371 cumulative IPC: 1.3723 (Simulation time: 0 hr 12 min 6 sec) 
Heartbeat CPU 0 instructions: 450000001 cycles: 297960636 heartbeat IPC: 1.27035 cumulative IPC: 1.36916 (Simulation time: 0 hr 12 min 24 sec) 
Heartbeat CPU 0 instructions: 460000000 cycles: 307908873 heartbeat IPC: 1.0052 cumulative IPC: 1.35552 (Simulation time: 0 hr 12 min 44 sec) 
Heartbeat CPU 0 instructions: 470000002 cycles: 312559481 heartbeat IPC: 2.15026 cumulative IPC: 1.3692 (Simulation time: 0 hr 13 min 0 sec) 
Heartbeat CPU 0 instructions: 480000000 cycles: 317854371 heartbeat IPC: 1.88861 cumulative IPC: 1.37918 (Simulation time: 0 hr 13 min 17 sec) 
Heartbeat CPU 0 instructions: 490000001 cycles: 325171175 heartbeat IPC: 1.36672 cumulative IPC: 1.37886 (Simulation time: 0 hr 13 min 35 sec) 
Heartbeat CPU 0 instructions: 500000000 cycles: 333899484 heartbeat IPC: 1.1457 cumulative IPC: 1.37188 (Simulation time: 0 hr 13 min 55 sec) 
Heartbeat CPU 0 instructions: 510000002 cycles: 342628737 heartbeat IPC: 1.14557 cumulative IPC: 1.3653 (Simulation time: 0 hr 14 min 15 sec) 
Heartbeat CPU 0 instructions: 520000000 cycles: 351355885 heartbeat IPC: 1.14585 cumulative IPC: 1.3591 (Simulation time: 0 hr 14 min 35 sec) 
Heartbeat CPU 0 instructions: 530000000 cycles: 360061279 heartbeat IPC: 1.14871 cumulative IPC: 1.35334 (Simulation time: 0 hr 14 min 55 sec) 
Heartbeat CPU 0 instructions: 540000000 cycles: 368319136 heartbeat IPC: 1.21097 cumulative IPC: 1.34973 (Simulation time: 0 hr 15 min 14 sec) 
Heartbeat CPU 0 instructions: 550000000 cycles: 375360564 heartbeat IPC: 1.42017 cumulative IPC: 1.35122 (Simulation time: 0 hr 15 min 31 sec) 
Heartbeat CPU 0 instructions: 560000000 cycles: 381970184 heartbeat IPC: 1.51295 cumulative IPC: 1.35437 (Simulation time: 0 hr 15 min 48 sec) 
Heartbeat CPU 0 instructions: 570000002 cycles: 388555293 heartbeat IPC: 1.51858 cumulative IPC: 1.35749 (Simulation time: 0 hr 16 min 5 sec) 
Heartbeat CPU 0 instructions: 580000000 cycles: 395201331 heartbeat IPC: 1.50466 cumulative IPC: 1.36027 (Simulation time: 0 hr 16 min 22 sec) 
Heartbeat CPU 0 instructions: 590000002 cycles: 401896944 heartbeat IPC: 1.49352 cumulative IPC: 1.36275 (Simulation time: 0 hr 16 min 39 sec) 
Heartbeat CPU 0 instructions: 600000000 cycles: 408711913 heartbeat IPC: 1.46736 cumulative IPC: 1.36469 (Simulation time: 0 hr 16 min 56 sec) 
Finished CPU 0 instructions: 500000000 cycles: 366382949 cumulative IPC: 1.36469 (Simulation time: 0 hr 16 min 56 sec) 

CPU 0 Branch Prediction Accuracy: 93.4682% MPKI: 2.44079
Number of Branches: 18683822 Number of Mispredictions: 1220394
Number of LOAD Instructions: 142551610
Number of LOAD Instructions (ROI): 142551610
Number of STORE Instructions: 44807454
Number of STORE Instructions (ROI): 44807454
Total Destination Memory Operands: 48357071
Total Destination Memory Operands (ROI): 48357071
Total Source Memory Operands: 142551610
Total Source Memory Operands (ROI): 142551610
Number of DEPENDED LOADS: 7394773
Number of DEPENDED LOADS (ROI): 7394773
Number of SQ_ADDED: 48357051
Number of SQ_ADDED (ROI): 48357051
Number of LQ_ADDED: 157218700
Number of LQ_ADDED (ROI): 157218700
Number of Instructions read from trace: 600000256

ChampSim completed all CPUs

Region of Interest Statistics

CPU 0 cumulative IPC: 1.36469 instructions: 500000000 cycles: 366382949
ITLB TOTAL     ACCESS:   88180255  HIT:   88180186  MISS:         69
ITLB LOAD      ACCESS:   88180255  HIT:   88180186  MISS:         69
ITLB RFO       ACCESS:          0  HIT:          0  MISS:          0
ITLB PREFETCH  ACCESS:          0  HIT:          0  MISS:          0
ITLB WRITEBACK ACCESS:          0  HIT:          0  MISS:          0
ITLB PREFETCH  REQUESTED:          0  ISSUED:          0  USEFUL:          0  USELESS:          0
ITLB TOTAL MSHR MERGED:         83
ITLB LOAD MSHR MERGED:         83
ITLB RFO MSHR MERGED:          0
ITLB PREFETCH MSHR MERGED:          0
ITLB WRITEBACK MSHR MERGED:          0
ITLB TOTAL ACCESSES:   88180338 HITS:   88180186 MISSES:        152
ITLB LOAD ACCESSES:   88180338 HITS:   88180186 MISSES:        152
ITLB RFO ACCESSES:          0 HITS:          0 MISSES:          0
ITLB PREFETCH ACCESSES:          0 HITS:          0 MISSES:          0
ITLB WRITEBACK ACCESSES:          0 HITS:          0 MISSES:          0
ITLB RQ ACCESS:  500000000
ITLB RQ TO_CACHE:   88180338
ITLB RQ MERGED:  411819662
ITLB RQ FORWARD:          0
ITLB WQ ACCESS:          0
ITLB WQ TO_CACHE:          0
ITLB WQ MERGED:          0
ITLB WQ FORWARD:          0
DTLB TOTAL     ACCESS:   88204107  HIT:   88076689  MISS:     127418
DTLB LOAD      ACCESS:   59485854  HIT:   59393390  MISS:      92464
DTLB RFO       ACCESS:   28718253  HIT:   28683299  MISS:      34954
DTLB PREFETCH  ACCESS:          0  HIT:          0  MISS:          0
DTLB WRITEBACK ACCESS:          0  HIT:          0  MISS:          0
DTLB PREFETCH  REQUESTED:          0  ISSUED:          0  USEFUL:          0  USELESS:          0
DTLB TOTAL MSHR MERGED:     140885
DTLB LOAD MSHR MERGED:     107583
DTLB RFO MSHR MERGED:      33302
DTLB PREFETCH MSHR MERGED:          0
DTLB WRITEBACK MSHR MERGED:          0
DTLB TOTAL ACCESSES:   88344992 HITS:   88076689 MISSES:     268303
DTLB LOAD ACCESSES:   59593437 HITS:   59393390 MISSES:     200047
DTLB RFO ACCESSES:   28751555 HITS:   28683299 MISSES:      68256
DTLB PREFETCH ACCESSES:          0 HITS:          0 MISSES:          0
DTLB WRITEBACK ACCESSES:          0 HITS:          0 MISSES:          0
DTLB RQ ACCESS:  154559130
DTLB RQ TO_CACHE:   88344992
DTLB RQ MERGED:   66214138
DTLB RQ FORWARD:          0
DTLB WQ ACCESS:          0
DTLB WQ TO_CACHE:          0
DTLB WQ MERGED:          0
DTLB WQ FORWARD:          0
L1D TOTAL     ACCESS:  127836898  HIT:  124611709  MISS:    3225189
L1D LOAD      ACCESS:   53172956  HIT:   51977252  MISS:    1195704
L1D RFO       ACCESS:   37350746  HIT:   36736421  MISS:     614325
L1D PREFETCH  ACCESS:   37313196  HIT:   35898036  MISS:    1415160
L1D WRITEBACK ACCESS:          0  HIT:          0  MISS:          0
L1D PREFETCH  REQUESTED:   53660094  ISSUED:   52458778  USEFUL:     351787  USELESS:    1063338
L1D TOTAL MSHR MERGED:    2984751
L1D LOAD MSHR MERGED:     526133
L1D RFO MSHR MERGED:    1603235
L1D PREFETCH MSHR MERGED:     855383
L1D WRITEBACK MSHR MERGED:          0
L1D TOTAL ACCESSES:  130856311 HITS:  124646371 MISSES:    6209940
L1D LOAD ACCESSES:   53662756 HITS:   51979914 MISSES:    1682842
L1D RFO ACCESSES:   38952892 HITS:   36736421 MISSES:    2216471
L1D PREFETCH ACCESSES:   38240663 HITS:   35930036 MISSES:    2310627
L1D WRITEBACK ACCESSES:          0 HITS:          0 MISSES:          0
L1D RQ ACCESS:  113714238
L1D RQ TO_CACHE:   53660094
L1D RQ MERGED:   60051482
L1D RQ FORWARD:          0
L1D WQ ACCESS:   40844891
L1D WQ TO_CACHE:   38952892
L1D WQ MERGED:    1891999
L1D WQ FORWARD:      34662
L1I TOTAL     ACCESS:  108370276  HIT:  107811148  MISS:     559128
L1I LOAD      ACCESS:  108370276  HIT:  107811148  MISS:     559128
L1I RFO       ACCESS:          0  HIT:          0  MISS:          0
L1I PREFETCH  ACCESS:          0  HIT:          0  MISS:          0
L1I WRITEBACK ACCESS:          0  HIT:          0  MISS:          0
L1I PREFETCH  REQUESTED:          0  ISSUED:          0  USEFUL:          0  USELESS:          0
L1I TOTAL MSHR MERGED:     526595
L1I LOAD MSHR MERGED:     526595
L1I RFO MSHR MERGED:          0
L1I PREFETCH MSHR MERGED:          0
L1I WRITEBACK MSHR MERGED:          0
L1I TOTAL ACCESSES:  108896871 HITS:  107811148 MISSES:    1085723
L1I LOAD ACCESSES:  108896871 HITS:  107811148 MISSES:    1085723
L1I RFO ACCESSES:          0 HITS:          0 MISSES:          0
L1I PREFETCH ACCESSES:          0 HITS:          0 MISSES:          0
L1I WRITEBACK ACCESSES:          0 HITS:          0 MISSES:          0
L1I RQ ACCESS:  500000002
L1I RQ TO_CACHE:  108896871
L1I RQ MERGED:  391103131
L1I RQ FORWARD:          0
L1I WQ ACCESS:          0
L1I WQ TO_CACHE:          0
L1I WQ MERGED:          0
L1I WQ FORWARD:          0
L2C TOTAL     ACCESS:    4690990  HIT:    3865532  MISS:     825458
L2C LOAD      ACCESS:    1715726  HIT:    1562339  MISS:     153387
L2C RFO       ACCESS:     611816  HIT:     421212  MISS:     190604
L2C PREFETCH  ACCESS:    1660479  HIT:    1181201  MISS:     479278
L2C WRITEBACK ACCESS:     702969  HIT:     700780  MISS:       2189
L2C PREFETCH  REQUESTED:     256560  ISSUED:     256560  USEFUL:     172702  USELESS:     307242
L2C TOTAL MSHR MERGED:      12872
L2C LOAD MSHR MERGED:       3901
L2C RFO MSHR MERGED:          0
L2C PREFETCH MSHR MERGED:       8971
L2C WRITEBACK MSHR MERGED:          0
L2C TOTAL ACCESSES:    4712292 HITS:    3867132 MISSES:     845160
L2C LOAD ACCESSES:    1715837 HITS:    1562450 MISSES:     153387
L2C RFO ACCESSES:     613236 HITS:     422632 MISSES:     190604
L2C PREFETCH ACCESSES:    1680250 HITS:    1181270 MISSES:     498980
L2C WRITEBACK ACCESSES:     702969 HITS:     700780 MISSES:       2189
L2C RQ ACCESS:    2329073
L2C RQ TO_CACHE:    2327542
L2C RQ MERGED:          0
L2C RQ FORWARD:          0
L2C WQ ACCESS:     702969
L2C WQ TO_CACHE:     702969
L2C WQ MERGED:          0
L2C WQ FORWARD:       1600
LLC TOTAL     ACCESS:    1047110  HIT:     214763  MISS:     832347
LLC LOAD      ACCESS:     149482  HIT:      80519  MISS:      68963
LLC RFO       ACCESS:     190597  HIT:       6061  MISS:     184536
LLC PREFETCH  ACCESS:     486144  HIT:      90534  MISS:     395610
LLC WRITEBACK ACCESS:     220887  HIT:      37649  MISS:     183238
LLC PREFETCH  REQUESTED:          0  ISSUED:          0  USEFUL:       1937  USELESS:     393623
LLC TOTAL MSHR MERGED:       2909
LLC LOAD MSHR MERGED:       1172
LLC RFO MSHR MERGED:          0
LLC PREFETCH MSHR MERGED:       1737
LLC WRITEBACK MSHR MERGED:          0
LLC TOTAL ACCESSES:    1050030 HITS:     214774 MISSES:     835256
LLC LOAD ACCESSES:     149486 HITS:      80523 MISSES:      68963
LLC RFO ACCESSES:     190604 HITS:       6068 MISSES:     184536
LLC PREFETCH ACCESSES:     489053 HITS:      90534 MISSES:     398519
LLC WRITEBACK ACCESSES:     220887 HITS:      37649 MISSES:     183238
LLC 0 RQ ACCESS:     340090
LLC 0 RQ TO_CACHE:     340079
LLC 0 RQ MERGED:          0
LLC 0 RQ FORWARD:          0
LLC WQ ACCESS:     220887
LLC WQ TO_CACHE:     220887
LLC WQ MERGED:          0
LLC WQ FORWARD:         11
Major fault: 0 Minor fault: 6811
CPU 0 L1D next line prefetcher final stats
CPU 0 L2C PC-based stride prefetcher final stats
All Misses: 972823
All Hits: 281270
SD Algo Stats - Switches: 0 SRR-Repls: 76504 BRR-Repls: 0

DRAM Statistics
 CHANNEL 0
 RQ ROW_BUFFER_HIT:     349138  ROW_BUFFER_MISS:     299855
 DBUS_CONGESTED:     449442
 WQ ROW_BUFFER_HIT:      38877  ROW_BUFFER_MISS:     173471  FULL:          0

 AVG_CONGESTED_CYCLE: 13
LOADS RETIRED: 119922929
INSTR RETIRED: 500000000
