
*** ChampSim Multicore Out-of-Order Simulator ***

Warmup Instructions: 100000000
Simulation Instructions: 500000000
Number of CPUs: 1
LLC sets: 2048
LLC ways: 16
Clean RRIP Policies: 2213200222132002 Dirty RRIP Policies: 2203100222031002 PSEL Width: 10 Track Set: 4294967295 PSEL Mask: 1 Demote Mask: 4040100140401001DS Algo: 0Window size: 0
Off-chip DRAM Size: 4096 MB Channels: 1 Width: 64-bit Data Rate: 1600 MT/s

CPU 0 runs /mnt/beegfs/iconst01/spec2017/Cam4.trace.gz
NOT SORTED
TRACE STRING: /mnt/beegfs/iconst01/spec2017/Cam4.trace.gz
SORTED
TRACE STRING: /mnt/beegfs/iconst01/spec2017/Cam4.trace.gz
INITIAL
TRACE STRING: /mnt/beegfs/iconst01/spec2017/Cam4.trace.gz

champsim_seed used: 325

CPU 0 L1D next line prefetcher
CPU 0 L2C IP-based stride prefetcher
Initialize DRRIP state
Assign rand_sets[0]: 454  LLC: 2048
rand_sets[0]: 454
Assign rand_sets[1]: 1662  LLC: 2048
rand_sets[1]: 1662
Assign rand_sets[2]: 1921  LLC: 2048
rand_sets[2]: 1921
Assign rand_sets[3]: 1131  LLC: 2048
rand_sets[3]: 1131
Assign rand_sets[4]: 331  LLC: 2048
rand_sets[4]: 331
Assign rand_sets[5]: 1531  LLC: 2048
rand_sets[5]: 1531
Assign rand_sets[6]: 482  LLC: 2048
rand_sets[6]: 482
Assign rand_sets[7]: 1275  LLC: 2048
rand_sets[7]: 1275
Assign rand_sets[8]: 1876  LLC: 2048
rand_sets[8]: 1876
Assign rand_sets[9]: 2038  LLC: 2048
rand_sets[9]: 2038
Assign rand_sets[10]: 701  LLC: 2048
rand_sets[10]: 701
Assign rand_sets[11]: 479  LLC: 2048
rand_sets[11]: 479
Assign rand_sets[12]: 892  LLC: 2048
rand_sets[12]: 892
Assign rand_sets[13]: 1820  LLC: 2048
rand_sets[13]: 1820
Assign rand_sets[14]: 1505  LLC: 2048
rand_sets[14]: 1505
Assign rand_sets[15]: 1159  LLC: 2048
rand_sets[15]: 1159
Assign rand_sets[16]: 513  LLC: 2048
rand_sets[16]: 513
Assign rand_sets[17]: 703  LLC: 2048
rand_sets[17]: 703
Assign rand_sets[18]: 561  LLC: 2048
rand_sets[18]: 561
Assign rand_sets[19]: 990  LLC: 2048
rand_sets[19]: 990
Assign rand_sets[20]: 342  LLC: 2048
rand_sets[20]: 342
Assign rand_sets[21]: 882  LLC: 2048
rand_sets[21]: 882
Assign rand_sets[22]: 15  LLC: 2048
rand_sets[22]: 15
Assign rand_sets[23]: 71  LLC: 2048
rand_sets[23]: 71
Assign rand_sets[24]: 1127  LLC: 2048
rand_sets[24]: 1127
Assign rand_sets[25]: 1382  LLC: 2048
rand_sets[25]: 1382
Assign rand_sets[26]: 647  LLC: 2048
rand_sets[26]: 647
Assign rand_sets[27]: 857  LLC: 2048
rand_sets[27]: 857
Assign rand_sets[28]: 1450  LLC: 2048
rand_sets[28]: 1450
Assign rand_sets[29]: 1160  LLC: 2048
rand_sets[29]: 1160
Assign rand_sets[30]: 1852  LLC: 2048
rand_sets[30]: 1852
Assign rand_sets[31]: 1881  LLC: 2048
rand_sets[31]: 1881
Assign rand_sets[32]: 1770  LLC: 2048
rand_sets[32]: 1770
Assign rand_sets[33]: 1622  LLC: 2048
rand_sets[33]: 1622
Assign rand_sets[34]: 275  LLC: 2048
rand_sets[34]: 275
Assign rand_sets[35]: 635  LLC: 2048
rand_sets[35]: 635
Assign rand_sets[36]: 466  LLC: 2048
rand_sets[36]: 466
Assign rand_sets[37]: 1413  LLC: 2048
rand_sets[37]: 1413
Assign rand_sets[38]: 417  LLC: 2048
rand_sets[38]: 417
Assign rand_sets[39]: 472  LLC: 2048
rand_sets[39]: 472
Assign rand_sets[40]: 1340  LLC: 2048
rand_sets[40]: 1340
Assign rand_sets[41]: 852  LLC: 2048
rand_sets[41]: 852
Assign rand_sets[42]: 1365  LLC: 2048
rand_sets[42]: 1365
Assign rand_sets[43]: 47  LLC: 2048
rand_sets[43]: 47
Assign rand_sets[44]: 823  LLC: 2048
rand_sets[44]: 823
Assign rand_sets[45]: 686  LLC: 2048
rand_sets[45]: 686
Assign rand_sets[46]: 1637  LLC: 2048
rand_sets[46]: 1637
Assign rand_sets[47]: 1115  LLC: 2048
rand_sets[47]: 1115
Assign rand_sets[48]: 986  LLC: 2048
rand_sets[48]: 986
Assign rand_sets[49]: 258  LLC: 2048
rand_sets[49]: 258
Assign rand_sets[50]: 633  LLC: 2048
rand_sets[50]: 633
Assign rand_sets[51]: 920  LLC: 2048
rand_sets[51]: 920
Assign rand_sets[52]: 204  LLC: 2048
rand_sets[52]: 204
Assign rand_sets[53]: 227  LLC: 2048
rand_sets[53]: 227
Assign rand_sets[54]: 1818  LLC: 2048
rand_sets[54]: 1818
Assign rand_sets[55]: 886  LLC: 2048
rand_sets[55]: 886
Assign rand_sets[56]: 1422  LLC: 2048
rand_sets[56]: 1422
Assign rand_sets[57]: 607  LLC: 2048
rand_sets[57]: 607
Assign rand_sets[58]: 217  LLC: 2048
rand_sets[58]: 217
Assign rand_sets[59]: 1945  LLC: 2048
rand_sets[59]: 1945
Assign rand_sets[60]: 143  LLC: 2048
rand_sets[60]: 143
Assign rand_sets[61]: 1311  LLC: 2048
rand_sets[61]: 1311
Assign rand_sets[62]: 319  LLC: 2048
rand_sets[62]: 319
Assign rand_sets[63]: 1846  LLC: 2048
rand_sets[63]: 1846
 CLEAN-RRIP-POLICY-1: 2-2-1-3-2-0-0-2- CLEAN-RRIP-POLICY-2: 2-2-1-3-2-0-0-2-
 DIRTY-RRIP-POLICY-1: 2-2-0-3-1-0-0-2- DIRTY-RRIP-POLICY-2: 2-2-0-3-1-0-0-2-
 PSEL width: 10
Heartbeat CPU 0 instructions: 10000000 cycles: 4859184 heartbeat IPC: 2.05796 cumulative IPC: 2.05796 (Simulation time: 0 hr 0 min 16 sec) 
Heartbeat CPU 0 instructions: 20000000 cycles: 9790786 heartbeat IPC: 2.02774 cumulative IPC: 2.04274 (Simulation time: 0 hr 0 min 33 sec) 
Heartbeat CPU 0 instructions: 30000001 cycles: 14562934 heartbeat IPC: 2.09549 cumulative IPC: 2.06002 (Simulation time: 0 hr 0 min 48 sec) 
Heartbeat CPU 0 instructions: 40000000 cycles: 19399928 heartbeat IPC: 2.0674 cumulative IPC: 2.06186 (Simulation time: 0 hr 1 min 5 sec) 
Heartbeat CPU 0 instructions: 50000000 cycles: 24256456 heartbeat IPC: 2.05908 cumulative IPC: 2.06131 (Simulation time: 0 hr 1 min 21 sec) 
Heartbeat CPU 0 instructions: 60000000 cycles: 29181906 heartbeat IPC: 2.03027 cumulative IPC: 2.05607 (Simulation time: 0 hr 1 min 38 sec) 
Heartbeat CPU 0 instructions: 70000001 cycles: 33956829 heartbeat IPC: 2.09427 cumulative IPC: 2.06144 (Simulation time: 0 hr 1 min 53 sec) 
Heartbeat CPU 0 instructions: 80000000 cycles: 38793069 heartbeat IPC: 2.06772 cumulative IPC: 2.06222 (Simulation time: 0 hr 2 min 10 sec) 
Heartbeat CPU 0 instructions: 90000002 cycles: 43647117 heartbeat IPC: 2.06014 cumulative IPC: 2.06199 (Simulation time: 0 hr 2 min 27 sec) 
Heartbeat CPU 0 instructions: 100000000 cycles: 48565861 heartbeat IPC: 2.03304 cumulative IPC: 2.05906 (Simulation time: 0 hr 2 min 43 sec) 

Warmup complete CPU 0 instructions: 100000001 cycles: 48565862 (Simulation time: 0 hr 2 min 43 sec) 

Heartbeat CPU 0 instructions: 110000000 cycles: 61726636 heartbeat IPC: 0.759834 cumulative IPC: 0.759834 (Simulation time: 0 hr 3 min 6 sec) 
Heartbeat CPU 0 instructions: 120000000 cycles: 75466191 heartbeat IPC: 0.727826 cumulative IPC: 0.743485 (Simulation time: 0 hr 3 min 31 sec) 
Heartbeat CPU 0 instructions: 130000000 cycles: 89207419 heartbeat IPC: 0.727737 cumulative IPC: 0.738161 (Simulation time: 0 hr 3 min 56 sec) 
Heartbeat CPU 0 instructions: 140000000 cycles: 103469358 heartbeat IPC: 0.701167 cumulative IPC: 0.728551 (Simulation time: 0 hr 4 min 21 sec) 
Heartbeat CPU 0 instructions: 150000003 cycles: 116708938 heartbeat IPC: 0.755311 cumulative IPC: 0.73375 (Simulation time: 0 hr 4 min 44 sec) 
Heartbeat CPU 0 instructions: 160000000 cycles: 130446321 heartbeat IPC: 0.72794 cumulative IPC: 0.732776 (Simulation time: 0 hr 5 min 9 sec) 
Heartbeat CPU 0 instructions: 170000001 cycles: 144225968 heartbeat IPC: 0.725708 cumulative IPC: 0.731758 (Simulation time: 0 hr 5 min 35 sec) 
Heartbeat CPU 0 instructions: 180000000 cycles: 158474502 heartbeat IPC: 0.701827 cumulative IPC: 0.727877 (Simulation time: 0 hr 6 min 0 sec) 
Heartbeat CPU 0 instructions: 190000003 cycles: 171660662 heartbeat IPC: 0.758371 cumulative IPC: 0.731144 (Simulation time: 0 hr 6 min 23 sec) 
Heartbeat CPU 0 instructions: 200000000 cycles: 185398140 heartbeat IPC: 0.727935 cumulative IPC: 0.730822 (Simulation time: 0 hr 6 min 48 sec) 
Heartbeat CPU 0 instructions: 210000002 cycles: 199172499 heartbeat IPC: 0.725987 cumulative IPC: 0.73038 (Simulation time: 0 hr 7 min 13 sec) 
Heartbeat CPU 0 instructions: 220000000 cycles: 213414548 heartbeat IPC: 0.702146 cumulative IPC: 0.72794 (Simulation time: 0 hr 7 min 38 sec) 
Heartbeat CPU 0 instructions: 230000001 cycles: 226536716 heartbeat IPC: 0.762069 cumulative IPC: 0.730457 (Simulation time: 0 hr 8 min 1 sec) 
Heartbeat CPU 0 instructions: 240000000 cycles: 240259104 heartbeat IPC: 0.728736 cumulative IPC: 0.730334 (Simulation time: 0 hr 8 min 26 sec) 
Heartbeat CPU 0 instructions: 250000001 cycles: 253984176 heartbeat IPC: 0.728594 cumulative IPC: 0.730217 (Simulation time: 0 hr 8 min 51 sec) 
Heartbeat CPU 0 instructions: 260000000 cycles: 268119898 heartbeat IPC: 0.707428 cumulative IPC: 0.72875 (Simulation time: 0 hr 9 min 16 sec) 
Heartbeat CPU 0 instructions: 270000003 cycles: 281350552 heartbeat IPC: 0.755821 cumulative IPC: 0.730289 (Simulation time: 0 hr 9 min 39 sec) 
Heartbeat CPU 0 instructions: 280000000 cycles: 295088059 heartbeat IPC: 0.727934 cumulative IPC: 0.730157 (Simulation time: 0 hr 10 min 4 sec) 
Heartbeat CPU 0 instructions: 290000001 cycles: 308859005 heartbeat IPC: 0.726167 cumulative IPC: 0.729946 (Simulation time: 0 hr 10 min 29 sec) 
Heartbeat CPU 0 instructions: 300000000 cycles: 322941365 heartbeat IPC: 0.710108 cumulative IPC: 0.728928 (Simulation time: 0 hr 10 min 54 sec) 
Heartbeat CPU 0 instructions: 310000000 cycles: 336198494 heartbeat IPC: 0.754311 cumulative IPC: 0.730098 (Simulation time: 0 hr 11 min 17 sec) 
Heartbeat CPU 0 instructions: 320000000 cycles: 349975247 heartbeat IPC: 0.72586 cumulative IPC: 0.729904 (Simulation time: 0 hr 11 min 42 sec) 
Heartbeat CPU 0 instructions: 330000000 cycles: 363762852 heartbeat IPC: 0.725289 cumulative IPC: 0.729702 (Simulation time: 0 hr 12 min 7 sec) 
Heartbeat CPU 0 instructions: 340000000 cycles: 377820364 heartbeat IPC: 0.711363 cumulative IPC: 0.728919 (Simulation time: 0 hr 12 min 32 sec) 
Heartbeat CPU 0 instructions: 350000000 cycles: 391129207 heartbeat IPC: 0.75138 cumulative IPC: 0.729792 (Simulation time: 0 hr 12 min 55 sec) 
Heartbeat CPU 0 instructions: 360000000 cycles: 404934142 heartbeat IPC: 0.724379 cumulative IPC: 0.729582 (Simulation time: 0 hr 13 min 20 sec) 
Heartbeat CPU 0 instructions: 370000003 cycles: 418725365 heartbeat IPC: 0.725099 cumulative IPC: 0.729415 (Simulation time: 0 hr 13 min 45 sec) 
Heartbeat CPU 0 instructions: 380000000 cycles: 432750266 heartbeat IPC: 0.713017 cumulative IPC: 0.728817 (Simulation time: 0 hr 14 min 10 sec) 
Heartbeat CPU 0 instructions: 390000003 cycles: 446071626 heartbeat IPC: 0.750674 cumulative IPC: 0.729549 (Simulation time: 0 hr 14 min 33 sec) 
Heartbeat CPU 0 instructions: 400000000 cycles: 459869134 heartbeat IPC: 0.724768 cumulative IPC: 0.729389 (Simulation time: 0 hr 14 min 58 sec) 
Heartbeat CPU 0 instructions: 410000000 cycles: 473629368 heartbeat IPC: 0.726732 cumulative IPC: 0.729303 (Simulation time: 0 hr 15 min 23 sec) 
Heartbeat CPU 0 instructions: 420000000 cycles: 487638525 heartbeat IPC: 0.713819 cumulative IPC: 0.728809 (Simulation time: 0 hr 15 min 48 sec) 
Heartbeat CPU 0 instructions: 430000003 cycles: 500971978 heartbeat IPC: 0.749994 cumulative IPC: 0.729433 (Simulation time: 0 hr 16 min 10 sec) 
Heartbeat CPU 0 instructions: 440000000 cycles: 514771880 heartbeat IPC: 0.724643 cumulative IPC: 0.729291 (Simulation time: 0 hr 16 min 35 sec) 
Heartbeat CPU 0 instructions: 450000000 cycles: 528551516 heartbeat IPC: 0.725709 cumulative IPC: 0.729188 (Simulation time: 0 hr 17 min 0 sec) 
Heartbeat CPU 0 instructions: 460000000 cycles: 542541682 heartbeat IPC: 0.714788 cumulative IPC: 0.728781 (Simulation time: 0 hr 17 min 25 sec) 
Heartbeat CPU 0 instructions: 470000001 cycles: 555864056 heartbeat IPC: 0.750617 cumulative IPC: 0.729354 (Simulation time: 0 hr 17 min 48 sec) 
Heartbeat CPU 0 instructions: 480000000 cycles: 569633285 heartbeat IPC: 0.726257 cumulative IPC: 0.729272 (Simulation time: 0 hr 18 min 13 sec) 
Heartbeat CPU 0 instructions: 490000002 cycles: 583383827 heartbeat IPC: 0.727244 cumulative IPC: 0.72922 (Simulation time: 0 hr 18 min 37 sec) 
Heartbeat CPU 0 instructions: 500000000 cycles: 597371513 heartbeat IPC: 0.714914 cumulative IPC: 0.728855 (Simulation time: 0 hr 19 min 2 sec) 
Heartbeat CPU 0 instructions: 510000002 cycles: 610719197 heartbeat IPC: 0.749194 cumulative IPC: 0.729338 (Simulation time: 0 hr 19 min 25 sec) 
Heartbeat CPU 0 instructions: 520000000 cycles: 624476662 heartbeat IPC: 0.726878 cumulative IPC: 0.72928 (Simulation time: 0 hr 19 min 50 sec) 
Heartbeat CPU 0 instructions: 530000003 cycles: 638209956 heartbeat IPC: 0.728158 cumulative IPC: 0.729253 (Simulation time: 0 hr 20 min 14 sec) 
Heartbeat CPU 0 instructions: 540000000 cycles: 652217929 heartbeat IPC: 0.713879 cumulative IPC: 0.728897 (Simulation time: 0 hr 20 min 39 sec) 
Heartbeat CPU 0 instructions: 550000003 cycles: 665577257 heartbeat IPC: 0.748541 cumulative IPC: 0.729322 (Simulation time: 0 hr 21 min 2 sec) 
Heartbeat CPU 0 instructions: 560000000 cycles: 679314525 heartbeat IPC: 0.727947 cumulative IPC: 0.729292 (Simulation time: 0 hr 21 min 27 sec) 
Heartbeat CPU 0 instructions: 570000001 cycles: 693070382 heartbeat IPC: 0.726963 cumulative IPC: 0.729242 (Simulation time: 0 hr 21 min 52 sec) 
Heartbeat CPU 0 instructions: 580000000 cycles: 707100136 heartbeat IPC: 0.712771 cumulative IPC: 0.728891 (Simulation time: 0 hr 22 min 17 sec) 
Heartbeat CPU 0 instructions: 590000000 cycles: 720386435 heartbeat IPC: 0.752655 cumulative IPC: 0.729361 (Simulation time: 0 hr 22 min 39 sec) 
Heartbeat CPU 0 instructions: 600000000 cycles: 734127054 heartbeat IPC: 0.727769 cumulative IPC: 0.729329 (Simulation time: 0 hr 23 min 4 sec) 
Finished CPU 0 instructions: 500000001 cycles: 685561200 cumulative IPC: 0.729329 (Simulation time: 0 hr 23 min 4 sec) 

CPU 0 Branch Prediction Accuracy: 97.5275% MPKI: 2.1997
Number of Branches: 44482865 Number of Mispredictions: 1099852
Number of LOAD Instructions: 144955155
Number of LOAD Instructions (ROI): 144955155
Number of STORE Instructions: 55921098
Number of STORE Instructions (ROI): 55921098
Total Destination Memory Operands: 57111147
Total Destination Memory Operands (ROI): 57111147
Total Source Memory Operands: 144955155
Total Source Memory Operands (ROI): 144955155
Number of DEPENDED LOADS: 13455006
Number of DEPENDED LOADS (ROI): 13455006
Number of SQ_ADDED: 57111126
Number of SQ_ADDED (ROI): 57111126
Number of LQ_ADDED: 174339834
Number of LQ_ADDED (ROI): 174339834
Number of Instructions read from trace: 600000256

ChampSim completed all CPUs

Region of Interest Statistics

CPU 0 cumulative IPC: 0.729329 instructions: 500000001 cycles: 685561200
ITLB TOTAL     ACCESS:  136058734  HIT:  136056181  MISS:       2553
ITLB LOAD      ACCESS:  136058734  HIT:  136056181  MISS:       2553
ITLB RFO       ACCESS:          0  HIT:          0  MISS:          0
ITLB PREFETCH  ACCESS:          0  HIT:          0  MISS:          0
ITLB WRITEBACK ACCESS:          0  HIT:          0  MISS:          0
ITLB PREFETCH  REQUESTED:          0  ISSUED:          0  USEFUL:          0  USELESS:          0
ITLB TOTAL MSHR MERGED:       4378
ITLB LOAD MSHR MERGED:       4378
ITLB RFO MSHR MERGED:          0
ITLB PREFETCH MSHR MERGED:          0
ITLB WRITEBACK MSHR MERGED:          0
ITLB TOTAL ACCESSES:  136063112 HITS:  136056181 MISSES:       6931
ITLB LOAD ACCESSES:  136063112 HITS:  136056181 MISSES:       6931
ITLB RFO ACCESSES:          0 HITS:          0 MISSES:          0
ITLB PREFETCH ACCESSES:          0 HITS:          0 MISSES:          0
ITLB WRITEBACK ACCESSES:          0 HITS:          0 MISSES:          0
ITLB RQ ACCESS:  500000202
ITLB RQ TO_CACHE:  136063112
ITLB RQ MERGED:  363937090
ITLB RQ FORWARD:          0
ITLB WQ ACCESS:          0
ITLB WQ TO_CACHE:          0
ITLB WQ MERGED:          0
ITLB WQ FORWARD:          0
DTLB TOTAL     ACCESS:  111541721  HIT:  111405532  MISS:     136189
DTLB LOAD      ACCESS:   78946051  HIT:   78820430  MISS:     125621
DTLB RFO       ACCESS:   32595670  HIT:   32585102  MISS:      10568
DTLB PREFETCH  ACCESS:          0  HIT:          0  MISS:          0
DTLB WRITEBACK ACCESS:          0  HIT:          0  MISS:          0
DTLB PREFETCH  REQUESTED:          0  ISSUED:          0  USEFUL:          0  USELESS:          0
DTLB TOTAL MSHR MERGED:      63567
DTLB LOAD MSHR MERGED:      50962
DTLB RFO MSHR MERGED:      12605
DTLB PREFETCH MSHR MERGED:          0
DTLB WRITEBACK MSHR MERGED:          0
DTLB TOTAL ACCESSES:  111605288 HITS:  111405532 MISSES:     199756
DTLB LOAD ACCESSES:   78997013 HITS:   78820430 MISSES:     176583
DTLB RFO ACCESSES:   32608275 HITS:   32585102 MISSES:      23173
DTLB PREFETCH ACCESSES:          0 HITS:          0 MISSES:          0
DTLB WRITEBACK ACCESSES:          0 HITS:          0 MISSES:          0
DTLB RQ ACCESS:  157180417
DTLB RQ TO_CACHE:  111605288
DTLB RQ MERGED:   45575129
DTLB RQ FORWARD:          0
DTLB WQ ACCESS:          0
DTLB WQ TO_CACHE:          0
DTLB WQ MERGED:          0
DTLB WQ FORWARD:          0
L1D TOTAL     ACCESS:  198212875  HIT:  188371873  MISS:    9841002
L1D LOAD      ACCESS:   79946054  HIT:   75682959  MISS:    4263095
L1D RFO       ACCESS:   44516629  HIT:   43616178  MISS:     900451
L1D PREFETCH  ACCESS:   73750192  HIT:   69072736  MISS:    4677456
L1D WRITEBACK ACCESS:          0  HIT:          0  MISS:          0
L1D PREFETCH  REQUESTED:   80341875  ISSUED:   79886157  USEFUL:    1819187  USELESS:    2858178
L1D TOTAL MSHR MERGED:    2509111
L1D LOAD MSHR MERGED:     520168
L1D RFO MSHR MERGED:    1435775
L1D PREFETCH MSHR MERGED:     553168
L1D WRITEBACK MSHR MERGED:          0
L1D TOTAL ACCESSES:  200743549 HITS:  188393436 MISSES:   12350113
L1D LOAD ACCESSES:   80354779 HITS:   75695863 MISSES:    4658916
L1D RFO ACCESSES:   45949281 HITS:   43616178 MISSES:    2333103
L1D PREFETCH ACCESSES:   74439489 HITS:   69081395 MISSES:    5358094
L1D WRITEBACK ACCESSES:          0 HITS:          0 MISSES:          0
L1D RQ ACCESS:  109538447
L1D RQ TO_CACHE:   80341875
L1D RQ MERGED:   29183668
L1D RQ FORWARD:          0
L1D WQ ACCESS:   47641970
L1D WQ TO_CACHE:   45949281
L1D WQ MERGED:    1692689
L1D WQ FORWARD:      21563
L1I TOTAL     ACCESS:  161531191  HIT:  161267217  MISS:     263974
L1I LOAD      ACCESS:  161531191  HIT:  161267217  MISS:     263974
L1I RFO       ACCESS:          0  HIT:          0  MISS:          0
L1I PREFETCH  ACCESS:          0  HIT:          0  MISS:          0
L1I WRITEBACK ACCESS:          0  HIT:          0  MISS:          0
L1I PREFETCH  REQUESTED:          0  ISSUED:          0  USEFUL:          0  USELESS:          0
L1I TOTAL MSHR MERGED:     260216
L1I LOAD MSHR MERGED:     260216
L1I RFO MSHR MERGED:          0
L1I PREFETCH MSHR MERGED:          0
L1I WRITEBACK MSHR MERGED:          0
L1I TOTAL ACCESSES:  161791407 HITS:  161267217 MISSES:     524190
L1I LOAD ACCESSES:  161791407 HITS:  161267217 MISSES:     524190
L1I RFO ACCESSES:          0 HITS:          0 MISSES:          0
L1I PREFETCH ACCESSES:          0 HITS:          0 MISSES:          0
L1I WRITEBACK ACCESSES:          0 HITS:          0 MISSES:          0
L1I RQ ACCESS:  500000202
L1I RQ TO_CACHE:  161791407
L1I RQ MERGED:  338208795
L1I RQ FORWARD:          0
L1I WQ ACCESS:          0
L1I WQ TO_CACHE:          0
L1I WQ MERGED:          0
L1I WQ FORWARD:          0
L2C TOTAL     ACCESS:   11771673  HIT:   10382364  MISS:    1389309
L2C LOAD      ACCESS:    4402657  HIT:    3906033  MISS:     496624
L2C RFO       ACCESS:     897263  HIT:     536197  MISS:     361066
L2C PREFETCH  ACCESS:    5284238  HIT:    4755564  MISS:     528674
L2C WRITEBACK ACCESS:    1187515  HIT:    1184570  MISS:       2945
L2C PREFETCH  REQUESTED:     504560  ISSUED:     504560  USEFUL:     114909  USELESS:     413957
L2C TOTAL MSHR MERGED:       1962
L2C LOAD MSHR MERGED:        375
L2C RFO MSHR MERGED:          0
L2C PREFETCH MSHR MERGED:       1587
L2C WRITEBACK MSHR MERGED:          0
L2C TOTAL ACCESSES:   11776406 HITS:   10382583 MISSES:    1393823
L2C LOAD ACCESSES:    4402722 HITS:    3906098 MISSES:     496624
L2C RFO ACCESSES:     897328 HITS:     536262 MISSES:     361066
L2C PREFETCH ACCESSES:    5288841 HITS:    4755653 MISSES:     533188
L2C WRITEBACK ACCESSES:    1187515 HITS:    1184570 MISSES:       2945
L2C RQ ACCESS:    5300050
L2C RQ TO_CACHE:    5299920
L2C RQ MERGED:          0
L2C RQ FORWARD:          0
L2C WQ ACCESS:    1187515
L2C WQ TO_CACHE:    1187515
L2C WQ MERGED:          0
L2C WQ FORWARD:        219
LLC TOTAL     ACCESS:    1849582  HIT:    1245651  MISS:     603931
LLC LOAD      ACCESS:     496247  HIT:     271427  MISS:     224820
LLC RFO       ACCESS:     361063  HIT:     197935  MISS:     163128
LLC PREFETCH  ACCESS:     531524  HIT:     320486  MISS:     211038
LLC WRITEBACK ACCESS:     460748  HIT:     455803  MISS:       4945
LLC PREFETCH  REQUESTED:          0  ISSUED:          0  USEFUL:       3274  USELESS:     207789
LLC TOTAL MSHR MERGED:         53
LLC LOAD MSHR MERGED:         24
LLC RFO MSHR MERGED:          0
LLC PREFETCH MSHR MERGED:         29
LLC WRITEBACK MSHR MERGED:          0
LLC TOTAL ACCESSES:    1849660 HITS:    1245676 MISSES:     603984
LLC LOAD ACCESSES:     496249 HITS:     271429 MISSES:     224820
LLC RFO ACCESSES:     361066 HITS:     197938 MISSES:     163128
LLC PREFETCH ACCESSES:     531597 HITS:     320506 MISSES:     211091
LLC WRITEBACK ACCESSES:     460748 HITS:     455803 MISSES:       4945
LLC 0 RQ ACCESS:     857315
LLC 0 RQ TO_CACHE:     857310
LLC 0 RQ MERGED:          0
LLC 0 RQ FORWARD:          0
LLC WQ ACCESS:     460748
LLC WQ TO_CACHE:     460748
LLC WQ MERGED:          0
LLC WQ FORWARD:         25
Major fault: 0 Minor fault: 3073
CPU 0 L1D next line prefetcher final stats
CPU 0 L2C PC-based stride prefetcher final stats
All Misses: 731632
All Hits: 1444642
SD Algo Stats - Switches: 0 SRR-Repls: 263371 BRR-Repls: 0

DRAM Statistics
 CHANNEL 0
 RQ ROW_BUFFER_HIT:     388926  ROW_BUFFER_MISS:     209681
 DBUS_CONGESTED:     466173
 WQ ROW_BUFFER_HIT:      20450  ROW_BUFFER_MISS:     152826  FULL:          0

 AVG_CONGESTED_CYCLE: 13
LOADS RETIRED: 120673965
INSTR RETIRED: 500000000
