
*** ChampSim Multicore Out-of-Order Simulator ***

Warmup Instructions: 100000000
Simulation Instructions: 500000000
Number of CPUs: 1
LLC sets: 2048
LLC ways: 16
Clean RRIP Policies: 2213200222132002 Dirty RRIP Policies: 2203100222031002 PSEL Width: 10 Track Set: 4294967295 PSEL Mask: 1 Demote Mask: 4040100140401001DS Algo: 0Window size: 0
Off-chip DRAM Size: 4096 MB Channels: 1 Width: 64-bit Data Rate: 1600 MT/s

CPU 0 runs /mnt/beegfs/iconst01/spec2017/Xalancbmk.trace.gz
NOT SORTED
TRACE STRING: /mnt/beegfs/iconst01/spec2017/Xalancbmk.trace.gz
SORTED
TRACE STRING: /mnt/beegfs/iconst01/spec2017/Xalancbmk.trace.gz
INITIAL
TRACE STRING: /mnt/beegfs/iconst01/spec2017/Xalancbmk.trace.gz

champsim_seed used: 913

CPU 0 L1D next line prefetcher
CPU 0 L2C IP-based stride prefetcher
Initialize DRRIP state
Assign rand_sets[0]: 454  LLC: 2048
rand_sets[0]: 454
Assign rand_sets[1]: 1662  LLC: 2048
rand_sets[1]: 1662
Assign rand_sets[2]: 1921  LLC: 2048
rand_sets[2]: 1921
Assign rand_sets[3]: 1131  LLC: 2048
rand_sets[3]: 1131
Assign rand_sets[4]: 331  LLC: 2048
rand_sets[4]: 331
Assign rand_sets[5]: 1531  LLC: 2048
rand_sets[5]: 1531
Assign rand_sets[6]: 482  LLC: 2048
rand_sets[6]: 482
Assign rand_sets[7]: 1275  LLC: 2048
rand_sets[7]: 1275
Assign rand_sets[8]: 1876  LLC: 2048
rand_sets[8]: 1876
Assign rand_sets[9]: 2038  LLC: 2048
rand_sets[9]: 2038
Assign rand_sets[10]: 701  LLC: 2048
rand_sets[10]: 701
Assign rand_sets[11]: 479  LLC: 2048
rand_sets[11]: 479
Assign rand_sets[12]: 892  LLC: 2048
rand_sets[12]: 892
Assign rand_sets[13]: 1820  LLC: 2048
rand_sets[13]: 1820
Assign rand_sets[14]: 1505  LLC: 2048
rand_sets[14]: 1505
Assign rand_sets[15]: 1159  LLC: 2048
rand_sets[15]: 1159
Assign rand_sets[16]: 513  LLC: 2048
rand_sets[16]: 513
Assign rand_sets[17]: 703  LLC: 2048
rand_sets[17]: 703
Assign rand_sets[18]: 561  LLC: 2048
rand_sets[18]: 561
Assign rand_sets[19]: 990  LLC: 2048
rand_sets[19]: 990
Assign rand_sets[20]: 342  LLC: 2048
rand_sets[20]: 342
Assign rand_sets[21]: 882  LLC: 2048
rand_sets[21]: 882
Assign rand_sets[22]: 15  LLC: 2048
rand_sets[22]: 15
Assign rand_sets[23]: 71  LLC: 2048
rand_sets[23]: 71
Assign rand_sets[24]: 1127  LLC: 2048
rand_sets[24]: 1127
Assign rand_sets[25]: 1382  LLC: 2048
rand_sets[25]: 1382
Assign rand_sets[26]: 647  LLC: 2048
rand_sets[26]: 647
Assign rand_sets[27]: 857  LLC: 2048
rand_sets[27]: 857
Assign rand_sets[28]: 1450  LLC: 2048
rand_sets[28]: 1450
Assign rand_sets[29]: 1160  LLC: 2048
rand_sets[29]: 1160
Assign rand_sets[30]: 1852  LLC: 2048
rand_sets[30]: 1852
Assign rand_sets[31]: 1881  LLC: 2048
rand_sets[31]: 1881
Assign rand_sets[32]: 1770  LLC: 2048
rand_sets[32]: 1770
Assign rand_sets[33]: 1622  LLC: 2048
rand_sets[33]: 1622
Assign rand_sets[34]: 275  LLC: 2048
rand_sets[34]: 275
Assign rand_sets[35]: 635  LLC: 2048
rand_sets[35]: 635
Assign rand_sets[36]: 466  LLC: 2048
rand_sets[36]: 466
Assign rand_sets[37]: 1413  LLC: 2048
rand_sets[37]: 1413
Assign rand_sets[38]: 417  LLC: 2048
rand_sets[38]: 417
Assign rand_sets[39]: 472  LLC: 2048
rand_sets[39]: 472
Assign rand_sets[40]: 1340  LLC: 2048
rand_sets[40]: 1340
Assign rand_sets[41]: 852  LLC: 2048
rand_sets[41]: 852
Assign rand_sets[42]: 1365  LLC: 2048
rand_sets[42]: 1365
Assign rand_sets[43]: 47  LLC: 2048
rand_sets[43]: 47
Assign rand_sets[44]: 823  LLC: 2048
rand_sets[44]: 823
Assign rand_sets[45]: 686  LLC: 2048
rand_sets[45]: 686
Assign rand_sets[46]: 1637  LLC: 2048
rand_sets[46]: 1637
Assign rand_sets[47]: 1115  LLC: 2048
rand_sets[47]: 1115
Assign rand_sets[48]: 986  LLC: 2048
rand_sets[48]: 986
Assign rand_sets[49]: 258  LLC: 2048
rand_sets[49]: 258
Assign rand_sets[50]: 633  LLC: 2048
rand_sets[50]: 633
Assign rand_sets[51]: 920  LLC: 2048
rand_sets[51]: 920
Assign rand_sets[52]: 204  LLC: 2048
rand_sets[52]: 204
Assign rand_sets[53]: 227  LLC: 2048
rand_sets[53]: 227
Assign rand_sets[54]: 1818  LLC: 2048
rand_sets[54]: 1818
Assign rand_sets[55]: 886  LLC: 2048
rand_sets[55]: 886
Assign rand_sets[56]: 1422  LLC: 2048
rand_sets[56]: 1422
Assign rand_sets[57]: 607  LLC: 2048
rand_sets[57]: 607
Assign rand_sets[58]: 217  LLC: 2048
rand_sets[58]: 217
Assign rand_sets[59]: 1945  LLC: 2048
rand_sets[59]: 1945
Assign rand_sets[60]: 143  LLC: 2048
rand_sets[60]: 143
Assign rand_sets[61]: 1311  LLC: 2048
rand_sets[61]: 1311
Assign rand_sets[62]: 319  LLC: 2048
rand_sets[62]: 319
Assign rand_sets[63]: 1846  LLC: 2048
rand_sets[63]: 1846
 CLEAN-RRIP-POLICY-1: 2-2-1-3-2-0-0-2- CLEAN-RRIP-POLICY-2: 2-2-1-3-2-0-0-2-
 DIRTY-RRIP-POLICY-1: 2-2-0-3-1-0-0-2- DIRTY-RRIP-POLICY-2: 2-2-0-3-1-0-0-2-
 PSEL width: 10
Heartbeat CPU 0 instructions: 10000003 cycles: 4591784 heartbeat IPC: 2.1778 cumulative IPC: 2.1778 (Simulation time: 0 hr 0 min 15 sec) 
Heartbeat CPU 0 instructions: 20000000 cycles: 8984777 heartbeat IPC: 2.27635 cumulative IPC: 2.22599 (Simulation time: 0 hr 0 min 29 sec) 
Heartbeat CPU 0 instructions: 30000000 cycles: 13393730 heartbeat IPC: 2.26811 cumulative IPC: 2.23985 (Simulation time: 0 hr 0 min 43 sec) 
Heartbeat CPU 0 instructions: 40000000 cycles: 18020790 heartbeat IPC: 2.1612 cumulative IPC: 2.21966 (Simulation time: 0 hr 0 min 58 sec) 
Heartbeat CPU 0 instructions: 50000002 cycles: 22438918 heartbeat IPC: 2.2634 cumulative IPC: 2.22827 (Simulation time: 0 hr 1 min 12 sec) 
Heartbeat CPU 0 instructions: 60000000 cycles: 27094257 heartbeat IPC: 2.14807 cumulative IPC: 2.21449 (Simulation time: 0 hr 1 min 28 sec) 
Heartbeat CPU 0 instructions: 70000003 cycles: 31499807 heartbeat IPC: 2.26986 cumulative IPC: 2.22224 (Simulation time: 0 hr 1 min 42 sec) 
Heartbeat CPU 0 instructions: 80000000 cycles: 35919387 heartbeat IPC: 2.26266 cumulative IPC: 2.22721 (Simulation time: 0 hr 1 min 56 sec) 
Heartbeat CPU 0 instructions: 90000002 cycles: 40374235 heartbeat IPC: 2.24475 cumulative IPC: 2.22914 (Simulation time: 0 hr 2 min 11 sec) 
Heartbeat CPU 0 instructions: 100000000 cycles: 44845080 heartbeat IPC: 2.23671 cumulative IPC: 2.2299 (Simulation time: 0 hr 2 min 25 sec) 

Warmup complete CPU 0 instructions: 100000003 cycles: 44845081 (Simulation time: 0 hr 2 min 25 sec) 

Heartbeat CPU 0 instructions: 110000000 cycles: 71582396 heartbeat IPC: 0.374009 cumulative IPC: 0.374009 (Simulation time: 0 hr 2 min 56 sec) 
Heartbeat CPU 0 instructions: 120000000 cycles: 99329465 heartbeat IPC: 0.360398 cumulative IPC: 0.367078 (Simulation time: 0 hr 3 min 28 sec) 
Heartbeat CPU 0 instructions: 130000000 cycles: 122399905 heartbeat IPC: 0.433455 cumulative IPC: 0.386823 (Simulation time: 0 hr 3 min 56 sec) 
Heartbeat CPU 0 instructions: 140000000 cycles: 144944473 heartbeat IPC: 0.443566 cumulative IPC: 0.399603 (Simulation time: 0 hr 4 min 24 sec) 
Heartbeat CPU 0 instructions: 150000000 cycles: 169159724 heartbeat IPC: 0.412963 cumulative IPC: 0.402205 (Simulation time: 0 hr 4 min 53 sec) 
Heartbeat CPU 0 instructions: 160000000 cycles: 193933188 heartbeat IPC: 0.403658 cumulative IPC: 0.402447 (Simulation time: 0 hr 5 min 23 sec) 
Heartbeat CPU 0 instructions: 170000002 cycles: 215233513 heartbeat IPC: 0.469476 cumulative IPC: 0.410826 (Simulation time: 0 hr 5 min 50 sec) 
Heartbeat CPU 0 instructions: 180000000 cycles: 237526350 heartbeat IPC: 0.448574 cumulative IPC: 0.415193 (Simulation time: 0 hr 6 min 18 sec) 
Heartbeat CPU 0 instructions: 190000000 cycles: 256426919 heartbeat IPC: 0.529085 cumulative IPC: 0.425367 (Simulation time: 0 hr 6 min 44 sec) 
Heartbeat CPU 0 instructions: 200000000 cycles: 277263260 heartbeat IPC: 0.479931 cumulative IPC: 0.430259 (Simulation time: 0 hr 7 min 10 sec) 
Heartbeat CPU 0 instructions: 210000001 cycles: 303491746 heartbeat IPC: 0.381265 cumulative IPC: 0.425291 (Simulation time: 0 hr 7 min 41 sec) 
Heartbeat CPU 0 instructions: 220000000 cycles: 328991348 heartbeat IPC: 0.392163 cumulative IPC: 0.422318 (Simulation time: 0 hr 8 min 11 sec) 
Heartbeat CPU 0 instructions: 230000000 cycles: 351149809 heartbeat IPC: 0.451295 cumulative IPC: 0.424414 (Simulation time: 0 hr 8 min 39 sec) 
Heartbeat CPU 0 instructions: 240000000 cycles: 376707639 heartbeat IPC: 0.39127 cumulative IPC: 0.421861 (Simulation time: 0 hr 9 min 9 sec) 
Heartbeat CPU 0 instructions: 250000001 cycles: 401219638 heartbeat IPC: 0.407964 cumulative IPC: 0.420905 (Simulation time: 0 hr 9 min 39 sec) 
Heartbeat CPU 0 instructions: 260000000 cycles: 422154930 heartbeat IPC: 0.477662 cumulative IPC: 0.424055 (Simulation time: 0 hr 10 min 6 sec) 
Heartbeat CPU 0 instructions: 270000000 cycles: 443530473 heartbeat IPC: 0.467824 cumulative IPC: 0.426401 (Simulation time: 0 hr 10 min 33 sec) 
Heartbeat CPU 0 instructions: 280000000 cycles: 471030452 heartbeat IPC: 0.363637 cumulative IPC: 0.422351 (Simulation time: 0 hr 11 min 4 sec) 
Heartbeat CPU 0 instructions: 290000000 cycles: 492108632 heartbeat IPC: 0.474424 cumulative IPC: 0.424805 (Simulation time: 0 hr 11 min 31 sec) 
Heartbeat CPU 0 instructions: 300000000 cycles: 512463255 heartbeat IPC: 0.491289 cumulative IPC: 0.427699 (Simulation time: 0 hr 11 min 58 sec) 
Heartbeat CPU 0 instructions: 310000000 cycles: 531545773 heartbeat IPC: 0.52404 cumulative IPC: 0.431477 (Simulation time: 0 hr 12 min 23 sec) 
Heartbeat CPU 0 instructions: 320000000 cycles: 560565661 heartbeat IPC: 0.344591 cumulative IPC: 0.426588 (Simulation time: 0 hr 12 min 56 sec) 
Heartbeat CPU 0 instructions: 330000001 cycles: 580091165 heartbeat IPC: 0.512151 cumulative IPC: 0.429709 (Simulation time: 0 hr 13 min 22 sec) 
Heartbeat CPU 0 instructions: 340000000 cycles: 599345321 heartbeat IPC: 0.519368 cumulative IPC: 0.432822 (Simulation time: 0 hr 13 min 47 sec) 
Heartbeat CPU 0 instructions: 350000001 cycles: 624464865 heartbeat IPC: 0.398096 cumulative IPC: 0.431317 (Simulation time: 0 hr 14 min 17 sec) 
Heartbeat CPU 0 instructions: 360000000 cycles: 646725599 heartbeat IPC: 0.449221 cumulative IPC: 0.431979 (Simulation time: 0 hr 14 min 45 sec) 
Heartbeat CPU 0 instructions: 370000001 cycles: 671597634 heartbeat IPC: 0.402058 cumulative IPC: 0.430792 (Simulation time: 0 hr 15 min 14 sec) 
Heartbeat CPU 0 instructions: 380000000 cycles: 694743236 heartbeat IPC: 0.432047 cumulative IPC: 0.430837 (Simulation time: 0 hr 15 min 42 sec) 
Heartbeat CPU 0 instructions: 390000000 cycles: 713608761 heartbeat IPC: 0.530067 cumulative IPC: 0.433636 (Simulation time: 0 hr 16 min 8 sec) 
Heartbeat CPU 0 instructions: 400000000 cycles: 733384410 heartbeat IPC: 0.505672 cumulative IPC: 0.435705 (Simulation time: 0 hr 16 min 34 sec) 
Heartbeat CPU 0 instructions: 410000001 cycles: 759501964 heartbeat IPC: 0.382884 cumulative IPC: 0.433775 (Simulation time: 0 hr 17 min 4 sec) 
Heartbeat CPU 0 instructions: 420000000 cycles: 783878058 heartbeat IPC: 0.410238 cumulative IPC: 0.432998 (Simulation time: 0 hr 17 min 33 sec) 
Heartbeat CPU 0 instructions: 430000002 cycles: 804989806 heartbeat IPC: 0.47367 cumulative IPC: 0.434128 (Simulation time: 0 hr 18 min 0 sec) 
Heartbeat CPU 0 instructions: 440000000 cycles: 825092696 heartbeat IPC: 0.497441 cumulative IPC: 0.435759 (Simulation time: 0 hr 18 min 26 sec) 
Heartbeat CPU 0 instructions: 450000002 cycles: 851653588 heartbeat IPC: 0.376493 cumulative IPC: 0.433808 (Simulation time: 0 hr 18 min 56 sec) 
Heartbeat CPU 0 instructions: 460000000 cycles: 877211775 heartbeat IPC: 0.391264 cumulative IPC: 0.432502 (Simulation time: 0 hr 19 min 26 sec) 
Heartbeat CPU 0 instructions: 470000002 cycles: 902868378 heartbeat IPC: 0.389763 cumulative IPC: 0.431224 (Simulation time: 0 hr 19 min 56 sec) 
Heartbeat CPU 0 instructions: 480000000 cycles: 926910096 heartbeat IPC: 0.415944 cumulative IPC: 0.430807 (Simulation time: 0 hr 20 min 25 sec) 
Heartbeat CPU 0 instructions: 490000000 cycles: 947791028 heartbeat IPC: 0.478906 cumulative IPC: 0.43192 (Simulation time: 0 hr 20 min 51 sec) 
Heartbeat CPU 0 instructions: 500000000 cycles: 972452762 heartbeat IPC: 0.405486 cumulative IPC: 0.431217 (Simulation time: 0 hr 21 min 20 sec) 
Heartbeat CPU 0 instructions: 510000000 cycles: 997311818 heartbeat IPC: 0.402268 cumulative IPC: 0.430461 (Simulation time: 0 hr 21 min 50 sec) 
Heartbeat CPU 0 instructions: 520000000 cycles: 1018273610 heartbeat IPC: 0.477058 cumulative IPC: 0.431465 (Simulation time: 0 hr 22 min 16 sec) 
Heartbeat CPU 0 instructions: 530000003 cycles: 1043757268 heartbeat IPC: 0.392408 cumulative IPC: 0.430468 (Simulation time: 0 hr 22 min 46 sec) 
Heartbeat CPU 0 instructions: 540000000 cycles: 1066582469 heartbeat IPC: 0.438112 cumulative IPC: 0.430639 (Simulation time: 0 hr 23 min 14 sec) 
Heartbeat CPU 0 instructions: 550000000 cycles: 1091944150 heartbeat IPC: 0.394296 cumulative IPC: 0.429759 (Simulation time: 0 hr 23 min 44 sec) 
Heartbeat CPU 0 instructions: 560000000 cycles: 1114801476 heartbeat IPC: 0.437496 cumulative IPC: 0.429924 (Simulation time: 0 hr 24 min 12 sec) 
Heartbeat CPU 0 instructions: 570000002 cycles: 1138061444 heartbeat IPC: 0.429923 cumulative IPC: 0.429924 (Simulation time: 0 hr 24 min 40 sec) 
Heartbeat CPU 0 instructions: 580000000 cycles: 1158878874 heartbeat IPC: 0.480367 cumulative IPC: 0.430867 (Simulation time: 0 hr 25 min 6 sec) 
Heartbeat CPU 0 instructions: 590000001 cycles: 1182726869 heartbeat IPC: 0.419322 cumulative IPC: 0.430625 (Simulation time: 0 hr 25 min 35 sec) 
Heartbeat CPU 0 instructions: 600000000 cycles: 1201855301 heartbeat IPC: 0.522782 cumulative IPC: 0.432148 (Simulation time: 0 hr 26 min 0 sec) 
Finished CPU 0 instructions: 500000000 cycles: 1157010241 cumulative IPC: 0.432148 (Simulation time: 0 hr 26 min 0 sec) 

CPU 0 Branch Prediction Accuracy: 99.5434% MPKI: 1.33026
Number of Branches: 145676990 Number of Mispredictions: 665128
Number of LOAD Instructions: 188863207
Number of LOAD Instructions (ROI): 188863207
Number of STORE Instructions: 7332002
Number of STORE Instructions (ROI): 7332002
Total Destination Memory Operands: 10029285
Total Destination Memory Operands (ROI): 10029285
Total Source Memory Operands: 188863207
Total Source Memory Operands (ROI): 188863207
Number of DEPENDED LOADS: 292216
Number of DEPENDED LOADS (ROI): 292216
Number of SQ_ADDED: 10029285
Number of SQ_ADDED (ROI): 10029285
Number of LQ_ADDED: 200823973
Number of LQ_ADDED (ROI): 200823973
Number of Instructions read from trace: 600000010

ChampSim completed all CPUs

Region of Interest Statistics

CPU 0 cumulative IPC: 0.432148 instructions: 500000000 cycles: 1157010241
ITLB TOTAL     ACCESS:  145810924  HIT:  145771397  MISS:      39527
ITLB LOAD      ACCESS:  145810924  HIT:  145771397  MISS:      39527
ITLB RFO       ACCESS:          0  HIT:          0  MISS:          0
ITLB PREFETCH  ACCESS:          0  HIT:          0  MISS:          0
ITLB WRITEBACK ACCESS:          0  HIT:          0  MISS:          0
ITLB PREFETCH  REQUESTED:          0  ISSUED:          0  USEFUL:          0  USELESS:          0
ITLB TOTAL MSHR MERGED:      57351
ITLB LOAD MSHR MERGED:      57351
ITLB RFO MSHR MERGED:          0
ITLB PREFETCH MSHR MERGED:          0
ITLB WRITEBACK MSHR MERGED:          0
ITLB TOTAL ACCESSES:  145868275 HITS:  145771397 MISSES:      96878
ITLB LOAD ACCESSES:  145868275 HITS:  145771397 MISSES:      96878
ITLB RFO ACCESSES:          0 HITS:          0 MISSES:          0
ITLB PREFETCH ACCESSES:          0 HITS:          0 MISSES:          0
ITLB WRITEBACK ACCESSES:          0 HITS:          0 MISSES:          0
ITLB RQ ACCESS:  499999754
ITLB RQ TO_CACHE:  145868275
ITLB RQ MERGED:  354131479
ITLB RQ FORWARD:          0
ITLB WQ ACCESS:          0
ITLB WQ TO_CACHE:          0
ITLB WQ MERGED:          0
ITLB WQ FORWARD:          0
DTLB TOTAL     ACCESS:  135184239  HIT:  134015877  MISS:    1168362
DTLB LOAD      ACCESS:  127143469  HIT:  125984211  MISS:    1159258
DTLB RFO       ACCESS:    8040770  HIT:    8031666  MISS:       9104
DTLB PREFETCH  ACCESS:          0  HIT:          0  MISS:          0
DTLB WRITEBACK ACCESS:          0  HIT:          0  MISS:          0
DTLB PREFETCH  REQUESTED:          0  ISSUED:          0  USEFUL:          0  USELESS:          0
DTLB TOTAL MSHR MERGED:     581148
DTLB LOAD MSHR MERGED:     576766
DTLB RFO MSHR MERGED:       4382
DTLB PREFETCH MSHR MERGED:          0
DTLB WRITEBACK MSHR MERGED:          0
DTLB TOTAL ACCESSES:  135765387 HITS:  134015877 MISSES:    1749510
DTLB LOAD ACCESSES:  127720235 HITS:  125984211 MISSES:    1736024
DTLB RFO ACCESSES:    8045152 HITS:    8031666 MISSES:      13486
DTLB PREFETCH ACCESSES:          0 HITS:          0 MISSES:          0
DTLB WRITEBACK ACCESSES:          0 HITS:          0 MISSES:          0
DTLB RQ ACCESS:  165762117
DTLB RQ TO_CACHE:  135765387
DTLB RQ MERGED:   29996730
DTLB RQ FORWARD:          0
DTLB WQ ACCESS:          0
DTLB WQ TO_CACHE:          0
DTLB WQ MERGED:          0
DTLB WQ FORWARD:          0
L1D TOTAL     ACCESS:  157090974  HIT:  139775305  MISS:   17315669
L1D LOAD      ACCESS:   90011604  HIT:   78874616  MISS:   11136988
L1D RFO       ACCESS:    8497678  HIT:    8410479  MISS:      87199
L1D PREFETCH  ACCESS:   58581692  HIT:   52490210  MISS:    6091482
L1D WRITEBACK ACCESS:          0  HIT:          0  MISS:          0
L1D PREFETCH  REQUESTED:   93710496  ISSUED:   92842729  USEFUL:    2010061  USELESS:    4081494
L1D TOTAL MSHR MERGED:   14960256
L1D LOAD MSHR MERGED:    7088525
L1D RFO MSHR MERGED:     126880
L1D PREFETCH MSHR MERGED:    7744851
L1D WRITEBACK MSHR MERGED:          0
L1D TOTAL ACCESSES:  172051382 HITS:  139775457 MISSES:   32275925
L1D LOAD ACCESSES:   93710498 HITS:   78874618 MISSES:   14835880
L1D RFO ACCESSES:    8622675 HITS:    8410479 MISSES:     212196
L1D PREFETCH ACCESSES:   69718209 HITS:   52490360 MISSES:   17227849
L1D WRITEBACK ACCESSES:          0 HITS:          0 MISSES:          0
L1D RQ ACCESS:  157122911
L1D RQ TO_CACHE:   93710496
L1D RQ MERGED:   63412413
L1D RQ FORWARD:          0
L1D WQ ACCESS:    8639208
L1D WQ TO_CACHE:    8622675
L1D WQ MERGED:      16533
L1D WQ FORWARD:        152
L1I TOTAL     ACCESS:  178799667  HIT:  178135998  MISS:     663669
L1I LOAD      ACCESS:  178799667  HIT:  178135998  MISS:     663669
L1I RFO       ACCESS:          0  HIT:          0  MISS:          0
L1I PREFETCH  ACCESS:          0  HIT:          0  MISS:          0
L1I WRITEBACK ACCESS:          0  HIT:          0  MISS:          0
L1I PREFETCH  REQUESTED:          0  ISSUED:          0  USEFUL:          0  USELESS:          0
L1I TOTAL MSHR MERGED:     596662
L1I LOAD MSHR MERGED:     596662
L1I RFO MSHR MERGED:          0
L1I PREFETCH MSHR MERGED:          0
L1I WRITEBACK MSHR MERGED:          0
L1I TOTAL ACCESSES:  179396329 HITS:  178135998 MISSES:    1260331
L1I LOAD ACCESSES:  179396329 HITS:  178135998 MISSES:    1260331
L1I RFO ACCESSES:          0 HITS:          0 MISSES:          0
L1I PREFETCH ACCESSES:          0 HITS:          0 MISSES:          0
L1I WRITEBACK ACCESSES:          0 HITS:          0 MISSES:          0
L1I RQ ACCESS:  499999757
L1I RQ TO_CACHE:  179396329
L1I RQ MERGED:  320603428
L1I RQ FORWARD:          0
L1I WQ ACCESS:          0
L1I WQ TO_CACHE:          0
L1I WQ MERGED:          0
L1I WQ FORWARD:          0
L2C TOTAL     ACCESS:   19277740  HIT:    2058039  MISS:   17219701
L2C LOAD      ACCESS:    8410919  HIT:     951531  MISS:    7459388
L2C RFO       ACCESS:      85293  HIT:      53737  MISS:      31556
L2C PREFETCH  ACCESS:   10496532  HIT:     770584  MISS:    9725948
L2C WRITEBACK ACCESS:     284996  HIT:     282187  MISS:       2809
L2C PREFETCH  REQUESTED:    1017888  ISSUED:    1017888  USEFUL:     275141  USELESS:    9449897
L2C TOTAL MSHR MERGED:       1009
L2C LOAD MSHR MERGED:        210
L2C RFO MSHR MERGED:          1
L2C PREFETCH MSHR MERGED:        798
L2C WRITEBACK MSHR MERGED:          0
L2C TOTAL ACCESSES:   19280964 HITS:    2058232 MISSES:   17222732
L2C LOAD ACCESSES:    8411024 HITS:     951636 MISSES:    7459388
L2C RFO ACCESSES:      85316 HITS:      53760 MISSES:      31556
L2C PREFETCH ACCESSES:   10499628 HITS:     770649 MISSES:    9728979
L2C WRITEBACK ACCESSES:     284996 HITS:     282187 MISSES:       2809
L2C RQ ACCESS:    8496340
L2C RQ TO_CACHE:    8496212
L2C RQ MERGED:          0
L2C RQ FORWARD:          0
L2C WQ ACCESS:     284996
L2C WQ TO_CACHE:     284996
L2C WQ MERGED:          0
L2C WQ FORWARD:        193
LLC TOTAL     ACCESS:   17324970  HIT:    5233676  MISS:   12091294
LLC LOAD      ACCESS:    7459178  HIT:    4127428  MISS:    3331750
LLC RFO       ACCESS:      31555  HIT:      14506  MISS:      17049
LLC PREFETCH  ACCESS:    9728178  HIT:    1000205  MISS:    8727973
LLC WRITEBACK ACCESS:     106059  HIT:      91537  MISS:      14522
LLC PREFETCH  REQUESTED:          0  ISSUED:          0  USEFUL:       1929  USELESS:    8725313
LLC TOTAL MSHR MERGED:          3
LLC LOAD MSHR MERGED:          0
LLC RFO MSHR MERGED:          0
LLC PREFETCH MSHR MERGED:          3
LLC WRITEBACK MSHR MERGED:          0
LLC TOTAL ACCESSES:   17324973 HITS:    5233676 MISSES:   12091297
LLC LOAD ACCESSES:    7459178 HITS:    4127428 MISSES:    3331750
LLC RFO ACCESSES:      31555 HITS:      14506 MISSES:      17049
LLC PREFETCH ACCESSES:    9728181 HITS:    1000205 MISSES:    8727976
LLC WRITEBACK ACCESSES:     106059 HITS:      91537 MISSES:      14522
LLC 0 RQ ACCESS:    7490733
LLC 0 RQ TO_CACHE:    7490733
LLC 0 RQ MERGED:          0
LLC 0 RQ FORWARD:          0
LLC WQ ACCESS:     106059
LLC WQ TO_CACHE:     106059
LLC WQ MERGED:          0
LLC WQ FORWARD:          0
Major fault: 0 Minor fault: 6432
CPU 0 L1D next line prefetcher final stats
CPU 0 L2C PC-based stride prefetcher final stats
All Misses: 14310024
All Hits: 6234652
SD Algo Stats - Switches: 0 SRR-Repls: 3580335 BRR-Repls: 0

DRAM Statistics
 CHANNEL 0
 RQ ROW_BUFFER_HIT:    9067614  ROW_BUFFER_MISS:    3003190
 DBUS_CONGESTED:    5600505
 WQ ROW_BUFFER_HIT:       1660  ROW_BUFFER_MISS:      51977  FULL:          0

 AVG_CONGESTED_CYCLE: 12
LOADS RETIRED: 157382665
INSTR RETIRED: 500000000
