
*** ChampSim Multicore Out-of-Order Simulator ***

Warmup Instructions: 100000000
Simulation Instructions: 500000000
Number of CPUs: 1
LLC sets: 2048
LLC ways: 16
Clean RRIP Policies: 1213030112130301 Dirty RRIP Policies: 1213130112131301 PSEL Width: 10 Track Set: 4294967295 PSEL Mask: 1 Demote Mask: 3342203033422030DS Algo: 0Window size: 0
Off-chip DRAM Size: 4096 MB Channels: 1 Width: 64-bit Data Rate: 1600 MT/s

CPU 0 runs /mnt/beegfs/iconst01/spec2017/x264.trace.gz
NOT SORTED
TRACE STRING: /mnt/beegfs/iconst01/spec2017/x264.trace.gz
SORTED
TRACE STRING: /mnt/beegfs/iconst01/spec2017/x264.trace.gz
INITIAL
TRACE STRING: /mnt/beegfs/iconst01/spec2017/x264.trace.gz

champsim_seed used: 276

CPU 0 L1D next line prefetcher
CPU 0 L2C IP-based stride prefetcher
Initialize DRRIP state
Assign rand_sets[0]: 454  LLC: 2048
rand_sets[0]: 454
Assign rand_sets[1]: 1662  LLC: 2048
rand_sets[1]: 1662
Assign rand_sets[2]: 1921  LLC: 2048
rand_sets[2]: 1921
Assign rand_sets[3]: 1131  LLC: 2048
rand_sets[3]: 1131
Assign rand_sets[4]: 331  LLC: 2048
rand_sets[4]: 331
Assign rand_sets[5]: 1531  LLC: 2048
rand_sets[5]: 1531
Assign rand_sets[6]: 482  LLC: 2048
rand_sets[6]: 482
Assign rand_sets[7]: 1275  LLC: 2048
rand_sets[7]: 1275
Assign rand_sets[8]: 1876  LLC: 2048
rand_sets[8]: 1876
Assign rand_sets[9]: 2038  LLC: 2048
rand_sets[9]: 2038
Assign rand_sets[10]: 701  LLC: 2048
rand_sets[10]: 701
Assign rand_sets[11]: 479  LLC: 2048
rand_sets[11]: 479
Assign rand_sets[12]: 892  LLC: 2048
rand_sets[12]: 892
Assign rand_sets[13]: 1820  LLC: 2048
rand_sets[13]: 1820
Assign rand_sets[14]: 1505  LLC: 2048
rand_sets[14]: 1505
Assign rand_sets[15]: 1159  LLC: 2048
rand_sets[15]: 1159
Assign rand_sets[16]: 513  LLC: 2048
rand_sets[16]: 513
Assign rand_sets[17]: 703  LLC: 2048
rand_sets[17]: 703
Assign rand_sets[18]: 561  LLC: 2048
rand_sets[18]: 561
Assign rand_sets[19]: 990  LLC: 2048
rand_sets[19]: 990
Assign rand_sets[20]: 342  LLC: 2048
rand_sets[20]: 342
Assign rand_sets[21]: 882  LLC: 2048
rand_sets[21]: 882
Assign rand_sets[22]: 15  LLC: 2048
rand_sets[22]: 15
Assign rand_sets[23]: 71  LLC: 2048
rand_sets[23]: 71
Assign rand_sets[24]: 1127  LLC: 2048
rand_sets[24]: 1127
Assign rand_sets[25]: 1382  LLC: 2048
rand_sets[25]: 1382
Assign rand_sets[26]: 647  LLC: 2048
rand_sets[26]: 647
Assign rand_sets[27]: 857  LLC: 2048
rand_sets[27]: 857
Assign rand_sets[28]: 1450  LLC: 2048
rand_sets[28]: 1450
Assign rand_sets[29]: 1160  LLC: 2048
rand_sets[29]: 1160
Assign rand_sets[30]: 1852  LLC: 2048
rand_sets[30]: 1852
Assign rand_sets[31]: 1881  LLC: 2048
rand_sets[31]: 1881
Assign rand_sets[32]: 1770  LLC: 2048
rand_sets[32]: 1770
Assign rand_sets[33]: 1622  LLC: 2048
rand_sets[33]: 1622
Assign rand_sets[34]: 275  LLC: 2048
rand_sets[34]: 275
Assign rand_sets[35]: 635  LLC: 2048
rand_sets[35]: 635
Assign rand_sets[36]: 466  LLC: 2048
rand_sets[36]: 466
Assign rand_sets[37]: 1413  LLC: 2048
rand_sets[37]: 1413
Assign rand_sets[38]: 417  LLC: 2048
rand_sets[38]: 417
Assign rand_sets[39]: 472  LLC: 2048
rand_sets[39]: 472
Assign rand_sets[40]: 1340  LLC: 2048
rand_sets[40]: 1340
Assign rand_sets[41]: 852  LLC: 2048
rand_sets[41]: 852
Assign rand_sets[42]: 1365  LLC: 2048
rand_sets[42]: 1365
Assign rand_sets[43]: 47  LLC: 2048
rand_sets[43]: 47
Assign rand_sets[44]: 823  LLC: 2048
rand_sets[44]: 823
Assign rand_sets[45]: 686  LLC: 2048
rand_sets[45]: 686
Assign rand_sets[46]: 1637  LLC: 2048
rand_sets[46]: 1637
Assign rand_sets[47]: 1115  LLC: 2048
rand_sets[47]: 1115
Assign rand_sets[48]: 986  LLC: 2048
rand_sets[48]: 986
Assign rand_sets[49]: 258  LLC: 2048
rand_sets[49]: 258
Assign rand_sets[50]: 633  LLC: 2048
rand_sets[50]: 633
Assign rand_sets[51]: 920  LLC: 2048
rand_sets[51]: 920
Assign rand_sets[52]: 204  LLC: 2048
rand_sets[52]: 204
Assign rand_sets[53]: 227  LLC: 2048
rand_sets[53]: 227
Assign rand_sets[54]: 1818  LLC: 2048
rand_sets[54]: 1818
Assign rand_sets[55]: 886  LLC: 2048
rand_sets[55]: 886
Assign rand_sets[56]: 1422  LLC: 2048
rand_sets[56]: 1422
Assign rand_sets[57]: 607  LLC: 2048
rand_sets[57]: 607
Assign rand_sets[58]: 217  LLC: 2048
rand_sets[58]: 217
Assign rand_sets[59]: 1945  LLC: 2048
rand_sets[59]: 1945
Assign rand_sets[60]: 143  LLC: 2048
rand_sets[60]: 143
Assign rand_sets[61]: 1311  LLC: 2048
rand_sets[61]: 1311
Assign rand_sets[62]: 319  LLC: 2048
rand_sets[62]: 319
Assign rand_sets[63]: 1846  LLC: 2048
rand_sets[63]: 1846
 CLEAN-RRIP-POLICY-1: 1-2-1-3-0-3-0-1- CLEAN-RRIP-POLICY-2: 1-2-1-3-0-3-0-1-
 DIRTY-RRIP-POLICY-1: 1-2-1-3-1-3-0-1- DIRTY-RRIP-POLICY-2: 1-2-1-3-1-3-0-1-
 PSEL width: 10
Heartbeat CPU 0 instructions: 10000000 cycles: 4124759 heartbeat IPC: 2.42438 cumulative IPC: 2.42438 (Simulation time: 0 hr 0 min 19 sec) 
Heartbeat CPU 0 instructions: 20000000 cycles: 8233863 heartbeat IPC: 2.43362 cumulative IPC: 2.42899 (Simulation time: 0 hr 0 min 35 sec) 
Heartbeat CPU 0 instructions: 30000003 cycles: 12464696 heartbeat IPC: 2.3636 cumulative IPC: 2.4068 (Simulation time: 0 hr 0 min 48 sec) 
Heartbeat CPU 0 instructions: 40000000 cycles: 16636669 heartbeat IPC: 2.39695 cumulative IPC: 2.40433 (Simulation time: 0 hr 1 min 4 sec) 
Heartbeat CPU 0 instructions: 50000000 cycles: 20699150 heartbeat IPC: 2.46155 cumulative IPC: 2.41556 (Simulation time: 0 hr 1 min 21 sec) 
Heartbeat CPU 0 instructions: 60000000 cycles: 25022641 heartbeat IPC: 2.31295 cumulative IPC: 2.39783 (Simulation time: 0 hr 1 min 36 sec) 
Heartbeat CPU 0 instructions: 70000000 cycles: 29370976 heartbeat IPC: 2.29973 cumulative IPC: 2.38331 (Simulation time: 0 hr 1 min 50 sec) 
Heartbeat CPU 0 instructions: 80000000 cycles: 33721096 heartbeat IPC: 2.29879 cumulative IPC: 2.3724 (Simulation time: 0 hr 2 min 6 sec) 
Heartbeat CPU 0 instructions: 90000002 cycles: 38032100 heartbeat IPC: 2.31965 cumulative IPC: 2.36642 (Simulation time: 0 hr 2 min 24 sec) 
Heartbeat CPU 0 instructions: 100000000 cycles: 42329016 heartbeat IPC: 2.32725 cumulative IPC: 2.36245 (Simulation time: 0 hr 2 min 41 sec) 

Warmup complete CPU 0 instructions: 100000001 cycles: 42329017 (Simulation time: 0 hr 2 min 41 sec) 

Heartbeat CPU 0 instructions: 110000001 cycles: 49410544 heartbeat IPC: 1.41212 cumulative IPC: 1.41212 (Simulation time: 0 hr 3 min 2 sec) 
Heartbeat CPU 0 instructions: 120000000 cycles: 58902069 heartbeat IPC: 1.05357 cumulative IPC: 1.20678 (Simulation time: 0 hr 3 min 24 sec) 
Heartbeat CPU 0 instructions: 130000000 cycles: 63758868 heartbeat IPC: 2.05897 cumulative IPC: 1.39992 (Simulation time: 0 hr 3 min 42 sec) 
Heartbeat CPU 0 instructions: 140000000 cycles: 68774333 heartbeat IPC: 1.99383 cumulative IPC: 1.51256 (Simulation time: 0 hr 4 min 5 sec) 
Heartbeat CPU 0 instructions: 150000002 cycles: 75614643 heartbeat IPC: 1.46192 cumulative IPC: 1.50215 (Simulation time: 0 hr 4 min 24 sec) 
Heartbeat CPU 0 instructions: 160000000 cycles: 83474101 heartbeat IPC: 1.27235 cumulative IPC: 1.45825 (Simulation time: 0 hr 4 min 41 sec) 
Heartbeat CPU 0 instructions: 170000000 cycles: 90907210 heartbeat IPC: 1.34533 cumulative IPC: 1.44098 (Simulation time: 0 hr 5 min 3 sec) 
Heartbeat CPU 0 instructions: 180000000 cycles: 98236205 heartbeat IPC: 1.36444 cumulative IPC: 1.43094 (Simulation time: 0 hr 5 min 26 sec) 
Heartbeat CPU 0 instructions: 190000002 cycles: 105435446 heartbeat IPC: 1.38904 cumulative IPC: 1.42616 (Simulation time: 0 hr 5 min 48 sec) 
Heartbeat CPU 0 instructions: 200000000 cycles: 112699341 heartbeat IPC: 1.37667 cumulative IPC: 1.42105 (Simulation time: 0 hr 6 min 9 sec) 
Heartbeat CPU 0 instructions: 210000000 cycles: 119555482 heartbeat IPC: 1.45855 cumulative IPC: 1.42438 (Simulation time: 0 hr 6 min 30 sec) 
Heartbeat CPU 0 instructions: 220000000 cycles: 126295170 heartbeat IPC: 1.48375 cumulative IPC: 1.42915 (Simulation time: 0 hr 6 min 49 sec) 
Heartbeat CPU 0 instructions: 230000003 cycles: 132940456 heartbeat IPC: 1.50483 cumulative IPC: 1.4347 (Simulation time: 0 hr 7 min 9 sec) 
Heartbeat CPU 0 instructions: 240000000 cycles: 139636944 heartbeat IPC: 1.49332 cumulative IPC: 1.43873 (Simulation time: 0 hr 7 min 30 sec) 
Heartbeat CPU 0 instructions: 250000001 cycles: 146304805 heartbeat IPC: 1.49973 cumulative IPC: 1.44264 (Simulation time: 0 hr 7 min 51 sec) 
Heartbeat CPU 0 instructions: 260000000 cycles: 152960922 heartbeat IPC: 1.50238 cumulative IPC: 1.44624 (Simulation time: 0 hr 8 min 10 sec) 
Heartbeat CPU 0 instructions: 270000001 cycles: 159872755 heartbeat IPC: 1.44679 cumulative IPC: 1.44627 (Simulation time: 0 hr 8 min 31 sec) 
Heartbeat CPU 0 instructions: 280000000 cycles: 167362408 heartbeat IPC: 1.33518 cumulative IPC: 1.43962 (Simulation time: 0 hr 8 min 53 sec) 
Heartbeat CPU 0 instructions: 290000000 cycles: 175267678 heartbeat IPC: 1.26498 cumulative IPC: 1.42923 (Simulation time: 0 hr 9 min 17 sec) 
Heartbeat CPU 0 instructions: 300000000 cycles: 183444792 heartbeat IPC: 1.22293 cumulative IPC: 1.41728 (Simulation time: 0 hr 9 min 41 sec) 
Heartbeat CPU 0 instructions: 310000002 cycles: 191763935 heartbeat IPC: 1.20205 cumulative IPC: 1.40529 (Simulation time: 0 hr 10 min 3 sec) 
Heartbeat CPU 0 instructions: 320000000 cycles: 201884136 heartbeat IPC: 0.988122 cumulative IPC: 1.37883 (Simulation time: 0 hr 10 min 27 sec) 
Heartbeat CPU 0 instructions: 330000002 cycles: 206574605 heartbeat IPC: 2.13198 cumulative IPC: 1.40034 (Simulation time: 0 hr 10 min 48 sec) 
Heartbeat CPU 0 instructions: 340000000 cycles: 211910691 heartbeat IPC: 1.87403 cumulative IPC: 1.41525 (Simulation time: 0 hr 11 min 14 sec) 
Heartbeat CPU 0 instructions: 350000000 cycles: 219139575 heartbeat IPC: 1.38334 cumulative IPC: 1.41394 (Simulation time: 0 hr 11 min 36 sec) 
Heartbeat CPU 0 instructions: 360000000 cycles: 226830940 heartbeat IPC: 1.30016 cumulative IPC: 1.4092 (Simulation time: 0 hr 11 min 56 sec) 
Heartbeat CPU 0 instructions: 370000000 cycles: 234262541 heartbeat IPC: 1.34561 cumulative IPC: 1.40674 (Simulation time: 0 hr 12 min 15 sec) 
Heartbeat CPU 0 instructions: 380000000 cycles: 241559937 heartbeat IPC: 1.37035 cumulative IPC: 1.4054 (Simulation time: 0 hr 12 min 38 sec) 
Heartbeat CPU 0 instructions: 390000000 cycles: 249694160 heartbeat IPC: 1.22937 cumulative IPC: 1.3985 (Simulation time: 0 hr 13 min 1 sec) 
Heartbeat CPU 0 instructions: 400000000 cycles: 257842754 heartbeat IPC: 1.22721 cumulative IPC: 1.39202 (Simulation time: 0 hr 13 min 26 sec) 
Heartbeat CPU 0 instructions: 410000001 cycles: 265618305 heartbeat IPC: 1.28608 cumulative IPC: 1.38833 (Simulation time: 0 hr 13 min 47 sec) 
Heartbeat CPU 0 instructions: 420000000 cycles: 273628609 heartbeat IPC: 1.24839 cumulative IPC: 1.38349 (Simulation time: 0 hr 14 min 7 sec) 
Heartbeat CPU 0 instructions: 430000001 cycles: 281854207 heartbeat IPC: 1.21572 cumulative IPC: 1.37773 (Simulation time: 0 hr 14 min 29 sec) 
Heartbeat CPU 0 instructions: 440000000 cycles: 289897172 heartbeat IPC: 1.24332 cumulative IPC: 1.37336 (Simulation time: 0 hr 14 min 51 sec) 
Heartbeat CPU 0 instructions: 450000001 cycles: 297771877 heartbeat IPC: 1.26989 cumulative IPC: 1.37017 (Simulation time: 0 hr 15 min 9 sec) 
Heartbeat CPU 0 instructions: 460000000 cycles: 307748254 heartbeat IPC: 1.00237 cumulative IPC: 1.35634 (Simulation time: 0 hr 15 min 33 sec) 
Heartbeat CPU 0 instructions: 470000002 cycles: 312428345 heartbeat IPC: 2.13671 cumulative IPC: 1.36987 (Simulation time: 0 hr 15 min 54 sec) 
Heartbeat CPU 0 instructions: 480000000 cycles: 317780006 heartbeat IPC: 1.86858 cumulative IPC: 1.37956 (Simulation time: 0 hr 16 min 10 sec) 
Heartbeat CPU 0 instructions: 490000001 cycles: 325110325 heartbeat IPC: 1.3642 cumulative IPC: 1.37916 (Simulation time: 0 hr 16 min 30 sec) 
Heartbeat CPU 0 instructions: 500000000 cycles: 333839294 heartbeat IPC: 1.14561 cumulative IPC: 1.37216 (Simulation time: 0 hr 16 min 54 sec) 
Heartbeat CPU 0 instructions: 510000002 cycles: 342569240 heartbeat IPC: 1.14548 cumulative IPC: 1.36557 (Simulation time: 0 hr 17 min 14 sec) 
Heartbeat CPU 0 instructions: 520000000 cycles: 351297194 heartbeat IPC: 1.14574 cumulative IPC: 1.35936 (Simulation time: 0 hr 17 min 34 sec) 
Heartbeat CPU 0 instructions: 530000000 cycles: 360003805 heartbeat IPC: 1.14855 cumulative IPC: 1.35359 (Simulation time: 0 hr 17 min 53 sec) 
Heartbeat CPU 0 instructions: 540000000 cycles: 368259039 heartbeat IPC: 1.21135 cumulative IPC: 1.34998 (Simulation time: 0 hr 18 min 12 sec) 
Heartbeat CPU 0 instructions: 550000000 cycles: 375302970 heartbeat IPC: 1.41966 cumulative IPC: 1.35146 (Simulation time: 0 hr 18 min 29 sec) 
Heartbeat CPU 0 instructions: 560000000 cycles: 381914299 heartbeat IPC: 1.51256 cumulative IPC: 1.35459 (Simulation time: 0 hr 18 min 45 sec) 
Heartbeat CPU 0 instructions: 570000002 cycles: 388494180 heartbeat IPC: 1.51978 cumulative IPC: 1.35773 (Simulation time: 0 hr 19 min 1 sec) 
Heartbeat CPU 0 instructions: 580000000 cycles: 395120808 heartbeat IPC: 1.50906 cumulative IPC: 1.36058 (Simulation time: 0 hr 19 min 18 sec) 
Heartbeat CPU 0 instructions: 590000002 cycles: 401788967 heartbeat IPC: 1.49966 cumulative IPC: 1.36316 (Simulation time: 0 hr 19 min 34 sec) 
Heartbeat CPU 0 instructions: 600000000 cycles: 408570299 heartbeat IPC: 1.47464 cumulative IPC: 1.36522 (Simulation time: 0 hr 19 min 51 sec) 
Finished CPU 0 instructions: 500000000 cycles: 366241290 cumulative IPC: 1.36522 (Simulation time: 0 hr 19 min 51 sec) 

CPU 0 Branch Prediction Accuracy: 93.4682% MPKI: 2.44079
Number of Branches: 18683822 Number of Mispredictions: 1220394
Number of LOAD Instructions: 142551610
Number of LOAD Instructions (ROI): 142551610
Number of STORE Instructions: 44807454
Number of STORE Instructions (ROI): 44807454
Total Destination Memory Operands: 48357071
Total Destination Memory Operands (ROI): 48357071
Total Source Memory Operands: 142551610
Total Source Memory Operands (ROI): 142551610
Number of DEPENDED LOADS: 7394143
Number of DEPENDED LOADS (ROI): 7394143
Number of SQ_ADDED: 48357051
Number of SQ_ADDED (ROI): 48357051
Number of LQ_ADDED: 157237222
Number of LQ_ADDED (ROI): 157237222
Number of Instructions read from trace: 600000256

ChampSim completed all CPUs

Region of Interest Statistics

CPU 0 cumulative IPC: 1.36522 instructions: 500000000 cycles: 366241290
ITLB TOTAL     ACCESS:   88182086  HIT:   88182017  MISS:         69
ITLB LOAD      ACCESS:   88182086  HIT:   88182017  MISS:         69
ITLB RFO       ACCESS:          0  HIT:          0  MISS:          0
ITLB PREFETCH  ACCESS:          0  HIT:          0  MISS:          0
ITLB WRITEBACK ACCESS:          0  HIT:          0  MISS:          0
ITLB PREFETCH  REQUESTED:          0  ISSUED:          0  USEFUL:          0  USELESS:          0
ITLB TOTAL MSHR MERGED:         85
ITLB LOAD MSHR MERGED:         85
ITLB RFO MSHR MERGED:          0
ITLB PREFETCH MSHR MERGED:          0
ITLB WRITEBACK MSHR MERGED:          0
ITLB TOTAL ACCESSES:   88182171 HITS:   88182017 MISSES:        154
ITLB LOAD ACCESSES:   88182171 HITS:   88182017 MISSES:        154
ITLB RFO ACCESSES:          0 HITS:          0 MISSES:          0
ITLB PREFETCH ACCESSES:          0 HITS:          0 MISSES:          0
ITLB WRITEBACK ACCESSES:          0 HITS:          0 MISSES:          0
ITLB RQ ACCESS:  500000000
ITLB RQ TO_CACHE:   88182171
ITLB RQ MERGED:  411817829
ITLB RQ FORWARD:          0
ITLB WQ ACCESS:          0
ITLB WQ TO_CACHE:          0
ITLB WQ MERGED:          0
ITLB WQ FORWARD:          0
DTLB TOTAL     ACCESS:   88204804  HIT:   88077386  MISS:     127418
DTLB LOAD      ACCESS:   59485958  HIT:   59393505  MISS:      92453
DTLB RFO       ACCESS:   28718846  HIT:   28683881  MISS:      34965
DTLB PREFETCH  ACCESS:          0  HIT:          0  MISS:          0
DTLB WRITEBACK ACCESS:          0  HIT:          0  MISS:          0
DTLB PREFETCH  REQUESTED:          0  ISSUED:          0  USEFUL:          0  USELESS:          0
DTLB TOTAL MSHR MERGED:     140785
DTLB LOAD MSHR MERGED:     107523
DTLB RFO MSHR MERGED:      33262
DTLB PREFETCH MSHR MERGED:          0
DTLB WRITEBACK MSHR MERGED:          0
DTLB TOTAL ACCESSES:   88345589 HITS:   88077386 MISSES:     268203
DTLB LOAD ACCESSES:   59593481 HITS:   59393505 MISSES:     199976
DTLB RFO ACCESSES:   28752108 HITS:   28683881 MISSES:      68227
DTLB PREFETCH ACCESSES:          0 HITS:          0 MISSES:          0
DTLB WRITEBACK ACCESSES:          0 HITS:          0 MISSES:          0
DTLB RQ ACCESS:  154559762
DTLB RQ TO_CACHE:   88345589
DTLB RQ MERGED:   66214173
DTLB RQ FORWARD:          0
DTLB WQ ACCESS:          0
DTLB WQ TO_CACHE:          0
DTLB WQ MERGED:          0
DTLB WQ FORWARD:          0
L1D TOTAL     ACCESS:  127760950  HIT:  124536946  MISS:    3224004
L1D LOAD      ACCESS:   53173565  HIT:   51977686  MISS:    1195879
L1D RFO       ACCESS:   37355550  HIT:   36741225  MISS:     614325
L1D PREFETCH  ACCESS:   37231835  HIT:   35818035  MISS:    1413800
L1D WRITEBACK ACCESS:          0  HIT:          0  MISS:          0
L1D PREFETCH  REQUESTED:   53662653  ISSUED:   52459143  USEFUL:     351543  USELESS:    1062222
L1D TOTAL MSHR MERGED:    3013799
L1D LOAD MSHR MERGED:     528432
L1D RFO MSHR MERGED:    1598435
L1D PREFETCH MSHR MERGED:     886932
L1D WRITEBACK MSHR MERGED:          0
L1D TOTAL ACCESSES:  130809319 HITS:  124571516 MISSES:    6237803
L1D LOAD ACCESSES:   53665224 HITS:   51980257 MISSES:    1684967
L1D RFO ACCESSES:   38952978 HITS:   36741225 MISSES:    2211753
L1D PREFETCH ACCESSES:   38191117 HITS:   35850034 MISSES:    2341083
L1D WRITEBACK ACCESSES:          0 HITS:          0 MISSES:          0
L1D RQ ACCESS:  113714870
L1D RQ TO_CACHE:   53662653
L1D RQ MERGED:   60049646
L1D RQ FORWARD:          0
L1D WQ ACCESS:   40844891
L1D WQ TO_CACHE:   38952978
L1D WQ MERGED:    1891913
L1D WQ FORWARD:      34570
L1I TOTAL     ACCESS:  108369473  HIT:  107810344  MISS:     559129
L1I LOAD      ACCESS:  108369473  HIT:  107810344  MISS:     559129
L1I RFO       ACCESS:          0  HIT:          0  MISS:          0
L1I PREFETCH  ACCESS:          0  HIT:          0  MISS:          0
L1I WRITEBACK ACCESS:          0  HIT:          0  MISS:          0
L1I PREFETCH  REQUESTED:          0  ISSUED:          0  USEFUL:          0  USELESS:          0
L1I TOTAL MSHR MERGED:     527667
L1I LOAD MSHR MERGED:     527667
L1I RFO MSHR MERGED:          0
L1I PREFETCH MSHR MERGED:          0
L1I WRITEBACK MSHR MERGED:          0
L1I TOTAL ACCESSES:  108897140 HITS:  107810344 MISSES:    1086796
L1I LOAD ACCESSES:  108897140 HITS:  107810344 MISSES:    1086796
L1I RFO ACCESSES:          0 HITS:          0 MISSES:          0
L1I PREFETCH ACCESSES:          0 HITS:          0 MISSES:          0
L1I WRITEBACK ACCESSES:          0 HITS:          0 MISSES:          0
L1I RQ ACCESS:  500000002
L1I RQ TO_CACHE:  108897140
L1I RQ MERGED:  391102862
L1I RQ FORWARD:          0
L1I WQ ACCESS:          0
L1I WQ TO_CACHE:          0
L1I WQ MERGED:          0
L1I WQ FORWARD:          0
L2C TOTAL     ACCESS:    4689534  HIT:    3865186  MISS:     824348
L2C LOAD      ACCESS:    1715561  HIT:    1562066  MISS:     153495
L2C RFO       ACCESS:     611902  HIT:     421171  MISS:     190731
L2C PREFETCH  ACCESS:    1659124  HIT:    1181191  MISS:     477933
L2C WRITEBACK ACCESS:     702947  HIT:     700758  MISS:       2189
L2C PREFETCH  REQUESTED:     256414  ISSUED:     256414  USEFUL:     172390  USELESS:     306209
L2C TOTAL MSHR MERGED:      11179
L2C LOAD MSHR MERGED:       3120
L2C RFO MSHR MERGED:          0
L2C PREFETCH MSHR MERGED:       8059
L2C WRITEBACK MSHR MERGED:          0
L2C TOTAL ACCESSES:    4711398 HITS:    3866772 MISSES:     844626
L2C LOAD ACCESSES:    1715664 HITS:    1562169 MISSES:     153495
L2C RFO ACCESSES:     613318 HITS:     422587 MISSES:     190731
L2C PREFETCH ACCESSES:    1679469 HITS:    1181258 MISSES:     498211
L2C WRITEBACK ACCESSES:     702947 HITS:     700758 MISSES:       2189
L2C RQ ACCESS:    2328982
L2C RQ TO_CACHE:    2327463
L2C RQ MERGED:          0
L2C RQ FORWARD:          0
L2C WQ ACCESS:     702947
L2C WQ TO_CACHE:     702947
L2C WQ MERGED:          0
L2C WQ FORWARD:       1586
LLC TOTAL     ACCESS:    1045543  HIT:     184850  MISS:     860693
LLC LOAD      ACCESS:     150371  HIT:      74992  MISS:      75379
LLC RFO       ACCESS:     190723  HIT:       5913  MISS:     184810
LLC PREFETCH  ACCESS:     483567  HIT:      68273  MISS:     415294
LLC WRITEBACK ACCESS:     220882  HIT:      35672  MISS:     185210
LLC PREFETCH  REQUESTED:          0  ISSUED:          0  USEFUL:       2089  USELESS:     413274
LLC TOTAL MSHR MERGED:       5169
LLC LOAD MSHR MERGED:       2432
LLC RFO MSHR MERGED:          0
LLC PREFETCH MSHR MERGED:       2737
LLC WRITEBACK MSHR MERGED:          0
LLC TOTAL ACCESSES:    1050724 HITS:     184862 MISSES:     865862
LLC LOAD ACCESSES:     150375 HITS:      74996 MISSES:      75379
LLC RFO ACCESSES:     190731 HITS:       5921 MISSES:     184810
LLC PREFETCH ACCESSES:     488736 HITS:      68273 MISSES:     420463
LLC WRITEBACK ACCESSES:     220882 HITS:      35672 MISSES:     185210
LLC 0 RQ ACCESS:     341106
LLC 0 RQ TO_CACHE:     341094
LLC 0 RQ MERGED:          0
LLC 0 RQ FORWARD:          0
LLC WQ ACCESS:     220882
LLC WQ TO_CACHE:     220882
LLC WQ MERGED:          0
LLC WQ FORWARD:         12
Major fault: 0 Minor fault: 6811
CPU 0 L1D next line prefetcher final stats
CPU 0 L2C PC-based stride prefetcher final stats
All Misses: 1001780
All Hits: 250746
SD Algo Stats - Switches: 0 SRR-Repls: 83242 BRR-Repls: 0

DRAM Statistics
 CHANNEL 0
 RQ ROW_BUFFER_HIT:     382533  ROW_BUFFER_MISS:     292791
 DBUS_CONGESTED:     477536
 WQ ROW_BUFFER_HIT:      55566  ROW_BUFFER_MISS:     155367  FULL:          0

 AVG_CONGESTED_CYCLE: 13
LOADS RETIRED: 119922929
INSTR RETIRED: 500000000
