
*** ChampSim Multicore Out-of-Order Simulator ***

Warmup Instructions: 100000000
Simulation Instructions: 500000000
Number of CPUs: 1
LLC sets: 2048
LLC ways: 16
Clean RRIP Policies: 2213230222132302 Dirty RRIP Policies: 2203130222031302 PSEL Width: 10 Track Set: 4294967295 PSEL Mask: 1 Demote Mask: 3042100030421000DS Algo: 0Window size: 0
Off-chip DRAM Size: 4096 MB Channels: 1 Width: 64-bit Data Rate: 1600 MT/s

CPU 0 runs /mnt/beegfs/iconst01/spec2017/Roms.trace.gz
NOT SORTED
TRACE STRING: /mnt/beegfs/iconst01/spec2017/Roms.trace.gz
SORTED
TRACE STRING: /mnt/beegfs/iconst01/spec2017/Roms.trace.gz
INITIAL
TRACE STRING: /mnt/beegfs/iconst01/spec2017/Roms.trace.gz

champsim_seed used: 417

CPU 0 L1D next line prefetcher
CPU 0 L2C IP-based stride prefetcher
Initialize DRRIP state
Assign rand_sets[0]: 454  LLC: 2048
rand_sets[0]: 454
Assign rand_sets[1]: 1662  LLC: 2048
rand_sets[1]: 1662
Assign rand_sets[2]: 1921  LLC: 2048
rand_sets[2]: 1921
Assign rand_sets[3]: 1131  LLC: 2048
rand_sets[3]: 1131
Assign rand_sets[4]: 331  LLC: 2048
rand_sets[4]: 331
Assign rand_sets[5]: 1531  LLC: 2048
rand_sets[5]: 1531
Assign rand_sets[6]: 482  LLC: 2048
rand_sets[6]: 482
Assign rand_sets[7]: 1275  LLC: 2048
rand_sets[7]: 1275
Assign rand_sets[8]: 1876  LLC: 2048
rand_sets[8]: 1876
Assign rand_sets[9]: 2038  LLC: 2048
rand_sets[9]: 2038
Assign rand_sets[10]: 701  LLC: 2048
rand_sets[10]: 701
Assign rand_sets[11]: 479  LLC: 2048
rand_sets[11]: 479
Assign rand_sets[12]: 892  LLC: 2048
rand_sets[12]: 892
Assign rand_sets[13]: 1820  LLC: 2048
rand_sets[13]: 1820
Assign rand_sets[14]: 1505  LLC: 2048
rand_sets[14]: 1505
Assign rand_sets[15]: 1159  LLC: 2048
rand_sets[15]: 1159
Assign rand_sets[16]: 513  LLC: 2048
rand_sets[16]: 513
Assign rand_sets[17]: 703  LLC: 2048
rand_sets[17]: 703
Assign rand_sets[18]: 561  LLC: 2048
rand_sets[18]: 561
Assign rand_sets[19]: 990  LLC: 2048
rand_sets[19]: 990
Assign rand_sets[20]: 342  LLC: 2048
rand_sets[20]: 342
Assign rand_sets[21]: 882  LLC: 2048
rand_sets[21]: 882
Assign rand_sets[22]: 15  LLC: 2048
rand_sets[22]: 15
Assign rand_sets[23]: 71  LLC: 2048
rand_sets[23]: 71
Assign rand_sets[24]: 1127  LLC: 2048
rand_sets[24]: 1127
Assign rand_sets[25]: 1382  LLC: 2048
rand_sets[25]: 1382
Assign rand_sets[26]: 647  LLC: 2048
rand_sets[26]: 647
Assign rand_sets[27]: 857  LLC: 2048
rand_sets[27]: 857
Assign rand_sets[28]: 1450  LLC: 2048
rand_sets[28]: 1450
Assign rand_sets[29]: 1160  LLC: 2048
rand_sets[29]: 1160
Assign rand_sets[30]: 1852  LLC: 2048
rand_sets[30]: 1852
Assign rand_sets[31]: 1881  LLC: 2048
rand_sets[31]: 1881
Assign rand_sets[32]: 1770  LLC: 2048
rand_sets[32]: 1770
Assign rand_sets[33]: 1622  LLC: 2048
rand_sets[33]: 1622
Assign rand_sets[34]: 275  LLC: 2048
rand_sets[34]: 275
Assign rand_sets[35]: 635  LLC: 2048
rand_sets[35]: 635
Assign rand_sets[36]: 466  LLC: 2048
rand_sets[36]: 466
Assign rand_sets[37]: 1413  LLC: 2048
rand_sets[37]: 1413
Assign rand_sets[38]: 417  LLC: 2048
rand_sets[38]: 417
Assign rand_sets[39]: 472  LLC: 2048
rand_sets[39]: 472
Assign rand_sets[40]: 1340  LLC: 2048
rand_sets[40]: 1340
Assign rand_sets[41]: 852  LLC: 2048
rand_sets[41]: 852
Assign rand_sets[42]: 1365  LLC: 2048
rand_sets[42]: 1365
Assign rand_sets[43]: 47  LLC: 2048
rand_sets[43]: 47
Assign rand_sets[44]: 823  LLC: 2048
rand_sets[44]: 823
Assign rand_sets[45]: 686  LLC: 2048
rand_sets[45]: 686
Assign rand_sets[46]: 1637  LLC: 2048
rand_sets[46]: 1637
Assign rand_sets[47]: 1115  LLC: 2048
rand_sets[47]: 1115
Assign rand_sets[48]: 986  LLC: 2048
rand_sets[48]: 986
Assign rand_sets[49]: 258  LLC: 2048
rand_sets[49]: 258
Assign rand_sets[50]: 633  LLC: 2048
rand_sets[50]: 633
Assign rand_sets[51]: 920  LLC: 2048
rand_sets[51]: 920
Assign rand_sets[52]: 204  LLC: 2048
rand_sets[52]: 204
Assign rand_sets[53]: 227  LLC: 2048
rand_sets[53]: 227
Assign rand_sets[54]: 1818  LLC: 2048
rand_sets[54]: 1818
Assign rand_sets[55]: 886  LLC: 2048
rand_sets[55]: 886
Assign rand_sets[56]: 1422  LLC: 2048
rand_sets[56]: 1422
Assign rand_sets[57]: 607  LLC: 2048
rand_sets[57]: 607
Assign rand_sets[58]: 217  LLC: 2048
rand_sets[58]: 217
Assign rand_sets[59]: 1945  LLC: 2048
rand_sets[59]: 1945
Assign rand_sets[60]: 143  LLC: 2048
rand_sets[60]: 143
Assign rand_sets[61]: 1311  LLC: 2048
rand_sets[61]: 1311
Assign rand_sets[62]: 319  LLC: 2048
rand_sets[62]: 319
Assign rand_sets[63]: 1846  LLC: 2048
rand_sets[63]: 1846
 CLEAN-RRIP-POLICY-1: 2-2-1-3-2-3-0-2- CLEAN-RRIP-POLICY-2: 2-2-1-3-2-3-0-2-
 DIRTY-RRIP-POLICY-1: 2-2-0-3-1-3-0-2- DIRTY-RRIP-POLICY-2: 2-2-0-3-1-3-0-2-
 PSEL width: 10
Heartbeat CPU 0 instructions: 10000000 cycles: 4688066 heartbeat IPC: 2.13308 cumulative IPC: 2.13308 (Simulation time: 0 hr 0 min 17 sec) 
Heartbeat CPU 0 instructions: 20000000 cycles: 9325334 heartbeat IPC: 2.15644 cumulative IPC: 2.1447 (Simulation time: 0 hr 0 min 35 sec) 
Heartbeat CPU 0 instructions: 30000003 cycles: 14019725 heartbeat IPC: 2.1302 cumulative IPC: 2.13984 (Simulation time: 0 hr 0 min 53 sec) 
Heartbeat CPU 0 instructions: 40000000 cycles: 18670142 heartbeat IPC: 2.15034 cumulative IPC: 2.14246 (Simulation time: 0 hr 1 min 10 sec) 
Heartbeat CPU 0 instructions: 50000003 cycles: 23323503 heartbeat IPC: 2.14898 cumulative IPC: 2.14376 (Simulation time: 0 hr 1 min 28 sec) 
Heartbeat CPU 0 instructions: 60000000 cycles: 27976148 heartbeat IPC: 2.14931 cumulative IPC: 2.14468 (Simulation time: 0 hr 1 min 45 sec) 
Heartbeat CPU 0 instructions: 70000002 cycles: 32367356 heartbeat IPC: 2.27728 cumulative IPC: 2.16267 (Simulation time: 0 hr 2 min 0 sec) 
Heartbeat CPU 0 instructions: 80000000 cycles: 36304198 heartbeat IPC: 2.54011 cumulative IPC: 2.2036 (Simulation time: 0 hr 2 min 12 sec) 
Heartbeat CPU 0 instructions: 90000000 cycles: 40249467 heartbeat IPC: 2.53468 cumulative IPC: 2.23605 (Simulation time: 0 hr 2 min 25 sec) 
Heartbeat CPU 0 instructions: 100000000 cycles: 44211792 heartbeat IPC: 2.52377 cumulative IPC: 2.26184 (Simulation time: 0 hr 2 min 37 sec) 

Warmup complete CPU 0 instructions: 100000002 cycles: 44211793 (Simulation time: 0 hr 2 min 37 sec) 

Heartbeat CPU 0 instructions: 110000000 cycles: 52893300 heartbeat IPC: 1.15187 cumulative IPC: 1.15187 (Simulation time: 0 hr 2 min 56 sec) 
Heartbeat CPU 0 instructions: 120000000 cycles: 61639975 heartbeat IPC: 1.14329 cumulative IPC: 1.14757 (Simulation time: 0 hr 3 min 16 sec) 
Heartbeat CPU 0 instructions: 130000002 cycles: 70434303 heartbeat IPC: 1.1371 cumulative IPC: 1.14406 (Simulation time: 0 hr 3 min 35 sec) 
Heartbeat CPU 0 instructions: 140000000 cycles: 79088621 heartbeat IPC: 1.15549 cumulative IPC: 1.14689 (Simulation time: 0 hr 3 min 55 sec) 
Heartbeat CPU 0 instructions: 150000003 cycles: 87893844 heartbeat IPC: 1.13569 cumulative IPC: 1.14463 (Simulation time: 0 hr 4 min 14 sec) 
Heartbeat CPU 0 instructions: 160000000 cycles: 98233697 heartbeat IPC: 0.967131 cumulative IPC: 1.11066 (Simulation time: 0 hr 4 min 36 sec) 
Heartbeat CPU 0 instructions: 170000000 cycles: 110725669 heartbeat IPC: 0.800514 cumulative IPC: 1.05241 (Simulation time: 0 hr 5 min 0 sec) 
Heartbeat CPU 0 instructions: 180000000 cycles: 123238417 heartbeat IPC: 0.799185 cumulative IPC: 1.01232 (Simulation time: 0 hr 5 min 24 sec) 
Heartbeat CPU 0 instructions: 190000000 cycles: 136017473 heartbeat IPC: 0.78253 cumulative IPC: 0.980331 (Simulation time: 0 hr 5 min 49 sec) 
Heartbeat CPU 0 instructions: 200000000 cycles: 149931828 heartbeat IPC: 0.718682 cumulative IPC: 0.945894 (Simulation time: 0 hr 6 min 13 sec) 
Heartbeat CPU 0 instructions: 210000001 cycles: 163877508 heartbeat IPC: 0.717068 cumulative IPC: 0.919227 (Simulation time: 0 hr 6 min 38 sec) 
Heartbeat CPU 0 instructions: 220000000 cycles: 177653092 heartbeat IPC: 0.725922 cumulative IPC: 0.899272 (Simulation time: 0 hr 7 min 2 sec) 
Heartbeat CPU 0 instructions: 230000000 cycles: 191279870 heartbeat IPC: 0.733849 cumulative IPC: 0.883944 (Simulation time: 0 hr 7 min 28 sec) 
Heartbeat CPU 0 instructions: 240000000 cycles: 204982416 heartbeat IPC: 0.729791 cumulative IPC: 0.870806 (Simulation time: 0 hr 7 min 53 sec) 
Heartbeat CPU 0 instructions: 250000003 cycles: 216117897 heartbeat IPC: 0.898031 cumulative IPC: 0.872569 (Simulation time: 0 hr 8 min 16 sec) 
Heartbeat CPU 0 instructions: 260000000 cycles: 223953674 heartbeat IPC: 1.2762 cumulative IPC: 0.890165 (Simulation time: 0 hr 8 min 37 sec) 
Heartbeat CPU 0 instructions: 270000003 cycles: 232261483 heartbeat IPC: 1.20369 cumulative IPC: 0.904016 (Simulation time: 0 hr 8 min 57 sec) 
Heartbeat CPU 0 instructions: 280000000 cycles: 240794920 heartbeat IPC: 1.17186 cumulative IPC: 0.915643 (Simulation time: 0 hr 9 min 18 sec) 
Heartbeat CPU 0 instructions: 290000000 cycles: 249470868 heartbeat IPC: 1.15261 cumulative IPC: 0.925659 (Simulation time: 0 hr 9 min 39 sec) 
Heartbeat CPU 0 instructions: 300000000 cycles: 258187832 heartbeat IPC: 1.14719 cumulative IPC: 0.934684 (Simulation time: 0 hr 10 min 1 sec) 
Heartbeat CPU 0 instructions: 310000000 cycles: 266950514 heartbeat IPC: 1.1412 cumulative IPC: 0.942809 (Simulation time: 0 hr 10 min 22 sec) 
Heartbeat CPU 0 instructions: 320000000 cycles: 275759075 heartbeat IPC: 1.13526 cumulative IPC: 0.95013 (Simulation time: 0 hr 10 min 45 sec) 
Heartbeat CPU 0 instructions: 330000002 cycles: 284543261 heartbeat IPC: 1.13841 cumulative IPC: 0.957012 (Simulation time: 0 hr 11 min 7 sec) 
Heartbeat CPU 0 instructions: 340000000 cycles: 294573274 heartbeat IPC: 0.997007 cumulative IPC: 0.958614 (Simulation time: 0 hr 11 min 30 sec) 
Heartbeat CPU 0 instructions: 350000001 cycles: 303035081 heartbeat IPC: 1.18178 cumulative IPC: 0.96591 (Simulation time: 0 hr 11 min 51 sec) 
Heartbeat CPU 0 instructions: 360000000 cycles: 311529902 heartbeat IPC: 1.17719 cumulative IPC: 0.972624 (Simulation time: 0 hr 12 min 12 sec) 
Heartbeat CPU 0 instructions: 370000001 cycles: 320020341 heartbeat IPC: 1.1778 cumulative IPC: 0.97894 (Simulation time: 0 hr 12 min 33 sec) 
Heartbeat CPU 0 instructions: 380000000 cycles: 328475985 heartbeat IPC: 1.18264 cumulative IPC: 0.984999 (Simulation time: 0 hr 12 min 55 sec) 
Heartbeat CPU 0 instructions: 390000001 cycles: 336769955 heartbeat IPC: 1.2057 cumulative IPC: 0.991256 (Simulation time: 0 hr 13 min 15 sec) 
Heartbeat CPU 0 instructions: 400000000 cycles: 345134909 heartbeat IPC: 1.19546 cumulative IPC: 0.996932 (Simulation time: 0 hr 13 min 36 sec) 
Heartbeat CPU 0 instructions: 410000003 cycles: 353423361 heartbeat IPC: 1.2065 cumulative IPC: 1.00255 (Simulation time: 0 hr 13 min 57 sec) 
Heartbeat CPU 0 instructions: 420000000 cycles: 361804096 heartbeat IPC: 1.19321 cumulative IPC: 1.00758 (Simulation time: 0 hr 14 min 18 sec) 
Heartbeat CPU 0 instructions: 430000001 cycles: 370097868 heartbeat IPC: 1.20572 cumulative IPC: 1.01262 (Simulation time: 0 hr 14 min 39 sec) 
Heartbeat CPU 0 instructions: 440000000 cycles: 378350996 heartbeat IPC: 1.21166 cumulative IPC: 1.01754 (Simulation time: 0 hr 15 min 0 sec) 
Heartbeat CPU 0 instructions: 450000001 cycles: 387898629 heartbeat IPC: 1.04738 cumulative IPC: 1.01837 (Simulation time: 0 hr 15 min 23 sec) 
Heartbeat CPU 0 instructions: 460000000 cycles: 396216335 heartbeat IPC: 1.20225 cumulative IPC: 1.02271 (Simulation time: 0 hr 15 min 44 sec) 
Heartbeat CPU 0 instructions: 470000003 cycles: 404394431 heartbeat IPC: 1.22278 cumulative IPC: 1.02726 (Simulation time: 0 hr 16 min 5 sec) 
Heartbeat CPU 0 instructions: 480000000 cycles: 412611334 heartbeat IPC: 1.217 cumulative IPC: 1.03149 (Simulation time: 0 hr 16 min 25 sec) 
Heartbeat CPU 0 instructions: 490000000 cycles: 420811404 heartbeat IPC: 1.2195 cumulative IPC: 1.03558 (Simulation time: 0 hr 16 min 46 sec) 
Heartbeat CPU 0 instructions: 500000000 cycles: 429017265 heartbeat IPC: 1.21864 cumulative IPC: 1.03949 (Simulation time: 0 hr 17 min 6 sec) 
Heartbeat CPU 0 instructions: 510000001 cycles: 437172914 heartbeat IPC: 1.22614 cumulative IPC: 1.04336 (Simulation time: 0 hr 17 min 26 sec) 
Heartbeat CPU 0 instructions: 520000000 cycles: 445369010 heartbeat IPC: 1.22009 cumulative IPC: 1.04697 (Simulation time: 0 hr 17 min 47 sec) 
Heartbeat CPU 0 instructions: 530000001 cycles: 453566197 heartbeat IPC: 1.21993 cumulative IPC: 1.05043 (Simulation time: 0 hr 18 min 7 sec) 
Heartbeat CPU 0 instructions: 540000000 cycles: 461924102 heartbeat IPC: 1.19647 cumulative IPC: 1.05336 (Simulation time: 0 hr 18 min 27 sec) 
Heartbeat CPU 0 instructions: 550000000 cycles: 470350099 heartbeat IPC: 1.1868 cumulative IPC: 1.056 (Simulation time: 0 hr 18 min 48 sec) 
Heartbeat CPU 0 instructions: 560000000 cycles: 478551172 heartbeat IPC: 1.21935 cumulative IPC: 1.05908 (Simulation time: 0 hr 19 min 8 sec) 
Heartbeat CPU 0 instructions: 570000001 cycles: 489803801 heartbeat IPC: 0.888681 cumulative IPC: 1.05478 (Simulation time: 0 hr 19 min 31 sec) 
Heartbeat CPU 0 instructions: 580000000 cycles: 500722338 heartbeat IPC: 0.915874 cumulative IPC: 1.05145 (Simulation time: 0 hr 19 min 52 sec) 
Heartbeat CPU 0 instructions: 590000001 cycles: 511910012 heartbeat IPC: 0.893841 cumulative IPC: 1.04768 (Simulation time: 0 hr 20 min 15 sec) 
Heartbeat CPU 0 instructions: 600000000 cycles: 522824595 heartbeat IPC: 0.916205 cumulative IPC: 1.04469 (Simulation time: 0 hr 20 min 37 sec) 
Finished CPU 0 instructions: 500000001 cycles: 478612815 cumulative IPC: 1.04469 (Simulation time: 0 hr 20 min 37 sec) 

CPU 0 Branch Prediction Accuracy: 99.7422% MPKI: 0.173296
Number of Branches: 33608403 Number of Mispredictions: 86648
Number of LOAD Instructions: 180215231
Number of LOAD Instructions (ROI): 180215231
Number of STORE Instructions: 36067263
Number of STORE Instructions (ROI): 36067263
Total Destination Memory Operands: 38428915
Total Destination Memory Operands (ROI): 38428915
Total Source Memory Operands: 180215231
Total Source Memory Operands (ROI): 180215231
Number of DEPENDED LOADS: 3041467
Number of DEPENDED LOADS (ROI): 3041467
Number of SQ_ADDED: 38428892
Number of SQ_ADDED (ROI): 38428892
Number of LQ_ADDED: 207745751
Number of LQ_ADDED (ROI): 207745751
Number of Instructions read from trace: 600000257

ChampSim completed all CPUs

Region of Interest Statistics

CPU 0 cumulative IPC: 1.04469 instructions: 500000001 cycles: 478612815
ITLB TOTAL     ACCESS:   91784100  HIT:   91784081  MISS:         19
ITLB LOAD      ACCESS:   91784100  HIT:   91784081  MISS:         19
ITLB RFO       ACCESS:          0  HIT:          0  MISS:          0
ITLB PREFETCH  ACCESS:          0  HIT:          0  MISS:          0
ITLB WRITEBACK ACCESS:          0  HIT:          0  MISS:          0
ITLB PREFETCH  REQUESTED:          0  ISSUED:          0  USEFUL:          0  USELESS:          0
ITLB TOTAL MSHR MERGED:         40
ITLB LOAD MSHR MERGED:         40
ITLB RFO MSHR MERGED:          0
ITLB PREFETCH MSHR MERGED:          0
ITLB WRITEBACK MSHR MERGED:          0
ITLB TOTAL ACCESSES:   91784140 HITS:   91784081 MISSES:         59
ITLB LOAD ACCESSES:   91784140 HITS:   91784081 MISSES:         59
ITLB RFO ACCESSES:          0 HITS:          0 MISSES:          0
ITLB PREFETCH ACCESSES:          0 HITS:          0 MISSES:          0
ITLB WRITEBACK ACCESSES:          0 HITS:          0 MISSES:          0
ITLB RQ ACCESS:  500000003
ITLB RQ TO_CACHE:   91784140
ITLB RQ MERGED:  408215863
ITLB RQ FORWARD:          0
ITLB WQ ACCESS:          0
ITLB WQ TO_CACHE:          0
ITLB WQ MERGED:          0
ITLB WQ FORWARD:          0
DTLB TOTAL     ACCESS:  142069920  HIT:  141703458  MISS:     366462
DTLB LOAD      ACCESS:  119423867  HIT:  119110281  MISS:     313586
DTLB RFO       ACCESS:   22646053  HIT:   22593177  MISS:      52876
DTLB PREFETCH  ACCESS:          0  HIT:          0  MISS:          0
DTLB WRITEBACK ACCESS:          0  HIT:          0  MISS:          0
DTLB PREFETCH  REQUESTED:          0  ISSUED:          0  USEFUL:          0  USELESS:          0
DTLB TOTAL MSHR MERGED:     288405
DTLB LOAD MSHR MERGED:     240585
DTLB RFO MSHR MERGED:      47820
DTLB PREFETCH MSHR MERGED:          0
DTLB WRITEBACK MSHR MERGED:          0
DTLB TOTAL ACCESSES:  142358325 HITS:  141703458 MISSES:     654867
DTLB LOAD ACCESSES:  119664452 HITS:  119110281 MISSES:     554171
DTLB RFO ACCESSES:   22693873 HITS:   22593177 MISSES:     100696
DTLB PREFETCH ACCESSES:          0 HITS:          0 MISSES:          0
DTLB WRITEBACK ACCESSES:          0 HITS:          0 MISSES:          0
DTLB RQ ACCESS:  184791510
DTLB RQ TO_CACHE:  142358325
DTLB RQ MERGED:   42433185
DTLB RQ FORWARD:          0
DTLB WQ ACCESS:          0
DTLB WQ TO_CACHE:          0
DTLB WQ MERGED:          0
DTLB WQ FORWARD:          0
L1D TOTAL     ACCESS:  190444909  HIT:  176991888  MISS:   13453021
L1D LOAD      ACCESS:  111991847  HIT:  108776987  MISS:    3214860
L1D RFO       ACCESS:   19047548  HIT:   16265801  MISS:    2781747
L1D PREFETCH  ACCESS:   59405514  HIT:   51949100  MISS:    7456414
L1D WRITEBACK ACCESS:          0  HIT:          0  MISS:          0
L1D PREFETCH  REQUESTED:  116521317  ISSUED:  115167464  USEFUL:    7246573  USELESS:     209841
L1D TOTAL MSHR MERGED:   31188830
L1D LOAD MSHR MERGED:    7187240
L1D RFO MSHR MERGED:    9205241
L1D PREFETCH MSHR MERGED:   14796349
L1D WRITEBACK MSHR MERGED:          0
L1D TOTAL ACCESSES:  221634153 HITS:  176992301 MISSES:   44641852
L1D LOAD ACCESSES:  116521341 HITS:  108777011 MISSES:    7744330
L1D RFO ACCESSES:   28252736 HITS:   16265801 MISSES:   11986935
L1D PREFETCH ACCESSES:   76860076 HITS:   51949489 MISSES:   24910587
L1D WRITEBACK ACCESSES:          0 HITS:          0 MISSES:          0
L1D RQ ACCESS:  156535444
L1D RQ TO_CACHE:  116521320
L1D RQ MERGED:   40014100
L1D RQ FORWARD:          0
L1D WQ ACCESS:   28256066
L1D WQ TO_CACHE:   28252736
L1D WQ MERGED:       3330
L1D WQ FORWARD:        413
L1I TOTAL     ACCESS:  115778150  HIT:  115777202  MISS:        948
L1I LOAD      ACCESS:  115778150  HIT:  115777202  MISS:        948
L1I RFO       ACCESS:          0  HIT:          0  MISS:          0
L1I PREFETCH  ACCESS:          0  HIT:          0  MISS:          0
L1I WRITEBACK ACCESS:          0  HIT:          0  MISS:          0
L1I PREFETCH  REQUESTED:          0  ISSUED:          0  USEFUL:          0  USELESS:          0
L1I TOTAL MSHR MERGED:       1585
L1I LOAD MSHR MERGED:       1585
L1I RFO MSHR MERGED:          0
L1I PREFETCH MSHR MERGED:          0
L1I WRITEBACK MSHR MERGED:          0
L1I TOTAL ACCESSES:  115779735 HITS:  115777202 MISSES:       2533
L1I LOAD ACCESSES:  115779735 HITS:  115777202 MISSES:       2533
L1I RFO ACCESSES:          0 HITS:          0 MISSES:          0
L1I PREFETCH ACCESSES:          0 HITS:          0 MISSES:          0
L1I WRITEBACK ACCESSES:          0 HITS:          0 MISSES:          0
L1I RQ ACCESS:  500000007
L1I RQ TO_CACHE:  115779735
L1I RQ MERGED:  384220272
L1I RQ FORWARD:          0
L1I WQ ACCESS:          0
L1I WQ TO_CACHE:          0
L1I WQ MERGED:          0
L1I WQ FORWARD:          0
L2C TOTAL     ACCESS:   16699070  HIT:    4854471  MISS:   11844599
L2C LOAD      ACCESS:     558009  HIT:      95555  MISS:     462454
L2C RFO       ACCESS:    2781694  HIT:     266659  MISS:    2515035
L2C PREFETCH  ACCESS:   10138732  HIT:    1273899  MISS:    8864833
L2C WRITEBACK ACCESS:    3220635  HIT:    3218358  MISS:       2277
L2C PREFETCH  REQUESTED:      26433  ISSUED:      26433  USEFUL:      93113  USELESS:    8769807
L2C TOTAL MSHR MERGED:        410
L2C LOAD MSHR MERGED:          9
L2C RFO MSHR MERGED:          0
L2C PREFETCH MSHR MERGED:        401
L2C WRITEBACK MSHR MERGED:          0
L2C TOTAL ACCESSES:   16699654 HITS:    4854522 MISSES:   11845132
L2C LOAD ACCESSES:     558038 HITS:      95584 MISSES:     462454
L2C RFO ACCESSES:    2781694 HITS:     266659 MISSES:    2515035
L2C PREFETCH ACCESSES:   10139287 HITS:    1273921 MISSES:    8865366
L2C WRITEBACK ACCESSES:    3220635 HITS:    3218358 MISSES:       2277
L2C RQ ACCESS:    3339732
L2C RQ TO_CACHE:    3339703
L2C RQ MERGED:          0
L2C RQ FORWARD:          0
L2C WQ ACCESS:    3220635
L2C WQ TO_CACHE:    3220635
L2C WQ MERGED:          0
L2C WQ FORWARD:         51
LLC TOTAL     ACCESS:   14742834  HIT:    7619920  MISS:    7122914
LLC LOAD      ACCESS:     462442  HIT:     193386  MISS:     269056
LLC RFO       ACCESS:    2515012  HIT:    1898935  MISS:     616077
LLC PREFETCH  ACCESS:    8864903  HIT:    3315749  MISS:    5549154
LLC WRITEBACK ACCESS:    2900477  HIT:    2211850  MISS:     688627
LLC PREFETCH  REQUESTED:          0  ISSUED:          0  USEFUL:       3600  USELESS:    5551475
LLC TOTAL MSHR MERGED:          0
LLC LOAD MSHR MERGED:          0
LLC RFO MSHR MERGED:          0
LLC PREFETCH MSHR MERGED:          0
LLC WRITEBACK MSHR MERGED:          0
LLC TOTAL ACCESSES:   14742906 HITS:    7619991 MISSES:    7122915
LLC LOAD ACCESSES:     462445 HITS:     193389 MISSES:     269056
LLC RFO ACCESSES:    2515035 HITS:    1898958 MISSES:     616077
LLC PREFETCH ACCESSES:    8864949 HITS:    3315794 MISSES:    5549155
LLC WRITEBACK ACCESSES:    2900477 HITS:    2211850 MISSES:     688627
LLC 0 RQ ACCESS:    2977480
LLC 0 RQ TO_CACHE:    2977454
LLC 0 RQ MERGED:          0
LLC 0 RQ FORWARD:          0
LLC WQ ACCESS:    2900477
LLC WQ TO_CACHE:    2900477
LLC WQ MERGED:          0
LLC WQ FORWARD:         71
Major fault: 0 Minor fault: 57518
CPU 0 L1D next line prefetcher final stats
CPU 0 L2C PC-based stride prefetcher final stats
All Misses: 7724348
All Hits: 8514659
SD Algo Stats - Switches: 0 SRR-Repls: 278454 BRR-Repls: 0

DRAM Statistics
 CHANNEL 0
 RQ ROW_BUFFER_HIT:    3672128  ROW_BUFFER_MISS:    2758843
 DBUS_CONGESTED:    2901404
 WQ ROW_BUFFER_HIT:      88752  ROW_BUFFER_MISS:     789811  FULL:          0

 AVG_CONGESTED_CYCLE: 12
LOADS RETIRED: 157818985
INSTR RETIRED: 500000000
