
*** ChampSim Multicore Out-of-Order Simulator ***

Warmup Instructions: 100000000
Simulation Instructions: 500000000
Number of CPUs: 1
LLC sets: 2048
LLC ways: 16
Clean RRIP Policies: 202030202020302 Dirty RRIP Policies: 2202031222020312 PSEL Width: 10 Track Set: 4294967295 PSEL Mask: 1 Demote Mask: 4411021444110214DS Algo: 0Window size: 0
Off-chip DRAM Size: 4096 MB Channels: 1 Width: 64-bit Data Rate: 1600 MT/s

CPU 0 runs /mnt/beegfs/iconst01/spec2017/Cam4.trace.gz
NOT SORTED
TRACE STRING: /mnt/beegfs/iconst01/spec2017/Cam4.trace.gz
SORTED
TRACE STRING: /mnt/beegfs/iconst01/spec2017/Cam4.trace.gz
INITIAL
TRACE STRING: /mnt/beegfs/iconst01/spec2017/Cam4.trace.gz

champsim_seed used: 325

CPU 0 L1D next line prefetcher
CPU 0 L2C IP-based stride prefetcher
Initialize DRRIP state
Assign rand_sets[0]: 454  LLC: 2048
rand_sets[0]: 454
Assign rand_sets[1]: 1662  LLC: 2048
rand_sets[1]: 1662
Assign rand_sets[2]: 1921  LLC: 2048
rand_sets[2]: 1921
Assign rand_sets[3]: 1131  LLC: 2048
rand_sets[3]: 1131
Assign rand_sets[4]: 331  LLC: 2048
rand_sets[4]: 331
Assign rand_sets[5]: 1531  LLC: 2048
rand_sets[5]: 1531
Assign rand_sets[6]: 482  LLC: 2048
rand_sets[6]: 482
Assign rand_sets[7]: 1275  LLC: 2048
rand_sets[7]: 1275
Assign rand_sets[8]: 1876  LLC: 2048
rand_sets[8]: 1876
Assign rand_sets[9]: 2038  LLC: 2048
rand_sets[9]: 2038
Assign rand_sets[10]: 701  LLC: 2048
rand_sets[10]: 701
Assign rand_sets[11]: 479  LLC: 2048
rand_sets[11]: 479
Assign rand_sets[12]: 892  LLC: 2048
rand_sets[12]: 892
Assign rand_sets[13]: 1820  LLC: 2048
rand_sets[13]: 1820
Assign rand_sets[14]: 1505  LLC: 2048
rand_sets[14]: 1505
Assign rand_sets[15]: 1159  LLC: 2048
rand_sets[15]: 1159
Assign rand_sets[16]: 513  LLC: 2048
rand_sets[16]: 513
Assign rand_sets[17]: 703  LLC: 2048
rand_sets[17]: 703
Assign rand_sets[18]: 561  LLC: 2048
rand_sets[18]: 561
Assign rand_sets[19]: 990  LLC: 2048
rand_sets[19]: 990
Assign rand_sets[20]: 342  LLC: 2048
rand_sets[20]: 342
Assign rand_sets[21]: 882  LLC: 2048
rand_sets[21]: 882
Assign rand_sets[22]: 15  LLC: 2048
rand_sets[22]: 15
Assign rand_sets[23]: 71  LLC: 2048
rand_sets[23]: 71
Assign rand_sets[24]: 1127  LLC: 2048
rand_sets[24]: 1127
Assign rand_sets[25]: 1382  LLC: 2048
rand_sets[25]: 1382
Assign rand_sets[26]: 647  LLC: 2048
rand_sets[26]: 647
Assign rand_sets[27]: 857  LLC: 2048
rand_sets[27]: 857
Assign rand_sets[28]: 1450  LLC: 2048
rand_sets[28]: 1450
Assign rand_sets[29]: 1160  LLC: 2048
rand_sets[29]: 1160
Assign rand_sets[30]: 1852  LLC: 2048
rand_sets[30]: 1852
Assign rand_sets[31]: 1881  LLC: 2048
rand_sets[31]: 1881
Assign rand_sets[32]: 1770  LLC: 2048
rand_sets[32]: 1770
Assign rand_sets[33]: 1622  LLC: 2048
rand_sets[33]: 1622
Assign rand_sets[34]: 275  LLC: 2048
rand_sets[34]: 275
Assign rand_sets[35]: 635  LLC: 2048
rand_sets[35]: 635
Assign rand_sets[36]: 466  LLC: 2048
rand_sets[36]: 466
Assign rand_sets[37]: 1413  LLC: 2048
rand_sets[37]: 1413
Assign rand_sets[38]: 417  LLC: 2048
rand_sets[38]: 417
Assign rand_sets[39]: 472  LLC: 2048
rand_sets[39]: 472
Assign rand_sets[40]: 1340  LLC: 2048
rand_sets[40]: 1340
Assign rand_sets[41]: 852  LLC: 2048
rand_sets[41]: 852
Assign rand_sets[42]: 1365  LLC: 2048
rand_sets[42]: 1365
Assign rand_sets[43]: 47  LLC: 2048
rand_sets[43]: 47
Assign rand_sets[44]: 823  LLC: 2048
rand_sets[44]: 823
Assign rand_sets[45]: 686  LLC: 2048
rand_sets[45]: 686
Assign rand_sets[46]: 1637  LLC: 2048
rand_sets[46]: 1637
Assign rand_sets[47]: 1115  LLC: 2048
rand_sets[47]: 1115
Assign rand_sets[48]: 986  LLC: 2048
rand_sets[48]: 986
Assign rand_sets[49]: 258  LLC: 2048
rand_sets[49]: 258
Assign rand_sets[50]: 633  LLC: 2048
rand_sets[50]: 633
Assign rand_sets[51]: 920  LLC: 2048
rand_sets[51]: 920
Assign rand_sets[52]: 204  LLC: 2048
rand_sets[52]: 204
Assign rand_sets[53]: 227  LLC: 2048
rand_sets[53]: 227
Assign rand_sets[54]: 1818  LLC: 2048
rand_sets[54]: 1818
Assign rand_sets[55]: 886  LLC: 2048
rand_sets[55]: 886
Assign rand_sets[56]: 1422  LLC: 2048
rand_sets[56]: 1422
Assign rand_sets[57]: 607  LLC: 2048
rand_sets[57]: 607
Assign rand_sets[58]: 217  LLC: 2048
rand_sets[58]: 217
Assign rand_sets[59]: 1945  LLC: 2048
rand_sets[59]: 1945
Assign rand_sets[60]: 143  LLC: 2048
rand_sets[60]: 143
Assign rand_sets[61]: 1311  LLC: 2048
rand_sets[61]: 1311
Assign rand_sets[62]: 319  LLC: 2048
rand_sets[62]: 319
Assign rand_sets[63]: 1846  LLC: 2048
rand_sets[63]: 1846
 CLEAN-RRIP-POLICY-1: 0-2-0-2-0-3-0-2- CLEAN-RRIP-POLICY-2: 0-2-0-2-0-3-0-2-
 DIRTY-RRIP-POLICY-1: 2-2-0-2-0-3-1-2- DIRTY-RRIP-POLICY-2: 2-2-0-2-0-3-1-2-
 PSEL width: 10
Heartbeat CPU 0 instructions: 10000000 cycles: 4859184 heartbeat IPC: 2.05796 cumulative IPC: 2.05796 (Simulation time: 0 hr 0 min 16 sec) 
Heartbeat CPU 0 instructions: 20000000 cycles: 9790761 heartbeat IPC: 2.02775 cumulative IPC: 2.04274 (Simulation time: 0 hr 0 min 33 sec) 
Heartbeat CPU 0 instructions: 30000001 cycles: 14563028 heartbeat IPC: 2.09544 cumulative IPC: 2.06001 (Simulation time: 0 hr 0 min 48 sec) 
Heartbeat CPU 0 instructions: 40000000 cycles: 19400063 heartbeat IPC: 2.06738 cumulative IPC: 2.06185 (Simulation time: 0 hr 1 min 5 sec) 
Heartbeat CPU 0 instructions: 50000000 cycles: 24256586 heartbeat IPC: 2.05909 cumulative IPC: 2.0613 (Simulation time: 0 hr 1 min 22 sec) 
Heartbeat CPU 0 instructions: 60000000 cycles: 29182095 heartbeat IPC: 2.03025 cumulative IPC: 2.05606 (Simulation time: 0 hr 1 min 38 sec) 
Heartbeat CPU 0 instructions: 70000001 cycles: 33957299 heartbeat IPC: 2.09415 cumulative IPC: 2.06141 (Simulation time: 0 hr 1 min 53 sec) 
Heartbeat CPU 0 instructions: 80000000 cycles: 38793600 heartbeat IPC: 2.0677 cumulative IPC: 2.0622 (Simulation time: 0 hr 2 min 10 sec) 
Heartbeat CPU 0 instructions: 90000002 cycles: 43647662 heartbeat IPC: 2.06013 cumulative IPC: 2.06197 (Simulation time: 0 hr 2 min 27 sec) 
Heartbeat CPU 0 instructions: 100000000 cycles: 48566533 heartbeat IPC: 2.03299 cumulative IPC: 2.05903 (Simulation time: 0 hr 2 min 44 sec) 

Warmup complete CPU 0 instructions: 100000001 cycles: 48566534 (Simulation time: 0 hr 2 min 44 sec) 

Heartbeat CPU 0 instructions: 110000000 cycles: 61573341 heartbeat IPC: 0.768828 cumulative IPC: 0.768828 (Simulation time: 0 hr 3 min 6 sec) 
Heartbeat CPU 0 instructions: 120000000 cycles: 75351393 heartbeat IPC: 0.725792 cumulative IPC: 0.74669 (Simulation time: 0 hr 3 min 31 sec) 
Heartbeat CPU 0 instructions: 130000000 cycles: 89139392 heartbeat IPC: 0.725268 cumulative IPC: 0.739411 (Simulation time: 0 hr 3 min 56 sec) 
Heartbeat CPU 0 instructions: 140000000 cycles: 103433892 heartbeat IPC: 0.69957 cumulative IPC: 0.729031 (Simulation time: 0 hr 4 min 21 sec) 
Heartbeat CPU 0 instructions: 150000003 cycles: 116527155 heartbeat IPC: 0.763752 cumulative IPC: 0.73572 (Simulation time: 0 hr 4 min 44 sec) 
Heartbeat CPU 0 instructions: 160000000 cycles: 130318249 heartbeat IPC: 0.725105 cumulative IPC: 0.73393 (Simulation time: 0 hr 5 min 10 sec) 
Heartbeat CPU 0 instructions: 170000001 cycles: 144143160 heartbeat IPC: 0.723332 cumulative IPC: 0.732397 (Simulation time: 0 hr 5 min 35 sec) 
Heartbeat CPU 0 instructions: 180000000 cycles: 158425799 heartbeat IPC: 0.700151 cumulative IPC: 0.728204 (Simulation time: 0 hr 6 min 0 sec) 
Heartbeat CPU 0 instructions: 190000003 cycles: 171521618 heartbeat IPC: 0.763603 cumulative IPC: 0.731975 (Simulation time: 0 hr 6 min 23 sec) 
Heartbeat CPU 0 instructions: 200000000 cycles: 185315238 heartbeat IPC: 0.724973 cumulative IPC: 0.731268 (Simulation time: 0 hr 6 min 48 sec) 
Heartbeat CPU 0 instructions: 210000002 cycles: 199145851 heartbeat IPC: 0.723034 cumulative IPC: 0.730512 (Simulation time: 0 hr 7 min 13 sec) 
Heartbeat CPU 0 instructions: 220000000 cycles: 213437222 heartbeat IPC: 0.699723 cumulative IPC: 0.727843 (Simulation time: 0 hr 7 min 38 sec) 
Heartbeat CPU 0 instructions: 230000001 cycles: 226510243 heartbeat IPC: 0.764934 cumulative IPC: 0.730568 (Simulation time: 0 hr 8 min 1 sec) 
Heartbeat CPU 0 instructions: 240000000 cycles: 240307002 heartbeat IPC: 0.724808 cumulative IPC: 0.730154 (Simulation time: 0 hr 8 min 26 sec) 
Heartbeat CPU 0 instructions: 250000001 cycles: 254092514 heartbeat IPC: 0.725399 cumulative IPC: 0.729835 (Simulation time: 0 hr 8 min 51 sec) 
Heartbeat CPU 0 instructions: 260000000 cycles: 268285903 heartbeat IPC: 0.704553 cumulative IPC: 0.728202 (Simulation time: 0 hr 9 min 16 sec) 
Heartbeat CPU 0 instructions: 270000003 cycles: 281503015 heartbeat IPC: 0.756595 cumulative IPC: 0.729813 (Simulation time: 0 hr 9 min 39 sec) 
Heartbeat CPU 0 instructions: 280000000 cycles: 295317913 heartbeat IPC: 0.723856 cumulative IPC: 0.729479 (Simulation time: 0 hr 10 min 4 sec) 
Heartbeat CPU 0 instructions: 290000001 cycles: 309142248 heartbeat IPC: 0.723362 cumulative IPC: 0.729155 (Simulation time: 0 hr 10 min 29 sec) 
Heartbeat CPU 0 instructions: 300000000 cycles: 323275099 heartbeat IPC: 0.707571 cumulative IPC: 0.728044 (Simulation time: 0 hr 10 min 54 sec) 
Heartbeat CPU 0 instructions: 310000000 cycles: 336542596 heartbeat IPC: 0.753722 cumulative IPC: 0.729227 (Simulation time: 0 hr 11 min 17 sec) 
Heartbeat CPU 0 instructions: 320000000 cycles: 350410369 heartbeat IPC: 0.721096 cumulative IPC: 0.728854 (Simulation time: 0 hr 11 min 42 sec) 
Heartbeat CPU 0 instructions: 330000000 cycles: 364260098 heartbeat IPC: 0.722036 cumulative IPC: 0.728555 (Simulation time: 0 hr 12 min 7 sec) 
Heartbeat CPU 0 instructions: 340000000 cycles: 378354061 heartbeat IPC: 0.709524 cumulative IPC: 0.727741 (Simulation time: 0 hr 12 min 32 sec) 
Heartbeat CPU 0 instructions: 350000000 cycles: 391686958 heartbeat IPC: 0.750025 cumulative IPC: 0.728607 (Simulation time: 0 hr 12 min 55 sec) 
Heartbeat CPU 0 instructions: 360000000 cycles: 405576854 heartbeat IPC: 0.719948 cumulative IPC: 0.72827 (Simulation time: 0 hr 13 min 20 sec) 
Heartbeat CPU 0 instructions: 370000003 cycles: 419437601 heartbeat IPC: 0.721462 cumulative IPC: 0.728016 (Simulation time: 0 hr 13 min 45 sec) 
Heartbeat CPU 0 instructions: 380000000 cycles: 433510594 heartbeat IPC: 0.710581 cumulative IPC: 0.727378 (Simulation time: 0 hr 14 min 10 sec) 
Heartbeat CPU 0 instructions: 390000003 cycles: 446875865 heartbeat IPC: 0.748208 cumulative IPC: 0.728077 (Simulation time: 0 hr 14 min 32 sec) 
Heartbeat CPU 0 instructions: 400000000 cycles: 460764208 heartbeat IPC: 0.720028 cumulative IPC: 0.727806 (Simulation time: 0 hr 14 min 57 sec) 
Heartbeat CPU 0 instructions: 410000000 cycles: 474585833 heartbeat IPC: 0.723504 cumulative IPC: 0.727667 (Simulation time: 0 hr 15 min 22 sec) 
Heartbeat CPU 0 instructions: 420000000 cycles: 488650648 heartbeat IPC: 0.710994 cumulative IPC: 0.727134 (Simulation time: 0 hr 15 min 47 sec) 
Heartbeat CPU 0 instructions: 430000003 cycles: 502058941 heartbeat IPC: 0.745807 cumulative IPC: 0.727686 (Simulation time: 0 hr 16 min 10 sec) 
Heartbeat CPU 0 instructions: 440000000 cycles: 515944727 heartbeat IPC: 0.720161 cumulative IPC: 0.727462 (Simulation time: 0 hr 16 min 35 sec) 
Heartbeat CPU 0 instructions: 450000000 cycles: 529789471 heartbeat IPC: 0.722296 cumulative IPC: 0.727314 (Simulation time: 0 hr 16 min 59 sec) 
Heartbeat CPU 0 instructions: 460000000 cycles: 543839535 heartbeat IPC: 0.711741 cumulative IPC: 0.726872 (Simulation time: 0 hr 17 min 24 sec) 
Heartbeat CPU 0 instructions: 470000001 cycles: 557231600 heartbeat IPC: 0.746711 cumulative IPC: 0.727394 (Simulation time: 0 hr 17 min 47 sec) 
Heartbeat CPU 0 instructions: 480000000 cycles: 571086329 heartbeat IPC: 0.721775 cumulative IPC: 0.727245 (Simulation time: 0 hr 18 min 12 sec) 
Heartbeat CPU 0 instructions: 490000002 cycles: 584902506 heartbeat IPC: 0.723789 cumulative IPC: 0.727156 (Simulation time: 0 hr 18 min 37 sec) 
Heartbeat CPU 0 instructions: 500000000 cycles: 598955740 heartbeat IPC: 0.71158 cumulative IPC: 0.726758 (Simulation time: 0 hr 19 min 2 sec) 
Heartbeat CPU 0 instructions: 510000002 cycles: 612382581 heartbeat IPC: 0.744777 cumulative IPC: 0.727188 (Simulation time: 0 hr 19 min 24 sec) 
Heartbeat CPU 0 instructions: 520000000 cycles: 626231422 heartbeat IPC: 0.722082 cumulative IPC: 0.727065 (Simulation time: 0 hr 19 min 49 sec) 
Heartbeat CPU 0 instructions: 530000003 cycles: 640044443 heartbeat IPC: 0.723955 cumulative IPC: 0.726992 (Simulation time: 0 hr 20 min 14 sec) 
Heartbeat CPU 0 instructions: 540000000 cycles: 654129681 heartbeat IPC: 0.709963 cumulative IPC: 0.726596 (Simulation time: 0 hr 20 min 39 sec) 
Heartbeat CPU 0 instructions: 550000003 cycles: 667578384 heartbeat IPC: 0.743566 cumulative IPC: 0.726965 (Simulation time: 0 hr 21 min 2 sec) 
Heartbeat CPU 0 instructions: 560000000 cycles: 681407894 heartbeat IPC: 0.723091 cumulative IPC: 0.72688 (Simulation time: 0 hr 21 min 26 sec) 
Heartbeat CPU 0 instructions: 570000001 cycles: 695248227 heartbeat IPC: 0.722526 cumulative IPC: 0.726787 (Simulation time: 0 hr 21 min 51 sec) 
Heartbeat CPU 0 instructions: 580000000 cycles: 709366628 heartbeat IPC: 0.708295 cumulative IPC: 0.726392 (Simulation time: 0 hr 22 min 16 sec) 
Heartbeat CPU 0 instructions: 590000000 cycles: 722793752 heartbeat IPC: 0.744761 cumulative IPC: 0.726758 (Simulation time: 0 hr 22 min 39 sec) 
Heartbeat CPU 0 instructions: 600000000 cycles: 736634823 heartbeat IPC: 0.722487 cumulative IPC: 0.726672 (Simulation time: 0 hr 23 min 4 sec) 
Finished CPU 0 instructions: 500000001 cycles: 688068297 cumulative IPC: 0.726672 (Simulation time: 0 hr 23 min 4 sec) 

CPU 0 Branch Prediction Accuracy: 97.5275% MPKI: 2.1997
Number of Branches: 44482865 Number of Mispredictions: 1099852
Number of LOAD Instructions: 144955155
Number of LOAD Instructions (ROI): 144955155
Number of STORE Instructions: 55921098
Number of STORE Instructions (ROI): 55921098
Total Destination Memory Operands: 57111147
Total Destination Memory Operands (ROI): 57111147
Total Source Memory Operands: 144955155
Total Source Memory Operands (ROI): 144955155
Number of DEPENDED LOADS: 13454022
Number of DEPENDED LOADS (ROI): 13454022
Number of SQ_ADDED: 57111126
Number of SQ_ADDED (ROI): 57111126
Number of LQ_ADDED: 174337442
Number of LQ_ADDED (ROI): 174337442
Number of Instructions read from trace: 600000256

ChampSim completed all CPUs

Region of Interest Statistics

CPU 0 cumulative IPC: 0.726672 instructions: 500000001 cycles: 688068297
ITLB TOTAL     ACCESS:  136079551  HIT:  136076998  MISS:       2553
ITLB LOAD      ACCESS:  136079551  HIT:  136076998  MISS:       2553
ITLB RFO       ACCESS:          0  HIT:          0  MISS:          0
ITLB PREFETCH  ACCESS:          0  HIT:          0  MISS:          0
ITLB WRITEBACK ACCESS:          0  HIT:          0  MISS:          0
ITLB PREFETCH  REQUESTED:          0  ISSUED:          0  USEFUL:          0  USELESS:          0
ITLB TOTAL MSHR MERGED:       4369
ITLB LOAD MSHR MERGED:       4369
ITLB RFO MSHR MERGED:          0
ITLB PREFETCH MSHR MERGED:          0
ITLB WRITEBACK MSHR MERGED:          0
ITLB TOTAL ACCESSES:  136083920 HITS:  136076998 MISSES:       6922
ITLB LOAD ACCESSES:  136083920 HITS:  136076998 MISSES:       6922
ITLB RFO ACCESSES:          0 HITS:          0 MISSES:          0
ITLB PREFETCH ACCESSES:          0 HITS:          0 MISSES:          0
ITLB WRITEBACK ACCESSES:          0 HITS:          0 MISSES:          0
ITLB RQ ACCESS:  500000202
ITLB RQ TO_CACHE:  136083920
ITLB RQ MERGED:  363916282
ITLB RQ FORWARD:          0
ITLB WQ ACCESS:          0
ITLB WQ TO_CACHE:          0
ITLB WQ MERGED:          0
ITLB WQ FORWARD:          0
DTLB TOTAL     ACCESS:  111554644  HIT:  111418453  MISS:     136191
DTLB LOAD      ACCESS:   78952696  HIT:   78827073  MISS:     125623
DTLB RFO       ACCESS:   32601948  HIT:   32591380  MISS:      10568
DTLB PREFETCH  ACCESS:          0  HIT:          0  MISS:          0
DTLB WRITEBACK ACCESS:          0  HIT:          0  MISS:          0
DTLB PREFETCH  REQUESTED:          0  ISSUED:          0  USEFUL:          0  USELESS:          0
DTLB TOTAL MSHR MERGED:      63900
DTLB LOAD MSHR MERGED:      50886
DTLB RFO MSHR MERGED:      13014
DTLB PREFETCH MSHR MERGED:          0
DTLB WRITEBACK MSHR MERGED:          0
DTLB TOTAL ACCESSES:  111618544 HITS:  111418453 MISSES:     200091
DTLB LOAD ACCESSES:   79003582 HITS:   78827073 MISSES:     176509
DTLB RFO ACCESSES:   32614962 HITS:   32591380 MISSES:      23582
DTLB PREFETCH ACCESSES:          0 HITS:          0 MISSES:          0
DTLB WRITEBACK ACCESSES:          0 HITS:          0 MISSES:          0
DTLB RQ ACCESS:  157181402
DTLB RQ TO_CACHE:  111618544
DTLB RQ MERGED:   45562858
DTLB RQ FORWARD:          0
DTLB WQ ACCESS:          0
DTLB WQ TO_CACHE:          0
DTLB WQ MERGED:          0
DTLB WQ FORWARD:          0
L1D TOTAL     ACCESS:  198232028  HIT:  188390979  MISS:    9841049
L1D LOAD      ACCESS:   79942582  HIT:   75676716  MISS:    4265866
L1D RFO       ACCESS:   44534610  HIT:   43634665  MISS:     899945
L1D PREFETCH  ACCESS:   73754836  HIT:   69079598  MISS:    4675238
L1D WRITEBACK ACCESS:          0  HIT:          0  MISS:          0
L1D PREFETCH  REQUESTED:   80350136  ISSUED:   79894515  USEFUL:    1816908  USELESS:    2858239
L1D TOTAL MSHR MERGED:    2512840
L1D LOAD MSHR MERGED:     534279
L1D RFO MSHR MERGED:    1418113
L1D PREFETCH MSHR MERGED:     560448
L1D WRITEBACK MSHR MERGED:          0
L1D TOTAL ACCESSES:  200765856 HITS:  188411967 MISSES:   12353889
L1D LOAD ACCESSES:   80362516 HITS:   75689096 MISSES:    4673420
L1D RFO ACCESSES:   45950091 HITS:   43634665 MISSES:    2315426
L1D PREFETCH ACCESSES:   74453249 HITS:   69088206 MISSES:    5365043
L1D WRITEBACK ACCESSES:          0 HITS:          0 MISSES:          0
L1D RQ ACCESS:  109539432
L1D RQ TO_CACHE:   80350136
L1D RQ MERGED:   29176916
L1D RQ FORWARD:          0
L1D WQ ACCESS:   47641970
L1D WQ TO_CACHE:   45950091
L1D WQ MERGED:    1691879
L1D WQ FORWARD:      20988
L1I TOTAL     ACCESS:  161548668  HIT:  161284718  MISS:     263950
L1I LOAD      ACCESS:  161548668  HIT:  161284718  MISS:     263950
L1I RFO       ACCESS:          0  HIT:          0  MISS:          0
L1I PREFETCH  ACCESS:          0  HIT:          0  MISS:          0
L1I WRITEBACK ACCESS:          0  HIT:          0  MISS:          0
L1I PREFETCH  REQUESTED:          0  ISSUED:          0  USEFUL:          0  USELESS:          0
L1I TOTAL MSHR MERGED:     261728
L1I LOAD MSHR MERGED:     261728
L1I RFO MSHR MERGED:          0
L1I PREFETCH MSHR MERGED:          0
L1I WRITEBACK MSHR MERGED:          0
L1I TOTAL ACCESSES:  161810396 HITS:  161284718 MISSES:     525678
L1I LOAD ACCESSES:  161810396 HITS:  161284718 MISSES:     525678
L1I RFO ACCESSES:          0 HITS:          0 MISSES:          0
L1I PREFETCH ACCESSES:          0 HITS:          0 MISSES:          0
L1I WRITEBACK ACCESSES:          0 HITS:          0 MISSES:          0
L1I RQ ACCESS:  500000202
L1I RQ TO_CACHE:  161810396
L1I RQ MERGED:  338189806
L1I RQ FORWARD:          0
L1I WQ ACCESS:          0
L1I WQ TO_CACHE:          0
L1I WQ MERGED:          0
L1I WQ FORWARD:          0
L2C TOTAL     ACCESS:   11771271  HIT:   10382024  MISS:    1389247
L2C LOAD      ACCESS:    4403026  HIT:    3906119  MISS:     496907
L2C RFO       ACCESS:     897248  HIT:     536229  MISS:     361019
L2C PREFETCH  ACCESS:    5283446  HIT:    4755071  MISS:     528375
L2C WRITEBACK ACCESS:    1187551  HIT:    1184605  MISS:       2946
L2C PREFETCH  REQUESTED:     504068  ISSUED:     504068  USEFUL:     114597  USELESS:     413971
L2C TOTAL MSHR MERGED:       1998
L2C LOAD MSHR MERGED:        364
L2C RFO MSHR MERGED:          0
L2C PREFETCH MSHR MERGED:       1634
L2C WRITEBACK MSHR MERGED:          0
L2C TOTAL ACCESSES:   11776150 HITS:   10382243 MISSES:    1393907
L2C LOAD ACCESSES:    4403091 HITS:    3906184 MISSES:     496907
L2C RFO ACCESSES:     897313 HITS:     536294 MISSES:     361019
L2C PREFETCH ACCESSES:    5288195 HITS:    4755160 MISSES:     533035
L2C WRITEBACK ACCESSES:    1187551 HITS:    1184605 MISSES:       2946
L2C RQ ACCESS:    5300404
L2C RQ TO_CACHE:    5300274
L2C RQ MERGED:          0
L2C RQ FORWARD:          0
L2C WQ ACCESS:    1187551
L2C WQ TO_CACHE:    1187551
L2C WQ MERGED:          0
L2C WQ FORWARD:        219
LLC TOTAL     ACCESS:    1849563  HIT:    1142520  MISS:     707043
LLC LOAD      ACCESS:     496543  HIT:     193625  MISS:     302918
LLC RFO       ACCESS:     361015  HIT:     264181  MISS:      96834
LLC PREFETCH  ACCESS:     531284  HIT:     302454  MISS:     228830
LLC WRITEBACK ACCESS:     460721  HIT:     382260  MISS:      78461
LLC PREFETCH  REQUESTED:          0  ISSUED:          0  USEFUL:       9643  USELESS:     221288
LLC TOTAL MSHR MERGED:         83
LLC LOAD MSHR MERGED:         36
LLC RFO MSHR MERGED:          0
LLC PREFETCH MSHR MERGED:         47
LLC WRITEBACK MSHR MERGED:          0
LLC TOTAL ACCESSES:    1849666 HITS:    1142540 MISSES:     707126
LLC LOAD ACCESSES:     496543 HITS:     193625 MISSES:     302918
LLC RFO ACCESSES:     361019 HITS:     264185 MISSES:      96834
LLC PREFETCH ACCESSES:     531383 HITS:     302470 MISSES:     228913
LLC WRITEBACK ACCESSES:     460721 HITS:     382260 MISSES:      78461
LLC 0 RQ ACCESS:     857562
LLC 0 RQ TO_CACHE:     857558
LLC 0 RQ MERGED:          0
LLC 0 RQ FORWARD:          0
LLC WQ ACCESS:     460721
LLC WQ TO_CACHE:     460721
LLC WQ MERGED:          0
LLC WQ FORWARD:         20
Major fault: 0 Minor fault: 3073
CPU 0 L1D next line prefetcher final stats
CPU 0 L2C PC-based stride prefetcher final stats
All Misses: 852329
All Hits: 1323925
SD Algo Stats - Switches: 0 SRR-Repls: 340913 BRR-Repls: 0

DRAM Statistics
 CHANNEL 0
 RQ ROW_BUFFER_HIT:     407384  ROW_BUFFER_MISS:     219304
 DBUS_CONGESTED:     397059
 WQ ROW_BUFFER_HIT:      20525  ROW_BUFFER_MISS:      82122  FULL:          0

 AVG_CONGESTED_CYCLE: 13
LOADS RETIRED: 120673965
INSTR RETIRED: 500000000
