
*** ChampSim Multicore Out-of-Order Simulator ***

Warmup Instructions: 100000000
Simulation Instructions: 500000000
Number of CPUs: 1
LLC sets: 2048
LLC ways: 16
Clean RRIP Policies: 1013030110130301 Dirty RRIP Policies: 2013130120131301 PSEL Width: 10 Track Set: 4294967295 PSEL Mask: 1 Demote Mask: 3030201030302010DS Algo: 0Window size: 0
Off-chip DRAM Size: 4096 MB Channels: 1 Width: 64-bit Data Rate: 1600 MT/s

CPU 0 runs /mnt/beegfs/iconst01/spec2017/Omnetpp.trace.gz
NOT SORTED
TRACE STRING: /mnt/beegfs/iconst01/spec2017/Omnetpp.trace.gz
SORTED
TRACE STRING: /mnt/beegfs/iconst01/spec2017/Omnetpp.trace.gz
INITIAL
TRACE STRING: /mnt/beegfs/iconst01/spec2017/Omnetpp.trace.gz

champsim_seed used: 739

CPU 0 L1D next line prefetcher
CPU 0 L2C IP-based stride prefetcher
Initialize DRRIP state
Assign rand_sets[0]: 454  LLC: 2048
rand_sets[0]: 454
Assign rand_sets[1]: 1662  LLC: 2048
rand_sets[1]: 1662
Assign rand_sets[2]: 1921  LLC: 2048
rand_sets[2]: 1921
Assign rand_sets[3]: 1131  LLC: 2048
rand_sets[3]: 1131
Assign rand_sets[4]: 331  LLC: 2048
rand_sets[4]: 331
Assign rand_sets[5]: 1531  LLC: 2048
rand_sets[5]: 1531
Assign rand_sets[6]: 482  LLC: 2048
rand_sets[6]: 482
Assign rand_sets[7]: 1275  LLC: 2048
rand_sets[7]: 1275
Assign rand_sets[8]: 1876  LLC: 2048
rand_sets[8]: 1876
Assign rand_sets[9]: 2038  LLC: 2048
rand_sets[9]: 2038
Assign rand_sets[10]: 701  LLC: 2048
rand_sets[10]: 701
Assign rand_sets[11]: 479  LLC: 2048
rand_sets[11]: 479
Assign rand_sets[12]: 892  LLC: 2048
rand_sets[12]: 892
Assign rand_sets[13]: 1820  LLC: 2048
rand_sets[13]: 1820
Assign rand_sets[14]: 1505  LLC: 2048
rand_sets[14]: 1505
Assign rand_sets[15]: 1159  LLC: 2048
rand_sets[15]: 1159
Assign rand_sets[16]: 513  LLC: 2048
rand_sets[16]: 513
Assign rand_sets[17]: 703  LLC: 2048
rand_sets[17]: 703
Assign rand_sets[18]: 561  LLC: 2048
rand_sets[18]: 561
Assign rand_sets[19]: 990  LLC: 2048
rand_sets[19]: 990
Assign rand_sets[20]: 342  LLC: 2048
rand_sets[20]: 342
Assign rand_sets[21]: 882  LLC: 2048
rand_sets[21]: 882
Assign rand_sets[22]: 15  LLC: 2048
rand_sets[22]: 15
Assign rand_sets[23]: 71  LLC: 2048
rand_sets[23]: 71
Assign rand_sets[24]: 1127  LLC: 2048
rand_sets[24]: 1127
Assign rand_sets[25]: 1382  LLC: 2048
rand_sets[25]: 1382
Assign rand_sets[26]: 647  LLC: 2048
rand_sets[26]: 647
Assign rand_sets[27]: 857  LLC: 2048
rand_sets[27]: 857
Assign rand_sets[28]: 1450  LLC: 2048
rand_sets[28]: 1450
Assign rand_sets[29]: 1160  LLC: 2048
rand_sets[29]: 1160
Assign rand_sets[30]: 1852  LLC: 2048
rand_sets[30]: 1852
Assign rand_sets[31]: 1881  LLC: 2048
rand_sets[31]: 1881
Assign rand_sets[32]: 1770  LLC: 2048
rand_sets[32]: 1770
Assign rand_sets[33]: 1622  LLC: 2048
rand_sets[33]: 1622
Assign rand_sets[34]: 275  LLC: 2048
rand_sets[34]: 275
Assign rand_sets[35]: 635  LLC: 2048
rand_sets[35]: 635
Assign rand_sets[36]: 466  LLC: 2048
rand_sets[36]: 466
Assign rand_sets[37]: 1413  LLC: 2048
rand_sets[37]: 1413
Assign rand_sets[38]: 417  LLC: 2048
rand_sets[38]: 417
Assign rand_sets[39]: 472  LLC: 2048
rand_sets[39]: 472
Assign rand_sets[40]: 1340  LLC: 2048
rand_sets[40]: 1340
Assign rand_sets[41]: 852  LLC: 2048
rand_sets[41]: 852
Assign rand_sets[42]: 1365  LLC: 2048
rand_sets[42]: 1365
Assign rand_sets[43]: 47  LLC: 2048
rand_sets[43]: 47
Assign rand_sets[44]: 823  LLC: 2048
rand_sets[44]: 823
Assign rand_sets[45]: 686  LLC: 2048
rand_sets[45]: 686
Assign rand_sets[46]: 1637  LLC: 2048
rand_sets[46]: 1637
Assign rand_sets[47]: 1115  LLC: 2048
rand_sets[47]: 1115
Assign rand_sets[48]: 986  LLC: 2048
rand_sets[48]: 986
Assign rand_sets[49]: 258  LLC: 2048
rand_sets[49]: 258
Assign rand_sets[50]: 633  LLC: 2048
rand_sets[50]: 633
Assign rand_sets[51]: 920  LLC: 2048
rand_sets[51]: 920
Assign rand_sets[52]: 204  LLC: 2048
rand_sets[52]: 204
Assign rand_sets[53]: 227  LLC: 2048
rand_sets[53]: 227
Assign rand_sets[54]: 1818  LLC: 2048
rand_sets[54]: 1818
Assign rand_sets[55]: 886  LLC: 2048
rand_sets[55]: 886
Assign rand_sets[56]: 1422  LLC: 2048
rand_sets[56]: 1422
Assign rand_sets[57]: 607  LLC: 2048
rand_sets[57]: 607
Assign rand_sets[58]: 217  LLC: 2048
rand_sets[58]: 217
Assign rand_sets[59]: 1945  LLC: 2048
rand_sets[59]: 1945
Assign rand_sets[60]: 143  LLC: 2048
rand_sets[60]: 143
Assign rand_sets[61]: 1311  LLC: 2048
rand_sets[61]: 1311
Assign rand_sets[62]: 319  LLC: 2048
rand_sets[62]: 319
Assign rand_sets[63]: 1846  LLC: 2048
rand_sets[63]: 1846
 CLEAN-RRIP-POLICY-1: 1-0-1-3-0-3-0-1- CLEAN-RRIP-POLICY-2: 1-0-1-3-0-3-0-1-
 DIRTY-RRIP-POLICY-1: 2-0-1-3-1-3-0-1- DIRTY-RRIP-POLICY-2: 2-0-1-3-1-3-0-1-
 PSEL width: 10
Heartbeat CPU 0 instructions: 10000000 cycles: 7320193 heartbeat IPC: 1.36608 cumulative IPC: 1.36608 (Simulation time: 0 hr 0 min 20 sec) 
Heartbeat CPU 0 instructions: 20000000 cycles: 14624228 heartbeat IPC: 1.36911 cumulative IPC: 1.36759 (Simulation time: 0 hr 0 min 39 sec) 
Heartbeat CPU 0 instructions: 30000003 cycles: 21925892 heartbeat IPC: 1.36955 cumulative IPC: 1.36825 (Simulation time: 0 hr 0 min 59 sec) 
Heartbeat CPU 0 instructions: 40000000 cycles: 29214378 heartbeat IPC: 1.37203 cumulative IPC: 1.36919 (Simulation time: 0 hr 1 min 19 sec) 
Heartbeat CPU 0 instructions: 50000000 cycles: 36491078 heartbeat IPC: 1.37425 cumulative IPC: 1.3702 (Simulation time: 0 hr 1 min 39 sec) 
Heartbeat CPU 0 instructions: 60000000 cycles: 43771473 heartbeat IPC: 1.37355 cumulative IPC: 1.37076 (Simulation time: 0 hr 1 min 59 sec) 
Heartbeat CPU 0 instructions: 70000001 cycles: 51057064 heartbeat IPC: 1.37257 cumulative IPC: 1.37101 (Simulation time: 0 hr 2 min 19 sec) 
Heartbeat CPU 0 instructions: 80000000 cycles: 58332414 heartbeat IPC: 1.3745 cumulative IPC: 1.37145 (Simulation time: 0 hr 2 min 39 sec) 
Heartbeat CPU 0 instructions: 90000000 cycles: 65639153 heartbeat IPC: 1.3686 cumulative IPC: 1.37113 (Simulation time: 0 hr 2 min 59 sec) 
Heartbeat CPU 0 instructions: 100000000 cycles: 72931576 heartbeat IPC: 1.37129 cumulative IPC: 1.37115 (Simulation time: 0 hr 3 min 19 sec) 

Warmup complete CPU 0 instructions: 100000002 cycles: 72931577 (Simulation time: 0 hr 3 min 19 sec) 

Heartbeat CPU 0 instructions: 110000002 cycles: 113422719 heartbeat IPC: 0.246968 cumulative IPC: 0.246968 (Simulation time: 0 hr 3 min 59 sec) 
Heartbeat CPU 0 instructions: 120000000 cycles: 153576787 heartbeat IPC: 0.249041 cumulative IPC: 0.248 (Simulation time: 0 hr 4 min 39 sec) 
Heartbeat CPU 0 instructions: 130000002 cycles: 193995417 heartbeat IPC: 0.247411 cumulative IPC: 0.247803 (Simulation time: 0 hr 5 min 18 sec) 
Heartbeat CPU 0 instructions: 140000000 cycles: 234507757 heartbeat IPC: 0.246838 cumulative IPC: 0.247561 (Simulation time: 0 hr 5 min 59 sec) 
Heartbeat CPU 0 instructions: 150000002 cycles: 274592256 heartbeat IPC: 0.249473 cumulative IPC: 0.247941 (Simulation time: 0 hr 6 min 39 sec) 
Heartbeat CPU 0 instructions: 160000000 cycles: 314699914 heartbeat IPC: 0.249329 cumulative IPC: 0.248171 (Simulation time: 0 hr 7 min 18 sec) 
Heartbeat CPU 0 instructions: 170000001 cycles: 354108739 heartbeat IPC: 0.25375 cumulative IPC: 0.248953 (Simulation time: 0 hr 7 min 58 sec) 
Heartbeat CPU 0 instructions: 180000000 cycles: 394256652 heartbeat IPC: 0.249079 cumulative IPC: 0.248969 (Simulation time: 0 hr 8 min 37 sec) 
Heartbeat CPU 0 instructions: 190000002 cycles: 434375673 heartbeat IPC: 0.249258 cumulative IPC: 0.249001 (Simulation time: 0 hr 9 min 17 sec) 
Heartbeat CPU 0 instructions: 200000000 cycles: 475621026 heartbeat IPC: 0.242452 cumulative IPC: 0.24833 (Simulation time: 0 hr 9 min 57 sec) 
Heartbeat CPU 0 instructions: 210000003 cycles: 515726373 heartbeat IPC: 0.249343 cumulative IPC: 0.248422 (Simulation time: 0 hr 10 min 37 sec) 
Heartbeat CPU 0 instructions: 220000000 cycles: 556059340 heartbeat IPC: 0.247936 cumulative IPC: 0.248381 (Simulation time: 0 hr 11 min 17 sec) 
Heartbeat CPU 0 instructions: 230000000 cycles: 596378354 heartbeat IPC: 0.248022 cumulative IPC: 0.248354 (Simulation time: 0 hr 11 min 57 sec) 
Heartbeat CPU 0 instructions: 240000000 cycles: 636471480 heartbeat IPC: 0.249419 cumulative IPC: 0.24843 (Simulation time: 0 hr 12 min 36 sec) 
Heartbeat CPU 0 instructions: 250000000 cycles: 676570662 heartbeat IPC: 0.249382 cumulative IPC: 0.248493 (Simulation time: 0 hr 13 min 16 sec) 
Heartbeat CPU 0 instructions: 260000000 cycles: 716783327 heartbeat IPC: 0.248678 cumulative IPC: 0.248504 (Simulation time: 0 hr 13 min 55 sec) 
Heartbeat CPU 0 instructions: 270000000 cycles: 757044228 heartbeat IPC: 0.24838 cumulative IPC: 0.248497 (Simulation time: 0 hr 14 min 34 sec) 
Heartbeat CPU 0 instructions: 280000000 cycles: 797647513 heartbeat IPC: 0.246285 cumulative IPC: 0.248373 (Simulation time: 0 hr 15 min 14 sec) 
Heartbeat CPU 0 instructions: 290000001 cycles: 837464946 heartbeat IPC: 0.251146 cumulative IPC: 0.248518 (Simulation time: 0 hr 15 min 53 sec) 
Heartbeat CPU 0 instructions: 300000000 cycles: 877978783 heartbeat IPC: 0.246829 cumulative IPC: 0.248433 (Simulation time: 0 hr 16 min 32 sec) 
Heartbeat CPU 0 instructions: 310000000 cycles: 918419564 heartbeat IPC: 0.247275 cumulative IPC: 0.248377 (Simulation time: 0 hr 17 min 11 sec) 
Heartbeat CPU 0 instructions: 320000000 cycles: 958577684 heartbeat IPC: 0.249016 cumulative IPC: 0.248406 (Simulation time: 0 hr 17 min 49 sec) 
Heartbeat CPU 0 instructions: 330000000 cycles: 998725119 heartbeat IPC: 0.249082 cumulative IPC: 0.248436 (Simulation time: 0 hr 18 min 28 sec) 
Heartbeat CPU 0 instructions: 340000000 cycles: 1039454025 heartbeat IPC: 0.245526 cumulative IPC: 0.248313 (Simulation time: 0 hr 19 min 7 sec) 
Heartbeat CPU 0 instructions: 350000001 cycles: 1079689446 heartbeat IPC: 0.248537 cumulative IPC: 0.248322 (Simulation time: 0 hr 19 min 45 sec) 
Heartbeat CPU 0 instructions: 360000000 cycles: 1120218106 heartbeat IPC: 0.246739 cumulative IPC: 0.248261 (Simulation time: 0 hr 20 min 24 sec) 
Heartbeat CPU 0 instructions: 370000000 cycles: 1159868495 heartbeat IPC: 0.252204 cumulative IPC: 0.248404 (Simulation time: 0 hr 21 min 2 sec) 
Heartbeat CPU 0 instructions: 380000000 cycles: 1200371988 heartbeat IPC: 0.246892 cumulative IPC: 0.24835 (Simulation time: 0 hr 21 min 40 sec) 
Heartbeat CPU 0 instructions: 390000001 cycles: 1240400866 heartbeat IPC: 0.24982 cumulative IPC: 0.248401 (Simulation time: 0 hr 22 min 18 sec) 
Heartbeat CPU 0 instructions: 400000000 cycles: 1280562429 heartbeat IPC: 0.248994 cumulative IPC: 0.24842 (Simulation time: 0 hr 22 min 57 sec) 
Heartbeat CPU 0 instructions: 410000000 cycles: 1320575730 heartbeat IPC: 0.249917 cumulative IPC: 0.248468 (Simulation time: 0 hr 23 min 35 sec) 
Heartbeat CPU 0 instructions: 420000000 cycles: 1360602773 heartbeat IPC: 0.249831 cumulative IPC: 0.248511 (Simulation time: 0 hr 24 min 13 sec) 
Heartbeat CPU 0 instructions: 430000000 cycles: 1400693375 heartbeat IPC: 0.249435 cumulative IPC: 0.248539 (Simulation time: 0 hr 24 min 52 sec) 
Heartbeat CPU 0 instructions: 440000000 cycles: 1440845275 heartbeat IPC: 0.249054 cumulative IPC: 0.248554 (Simulation time: 0 hr 25 min 30 sec) 
Heartbeat CPU 0 instructions: 450000002 cycles: 1480853430 heartbeat IPC: 0.249949 cumulative IPC: 0.248593 (Simulation time: 0 hr 26 min 8 sec) 
Heartbeat CPU 0 instructions: 460000000 cycles: 1520313351 heartbeat IPC: 0.253422 cumulative IPC: 0.248725 (Simulation time: 0 hr 26 min 46 sec) 
Heartbeat CPU 0 instructions: 470000000 cycles: 1560622014 heartbeat IPC: 0.248086 cumulative IPC: 0.248708 (Simulation time: 0 hr 27 min 25 sec) 
Heartbeat CPU 0 instructions: 480000000 cycles: 1600535176 heartbeat IPC: 0.250544 cumulative IPC: 0.248756 (Simulation time: 0 hr 28 min 4 sec) 
Heartbeat CPU 0 instructions: 490000001 cycles: 1640632146 heartbeat IPC: 0.249395 cumulative IPC: 0.248772 (Simulation time: 0 hr 28 min 42 sec) 
Heartbeat CPU 0 instructions: 500000000 cycles: 1680917439 heartbeat IPC: 0.24823 cumulative IPC: 0.248758 (Simulation time: 0 hr 29 min 21 sec) 
Heartbeat CPU 0 instructions: 510000000 cycles: 1720678959 heartbeat IPC: 0.251499 cumulative IPC: 0.248825 (Simulation time: 0 hr 29 min 59 sec) 
Heartbeat CPU 0 instructions: 520000000 cycles: 1761156678 heartbeat IPC: 0.247049 cumulative IPC: 0.248782 (Simulation time: 0 hr 30 min 38 sec) 
Heartbeat CPU 0 instructions: 530000000 cycles: 1801131005 heartbeat IPC: 0.250161 cumulative IPC: 0.248814 (Simulation time: 0 hr 31 min 16 sec) 
Heartbeat CPU 0 instructions: 540000000 cycles: 1840820349 heartbeat IPC: 0.251957 cumulative IPC: 0.248884 (Simulation time: 0 hr 31 min 55 sec) 
Heartbeat CPU 0 instructions: 550000001 cycles: 1881247909 heartbeat IPC: 0.247356 cumulative IPC: 0.24885 (Simulation time: 0 hr 32 min 33 sec) 
Heartbeat CPU 0 instructions: 560000000 cycles: 1921760113 heartbeat IPC: 0.246839 cumulative IPC: 0.248806 (Simulation time: 0 hr 33 min 12 sec) 
Heartbeat CPU 0 instructions: 570000003 cycles: 1962266344 heartbeat IPC: 0.246876 cumulative IPC: 0.248765 (Simulation time: 0 hr 33 min 51 sec) 
Heartbeat CPU 0 instructions: 580000000 cycles: 2002568414 heartbeat IPC: 0.248126 cumulative IPC: 0.248751 (Simulation time: 0 hr 34 min 30 sec) 
Heartbeat CPU 0 instructions: 590000001 cycles: 2043289526 heartbeat IPC: 0.245573 cumulative IPC: 0.248686 (Simulation time: 0 hr 35 min 8 sec) 
Heartbeat CPU 0 instructions: 600000000 cycles: 2083779910 heartbeat IPC: 0.246972 cumulative IPC: 0.248651 (Simulation time: 0 hr 35 min 47 sec) 
Finished CPU 0 instructions: 500000000 cycles: 2010848341 cumulative IPC: 0.248651 (Simulation time: 0 hr 35 min 47 sec) 

CPU 0 Branch Prediction Accuracy: 96.2429% MPKI: 5.85335
Number of Branches: 77897976 Number of Mispredictions: 2926674
Number of LOAD Instructions: 193081861
Number of LOAD Instructions (ROI): 193081861
Number of STORE Instructions: 97310749
Number of STORE Instructions (ROI): 97310749
Total Destination Memory Operands: 106368027
Total Destination Memory Operands (ROI): 106368027
Total Source Memory Operands: 193081861
Total Source Memory Operands (ROI): 193081861
Number of DEPENDED LOADS: 6445290
Number of DEPENDED LOADS (ROI): 6445290
Number of SQ_ADDED: 106367982
Number of SQ_ADDED (ROI): 106367982
Number of LQ_ADDED: 426901106
Number of LQ_ADDED (ROI): 426901106
Number of Instructions read from trace: 600000256

ChampSim completed all CPUs

Region of Interest Statistics

CPU 0 cumulative IPC: 0.248651 instructions: 500000000 cycles: 2010848341
ITLB TOTAL     ACCESS:  151272725  HIT:  151256894  MISS:      15831
ITLB LOAD      ACCESS:  151272725  HIT:  151256894  MISS:      15831
ITLB RFO       ACCESS:          0  HIT:          0  MISS:          0
ITLB PREFETCH  ACCESS:          0  HIT:          0  MISS:          0
ITLB WRITEBACK ACCESS:          0  HIT:          0  MISS:          0
ITLB PREFETCH  REQUESTED:          0  ISSUED:          0  USEFUL:          0  USELESS:          0
ITLB TOTAL MSHR MERGED:      17811
ITLB LOAD MSHR MERGED:      17811
ITLB RFO MSHR MERGED:          0
ITLB PREFETCH MSHR MERGED:          0
ITLB WRITEBACK MSHR MERGED:          0
ITLB TOTAL ACCESSES:  151290536 HITS:  151256894 MISSES:      33642
ITLB LOAD ACCESSES:  151290536 HITS:  151256894 MISSES:      33642
ITLB RFO ACCESSES:          0 HITS:          0 MISSES:          0
ITLB PREFETCH ACCESSES:          0 HITS:          0 MISSES:          0
ITLB WRITEBACK ACCESSES:          0 HITS:          0 MISSES:          0
ITLB RQ ACCESS:  500000242
ITLB RQ TO_CACHE:  151290536
ITLB RQ MERGED:  348709706
ITLB RQ FORWARD:          0
ITLB WQ ACCESS:          0
ITLB WQ TO_CACHE:          0
ITLB WQ MERGED:          0
ITLB WQ FORWARD:          0
DTLB TOTAL     ACCESS:  199559459  HIT:  194180416  MISS:    5379043
DTLB LOAD      ACCESS:  123129990  HIT:  118111445  MISS:    5018545
DTLB RFO       ACCESS:   76429469  HIT:   76068971  MISS:     360498
DTLB PREFETCH  ACCESS:          0  HIT:          0  MISS:          0
DTLB WRITEBACK ACCESS:          0  HIT:          0  MISS:          0
DTLB PREFETCH  REQUESTED:          0  ISSUED:          0  USEFUL:          0  USELESS:          0
DTLB TOTAL MSHR MERGED:     916477
DTLB LOAD MSHR MERGED:     807009
DTLB RFO MSHR MERGED:     109468
DTLB PREFETCH MSHR MERGED:          0
DTLB WRITEBACK MSHR MERGED:          0
DTLB TOTAL ACCESSES:  200475936 HITS:  194180416 MISSES:    6295520
DTLB LOAD ACCESSES:  123936999 HITS:  118111445 MISSES:    5825554
DTLB RFO ACCESSES:   76538937 HITS:   76068971 MISSES:     469966
DTLB PREFETCH ACCESSES:          0 HITS:          0 MISSES:          0
DTLB WRITEBACK ACCESSES:          0 HITS:          0 MISSES:          0
DTLB RQ ACCESS:  243880362
DTLB RQ TO_CACHE:  200475936
DTLB RQ MERGED:   43404426
DTLB RQ FORWARD:          0
DTLB WQ ACCESS:          0
DTLB WQ TO_CACHE:          0
DTLB WQ MERGED:          0
DTLB WQ FORWARD:          0
L1D TOTAL     ACCESS:  335601706  HIT:  317505587  MISS:   18096119
L1D LOAD      ACCESS:  127691184  HIT:  118750484  MISS:    8940700
L1D RFO       ACCESS:   87081818  HIT:   86297490  MISS:     784328
L1D PREFETCH  ACCESS:  120828704  HIT:  112457613  MISS:    8371091
L1D WRITEBACK ACCESS:          0  HIT:          0  MISS:          0
L1D PREFETCH  REQUESTED:  128471922  ISSUED:  126873944  USEFUL:    1744261  USELESS:    6626842
L1D TOTAL MSHR MERGED:    3847181
L1D LOAD MSHR MERGED:     942427
L1D RFO MSHR MERGED:    1066821
L1D PREFETCH MSHR MERGED:    1837933
L1D WRITEBACK MSHR MERGED:          0
L1D TOTAL ACCESSES:  339534071 HITS:  317590771 MISSES:   21943300
L1D LOAD ACCESSES:  128472360 HITS:  118750922 MISSES:    9721438
L1D RFO ACCESSES:   88084957 HITS:   86297490 MISSES:    1787467
L1D PREFETCH ACCESSES:  122976754 HITS:  112542359 MISSES:   10434395
L1D WRITEBACK ACCESSES:          0 HITS:          0 MISSES:          0
L1D RQ ACCESS:  155248977
L1D RQ TO_CACHE:  128471922
L1D RQ MERGED:   26776617
L1D RQ FORWARD:          0
L1D WQ ACCESS:   88631385
L1D WQ TO_CACHE:   88084956
L1D WQ MERGED:     546429
L1D WQ FORWARD:      85184
L1I TOTAL     ACCESS:  175576391  HIT:  175309925  MISS:     266466
L1I LOAD      ACCESS:  175576391  HIT:  175309925  MISS:     266466
L1I RFO       ACCESS:          0  HIT:          0  MISS:          0
L1I PREFETCH  ACCESS:          0  HIT:          0  MISS:          0
L1I WRITEBACK ACCESS:          0  HIT:          0  MISS:          0
L1I PREFETCH  REQUESTED:          0  ISSUED:          0  USEFUL:          0  USELESS:          0
L1I TOTAL MSHR MERGED:     213186
L1I LOAD MSHR MERGED:     213186
L1I RFO MSHR MERGED:          0
L1I PREFETCH MSHR MERGED:          0
L1I WRITEBACK MSHR MERGED:          0
L1I TOTAL ACCESSES:  175789577 HITS:  175309925 MISSES:     479652
L1I LOAD ACCESSES:  175789577 HITS:  175309925 MISSES:     479652
L1I RFO ACCESSES:          0 HITS:          0 MISSES:          0
L1I PREFETCH ACCESSES:          0 HITS:          0 MISSES:          0
L1I WRITEBACK ACCESSES:          0 HITS:          0 MISSES:          0
L1I RQ ACCESS:  500000242
L1I RQ TO_CACHE:  175789577
L1I RQ MERGED:  324210665
L1I RQ FORWARD:          0
L1I WQ ACCESS:          0
L1I WQ TO_CACHE:          0
L1I WQ MERGED:          0
L1I WQ FORWARD:          0
L2C TOTAL     ACCESS:   23738690  HIT:   12112924  MISS:   11625766
L2C LOAD      ACCESS:    9044299  HIT:    3564817  MISS:    5479482
L2C RFO       ACCESS:     720591  HIT:     130315  MISS:     590276
L2C PREFETCH  ACCESS:    8613455  HIT:    3086146  MISS:    5527309
L2C WRITEBACK ACCESS:    5360345  HIT:    5331646  MISS:      28699
L2C PREFETCH  REQUESTED:      18040  ISSUED:      18040  USEFUL:     323036  USELESS:    5204448
L2C TOTAL MSHR MERGED:         24
L2C LOAD MSHR MERGED:          2
L2C RFO MSHR MERGED:          0
L2C PREFETCH MSHR MERGED:         22
L2C WRITEBACK MSHR MERGED:          0
L2C TOTAL ACCESSES:   23740510 HITS:   12114712 MISSES:   11625798
L2C LOAD ACCESSES:    9045477 HITS:    3565995 MISSES:    5479482
L2C RFO ACCESSES:     720646 HITS:     130370 MISSES:     590276
L2C PREFETCH ACCESSES:    8614042 HITS:    3086701 MISSES:    5527341
L2C WRITEBACK ACCESSES:    5360345 HITS:    5331646 MISSES:      28699
L2C RQ ACCESS:    9766123
L2C RQ TO_CACHE:    9764890
L2C RQ MERGED:          0
L2C RQ FORWARD:          0
L2C WQ ACCESS:    5360345
L2C WQ TO_CACHE:    5360345
L2C WQ MERGED:          0
L2C WQ FORWARD:       1788
LLC TOTAL     ACCESS:   15448696  HIT:    6495737  MISS:    8952959
LLC LOAD      ACCESS:    5479452  HIT:    2050188  MISS:    3429264
LLC RFO       ACCESS:     590274  HIT:     301951  MISS:     288323
LLC PREFETCH  ACCESS:    5527302  HIT:    1038842  MISS:    4488460
LLC WRITEBACK ACCESS:    3851668  HIT:    3104756  MISS:     746912
LLC PREFETCH  REQUESTED:          0  ISSUED:          0  USEFUL:      25207  USELESS:    4463743
LLC TOTAL MSHR MERGED:          0
LLC LOAD MSHR MERGED:          0
LLC RFO MSHR MERGED:          0
LLC PREFETCH MSHR MERGED:          0
LLC WRITEBACK MSHR MERGED:          0
LLC TOTAL ACCESSES:   15448743 HITS:    6495784 MISSES:    8952959
LLC LOAD ACCESSES:    5479480 HITS:    2050216 MISSES:    3429264
LLC RFO ACCESSES:     590276 HITS:     301953 MISSES:     288323
LLC PREFETCH ACCESSES:    5527319 HITS:    1038859 MISSES:    4488460
LLC WRITEBACK ACCESSES:    3851668 HITS:    3104756 MISSES:     746912
LLC 0 RQ ACCESS:    6069756
LLC 0 RQ TO_CACHE:    6069726
LLC 0 RQ MERGED:          0
LLC 0 RQ FORWARD:          0
LLC WQ ACCESS:    3851668
LLC WQ TO_CACHE:    3851668
LLC WQ MERGED:          0
LLC WQ FORWARD:         47
Major fault: 0 Minor fault: 44814
CPU 0 L1D next line prefetcher final stats
CPU 0 L2C PC-based stride prefetcher final stats
All Misses: 10828531
All Hits: 7792668
SD Algo Stats - Switches: 0 SRR-Repls: 3913358 BRR-Repls: 0

DRAM Statistics
 CHANNEL 0
 RQ ROW_BUFFER_HIT:    1430758  ROW_BUFFER_MISS:    6774077
 DBUS_CONGESTED:    5487646
 WQ ROW_BUFFER_HIT:     173256  ROW_BUFFER_MISS:    2078210  FULL:          0

 AVG_CONGESTED_CYCLE: 13
LOADS RETIRED: 160808997
INSTR RETIRED: 500000000
