
*** ChampSim Multicore Out-of-Order Simulator ***

Warmup Instructions: 100000000
Simulation Instructions: 500000000
Number of CPUs: 1
LLC sets: 2048
LLC ways: 16
Clean RRIP Policies: 1013030110130301 Dirty RRIP Policies: 2013130120131301 PSEL Width: 10 Track Set: 4294967295 PSEL Mask: 1 Demote Mask: 3030201030302010DS Algo: 0Window size: 0
Off-chip DRAM Size: 4096 MB Channels: 1 Width: 64-bit Data Rate: 1600 MT/s

CPU 0 runs /mnt/beegfs/iconst01/spec2017/Wrf.trace.gz
NOT SORTED
TRACE STRING: /mnt/beegfs/iconst01/spec2017/Wrf.trace.gz
SORTED
TRACE STRING: /mnt/beegfs/iconst01/spec2017/Wrf.trace.gz
INITIAL
TRACE STRING: /mnt/beegfs/iconst01/spec2017/Wrf.trace.gz

champsim_seed used: 303

CPU 0 L1D next line prefetcher
CPU 0 L2C IP-based stride prefetcher
Initialize DRRIP state
Assign rand_sets[0]: 454  LLC: 2048
rand_sets[0]: 454
Assign rand_sets[1]: 1662  LLC: 2048
rand_sets[1]: 1662
Assign rand_sets[2]: 1921  LLC: 2048
rand_sets[2]: 1921
Assign rand_sets[3]: 1131  LLC: 2048
rand_sets[3]: 1131
Assign rand_sets[4]: 331  LLC: 2048
rand_sets[4]: 331
Assign rand_sets[5]: 1531  LLC: 2048
rand_sets[5]: 1531
Assign rand_sets[6]: 482  LLC: 2048
rand_sets[6]: 482
Assign rand_sets[7]: 1275  LLC: 2048
rand_sets[7]: 1275
Assign rand_sets[8]: 1876  LLC: 2048
rand_sets[8]: 1876
Assign rand_sets[9]: 2038  LLC: 2048
rand_sets[9]: 2038
Assign rand_sets[10]: 701  LLC: 2048
rand_sets[10]: 701
Assign rand_sets[11]: 479  LLC: 2048
rand_sets[11]: 479
Assign rand_sets[12]: 892  LLC: 2048
rand_sets[12]: 892
Assign rand_sets[13]: 1820  LLC: 2048
rand_sets[13]: 1820
Assign rand_sets[14]: 1505  LLC: 2048
rand_sets[14]: 1505
Assign rand_sets[15]: 1159  LLC: 2048
rand_sets[15]: 1159
Assign rand_sets[16]: 513  LLC: 2048
rand_sets[16]: 513
Assign rand_sets[17]: 703  LLC: 2048
rand_sets[17]: 703
Assign rand_sets[18]: 561  LLC: 2048
rand_sets[18]: 561
Assign rand_sets[19]: 990  LLC: 2048
rand_sets[19]: 990
Assign rand_sets[20]: 342  LLC: 2048
rand_sets[20]: 342
Assign rand_sets[21]: 882  LLC: 2048
rand_sets[21]: 882
Assign rand_sets[22]: 15  LLC: 2048
rand_sets[22]: 15
Assign rand_sets[23]: 71  LLC: 2048
rand_sets[23]: 71
Assign rand_sets[24]: 1127  LLC: 2048
rand_sets[24]: 1127
Assign rand_sets[25]: 1382  LLC: 2048
rand_sets[25]: 1382
Assign rand_sets[26]: 647  LLC: 2048
rand_sets[26]: 647
Assign rand_sets[27]: 857  LLC: 2048
rand_sets[27]: 857
Assign rand_sets[28]: 1450  LLC: 2048
rand_sets[28]: 1450
Assign rand_sets[29]: 1160  LLC: 2048
rand_sets[29]: 1160
Assign rand_sets[30]: 1852  LLC: 2048
rand_sets[30]: 1852
Assign rand_sets[31]: 1881  LLC: 2048
rand_sets[31]: 1881
Assign rand_sets[32]: 1770  LLC: 2048
rand_sets[32]: 1770
Assign rand_sets[33]: 1622  LLC: 2048
rand_sets[33]: 1622
Assign rand_sets[34]: 275  LLC: 2048
rand_sets[34]: 275
Assign rand_sets[35]: 635  LLC: 2048
rand_sets[35]: 635
Assign rand_sets[36]: 466  LLC: 2048
rand_sets[36]: 466
Assign rand_sets[37]: 1413  LLC: 2048
rand_sets[37]: 1413
Assign rand_sets[38]: 417  LLC: 2048
rand_sets[38]: 417
Assign rand_sets[39]: 472  LLC: 2048
rand_sets[39]: 472
Assign rand_sets[40]: 1340  LLC: 2048
rand_sets[40]: 1340
Assign rand_sets[41]: 852  LLC: 2048
rand_sets[41]: 852
Assign rand_sets[42]: 1365  LLC: 2048
rand_sets[42]: 1365
Assign rand_sets[43]: 47  LLC: 2048
rand_sets[43]: 47
Assign rand_sets[44]: 823  LLC: 2048
rand_sets[44]: 823
Assign rand_sets[45]: 686  LLC: 2048
rand_sets[45]: 686
Assign rand_sets[46]: 1637  LLC: 2048
rand_sets[46]: 1637
Assign rand_sets[47]: 1115  LLC: 2048
rand_sets[47]: 1115
Assign rand_sets[48]: 986  LLC: 2048
rand_sets[48]: 986
Assign rand_sets[49]: 258  LLC: 2048
rand_sets[49]: 258
Assign rand_sets[50]: 633  LLC: 2048
rand_sets[50]: 633
Assign rand_sets[51]: 920  LLC: 2048
rand_sets[51]: 920
Assign rand_sets[52]: 204  LLC: 2048
rand_sets[52]: 204
Assign rand_sets[53]: 227  LLC: 2048
rand_sets[53]: 227
Assign rand_sets[54]: 1818  LLC: 2048
rand_sets[54]: 1818
Assign rand_sets[55]: 886  LLC: 2048
rand_sets[55]: 886
Assign rand_sets[56]: 1422  LLC: 2048
rand_sets[56]: 1422
Assign rand_sets[57]: 607  LLC: 2048
rand_sets[57]: 607
Assign rand_sets[58]: 217  LLC: 2048
rand_sets[58]: 217
Assign rand_sets[59]: 1945  LLC: 2048
rand_sets[59]: 1945
Assign rand_sets[60]: 143  LLC: 2048
rand_sets[60]: 143
Assign rand_sets[61]: 1311  LLC: 2048
rand_sets[61]: 1311
Assign rand_sets[62]: 319  LLC: 2048
rand_sets[62]: 319
Assign rand_sets[63]: 1846  LLC: 2048
rand_sets[63]: 1846
 CLEAN-RRIP-POLICY-1: 1-0-1-3-0-3-0-1- CLEAN-RRIP-POLICY-2: 1-0-1-3-0-3-0-1-
 DIRTY-RRIP-POLICY-1: 2-0-1-3-1-3-0-1- DIRTY-RRIP-POLICY-2: 2-0-1-3-1-3-0-1-
 PSEL width: 10
Heartbeat CPU 0 instructions: 10000002 cycles: 6559549 heartbeat IPC: 1.5245 cumulative IPC: 1.5245 (Simulation time: 0 hr 0 min 22 sec) 
Heartbeat CPU 0 instructions: 20000000 cycles: 12222171 heartbeat IPC: 1.76597 cumulative IPC: 1.63637 (Simulation time: 0 hr 0 min 42 sec) 
Heartbeat CPU 0 instructions: 30000003 cycles: 18203993 heartbeat IPC: 1.67173 cumulative IPC: 1.64799 (Simulation time: 0 hr 1 min 3 sec) 
Heartbeat CPU 0 instructions: 40000000 cycles: 24059338 heartbeat IPC: 1.70784 cumulative IPC: 1.66256 (Simulation time: 0 hr 1 min 25 sec) 
Heartbeat CPU 0 instructions: 50000000 cycles: 29527711 heartbeat IPC: 1.8287 cumulative IPC: 1.69332 (Simulation time: 0 hr 1 min 45 sec) 
Heartbeat CPU 0 instructions: 60000000 cycles: 35640516 heartbeat IPC: 1.63591 cumulative IPC: 1.68348 (Simulation time: 0 hr 2 min 8 sec) 
Heartbeat CPU 0 instructions: 70000000 cycles: 41360258 heartbeat IPC: 1.74833 cumulative IPC: 1.69245 (Simulation time: 0 hr 2 min 28 sec) 
Heartbeat CPU 0 instructions: 80000000 cycles: 47231161 heartbeat IPC: 1.70332 cumulative IPC: 1.6938 (Simulation time: 0 hr 2 min 50 sec) 
Heartbeat CPU 0 instructions: 90000000 cycles: 52984680 heartbeat IPC: 1.73807 cumulative IPC: 1.6986 (Simulation time: 0 hr 3 min 11 sec) 
Heartbeat CPU 0 instructions: 100000000 cycles: 58537426 heartbeat IPC: 1.80091 cumulative IPC: 1.70831 (Simulation time: 0 hr 3 min 32 sec) 

Warmup complete CPU 0 instructions: 100000004 cycles: 58537428 (Simulation time: 0 hr 3 min 32 sec) 

Heartbeat CPU 0 instructions: 110000001 cycles: 72439586 heartbeat IPC: 0.719313 cumulative IPC: 0.719313 (Simulation time: 0 hr 3 min 58 sec) 
Heartbeat CPU 0 instructions: 120000000 cycles: 83210757 heartbeat IPC: 0.928404 cumulative IPC: 0.810592 (Simulation time: 0 hr 4 min 23 sec) 
Heartbeat CPU 0 instructions: 130000000 cycles: 93235940 heartbeat IPC: 0.997488 cumulative IPC: 0.86459 (Simulation time: 0 hr 4 min 46 sec) 
Heartbeat CPU 0 instructions: 140000000 cycles: 104058272 heartbeat IPC: 0.924015 cumulative IPC: 0.878718 (Simulation time: 0 hr 5 min 11 sec) 
Heartbeat CPU 0 instructions: 150000002 cycles: 115096121 heartbeat IPC: 0.905974 cumulative IPC: 0.884037 (Simulation time: 0 hr 5 min 36 sec) 
Heartbeat CPU 0 instructions: 160000000 cycles: 123997910 heartbeat IPC: 1.12337 cumulative IPC: 0.916583 (Simulation time: 0 hr 5 min 58 sec) 
Heartbeat CPU 0 instructions: 170000003 cycles: 134519095 heartbeat IPC: 0.950464 cumulative IPC: 0.921275 (Simulation time: 0 hr 6 min 22 sec) 
Heartbeat CPU 0 instructions: 180000000 cycles: 147089310 heartbeat IPC: 0.795531 cumulative IPC: 0.903425 (Simulation time: 0 hr 6 min 47 sec) 
Heartbeat CPU 0 instructions: 190000000 cycles: 162157627 heartbeat IPC: 0.663644 cumulative IPC: 0.868556 (Simulation time: 0 hr 7 min 12 sec) 
Heartbeat CPU 0 instructions: 200000000 cycles: 177185747 heartbeat IPC: 0.665419 cumulative IPC: 0.842827 (Simulation time: 0 hr 7 min 37 sec) 
Heartbeat CPU 0 instructions: 210000000 cycles: 192209048 heartbeat IPC: 0.665633 cumulative IPC: 0.822912 (Simulation time: 0 hr 8 min 2 sec) 
Heartbeat CPU 0 instructions: 220000000 cycles: 208160814 heartbeat IPC: 0.62689 cumulative IPC: 0.802014 (Simulation time: 0 hr 8 min 30 sec) 
Heartbeat CPU 0 instructions: 230000003 cycles: 226737732 heartbeat IPC: 0.538303 cumulative IPC: 0.772888 (Simulation time: 0 hr 8 min 59 sec) 
Heartbeat CPU 0 instructions: 240000000 cycles: 235950939 heartbeat IPC: 1.0854 cumulative IPC: 0.789117 (Simulation time: 0 hr 9 min 22 sec) 
Heartbeat CPU 0 instructions: 250000000 cycles: 244639499 heartbeat IPC: 1.15094 cumulative IPC: 0.806009 (Simulation time: 0 hr 9 min 44 sec) 
Heartbeat CPU 0 instructions: 260000000 cycles: 253664221 heartbeat IPC: 1.10807 cumulative IPC: 0.81998 (Simulation time: 0 hr 10 min 7 sec) 
Heartbeat CPU 0 instructions: 270000000 cycles: 263246207 heartbeat IPC: 1.04362 cumulative IPC: 0.830448 (Simulation time: 0 hr 10 min 30 sec) 
Heartbeat CPU 0 instructions: 280000000 cycles: 273016982 heartbeat IPC: 1.02346 cumulative IPC: 0.839241 (Simulation time: 0 hr 10 min 55 sec) 
Heartbeat CPU 0 instructions: 290000000 cycles: 282974690 heartbeat IPC: 1.00425 cumulative IPC: 0.846562 (Simulation time: 0 hr 11 min 20 sec) 
Heartbeat CPU 0 instructions: 300000000 cycles: 291573517 heartbeat IPC: 1.16295 cumulative IPC: 0.858236 (Simulation time: 0 hr 11 min 43 sec) 
Heartbeat CPU 0 instructions: 310000002 cycles: 305540674 heartbeat IPC: 0.715965 cumulative IPC: 0.850191 (Simulation time: 0 hr 12 min 10 sec) 
Heartbeat CPU 0 instructions: 320000000 cycles: 321762237 heartbeat IPC: 0.616463 cumulative IPC: 0.835787 (Simulation time: 0 hr 12 min 40 sec) 
Heartbeat CPU 0 instructions: 330000002 cycles: 332423281 heartbeat IPC: 0.937995 cumulative IPC: 0.839766 (Simulation time: 0 hr 13 min 4 sec) 
Heartbeat CPU 0 instructions: 340000000 cycles: 342597835 heartbeat IPC: 0.982844 cumulative IPC: 0.844891 (Simulation time: 0 hr 13 min 28 sec) 
Heartbeat CPU 0 instructions: 350000002 cycles: 355671439 heartbeat IPC: 0.7649 cumulative IPC: 0.841371 (Simulation time: 0 hr 13 min 55 sec) 
Heartbeat CPU 0 instructions: 360000000 cycles: 366748987 heartbeat IPC: 0.902727 cumulative IPC: 0.843576 (Simulation time: 0 hr 14 min 19 sec) 
Heartbeat CPU 0 instructions: 370000002 cycles: 377269992 heartbeat IPC: 0.95048 cumulative IPC: 0.847105 (Simulation time: 0 hr 14 min 44 sec) 
Heartbeat CPU 0 instructions: 380000000 cycles: 387642327 heartbeat IPC: 0.964103 cumulative IPC: 0.850793 (Simulation time: 0 hr 15 min 8 sec) 
Heartbeat CPU 0 instructions: 390000003 cycles: 404220301 heartbeat IPC: 0.60321 cumulative IPC: 0.838919 (Simulation time: 0 hr 15 min 37 sec) 
Heartbeat CPU 0 instructions: 400000000 cycles: 415147842 heartbeat IPC: 0.915119 cumulative IPC: 0.841254 (Simulation time: 0 hr 16 min 0 sec) 
Heartbeat CPU 0 instructions: 410000002 cycles: 425349171 heartbeat IPC: 0.980265 cumulative IPC: 0.84512 (Simulation time: 0 hr 16 min 23 sec) 
Heartbeat CPU 0 instructions: 420000000 cycles: 435330600 heartbeat IPC: 1.00186 cumulative IPC: 0.849272 (Simulation time: 0 hr 16 min 45 sec) 
Heartbeat CPU 0 instructions: 430000001 cycles: 445357349 heartbeat IPC: 0.997332 cumulative IPC: 0.85311 (Simulation time: 0 hr 17 min 7 sec) 
Heartbeat CPU 0 instructions: 440000000 cycles: 456888914 heartbeat IPC: 0.867185 cumulative IPC: 0.853518 (Simulation time: 0 hr 17 min 30 sec) 
Heartbeat CPU 0 instructions: 450000002 cycles: 471963043 heartbeat IPC: 0.663388 cumulative IPC: 0.846585 (Simulation time: 0 hr 17 min 55 sec) 
Heartbeat CPU 0 instructions: 460000000 cycles: 486986460 heartbeat IPC: 0.665627 cumulative IPC: 0.84024 (Simulation time: 0 hr 18 min 19 sec) 
Heartbeat CPU 0 instructions: 470000003 cycles: 502000231 heartbeat IPC: 0.666055 cumulative IPC: 0.834343 (Simulation time: 0 hr 18 min 43 sec) 
Heartbeat CPU 0 instructions: 480000000 cycles: 517930947 heartbeat IPC: 0.627718 cumulative IPC: 0.827178 (Simulation time: 0 hr 19 min 9 sec) 
Heartbeat CPU 0 instructions: 490000002 cycles: 536619156 heartbeat IPC: 0.535097 cumulative IPC: 0.81576 (Simulation time: 0 hr 19 min 38 sec) 
Heartbeat CPU 0 instructions: 500000000 cycles: 545787128 heartbeat IPC: 1.09075 cumulative IPC: 0.820934 (Simulation time: 0 hr 20 min 0 sec) 
Heartbeat CPU 0 instructions: 510000002 cycles: 554542382 heartbeat IPC: 1.14217 cumulative IPC: 0.826605 (Simulation time: 0 hr 20 min 22 sec) 
Heartbeat CPU 0 instructions: 520000000 cycles: 563555299 heartbeat IPC: 1.10952 cumulative IPC: 0.831654 (Simulation time: 0 hr 20 min 43 sec) 
Heartbeat CPU 0 instructions: 530000002 cycles: 573146594 heartbeat IPC: 1.04261 cumulative IPC: 0.835586 (Simulation time: 0 hr 21 min 6 sec) 
Heartbeat CPU 0 instructions: 540000000 cycles: 582867402 heartbeat IPC: 1.02872 cumulative IPC: 0.839166 (Simulation time: 0 hr 21 min 30 sec) 
Heartbeat CPU 0 instructions: 550000002 cycles: 592851362 heartbeat IPC: 1.00161 cumulative IPC: 0.842202 (Simulation time: 0 hr 21 min 54 sec) 
Heartbeat CPU 0 instructions: 560000000 cycles: 601449764 heartbeat IPC: 1.16301 cumulative IPC: 0.847282 (Simulation time: 0 hr 22 min 16 sec) 
Heartbeat CPU 0 instructions: 570000003 cycles: 615248578 heartbeat IPC: 0.7247 cumulative IPC: 0.844244 (Simulation time: 0 hr 22 min 43 sec) 
Heartbeat CPU 0 instructions: 580000000 cycles: 631595806 heartbeat IPC: 0.611724 cumulative IPC: 0.837611 (Simulation time: 0 hr 23 min 12 sec) 
Heartbeat CPU 0 instructions: 590000002 cycles: 641899999 heartbeat IPC: 0.970479 cumulative IPC: 0.839958 (Simulation time: 0 hr 23 min 35 sec) 
Heartbeat CPU 0 instructions: 600000000 cycles: 652437424 heartbeat IPC: 0.948998 cumulative IPC: 0.841893 (Simulation time: 0 hr 23 min 59 sec) 
Finished CPU 0 instructions: 500000000 cycles: 593900015 cumulative IPC: 0.841893 (Simulation time: 0 hr 23 min 59 sec) 

CPU 0 Branch Prediction Accuracy: 99.5219% MPKI: 0.251582
Number of Branches: 26312578 Number of Mispredictions: 125791
Number of LOAD Instructions: 235643083
Number of LOAD Instructions (ROI): 235643083
Number of STORE Instructions: 37593550
Number of STORE Instructions (ROI): 37593550
Total Destination Memory Operands: 40480968
Total Destination Memory Operands (ROI): 40480968
Total Source Memory Operands: 235643083
Total Source Memory Operands (ROI): 235643083
Number of DEPENDED LOADS: 6700753
Number of DEPENDED LOADS (ROI): 6700753
Number of SQ_ADDED: 40480950
Number of SQ_ADDED (ROI): 40480950
Number of LQ_ADDED: 387734119
Number of LQ_ADDED (ROI): 387734119
Number of Instructions read from trace: 600000259

ChampSim completed all CPUs

Region of Interest Statistics

CPU 0 cumulative IPC: 0.841893 instructions: 500000000 cycles: 593900015
ITLB TOTAL     ACCESS:  109347317  HIT:  109346804  MISS:        513
ITLB LOAD      ACCESS:  109347317  HIT:  109346804  MISS:        513
ITLB RFO       ACCESS:          0  HIT:          0  MISS:          0
ITLB PREFETCH  ACCESS:          0  HIT:          0  MISS:          0
ITLB WRITEBACK ACCESS:          0  HIT:          0  MISS:          0
ITLB PREFETCH  REQUESTED:          0  ISSUED:          0  USEFUL:          0  USELESS:          0
ITLB TOTAL MSHR MERGED:        966
ITLB LOAD MSHR MERGED:        966
ITLB RFO MSHR MERGED:          0
ITLB PREFETCH MSHR MERGED:          0
ITLB WRITEBACK MSHR MERGED:          0
ITLB TOTAL ACCESSES:  109348283 HITS:  109346804 MISSES:       1479
ITLB LOAD ACCESSES:  109348283 HITS:  109346804 MISSES:       1479
ITLB RFO ACCESSES:          0 HITS:          0 MISSES:          0
ITLB PREFETCH ACCESSES:          0 HITS:          0 MISSES:          0
ITLB WRITEBACK ACCESSES:          0 HITS:          0 MISSES:          0
ITLB RQ ACCESS:  500000003
ITLB RQ TO_CACHE:  109348283
ITLB RQ MERGED:  390651720
ITLB RQ FORWARD:          0
ITLB WQ ACCESS:          0
ITLB WQ TO_CACHE:          0
ITLB WQ MERGED:          0
ITLB WQ FORWARD:          0
DTLB TOTAL     ACCESS:  130428357  HIT:  130170649  MISS:     257708
DTLB LOAD      ACCESS:  109028398  HIT:  108807584  MISS:     220814
DTLB RFO       ACCESS:   21399959  HIT:   21363065  MISS:      36894
DTLB PREFETCH  ACCESS:          0  HIT:          0  MISS:          0
DTLB WRITEBACK ACCESS:          0  HIT:          0  MISS:          0
DTLB PREFETCH  REQUESTED:          0  ISSUED:          0  USEFUL:          0  USELESS:          0
DTLB TOTAL MSHR MERGED:     121749
DTLB LOAD MSHR MERGED:      83888
DTLB RFO MSHR MERGED:      37861
DTLB PREFETCH MSHR MERGED:          0
DTLB WRITEBACK MSHR MERGED:          0
DTLB TOTAL ACCESSES:  130550106 HITS:  130170649 MISSES:     379457
DTLB LOAD ACCESSES:  109112286 HITS:  108807584 MISSES:     304702
DTLB RFO ACCESSES:   21437820 HITS:   21363065 MISSES:      74755
DTLB PREFETCH ACCESSES:          0 HITS:          0 MISSES:          0
DTLB WRITEBACK ACCESSES:          0 HITS:          0 MISSES:          0
DTLB RQ ACCESS:  218633645
DTLB RQ TO_CACHE:  130550107
DTLB RQ MERGED:   88083538
DTLB RQ FORWARD:          0
DTLB WQ ACCESS:          0
DTLB WQ TO_CACHE:          0
DTLB WQ MERGED:          0
DTLB WQ FORWARD:          0
L1D TOTAL     ACCESS:  204749271  HIT:  193676918  MISS:   11072353
L1D LOAD      ACCESS:  106315320  HIT:  103176407  MISS:    3138913
L1D RFO       ACCESS:   26956142  HIT:   25205911  MISS:    1750231
L1D PREFETCH  ACCESS:   71477809  HIT:   65294600  MISS:    6183209
L1D WRITEBACK ACCESS:          0  HIT:          0  MISS:          0
L1D PREFETCH  REQUESTED:  108919828  ISSUED:  107257604  USEFUL:    5728282  USELESS:     454921
L1D TOTAL MSHR MERGED:   18166696
L1D LOAD MSHR MERGED:    4580741
L1D RFO MSHR MERGED:    6476625
L1D PREFETCH MSHR MERGED:    7109330
L1D WRITEBACK MSHR MERGED:          0
L1D TOTAL ACCESSES:  222979251 HITS:  193740202 MISSES:   29239049
L1D LOAD ACCESSES:  108947409 HITS:  103203988 MISSES:    5743421
L1D RFO ACCESSES:   33430538 HITS:   25205911 MISSES:    8224627
L1D PREFETCH ACCESSES:   80601304 HITS:   65330303 MISSES:   15271001
L1D WRITEBACK ACCESSES:          0 HITS:          0 MISSES:          0
L1D RQ ACCESS:  184990207
L1D RQ TO_CACHE:  108919828
L1D RQ MERGED:   76042798
L1D RQ FORWARD:          0
L1D WQ ACCESS:   33643426
L1D WQ TO_CACHE:   33430537
L1D WQ MERGED:     212889
L1D WQ FORWARD:      63284
L1I TOTAL     ACCESS:  134033464  HIT:  134008887  MISS:      24577
L1I LOAD      ACCESS:  134033464  HIT:  134008887  MISS:      24577
L1I RFO       ACCESS:          0  HIT:          0  MISS:          0
L1I PREFETCH  ACCESS:          0  HIT:          0  MISS:          0
L1I WRITEBACK ACCESS:          0  HIT:          0  MISS:          0
L1I PREFETCH  REQUESTED:          0  ISSUED:          0  USEFUL:          0  USELESS:          0
L1I TOTAL MSHR MERGED:      30427
L1I LOAD MSHR MERGED:      30427
L1I RFO MSHR MERGED:          0
L1I PREFETCH MSHR MERGED:          0
L1I WRITEBACK MSHR MERGED:          0
L1I TOTAL ACCESSES:  134063891 HITS:  134008887 MISSES:      55004
L1I LOAD ACCESSES:  134063891 HITS:  134008887 MISSES:      55004
L1I RFO ACCESSES:          0 HITS:          0 MISSES:          0
L1I PREFETCH ACCESSES:          0 HITS:          0 MISSES:          0
L1I WRITEBACK ACCESSES:          0 HITS:          0 MISSES:          0
L1I RQ ACCESS:  500000005
L1I RQ TO_CACHE:  134063891
L1I RQ MERGED:  365936114
L1I RQ FORWARD:          0
L1I WQ ACCESS:          0
L1I WQ TO_CACHE:          0
L1I WQ MERGED:          0
L1I WQ FORWARD:          0
L2C TOTAL     ACCESS:   14943163  HIT:    6944974  MISS:    7998189
L2C LOAD      ACCESS:    1187068  HIT:     299370  MISS:     887698
L2C RFO       ACCESS:    1747791  HIT:     369402  MISS:    1378389
L2C PREFETCH  ACCESS:    8326347  HIT:    2602931  MISS:    5723416
L2C WRITEBACK ACCESS:    3681957  HIT:    3673271  MISS:       8686
L2C PREFETCH  REQUESTED:     390642  ISSUED:     390639  USEFUL:     114952  USELESS:    5609296
L2C TOTAL MSHR MERGED:      42209
L2C LOAD MSHR MERGED:       2417
L2C RFO MSHR MERGED:       1415
L2C PREFETCH MSHR MERGED:      38377
L2C WRITEBACK MSHR MERGED:          0
L2C TOTAL ACCESSES:   15104970 HITS:    6945663 MISSES:    8159307
L2C LOAD ACCESSES:    1187257 HITS:     299559 MISSES:     887698
L2C RFO ACCESSES:    1748002 HITS:     369613 MISSES:    1378389
L2C PREFETCH ACCESSES:    8487754 HITS:    2603220 MISSES:    5884534
L2C WRITEBACK ACCESSES:    3681957 HITS:    3673271 MISSES:       8686
L2C RQ ACCESS:    2935259
L2C RQ TO_CACHE:    2934859
L2C RQ MERGED:          0
L2C RQ FORWARD:          0
L2C WQ ACCESS:    3681957
L2C WQ TO_CACHE:    3681957
L2C WQ MERGED:          0
L2C WQ FORWARD:        689
LLC TOTAL     ACCESS:   11183649  HIT:    3051511  MISS:    8132138
LLC LOAD      ACCESS:     885277  HIT:     315183  MISS:     570094
LLC RFO       ACCESS:    1376973  HIT:     203076  MISS:    1173897
LLC PREFETCH  ACCESS:    5817016  HIT:    1205165  MISS:    4611851
LLC WRITEBACK ACCESS:    3104383  HIT:    1328087  MISS:    1776296
LLC PREFETCH  REQUESTED:          0  ISSUED:          0  USEFUL:      32379  USELESS:    4579201
LLC TOTAL MSHR MERGED:      22060
LLC LOAD MSHR MERGED:       6731
LLC RFO MSHR MERGED:        558
LLC PREFETCH MSHR MERGED:      14771
LLC WRITEBACK MSHR MERGED:          0
LLC TOTAL ACCESSES:   11205720 HITS:    3051522 MISSES:    8154198
LLC LOAD ACCESSES:     885281 HITS:     315187 MISSES:     570094
LLC RFO ACCESSES:    1376974 HITS:     203077 MISSES:    1173897
LLC PREFETCH ACCESSES:    5839082 HITS:    1205171 MISSES:    4633911
LLC WRITEBACK ACCESSES:    3104383 HITS:    1328087 MISSES:    1776296
LLC 0 RQ ACCESS:    2262255
LLC 0 RQ TO_CACHE:    2262250
LLC 0 RQ MERGED:          0
LLC 0 RQ FORWARD:          0
LLC WQ ACCESS:    3104383
LLC WQ TO_CACHE:    3104383
LLC WQ MERGED:          0
LLC WQ FORWARD:         11
Major fault: 0 Minor fault: 11519
CPU 0 L1D next line prefetcher final stats
CPU 0 L2C PC-based stride prefetcher final stats
All Misses: 10237246
All Hits: 3557509
SD Algo Stats - Switches: 0 SRR-Repls: 643511 BRR-Repls: 0

DRAM Statistics
 CHANNEL 0
 RQ ROW_BUFFER_HIT:    3929847  ROW_BUFFER_MISS:    2425042
 DBUS_CONGESTED:    4341812
 WQ ROW_BUFFER_HIT:     372569  ROW_BUFFER_MISS:    1748086  FULL:          0

 AVG_CONGESTED_CYCLE: 13
LOADS RETIRED: 190375692
INSTR RETIRED: 500000000
