
*** ChampSim Multicore Out-of-Order Simulator ***

Warmup Instructions: 100000000
Simulation Instructions: 500000000
Number of CPUs: 1
LLC sets: 2048
LLC ways: 16
Clean RRIP Policies: 2213230222132302 Dirty RRIP Policies: 2223130222231302 PSEL Width: 10 Track Set: 4294967295 PSEL Mask: 1 Demote Mask: 1040100010401000DS Algo: 0Window size: 0
Off-chip DRAM Size: 4096 MB Channels: 1 Width: 64-bit Data Rate: 1600 MT/s

CPU 0 runs /mnt/beegfs/iconst01/spec2017/Mcf.trace.gz
NOT SORTED
TRACE STRING: /mnt/beegfs/iconst01/spec2017/Mcf.trace.gz
SORTED
TRACE STRING: /mnt/beegfs/iconst01/spec2017/Mcf.trace.gz
INITIAL
TRACE STRING: /mnt/beegfs/iconst01/spec2017/Mcf.trace.gz

champsim_seed used: 278

CPU 0 L1D next line prefetcher
CPU 0 L2C IP-based stride prefetcher
Initialize DRRIP state
Assign rand_sets[0]: 454  LLC: 2048
rand_sets[0]: 454
Assign rand_sets[1]: 1662  LLC: 2048
rand_sets[1]: 1662
Assign rand_sets[2]: 1921  LLC: 2048
rand_sets[2]: 1921
Assign rand_sets[3]: 1131  LLC: 2048
rand_sets[3]: 1131
Assign rand_sets[4]: 331  LLC: 2048
rand_sets[4]: 331
Assign rand_sets[5]: 1531  LLC: 2048
rand_sets[5]: 1531
Assign rand_sets[6]: 482  LLC: 2048
rand_sets[6]: 482
Assign rand_sets[7]: 1275  LLC: 2048
rand_sets[7]: 1275
Assign rand_sets[8]: 1876  LLC: 2048
rand_sets[8]: 1876
Assign rand_sets[9]: 2038  LLC: 2048
rand_sets[9]: 2038
Assign rand_sets[10]: 701  LLC: 2048
rand_sets[10]: 701
Assign rand_sets[11]: 479  LLC: 2048
rand_sets[11]: 479
Assign rand_sets[12]: 892  LLC: 2048
rand_sets[12]: 892
Assign rand_sets[13]: 1820  LLC: 2048
rand_sets[13]: 1820
Assign rand_sets[14]: 1505  LLC: 2048
rand_sets[14]: 1505
Assign rand_sets[15]: 1159  LLC: 2048
rand_sets[15]: 1159
Assign rand_sets[16]: 513  LLC: 2048
rand_sets[16]: 513
Assign rand_sets[17]: 703  LLC: 2048
rand_sets[17]: 703
Assign rand_sets[18]: 561  LLC: 2048
rand_sets[18]: 561
Assign rand_sets[19]: 990  LLC: 2048
rand_sets[19]: 990
Assign rand_sets[20]: 342  LLC: 2048
rand_sets[20]: 342
Assign rand_sets[21]: 882  LLC: 2048
rand_sets[21]: 882
Assign rand_sets[22]: 15  LLC: 2048
rand_sets[22]: 15
Assign rand_sets[23]: 71  LLC: 2048
rand_sets[23]: 71
Assign rand_sets[24]: 1127  LLC: 2048
rand_sets[24]: 1127
Assign rand_sets[25]: 1382  LLC: 2048
rand_sets[25]: 1382
Assign rand_sets[26]: 647  LLC: 2048
rand_sets[26]: 647
Assign rand_sets[27]: 857  LLC: 2048
rand_sets[27]: 857
Assign rand_sets[28]: 1450  LLC: 2048
rand_sets[28]: 1450
Assign rand_sets[29]: 1160  LLC: 2048
rand_sets[29]: 1160
Assign rand_sets[30]: 1852  LLC: 2048
rand_sets[30]: 1852
Assign rand_sets[31]: 1881  LLC: 2048
rand_sets[31]: 1881
Assign rand_sets[32]: 1770  LLC: 2048
rand_sets[32]: 1770
Assign rand_sets[33]: 1622  LLC: 2048
rand_sets[33]: 1622
Assign rand_sets[34]: 275  LLC: 2048
rand_sets[34]: 275
Assign rand_sets[35]: 635  LLC: 2048
rand_sets[35]: 635
Assign rand_sets[36]: 466  LLC: 2048
rand_sets[36]: 466
Assign rand_sets[37]: 1413  LLC: 2048
rand_sets[37]: 1413
Assign rand_sets[38]: 417  LLC: 2048
rand_sets[38]: 417
Assign rand_sets[39]: 472  LLC: 2048
rand_sets[39]: 472
Assign rand_sets[40]: 1340  LLC: 2048
rand_sets[40]: 1340
Assign rand_sets[41]: 852  LLC: 2048
rand_sets[41]: 852
Assign rand_sets[42]: 1365  LLC: 2048
rand_sets[42]: 1365
Assign rand_sets[43]: 47  LLC: 2048
rand_sets[43]: 47
Assign rand_sets[44]: 823  LLC: 2048
rand_sets[44]: 823
Assign rand_sets[45]: 686  LLC: 2048
rand_sets[45]: 686
Assign rand_sets[46]: 1637  LLC: 2048
rand_sets[46]: 1637
Assign rand_sets[47]: 1115  LLC: 2048
rand_sets[47]: 1115
Assign rand_sets[48]: 986  LLC: 2048
rand_sets[48]: 986
Assign rand_sets[49]: 258  LLC: 2048
rand_sets[49]: 258
Assign rand_sets[50]: 633  LLC: 2048
rand_sets[50]: 633
Assign rand_sets[51]: 920  LLC: 2048
rand_sets[51]: 920
Assign rand_sets[52]: 204  LLC: 2048
rand_sets[52]: 204
Assign rand_sets[53]: 227  LLC: 2048
rand_sets[53]: 227
Assign rand_sets[54]: 1818  LLC: 2048
rand_sets[54]: 1818
Assign rand_sets[55]: 886  LLC: 2048
rand_sets[55]: 886
Assign rand_sets[56]: 1422  LLC: 2048
rand_sets[56]: 1422
Assign rand_sets[57]: 607  LLC: 2048
rand_sets[57]: 607
Assign rand_sets[58]: 217  LLC: 2048
rand_sets[58]: 217
Assign rand_sets[59]: 1945  LLC: 2048
rand_sets[59]: 1945
Assign rand_sets[60]: 143  LLC: 2048
rand_sets[60]: 143
Assign rand_sets[61]: 1311  LLC: 2048
rand_sets[61]: 1311
Assign rand_sets[62]: 319  LLC: 2048
rand_sets[62]: 319
Assign rand_sets[63]: 1846  LLC: 2048
rand_sets[63]: 1846
 CLEAN-RRIP-POLICY-1: 2-2-1-3-2-3-0-2- CLEAN-RRIP-POLICY-2: 2-2-1-3-2-3-0-2-
 DIRTY-RRIP-POLICY-1: 2-2-2-3-1-3-0-2- DIRTY-RRIP-POLICY-2: 2-2-2-3-1-3-0-2-
 PSEL width: 10
Heartbeat CPU 0 instructions: 10000002 cycles: 6248337 heartbeat IPC: 1.60043 cumulative IPC: 1.60043 (Simulation time: 0 hr 0 min 13 sec) 
Heartbeat CPU 0 instructions: 20000000 cycles: 12468793 heartbeat IPC: 1.6076 cumulative IPC: 1.604 (Simulation time: 0 hr 0 min 25 sec) 
Heartbeat CPU 0 instructions: 30000000 cycles: 18678780 heartbeat IPC: 1.61031 cumulative IPC: 1.6061 (Simulation time: 0 hr 0 min 37 sec) 
Heartbeat CPU 0 instructions: 40000000 cycles: 24889110 heartbeat IPC: 1.61022 cumulative IPC: 1.60713 (Simulation time: 0 hr 0 min 50 sec) 
Heartbeat CPU 0 instructions: 50000003 cycles: 31101284 heartbeat IPC: 1.60974 cumulative IPC: 1.60765 (Simulation time: 0 hr 1 min 2 sec) 
Heartbeat CPU 0 instructions: 60000000 cycles: 37297234 heartbeat IPC: 1.61396 cumulative IPC: 1.6087 (Simulation time: 0 hr 1 min 14 sec) 
Heartbeat CPU 0 instructions: 70000003 cycles: 43515398 heartbeat IPC: 1.60819 cumulative IPC: 1.60863 (Simulation time: 0 hr 1 min 27 sec) 
Heartbeat CPU 0 instructions: 80000000 cycles: 49745671 heartbeat IPC: 1.60507 cumulative IPC: 1.60818 (Simulation time: 0 hr 1 min 39 sec) 
Heartbeat CPU 0 instructions: 90000000 cycles: 55974433 heartbeat IPC: 1.60546 cumulative IPC: 1.60788 (Simulation time: 0 hr 1 min 51 sec) 
Heartbeat CPU 0 instructions: 100000000 cycles: 62193249 heartbeat IPC: 1.60802 cumulative IPC: 1.60789 (Simulation time: 0 hr 2 min 4 sec) 

Warmup complete CPU 0 instructions: 100000001 cycles: 62193250 (Simulation time: 0 hr 2 min 4 sec) 

Heartbeat CPU 0 instructions: 110000000 cycles: 86675580 heartbeat IPC: 0.408458 cumulative IPC: 0.408458 (Simulation time: 0 hr 2 min 27 sec) 
Heartbeat CPU 0 instructions: 120000000 cycles: 111288115 heartbeat IPC: 0.406297 cumulative IPC: 0.407375 (Simulation time: 0 hr 2 min 50 sec) 
Heartbeat CPU 0 instructions: 130000000 cycles: 135982587 heartbeat IPC: 0.404949 cumulative IPC: 0.406563 (Simulation time: 0 hr 3 min 13 sec) 
Heartbeat CPU 0 instructions: 140000000 cycles: 160634982 heartbeat IPC: 0.40564 cumulative IPC: 0.406332 (Simulation time: 0 hr 3 min 36 sec) 
Heartbeat CPU 0 instructions: 150000003 cycles: 185171702 heartbeat IPC: 0.407553 cumulative IPC: 0.406575 (Simulation time: 0 hr 3 min 59 sec) 
Heartbeat CPU 0 instructions: 160000000 cycles: 209962172 heartbeat IPC: 0.403381 cumulative IPC: 0.406039 (Simulation time: 0 hr 4 min 22 sec) 
Heartbeat CPU 0 instructions: 170000001 cycles: 234619943 heartbeat IPC: 0.405552 cumulative IPC: 0.40597 (Simulation time: 0 hr 4 min 45 sec) 
Heartbeat CPU 0 instructions: 180000000 cycles: 259280809 heartbeat IPC: 0.405501 cumulative IPC: 0.405911 (Simulation time: 0 hr 5 min 8 sec) 
Heartbeat CPU 0 instructions: 190000003 cycles: 283903863 heartbeat IPC: 0.406124 cumulative IPC: 0.405935 (Simulation time: 0 hr 5 min 31 sec) 
Heartbeat CPU 0 instructions: 200000000 cycles: 308570985 heartbeat IPC: 0.405398 cumulative IPC: 0.405881 (Simulation time: 0 hr 5 min 54 sec) 
Heartbeat CPU 0 instructions: 210000003 cycles: 333287756 heartbeat IPC: 0.404584 cumulative IPC: 0.405763 (Simulation time: 0 hr 6 min 17 sec) 
Heartbeat CPU 0 instructions: 220000000 cycles: 358194569 heartbeat IPC: 0.401496 cumulative IPC: 0.405404 (Simulation time: 0 hr 6 min 40 sec) 
Heartbeat CPU 0 instructions: 230000002 cycles: 382769980 heartbeat IPC: 0.406911 cumulative IPC: 0.405519 (Simulation time: 0 hr 7 min 3 sec) 
Heartbeat CPU 0 instructions: 240000000 cycles: 407642782 heartbeat IPC: 0.402045 cumulative IPC: 0.405269 (Simulation time: 0 hr 7 min 27 sec) 
Heartbeat CPU 0 instructions: 250000000 cycles: 432328482 heartbeat IPC: 0.405093 cumulative IPC: 0.405257 (Simulation time: 0 hr 7 min 50 sec) 
Heartbeat CPU 0 instructions: 260000000 cycles: 456974157 heartbeat IPC: 0.405751 cumulative IPC: 0.405288 (Simulation time: 0 hr 8 min 13 sec) 
Heartbeat CPU 0 instructions: 270000001 cycles: 481709229 heartbeat IPC: 0.404284 cumulative IPC: 0.405229 (Simulation time: 0 hr 8 min 36 sec) 
Heartbeat CPU 0 instructions: 280000000 cycles: 506377533 heartbeat IPC: 0.405378 cumulative IPC: 0.405237 (Simulation time: 0 hr 8 min 59 sec) 
Heartbeat CPU 0 instructions: 290000001 cycles: 531116109 heartbeat IPC: 0.404227 cumulative IPC: 0.405184 (Simulation time: 0 hr 9 min 23 sec) 
Heartbeat CPU 0 instructions: 300000000 cycles: 556028061 heartbeat IPC: 0.401414 cumulative IPC: 0.404994 (Simulation time: 0 hr 9 min 46 sec) 
Heartbeat CPU 0 instructions: 310000003 cycles: 580587463 heartbeat IPC: 0.407176 cumulative IPC: 0.405097 (Simulation time: 0 hr 10 min 9 sec) 
Heartbeat CPU 0 instructions: 320000000 cycles: 605500664 heartbeat IPC: 0.401394 cumulative IPC: 0.404927 (Simulation time: 0 hr 10 min 32 sec) 
Heartbeat CPU 0 instructions: 330000003 cycles: 630171893 heartbeat IPC: 0.405331 cumulative IPC: 0.404945 (Simulation time: 0 hr 10 min 56 sec) 
Heartbeat CPU 0 instructions: 340000000 cycles: 655122708 heartbeat IPC: 0.400788 cumulative IPC: 0.40477 (Simulation time: 0 hr 11 min 19 sec) 
Heartbeat CPU 0 instructions: 350000002 cycles: 680044179 heartbeat IPC: 0.40126 cumulative IPC: 0.404628 (Simulation time: 0 hr 11 min 42 sec) 
Heartbeat CPU 0 instructions: 360000000 cycles: 705105960 heartbeat IPC: 0.399014 cumulative IPC: 0.404409 (Simulation time: 0 hr 12 min 5 sec) 
Heartbeat CPU 0 instructions: 370000000 cycles: 729938205 heartbeat IPC: 0.402702 cumulative IPC: 0.404346 (Simulation time: 0 hr 12 min 29 sec) 
Heartbeat CPU 0 instructions: 380000000 cycles: 754593464 heartbeat IPC: 0.405593 cumulative IPC: 0.40439 (Simulation time: 0 hr 12 min 52 sec) 
Heartbeat CPU 0 instructions: 390000002 cycles: 779268342 heartbeat IPC: 0.405271 cumulative IPC: 0.404421 (Simulation time: 0 hr 13 min 15 sec) 
Heartbeat CPU 0 instructions: 400000000 cycles: 804113142 heartbeat IPC: 0.402499 cumulative IPC: 0.404356 (Simulation time: 0 hr 13 min 38 sec) 
Heartbeat CPU 0 instructions: 410000002 cycles: 828858600 heartbeat IPC: 0.404115 cumulative IPC: 0.404349 (Simulation time: 0 hr 14 min 1 sec) 
Heartbeat CPU 0 instructions: 420000000 cycles: 853412824 heartbeat IPC: 0.407262 cumulative IPC: 0.404439 (Simulation time: 0 hr 14 min 24 sec) 
Heartbeat CPU 0 instructions: 430000000 cycles: 878167978 heartbeat IPC: 0.403956 cumulative IPC: 0.404424 (Simulation time: 0 hr 14 min 47 sec) 
Heartbeat CPU 0 instructions: 440000000 cycles: 902639702 heartbeat IPC: 0.408635 cumulative IPC: 0.404547 (Simulation time: 0 hr 15 min 11 sec) 
Heartbeat CPU 0 instructions: 450000000 cycles: 927524666 heartbeat IPC: 0.401849 cumulative IPC: 0.404469 (Simulation time: 0 hr 15 min 35 sec) 
Heartbeat CPU 0 instructions: 460000000 cycles: 952297431 heartbeat IPC: 0.403669 cumulative IPC: 0.404447 (Simulation time: 0 hr 15 min 59 sec) 
Heartbeat CPU 0 instructions: 470000001 cycles: 976875438 heartbeat IPC: 0.406868 cumulative IPC: 0.404512 (Simulation time: 0 hr 16 min 23 sec) 
Heartbeat CPU 0 instructions: 480000000 cycles: 1001609132 heartbeat IPC: 0.404307 cumulative IPC: 0.404507 (Simulation time: 0 hr 16 min 48 sec) 
Heartbeat CPU 0 instructions: 490000000 cycles: 1026455750 heartbeat IPC: 0.402469 cumulative IPC: 0.404454 (Simulation time: 0 hr 17 min 12 sec) 
Heartbeat CPU 0 instructions: 500000000 cycles: 1051608562 heartbeat IPC: 0.39757 cumulative IPC: 0.404279 (Simulation time: 0 hr 17 min 36 sec) 
Heartbeat CPU 0 instructions: 510000003 cycles: 1076619652 heartbeat IPC: 0.399823 cumulative IPC: 0.404169 (Simulation time: 0 hr 18 min 0 sec) 
Heartbeat CPU 0 instructions: 520000000 cycles: 1101803150 heartbeat IPC: 0.397085 cumulative IPC: 0.403998 (Simulation time: 0 hr 18 min 24 sec) 
Heartbeat CPU 0 instructions: 530000003 cycles: 1127003303 heartbeat IPC: 0.396823 cumulative IPC: 0.403828 (Simulation time: 0 hr 18 min 49 sec) 
Heartbeat CPU 0 instructions: 540000000 cycles: 1152127799 heartbeat IPC: 0.398018 cumulative IPC: 0.403694 (Simulation time: 0 hr 19 min 13 sec) 
Heartbeat CPU 0 instructions: 550000000 cycles: 1177250767 heartbeat IPC: 0.398042 cumulative IPC: 0.403567 (Simulation time: 0 hr 19 min 37 sec) 
Heartbeat CPU 0 instructions: 560000000 cycles: 1202677611 heartbeat IPC: 0.393285 cumulative IPC: 0.403337 (Simulation time: 0 hr 20 min 1 sec) 
Heartbeat CPU 0 instructions: 570000001 cycles: 1228037681 heartbeat IPC: 0.394321 cumulative IPC: 0.403141 (Simulation time: 0 hr 20 min 26 sec) 
Heartbeat CPU 0 instructions: 580000000 cycles: 1253402533 heartbeat IPC: 0.394246 cumulative IPC: 0.402952 (Simulation time: 0 hr 20 min 50 sec) 
Heartbeat CPU 0 instructions: 590000000 cycles: 1278905777 heartbeat IPC: 0.392107 cumulative IPC: 0.402725 (Simulation time: 0 hr 21 min 14 sec) 
Heartbeat CPU 0 instructions: 600000000 cycles: 1304482020 heartbeat IPC: 0.390988 cumulative IPC: 0.402483 (Simulation time: 0 hr 21 min 39 sec) 
Finished CPU 0 instructions: 500000003 cycles: 1242288783 cumulative IPC: 0.402483 (Simulation time: 0 hr 21 min 39 sec) 

CPU 0 Branch Prediction Accuracy: 91.1342% MPKI: 18.7968
Number of Branches: 106006945 Number of Mispredictions: 9398408
Number of LOAD Instructions: 207894007
Number of LOAD Instructions (ROI): 207894007
Number of STORE Instructions: 54285997
Number of STORE Instructions (ROI): 54285997
Total Destination Memory Operands: 57463404
Total Destination Memory Operands (ROI): 57463404
Total Source Memory Operands: 207894007
Total Source Memory Operands (ROI): 207894007
Number of DEPENDED LOADS: 18103098
Number of DEPENDED LOADS (ROI): 18103098
Number of SQ_ADDED: 57463404
Number of SQ_ADDED (ROI): 57463404
Number of LQ_ADDED: 209237218
Number of LQ_ADDED (ROI): 209237218
Number of Instructions read from trace: 600000039

ChampSim completed all CPUs

Region of Interest Statistics

CPU 0 cumulative IPC: 0.402483 instructions: 500000003 cycles: 1242288783
ITLB TOTAL     ACCESS:   96422871  HIT:   96422871  MISS:          0
ITLB LOAD      ACCESS:   96422871  HIT:   96422871  MISS:          0
ITLB RFO       ACCESS:          0  HIT:          0  MISS:          0
ITLB PREFETCH  ACCESS:          0  HIT:          0  MISS:          0
ITLB WRITEBACK ACCESS:          0  HIT:          0  MISS:          0
ITLB PREFETCH  REQUESTED:          0  ISSUED:          0  USEFUL:          0  USELESS:          0
ITLB TOTAL MSHR MERGED:          0
ITLB LOAD MSHR MERGED:          0
ITLB RFO MSHR MERGED:          0
ITLB PREFETCH MSHR MERGED:          0
ITLB WRITEBACK MSHR MERGED:          0
ITLB TOTAL ACCESSES:   96422871 HITS:   96422871 MISSES:          0
ITLB LOAD ACCESSES:   96422871 HITS:   96422871 MISSES:          0
ITLB RFO ACCESSES:          0 HITS:          0 MISSES:          0
ITLB PREFETCH ACCESSES:          0 HITS:          0 MISSES:          0
ITLB WRITEBACK ACCESSES:          0 HITS:          0 MISSES:          0
ITLB RQ ACCESS:  499999980
ITLB RQ TO_CACHE:   96422871
ITLB RQ MERGED:  403577109
ITLB RQ FORWARD:          0
ITLB WQ ACCESS:          0
ITLB WQ TO_CACHE:          0
ITLB WQ MERGED:          0
ITLB WQ FORWARD:          0
DTLB TOTAL     ACCESS:  155175496  HIT:  150263298  MISS:    4912198
DTLB LOAD      ACCESS:  117724901  HIT:  113334401  MISS:    4390500
DTLB RFO       ACCESS:   37450595  HIT:   36928897  MISS:     521698
DTLB PREFETCH  ACCESS:          0  HIT:          0  MISS:          0
DTLB WRITEBACK ACCESS:          0  HIT:          0  MISS:          0
DTLB PREFETCH  REQUESTED:          0  ISSUED:          0  USEFUL:          0  USELESS:          0
DTLB TOTAL MSHR MERGED:     453545
DTLB LOAD MSHR MERGED:     162112
DTLB RFO MSHR MERGED:     291433
DTLB PREFETCH MSHR MERGED:          0
DTLB WRITEBACK MSHR MERGED:          0
DTLB TOTAL ACCESSES:  155629041 HITS:  150263298 MISSES:    5365743
DTLB LOAD ACCESSES:  117887013 HITS:  113334401 MISSES:    4552612
DTLB RFO ACCESSES:   37742028 HITS:   36928897 MISSES:     813131
DTLB PREFETCH ACCESSES:          0 HITS:          0 MISSES:          0
DTLB WRITEBACK ACCESSES:          0 HITS:          0 MISSES:          0
DTLB RQ ACCESS:  205979761
DTLB RQ TO_CACHE:  155629041
DTLB RQ MERGED:   50350720
DTLB RQ FORWARD:          0
DTLB WQ ACCESS:          0
DTLB WQ TO_CACHE:          0
DTLB WQ MERGED:          0
DTLB WQ FORWARD:          0
L1D TOTAL     ACCESS:  277171856  HIT:  242349377  MISS:   34822479
L1D LOAD      ACCESS:  125413092  HIT:  107775304  MISS:   17637788
L1D RFO       ACCESS:   41136958  HIT:   38825111  MISS:    2311847
L1D PREFETCH  ACCESS:  110621806  HIT:   95748962  MISS:   14872844
L1D WRITEBACK ACCESS:          0  HIT:          0  MISS:          0
L1D PREFETCH  REQUESTED:  126275399  ISSUED:  124756134  USEFUL:    2706853  USELESS:   12166016
L1D TOTAL MSHR MERGED:    8508000
L1D LOAD MSHR MERGED:    1558196
L1D RFO MSHR MERGED:    3768068
L1D PREFETCH MSHR MERGED:    3181736
L1D WRITEBACK MSHR MERGED:          0
L1D TOTAL ACCESSES:  285767153 HITS:  242436673 MISSES:   43330480
L1D LOAD ACCESSES:  126275424 HITS:  107775329 MISSES:   18500095
L1D RFO ACCESSES:   44904530 HITS:   38825111 MISSES:    6079419
L1D PREFETCH ACCESSES:  114587199 HITS:   95836233 MISSES:   18750966
L1D WRITEBACK ACCESSES:          0 HITS:          0 MISSES:          0
L1D RQ ACCESS:  158432880
L1D RQ TO_CACHE:  126275399
L1D RQ MERGED:   32157456
L1D RQ FORWARD:          0
L1D WQ ACCESS:   47546882
L1D WQ TO_CACHE:   44904530
L1D WQ MERGED:    2642352
L1D WQ FORWARD:      87296
L1I TOTAL     ACCESS:  132832807  HIT:  132832807  MISS:          0
L1I LOAD      ACCESS:  132832807  HIT:  132832807  MISS:          0
L1I RFO       ACCESS:          0  HIT:          0  MISS:          0
L1I PREFETCH  ACCESS:          0  HIT:          0  MISS:          0
L1I WRITEBACK ACCESS:          0  HIT:          0  MISS:          0
L1I PREFETCH  REQUESTED:          0  ISSUED:          0  USEFUL:          0  USELESS:          0
L1I TOTAL MSHR MERGED:          0
L1I LOAD MSHR MERGED:          0
L1I RFO MSHR MERGED:          0
L1I PREFETCH MSHR MERGED:          0
L1I WRITEBACK MSHR MERGED:          0
L1I TOTAL ACCESSES:  132832807 HITS:  132832807 MISSES:          0
L1I LOAD ACCESSES:  132832807 HITS:  132832807 MISSES:          0
L1I RFO ACCESSES:          0 HITS:          0 MISSES:          0
L1I PREFETCH ACCESSES:          0 HITS:          0 MISSES:          0
L1I WRITEBACK ACCESSES:          0 HITS:          0 MISSES:          0
L1I RQ ACCESS:  499999980
L1I RQ TO_CACHE:  132832807
L1I RQ MERGED:  367167173
L1I RQ FORWARD:          0
L1I WQ ACCESS:          0
L1I WQ TO_CACHE:          0
L1I WQ MERGED:          0
L1I WQ FORWARD:          0
L2C TOTAL     ACCESS:   39594707  HIT:   20625257  MISS:   18969450
L2C LOAD      ACCESS:   16941838  HIT:    8567518  MISS:    8374320
L2C RFO       ACCESS:    2311298  HIT:     630848  MISS:    1680450
L2C PREFETCH  ACCESS:   17119118  HIT:    8208188  MISS:    8910930
L2C WRITEBACK ACCESS:    3222453  HIT:    3218703  MISS:       3750
L2C PREFETCH  REQUESTED:    2864322  ISSUED:    2864322  USEFUL:    1306894  USELESS:    7603770
L2C TOTAL MSHR MERGED:     526299
L2C LOAD MSHR MERGED:      85561
L2C RFO MSHR MERGED:          0
L2C PREFETCH MSHR MERGED:     440738
L2C WRITEBACK MSHR MERGED:          0
L2C TOTAL ACCESSES:   40224581 HITS:   20625421 MISSES:   19599160
L2C LOAD ACCESSES:   16941899 HITS:    8567579 MISSES:    8374320
L2C RFO ACCESSES:    2311351 HITS:     630901 MISSES:    1680450
L2C PREFETCH ACCESSES:   17748878 HITS:    8208238 MISSES:    9540640
L2C WRITEBACK ACCESSES:    3222453 HITS:    3218703 MISSES:       3750
L2C RQ ACCESS:   19253250
L2C RQ TO_CACHE:   19253136
L2C RQ MERGED:          0
L2C RQ FORWARD:          0
L2C WQ ACCESS:    3222453
L2C WQ TO_CACHE:    3222453
L2C WQ MERGED:          0
L2C WQ FORWARD:        164
LLC TOTAL     ACCESS:   21193140  HIT:   14388378  MISS:    6804762
LLC LOAD      ACCESS:    8288734  HIT:    5802611  MISS:    2486123
LLC RFO       ACCESS:    1680372  HIT:    1672372  MISS:       8000
LLC PREFETCH  ACCESS:    9048374  HIT:    4743596  MISS:    4304778
LLC WRITEBACK ACCESS:    2175660  HIT:    2169799  MISS:       5861
LLC PREFETCH  REQUESTED:          0  ISSUED:          0  USEFUL:     206783  USELESS:    4100389
LLC TOTAL MSHR MERGED:      43448
LLC LOAD MSHR MERGED:      13355
LLC RFO MSHR MERGED:          0
LLC PREFETCH MSHR MERGED:      30093
LLC WRITEBACK MSHR MERGED:          0
LLC TOTAL ACCESSES:   21236721 HITS:   14388510 MISSES:    6848211
LLC LOAD ACCESSES:    8288759 HITS:    5802636 MISSES:    2486123
LLC RFO ACCESSES:    1680450 HITS:    1672450 MISSES:       8000
LLC PREFETCH ACCESSES:    9091852 HITS:    4743625 MISSES:    4348227
LLC WRITEBACK ACCESSES:    2175660 HITS:    2169799 MISSES:       5861
LLC 0 RQ ACCESS:    9969209
LLC 0 RQ TO_CACHE:    9969106
LLC 0 RQ MERGED:          0
LLC 0 RQ FORWARD:          0
LLC WQ ACCESS:    2175661
LLC WQ TO_CACHE:    2175661
LLC WQ MERGED:          0
LLC WQ FORWARD:        132
Major fault: 0 Minor fault: 56391
CPU 0 L1D next line prefetcher final stats
CPU 0 L2C PC-based stride prefetcher final stats
All Misses: 8028942
All Hits: 16541041
SD Algo Stats - Switches: 0 SRR-Repls: 2606566 BRR-Repls: 0

DRAM Statistics
 CHANNEL 0
 RQ ROW_BUFFER_HIT:    4579755  ROW_BUFFER_MISS:    2208972
 DBUS_CONGESTED:    3183314
 WQ ROW_BUFFER_HIT:        647  ROW_BUFFER_MISS:      20930  FULL:          0

 AVG_CONGESTED_CYCLE: 12
LOADS RETIRED: 173631671
INSTR RETIRED: 500000000
