
*** ChampSim Multicore Out-of-Order Simulator ***

Warmup Instructions: 100000000
Simulation Instructions: 500000000
Number of CPUs: 1
LLC sets: 2048
LLC ways: 16
Clean RRIP Policies: 2213230222132302 Dirty RRIP Policies: 2203130222031302 PSEL Width: 10 Track Set: 4294967295 PSEL Mask: 1 Demote Mask: 4040101040401010DS Algo: 0Window size: 0
Off-chip DRAM Size: 4096 MB Channels: 1 Width: 64-bit Data Rate: 1600 MT/s

CPU 0 runs /mnt/beegfs/iconst01/spec2017/Omnetpp.trace.gz
NOT SORTED
TRACE STRING: /mnt/beegfs/iconst01/spec2017/Omnetpp.trace.gz
SORTED
TRACE STRING: /mnt/beegfs/iconst01/spec2017/Omnetpp.trace.gz
INITIAL
TRACE STRING: /mnt/beegfs/iconst01/spec2017/Omnetpp.trace.gz

champsim_seed used: 739

CPU 0 L1D next line prefetcher
CPU 0 L2C IP-based stride prefetcher
Initialize DRRIP state
Assign rand_sets[0]: 454  LLC: 2048
rand_sets[0]: 454
Assign rand_sets[1]: 1662  LLC: 2048
rand_sets[1]: 1662
Assign rand_sets[2]: 1921  LLC: 2048
rand_sets[2]: 1921
Assign rand_sets[3]: 1131  LLC: 2048
rand_sets[3]: 1131
Assign rand_sets[4]: 331  LLC: 2048
rand_sets[4]: 331
Assign rand_sets[5]: 1531  LLC: 2048
rand_sets[5]: 1531
Assign rand_sets[6]: 482  LLC: 2048
rand_sets[6]: 482
Assign rand_sets[7]: 1275  LLC: 2048
rand_sets[7]: 1275
Assign rand_sets[8]: 1876  LLC: 2048
rand_sets[8]: 1876
Assign rand_sets[9]: 2038  LLC: 2048
rand_sets[9]: 2038
Assign rand_sets[10]: 701  LLC: 2048
rand_sets[10]: 701
Assign rand_sets[11]: 479  LLC: 2048
rand_sets[11]: 479
Assign rand_sets[12]: 892  LLC: 2048
rand_sets[12]: 892
Assign rand_sets[13]: 1820  LLC: 2048
rand_sets[13]: 1820
Assign rand_sets[14]: 1505  LLC: 2048
rand_sets[14]: 1505
Assign rand_sets[15]: 1159  LLC: 2048
rand_sets[15]: 1159
Assign rand_sets[16]: 513  LLC: 2048
rand_sets[16]: 513
Assign rand_sets[17]: 703  LLC: 2048
rand_sets[17]: 703
Assign rand_sets[18]: 561  LLC: 2048
rand_sets[18]: 561
Assign rand_sets[19]: 990  LLC: 2048
rand_sets[19]: 990
Assign rand_sets[20]: 342  LLC: 2048
rand_sets[20]: 342
Assign rand_sets[21]: 882  LLC: 2048
rand_sets[21]: 882
Assign rand_sets[22]: 15  LLC: 2048
rand_sets[22]: 15
Assign rand_sets[23]: 71  LLC: 2048
rand_sets[23]: 71
Assign rand_sets[24]: 1127  LLC: 2048
rand_sets[24]: 1127
Assign rand_sets[25]: 1382  LLC: 2048
rand_sets[25]: 1382
Assign rand_sets[26]: 647  LLC: 2048
rand_sets[26]: 647
Assign rand_sets[27]: 857  LLC: 2048
rand_sets[27]: 857
Assign rand_sets[28]: 1450  LLC: 2048
rand_sets[28]: 1450
Assign rand_sets[29]: 1160  LLC: 2048
rand_sets[29]: 1160
Assign rand_sets[30]: 1852  LLC: 2048
rand_sets[30]: 1852
Assign rand_sets[31]: 1881  LLC: 2048
rand_sets[31]: 1881
Assign rand_sets[32]: 1770  LLC: 2048
rand_sets[32]: 1770
Assign rand_sets[33]: 1622  LLC: 2048
rand_sets[33]: 1622
Assign rand_sets[34]: 275  LLC: 2048
rand_sets[34]: 275
Assign rand_sets[35]: 635  LLC: 2048
rand_sets[35]: 635
Assign rand_sets[36]: 466  LLC: 2048
rand_sets[36]: 466
Assign rand_sets[37]: 1413  LLC: 2048
rand_sets[37]: 1413
Assign rand_sets[38]: 417  LLC: 2048
rand_sets[38]: 417
Assign rand_sets[39]: 472  LLC: 2048
rand_sets[39]: 472
Assign rand_sets[40]: 1340  LLC: 2048
rand_sets[40]: 1340
Assign rand_sets[41]: 852  LLC: 2048
rand_sets[41]: 852
Assign rand_sets[42]: 1365  LLC: 2048
rand_sets[42]: 1365
Assign rand_sets[43]: 47  LLC: 2048
rand_sets[43]: 47
Assign rand_sets[44]: 823  LLC: 2048
rand_sets[44]: 823
Assign rand_sets[45]: 686  LLC: 2048
rand_sets[45]: 686
Assign rand_sets[46]: 1637  LLC: 2048
rand_sets[46]: 1637
Assign rand_sets[47]: 1115  LLC: 2048
rand_sets[47]: 1115
Assign rand_sets[48]: 986  LLC: 2048
rand_sets[48]: 986
Assign rand_sets[49]: 258  LLC: 2048
rand_sets[49]: 258
Assign rand_sets[50]: 633  LLC: 2048
rand_sets[50]: 633
Assign rand_sets[51]: 920  LLC: 2048
rand_sets[51]: 920
Assign rand_sets[52]: 204  LLC: 2048
rand_sets[52]: 204
Assign rand_sets[53]: 227  LLC: 2048
rand_sets[53]: 227
Assign rand_sets[54]: 1818  LLC: 2048
rand_sets[54]: 1818
Assign rand_sets[55]: 886  LLC: 2048
rand_sets[55]: 886
Assign rand_sets[56]: 1422  LLC: 2048
rand_sets[56]: 1422
Assign rand_sets[57]: 607  LLC: 2048
rand_sets[57]: 607
Assign rand_sets[58]: 217  LLC: 2048
rand_sets[58]: 217
Assign rand_sets[59]: 1945  LLC: 2048
rand_sets[59]: 1945
Assign rand_sets[60]: 143  LLC: 2048
rand_sets[60]: 143
Assign rand_sets[61]: 1311  LLC: 2048
rand_sets[61]: 1311
Assign rand_sets[62]: 319  LLC: 2048
rand_sets[62]: 319
Assign rand_sets[63]: 1846  LLC: 2048
rand_sets[63]: 1846
 CLEAN-RRIP-POLICY-1: 2-2-1-3-2-3-0-2- CLEAN-RRIP-POLICY-2: 2-2-1-3-2-3-0-2-
 DIRTY-RRIP-POLICY-1: 2-2-0-3-1-3-0-2- DIRTY-RRIP-POLICY-2: 2-2-0-3-1-3-0-2-
 PSEL width: 10
Heartbeat CPU 0 instructions: 10000000 cycles: 7319937 heartbeat IPC: 1.36613 cumulative IPC: 1.36613 (Simulation time: 0 hr 0 min 20 sec) 
Heartbeat CPU 0 instructions: 20000000 cycles: 14623785 heartbeat IPC: 1.36914 cumulative IPC: 1.36764 (Simulation time: 0 hr 0 min 40 sec) 
Heartbeat CPU 0 instructions: 30000003 cycles: 21925256 heartbeat IPC: 1.36959 cumulative IPC: 1.36829 (Simulation time: 0 hr 1 min 1 sec) 
Heartbeat CPU 0 instructions: 40000000 cycles: 29213516 heartbeat IPC: 1.37207 cumulative IPC: 1.36923 (Simulation time: 0 hr 1 min 21 sec) 
Heartbeat CPU 0 instructions: 50000000 cycles: 36490002 heartbeat IPC: 1.37429 cumulative IPC: 1.37024 (Simulation time: 0 hr 1 min 41 sec) 
Heartbeat CPU 0 instructions: 60000000 cycles: 43770111 heartbeat IPC: 1.37361 cumulative IPC: 1.3708 (Simulation time: 0 hr 2 min 1 sec) 
Heartbeat CPU 0 instructions: 70000001 cycles: 51055448 heartbeat IPC: 1.37262 cumulative IPC: 1.37106 (Simulation time: 0 hr 2 min 22 sec) 
Heartbeat CPU 0 instructions: 80000000 cycles: 58330474 heartbeat IPC: 1.37457 cumulative IPC: 1.3715 (Simulation time: 0 hr 2 min 42 sec) 
Heartbeat CPU 0 instructions: 90000000 cycles: 65636929 heartbeat IPC: 1.36865 cumulative IPC: 1.37118 (Simulation time: 0 hr 3 min 2 sec) 
Heartbeat CPU 0 instructions: 100000000 cycles: 72929091 heartbeat IPC: 1.37134 cumulative IPC: 1.37119 (Simulation time: 0 hr 3 min 23 sec) 

Warmup complete CPU 0 instructions: 100000002 cycles: 72929092 (Simulation time: 0 hr 3 min 23 sec) 

Heartbeat CPU 0 instructions: 110000002 cycles: 113303047 heartbeat IPC: 0.247684 cumulative IPC: 0.247684 (Simulation time: 0 hr 4 min 3 sec) 
Heartbeat CPU 0 instructions: 120000000 cycles: 153354925 heartbeat IPC: 0.249676 cumulative IPC: 0.248676 (Simulation time: 0 hr 4 min 44 sec) 
Heartbeat CPU 0 instructions: 130000002 cycles: 193644259 heartbeat IPC: 0.248205 cumulative IPC: 0.248519 (Simulation time: 0 hr 5 min 24 sec) 
Heartbeat CPU 0 instructions: 140000000 cycles: 234060613 heartbeat IPC: 0.247425 cumulative IPC: 0.248244 (Simulation time: 0 hr 6 min 5 sec) 
Heartbeat CPU 0 instructions: 150000002 cycles: 274027301 heartbeat IPC: 0.250208 cumulative IPC: 0.248635 (Simulation time: 0 hr 6 min 46 sec) 
Heartbeat CPU 0 instructions: 160000000 cycles: 314041444 heartbeat IPC: 0.249912 cumulative IPC: 0.248847 (Simulation time: 0 hr 7 min 26 sec) 
Heartbeat CPU 0 instructions: 170000001 cycles: 353317188 heartbeat IPC: 0.25461 cumulative IPC: 0.249654 (Simulation time: 0 hr 8 min 6 sec) 
Heartbeat CPU 0 instructions: 180000000 cycles: 393308717 heartbeat IPC: 0.250053 cumulative IPC: 0.249704 (Simulation time: 0 hr 8 min 47 sec) 
Heartbeat CPU 0 instructions: 190000002 cycles: 433294640 heartbeat IPC: 0.250088 cumulative IPC: 0.249746 (Simulation time: 0 hr 9 min 27 sec) 
Heartbeat CPU 0 instructions: 200000000 cycles: 474474517 heartbeat IPC: 0.242837 cumulative IPC: 0.249038 (Simulation time: 0 hr 10 min 8 sec) 
Heartbeat CPU 0 instructions: 210000003 cycles: 514505582 heartbeat IPC: 0.249806 cumulative IPC: 0.249107 (Simulation time: 0 hr 10 min 48 sec) 
Heartbeat CPU 0 instructions: 220000000 cycles: 554751664 heartbeat IPC: 0.248471 cumulative IPC: 0.249054 (Simulation time: 0 hr 11 min 29 sec) 
Heartbeat CPU 0 instructions: 230000000 cycles: 594963215 heartbeat IPC: 0.248685 cumulative IPC: 0.249026 (Simulation time: 0 hr 12 min 9 sec) 
Heartbeat CPU 0 instructions: 240000000 cycles: 634905329 heartbeat IPC: 0.250362 cumulative IPC: 0.249121 (Simulation time: 0 hr 12 min 49 sec) 
Heartbeat CPU 0 instructions: 250000000 cycles: 674890750 heartbeat IPC: 0.250091 cumulative IPC: 0.249185 (Simulation time: 0 hr 13 min 28 sec) 
Heartbeat CPU 0 instructions: 260000000 cycles: 714978602 heartbeat IPC: 0.249452 cumulative IPC: 0.249202 (Simulation time: 0 hr 14 min 8 sec) 
Heartbeat CPU 0 instructions: 270000000 cycles: 755145591 heartbeat IPC: 0.248961 cumulative IPC: 0.249188 (Simulation time: 0 hr 14 min 47 sec) 
Heartbeat CPU 0 instructions: 280000000 cycles: 795641858 heartbeat IPC: 0.246936 cumulative IPC: 0.249062 (Simulation time: 0 hr 15 min 27 sec) 
Heartbeat CPU 0 instructions: 290000001 cycles: 835375441 heartbeat IPC: 0.251676 cumulative IPC: 0.249198 (Simulation time: 0 hr 16 min 6 sec) 
Heartbeat CPU 0 instructions: 300000000 cycles: 875755816 heartbeat IPC: 0.247645 cumulative IPC: 0.24912 (Simulation time: 0 hr 16 min 46 sec) 
Heartbeat CPU 0 instructions: 310000000 cycles: 916100673 heartbeat IPC: 0.247863 cumulative IPC: 0.24906 (Simulation time: 0 hr 17 min 25 sec) 
Heartbeat CPU 0 instructions: 320000000 cycles: 956155256 heartbeat IPC: 0.249659 cumulative IPC: 0.249087 (Simulation time: 0 hr 18 min 4 sec) 
Heartbeat CPU 0 instructions: 330000000 cycles: 996198311 heartbeat IPC: 0.249731 cumulative IPC: 0.249115 (Simulation time: 0 hr 18 min 44 sec) 
Heartbeat CPU 0 instructions: 340000000 cycles: 1036843498 heartbeat IPC: 0.246032 cumulative IPC: 0.248985 (Simulation time: 0 hr 19 min 23 sec) 
Heartbeat CPU 0 instructions: 350000001 cycles: 1076979448 heartbeat IPC: 0.249153 cumulative IPC: 0.248991 (Simulation time: 0 hr 20 min 2 sec) 
Heartbeat CPU 0 instructions: 360000000 cycles: 1117408147 heartbeat IPC: 0.247349 cumulative IPC: 0.248928 (Simulation time: 0 hr 20 min 41 sec) 
Heartbeat CPU 0 instructions: 370000000 cycles: 1156898538 heartbeat IPC: 0.253226 cumulative IPC: 0.249085 (Simulation time: 0 hr 21 min 19 sec) 
Heartbeat CPU 0 instructions: 380000000 cycles: 1197301774 heartbeat IPC: 0.247505 cumulative IPC: 0.249028 (Simulation time: 0 hr 21 min 59 sec) 
Heartbeat CPU 0 instructions: 390000001 cycles: 1237240734 heartbeat IPC: 0.250382 cumulative IPC: 0.249074 (Simulation time: 0 hr 22 min 37 sec) 
Heartbeat CPU 0 instructions: 400000000 cycles: 1277305400 heartbeat IPC: 0.249596 cumulative IPC: 0.249092 (Simulation time: 0 hr 23 min 16 sec) 
Heartbeat CPU 0 instructions: 410000000 cycles: 1317181626 heartbeat IPC: 0.250776 cumulative IPC: 0.249146 (Simulation time: 0 hr 23 min 55 sec) 
Heartbeat CPU 0 instructions: 420000000 cycles: 1357098392 heartbeat IPC: 0.250521 cumulative IPC: 0.249188 (Simulation time: 0 hr 24 min 34 sec) 
Heartbeat CPU 0 instructions: 430000000 cycles: 1397080513 heartbeat IPC: 0.250112 cumulative IPC: 0.249216 (Simulation time: 0 hr 25 min 13 sec) 
Heartbeat CPU 0 instructions: 440000000 cycles: 1437082122 heartbeat IPC: 0.24999 cumulative IPC: 0.249239 (Simulation time: 0 hr 25 min 51 sec) 
Heartbeat CPU 0 instructions: 450000002 cycles: 1476968736 heartbeat IPC: 0.250711 cumulative IPC: 0.249281 (Simulation time: 0 hr 26 min 30 sec) 
Heartbeat CPU 0 instructions: 460000000 cycles: 1516283317 heartbeat IPC: 0.254359 cumulative IPC: 0.249419 (Simulation time: 0 hr 27 min 9 sec) 
Heartbeat CPU 0 instructions: 470000000 cycles: 1556429515 heartbeat IPC: 0.24909 cumulative IPC: 0.24941 (Simulation time: 0 hr 27 min 48 sec) 
Heartbeat CPU 0 instructions: 480000000 cycles: 1596238971 heartbeat IPC: 0.251197 cumulative IPC: 0.249457 (Simulation time: 0 hr 28 min 27 sec) 
Heartbeat CPU 0 instructions: 490000001 cycles: 1636201045 heartbeat IPC: 0.250237 cumulative IPC: 0.249477 (Simulation time: 0 hr 29 min 6 sec) 
Heartbeat CPU 0 instructions: 500000000 cycles: 1676373848 heartbeat IPC: 0.248925 cumulative IPC: 0.249463 (Simulation time: 0 hr 29 min 45 sec) 
Heartbeat CPU 0 instructions: 510000000 cycles: 1716003468 heartbeat IPC: 0.252337 cumulative IPC: 0.249532 (Simulation time: 0 hr 30 min 24 sec) 
Heartbeat CPU 0 instructions: 520000000 cycles: 1756378528 heartbeat IPC: 0.247678 cumulative IPC: 0.249488 (Simulation time: 0 hr 31 min 3 sec) 
Heartbeat CPU 0 instructions: 530000000 cycles: 1796213719 heartbeat IPC: 0.251034 cumulative IPC: 0.249523 (Simulation time: 0 hr 31 min 42 sec) 
Heartbeat CPU 0 instructions: 540000000 cycles: 1835819840 heartbeat IPC: 0.252486 cumulative IPC: 0.24959 (Simulation time: 0 hr 32 min 20 sec) 
Heartbeat CPU 0 instructions: 550000001 cycles: 1876122083 heartbeat IPC: 0.248125 cumulative IPC: 0.249557 (Simulation time: 0 hr 33 min 0 sec) 
Heartbeat CPU 0 instructions: 560000000 cycles: 1916524395 heartbeat IPC: 0.247511 cumulative IPC: 0.249512 (Simulation time: 0 hr 33 min 39 sec) 
Heartbeat CPU 0 instructions: 570000003 cycles: 1956901831 heartbeat IPC: 0.247663 cumulative IPC: 0.249473 (Simulation time: 0 hr 34 min 18 sec) 
Heartbeat CPU 0 instructions: 580000000 cycles: 1997125606 heartbeat IPC: 0.248609 cumulative IPC: 0.249455 (Simulation time: 0 hr 34 min 57 sec) 
Heartbeat CPU 0 instructions: 590000001 cycles: 2037756270 heartbeat IPC: 0.24612 cumulative IPC: 0.249386 (Simulation time: 0 hr 35 min 37 sec) 
Heartbeat CPU 0 instructions: 600000000 cycles: 2078167154 heartbeat IPC: 0.247458 cumulative IPC: 0.249347 (Simulation time: 0 hr 36 min 16 sec) 
Finished CPU 0 instructions: 500000000 cycles: 2005238070 cumulative IPC: 0.249347 (Simulation time: 0 hr 36 min 16 sec) 

CPU 0 Branch Prediction Accuracy: 96.2429% MPKI: 5.85335
Number of Branches: 77897976 Number of Mispredictions: 2926674
Number of LOAD Instructions: 193081861
Number of LOAD Instructions (ROI): 193081861
Number of STORE Instructions: 97310749
Number of STORE Instructions (ROI): 97310749
Total Destination Memory Operands: 106368027
Total Destination Memory Operands (ROI): 106368027
Total Source Memory Operands: 193081861
Total Source Memory Operands (ROI): 193081861
Number of DEPENDED LOADS: 6436660
Number of DEPENDED LOADS (ROI): 6436660
Number of SQ_ADDED: 106367982
Number of SQ_ADDED (ROI): 106367982
Number of LQ_ADDED: 426068063
Number of LQ_ADDED (ROI): 426068063
Number of Instructions read from trace: 600000256

ChampSim completed all CPUs

Region of Interest Statistics

CPU 0 cumulative IPC: 0.249347 instructions: 500000000 cycles: 2005238070
ITLB TOTAL     ACCESS:  151254350  HIT:  151238519  MISS:      15831
ITLB LOAD      ACCESS:  151254350  HIT:  151238519  MISS:      15831
ITLB RFO       ACCESS:          0  HIT:          0  MISS:          0
ITLB PREFETCH  ACCESS:          0  HIT:          0  MISS:          0
ITLB WRITEBACK ACCESS:          0  HIT:          0  MISS:          0
ITLB PREFETCH  REQUESTED:          0  ISSUED:          0  USEFUL:          0  USELESS:          0
ITLB TOTAL MSHR MERGED:      17594
ITLB LOAD MSHR MERGED:      17594
ITLB RFO MSHR MERGED:          0
ITLB PREFETCH MSHR MERGED:          0
ITLB WRITEBACK MSHR MERGED:          0
ITLB TOTAL ACCESSES:  151271944 HITS:  151238519 MISSES:      33425
ITLB LOAD ACCESSES:  151271944 HITS:  151238519 MISSES:      33425
ITLB RFO ACCESSES:          0 HITS:          0 MISSES:          0
ITLB PREFETCH ACCESSES:          0 HITS:          0 MISSES:          0
ITLB WRITEBACK ACCESSES:          0 HITS:          0 MISSES:          0
ITLB RQ ACCESS:  500000242
ITLB RQ TO_CACHE:  151271944
ITLB RQ MERGED:  348728298
ITLB RQ FORWARD:          0
ITLB WQ ACCESS:          0
ITLB WQ TO_CACHE:          0
ITLB WQ MERGED:          0
ITLB WQ FORWARD:          0
DTLB TOTAL     ACCESS:  199564825  HIT:  194185759  MISS:    5379066
DTLB LOAD      ACCESS:  123137310  HIT:  118118737  MISS:    5018573
DTLB RFO       ACCESS:   76427515  HIT:   76067022  MISS:     360493
DTLB PREFETCH  ACCESS:          0  HIT:          0  MISS:          0
DTLB WRITEBACK ACCESS:          0  HIT:          0  MISS:          0
DTLB PREFETCH  REQUESTED:          0  ISSUED:          0  USEFUL:          0  USELESS:          0
DTLB TOTAL MSHR MERGED:     917107
DTLB LOAD MSHR MERGED:     807221
DTLB RFO MSHR MERGED:     109886
DTLB PREFETCH MSHR MERGED:          0
DTLB WRITEBACK MSHR MERGED:          0
DTLB TOTAL ACCESSES:  200481932 HITS:  194185759 MISSES:    6296173
DTLB LOAD ACCESSES:  123944531 HITS:  118118737 MISSES:    5825794
DTLB RFO ACCESSES:   76537401 HITS:   76067022 MISSES:     470379
DTLB PREFETCH ACCESSES:          0 HITS:          0 MISSES:          0
DTLB WRITEBACK ACCESSES:          0 HITS:          0 MISSES:          0
DTLB RQ ACCESS:  243888572
DTLB RQ TO_CACHE:  200481932
DTLB RQ MERGED:   43406640
DTLB RQ FORWARD:          0
DTLB WQ ACCESS:          0
DTLB WQ TO_CACHE:          0
DTLB WQ MERGED:          0
DTLB WQ FORWARD:          0
L1D TOTAL     ACCESS:  335638515  HIT:  317542277  MISS:   18096238
L1D LOAD      ACCESS:  127701012  HIT:  118759551  MISS:    8941461
L1D RFO       ACCESS:   87091494  HIT:   86309596  MISS:     781898
L1D PREFETCH  ACCESS:  120846009  HIT:  112473130  MISS:    8372879
L1D WRITEBACK ACCESS:          0  HIT:          0  MISS:          0
L1D PREFETCH  REQUESTED:  128479608  ISSUED:  126881627  USEFUL:    1744332  USELESS:    6628559
L1D TOTAL MSHR MERGED:    3826298
L1D LOAD MSHR MERGED:     941028
L1D RFO MSHR MERGED:    1056558
L1D PREFETCH MSHR MERGED:    1828712
L1D WRITEBACK MSHR MERGED:          0
L1D TOTAL ACCESSES:  339550168 HITS:  317627632 MISSES:   21922536
L1D LOAD ACCESSES:  128480045 HITS:  118759988 MISSES:    9720057
L1D RFO ACCESSES:   88086803 HITS:   86309596 MISSES:    1777207
L1D PREFETCH ACCESSES:  122983320 HITS:  112558048 MISSES:   10425272
L1D WRITEBACK ACCESSES:          0 HITS:          0 MISSES:          0
L1D RQ ACCESS:  155257187
L1D RQ TO_CACHE:  128479608
L1D RQ MERGED:   26777142
L1D RQ FORWARD:          0
L1D WQ ACCESS:   88631385
L1D WQ TO_CACHE:   88086802
L1D WQ MERGED:     544583
L1D WQ FORWARD:      85355
L1I TOTAL     ACCESS:  175558780  HIT:  175292313  MISS:     266467
L1I LOAD      ACCESS:  175558780  HIT:  175292313  MISS:     266467
L1I RFO       ACCESS:          0  HIT:          0  MISS:          0
L1I PREFETCH  ACCESS:          0  HIT:          0  MISS:          0
L1I WRITEBACK ACCESS:          0  HIT:          0  MISS:          0
L1I PREFETCH  REQUESTED:          0  ISSUED:          0  USEFUL:          0  USELESS:          0
L1I TOTAL MSHR MERGED:     213110
L1I LOAD MSHR MERGED:     213110
L1I RFO MSHR MERGED:          0
L1I PREFETCH MSHR MERGED:          0
L1I WRITEBACK MSHR MERGED:          0
L1I TOTAL ACCESSES:  175771890 HITS:  175292313 MISSES:     479577
L1I LOAD ACCESSES:  175771890 HITS:  175292313 MISSES:     479577
L1I RFO ACCESSES:          0 HITS:          0 MISSES:          0
L1I PREFETCH ACCESSES:          0 HITS:          0 MISSES:          0
L1I WRITEBACK ACCESSES:          0 HITS:          0 MISSES:          0
L1I RQ ACCESS:  500000242
L1I RQ TO_CACHE:  175771890
L1I RQ MERGED:  324228352
L1I RQ FORWARD:          0
L1I WQ ACCESS:          0
L1I WQ TO_CACHE:          0
L1I WQ MERGED:          0
L1I WQ FORWARD:          0
L2C TOTAL     ACCESS:   23738811  HIT:   12113028  MISS:   11625783
L2C LOAD      ACCESS:    9044319  HIT:    3564787  MISS:    5479532
L2C RFO       ACCESS:     720591  HIT:     130361  MISS:     590230
L2C PREFETCH  ACCESS:    8613556  HIT:    3086239  MISS:    5527317
L2C WRITEBACK ACCESS:    5360345  HIT:    5331641  MISS:      28704
L2C PREFETCH  REQUESTED:      18037  ISSUED:      18037  USEFUL:     323017  USELESS:    5204475
L2C TOTAL MSHR MERGED:         23
L2C LOAD MSHR MERGED:          2
L2C RFO MSHR MERGED:          0
L2C PREFETCH MSHR MERGED:         21
L2C WRITEBACK MSHR MERGED:          0
L2C TOTAL ACCESSES:   23740629 HITS:   12114819 MISSES:   11625810
L2C LOAD ACCESSES:    9045496 HITS:    3565964 MISSES:    5479532
L2C RFO ACCESSES:     720649 HITS:     130419 MISSES:     590230
L2C PREFETCH ACCESSES:    8614139 HITS:    3086795 MISSES:    5527344
L2C WRITEBACK ACCESSES:    5360345 HITS:    5331641 MISSES:      28704
L2C RQ ACCESS:    9766145
L2C RQ TO_CACHE:    9764910
L2C RQ MERGED:          0
L2C RQ FORWARD:          0
L2C WQ ACCESS:    5360345
L2C WQ TO_CACHE:    5360345
L2C WQ MERGED:          0
L2C WQ FORWARD:       1791
LLC TOTAL     ACCESS:   15448700  HIT:    6616563  MISS:    8832137
LLC LOAD      ACCESS:    5479501  HIT:    2091680  MISS:    3387821
LLC RFO       ACCESS:     590228  HIT:     287819  MISS:     302409
LLC PREFETCH  ACCESS:    5527307  HIT:    1131540  MISS:    4395767
LLC WRITEBACK ACCESS:    3851664  HIT:    3105524  MISS:     746140
LLC PREFETCH  REQUESTED:          0  ISSUED:          0  USEFUL:      25108  USELESS:    4371184
LLC TOTAL MSHR MERGED:          0
LLC LOAD MSHR MERGED:          0
LLC RFO MSHR MERGED:          0
LLC PREFETCH MSHR MERGED:          0
LLC WRITEBACK MSHR MERGED:          0
LLC TOTAL ACCESSES:   15448747 HITS:    6616610 MISSES:    8832137
LLC LOAD ACCESSES:    5479530 HITS:    2091709 MISSES:    3387821
LLC RFO ACCESSES:     590230 HITS:     287821 MISSES:     302409
LLC PREFETCH ACCESSES:    5527323 HITS:    1131556 MISSES:    4395767
LLC WRITEBACK ACCESSES:    3851664 HITS:    3105524 MISSES:     746140
LLC 0 RQ ACCESS:    6069760
LLC 0 RQ TO_CACHE:    6069729
LLC 0 RQ MERGED:          0
LLC 0 RQ FORWARD:          0
LLC WQ ACCESS:    3851664
LLC WQ TO_CACHE:    3851664
LLC WQ MERGED:          0
LLC WQ FORWARD:         47
Major fault: 0 Minor fault: 44814
CPU 0 L1D next line prefetcher final stats
CPU 0 L2C PC-based stride prefetcher final stats
All Misses: 10691145
All Hits: 7930058
SD Algo Stats - Switches: 0 SRR-Repls: 3866332 BRR-Repls: 0

DRAM Statistics
 CHANNEL 0
 RQ ROW_BUFFER_HIT:    1431929  ROW_BUFFER_MISS:    6652779
 DBUS_CONGESTED:    5402515
 WQ ROW_BUFFER_HIT:     172440  ROW_BUFFER_MISS:    2051798  FULL:          0

 AVG_CONGESTED_CYCLE: 13
LOADS RETIRED: 160808997
INSTR RETIRED: 500000000
