
*** ChampSim Multicore Out-of-Order Simulator ***

Warmup Instructions: 100000000
Simulation Instructions: 500000000
Number of CPUs: 1
LLC sets: 2048
LLC ways: 16
Clean RRIP Policies: 2213230222132302 Dirty RRIP Policies: 1203130212031302 PSEL Width: 10 Track Set: 4294967295 PSEL Mask: 1 Demote Mask: 1040110010401100DS Algo: 0Window size: 0
Off-chip DRAM Size: 4096 MB Channels: 1 Width: 64-bit Data Rate: 1600 MT/s

CPU 0 runs /mnt/beegfs/iconst01/spec2017/Roms.trace.gz
NOT SORTED
TRACE STRING: /mnt/beegfs/iconst01/spec2017/Roms.trace.gz
SORTED
TRACE STRING: /mnt/beegfs/iconst01/spec2017/Roms.trace.gz
INITIAL
TRACE STRING: /mnt/beegfs/iconst01/spec2017/Roms.trace.gz

champsim_seed used: 417

CPU 0 L1D next line prefetcher
CPU 0 L2C IP-based stride prefetcher
Initialize DRRIP state
Assign rand_sets[0]: 454  LLC: 2048
rand_sets[0]: 454
Assign rand_sets[1]: 1662  LLC: 2048
rand_sets[1]: 1662
Assign rand_sets[2]: 1921  LLC: 2048
rand_sets[2]: 1921
Assign rand_sets[3]: 1131  LLC: 2048
rand_sets[3]: 1131
Assign rand_sets[4]: 331  LLC: 2048
rand_sets[4]: 331
Assign rand_sets[5]: 1531  LLC: 2048
rand_sets[5]: 1531
Assign rand_sets[6]: 482  LLC: 2048
rand_sets[6]: 482
Assign rand_sets[7]: 1275  LLC: 2048
rand_sets[7]: 1275
Assign rand_sets[8]: 1876  LLC: 2048
rand_sets[8]: 1876
Assign rand_sets[9]: 2038  LLC: 2048
rand_sets[9]: 2038
Assign rand_sets[10]: 701  LLC: 2048
rand_sets[10]: 701
Assign rand_sets[11]: 479  LLC: 2048
rand_sets[11]: 479
Assign rand_sets[12]: 892  LLC: 2048
rand_sets[12]: 892
Assign rand_sets[13]: 1820  LLC: 2048
rand_sets[13]: 1820
Assign rand_sets[14]: 1505  LLC: 2048
rand_sets[14]: 1505
Assign rand_sets[15]: 1159  LLC: 2048
rand_sets[15]: 1159
Assign rand_sets[16]: 513  LLC: 2048
rand_sets[16]: 513
Assign rand_sets[17]: 703  LLC: 2048
rand_sets[17]: 703
Assign rand_sets[18]: 561  LLC: 2048
rand_sets[18]: 561
Assign rand_sets[19]: 990  LLC: 2048
rand_sets[19]: 990
Assign rand_sets[20]: 342  LLC: 2048
rand_sets[20]: 342
Assign rand_sets[21]: 882  LLC: 2048
rand_sets[21]: 882
Assign rand_sets[22]: 15  LLC: 2048
rand_sets[22]: 15
Assign rand_sets[23]: 71  LLC: 2048
rand_sets[23]: 71
Assign rand_sets[24]: 1127  LLC: 2048
rand_sets[24]: 1127
Assign rand_sets[25]: 1382  LLC: 2048
rand_sets[25]: 1382
Assign rand_sets[26]: 647  LLC: 2048
rand_sets[26]: 647
Assign rand_sets[27]: 857  LLC: 2048
rand_sets[27]: 857
Assign rand_sets[28]: 1450  LLC: 2048
rand_sets[28]: 1450
Assign rand_sets[29]: 1160  LLC: 2048
rand_sets[29]: 1160
Assign rand_sets[30]: 1852  LLC: 2048
rand_sets[30]: 1852
Assign rand_sets[31]: 1881  LLC: 2048
rand_sets[31]: 1881
Assign rand_sets[32]: 1770  LLC: 2048
rand_sets[32]: 1770
Assign rand_sets[33]: 1622  LLC: 2048
rand_sets[33]: 1622
Assign rand_sets[34]: 275  LLC: 2048
rand_sets[34]: 275
Assign rand_sets[35]: 635  LLC: 2048
rand_sets[35]: 635
Assign rand_sets[36]: 466  LLC: 2048
rand_sets[36]: 466
Assign rand_sets[37]: 1413  LLC: 2048
rand_sets[37]: 1413
Assign rand_sets[38]: 417  LLC: 2048
rand_sets[38]: 417
Assign rand_sets[39]: 472  LLC: 2048
rand_sets[39]: 472
Assign rand_sets[40]: 1340  LLC: 2048
rand_sets[40]: 1340
Assign rand_sets[41]: 852  LLC: 2048
rand_sets[41]: 852
Assign rand_sets[42]: 1365  LLC: 2048
rand_sets[42]: 1365
Assign rand_sets[43]: 47  LLC: 2048
rand_sets[43]: 47
Assign rand_sets[44]: 823  LLC: 2048
rand_sets[44]: 823
Assign rand_sets[45]: 686  LLC: 2048
rand_sets[45]: 686
Assign rand_sets[46]: 1637  LLC: 2048
rand_sets[46]: 1637
Assign rand_sets[47]: 1115  LLC: 2048
rand_sets[47]: 1115
Assign rand_sets[48]: 986  LLC: 2048
rand_sets[48]: 986
Assign rand_sets[49]: 258  LLC: 2048
rand_sets[49]: 258
Assign rand_sets[50]: 633  LLC: 2048
rand_sets[50]: 633
Assign rand_sets[51]: 920  LLC: 2048
rand_sets[51]: 920
Assign rand_sets[52]: 204  LLC: 2048
rand_sets[52]: 204
Assign rand_sets[53]: 227  LLC: 2048
rand_sets[53]: 227
Assign rand_sets[54]: 1818  LLC: 2048
rand_sets[54]: 1818
Assign rand_sets[55]: 886  LLC: 2048
rand_sets[55]: 886
Assign rand_sets[56]: 1422  LLC: 2048
rand_sets[56]: 1422
Assign rand_sets[57]: 607  LLC: 2048
rand_sets[57]: 607
Assign rand_sets[58]: 217  LLC: 2048
rand_sets[58]: 217
Assign rand_sets[59]: 1945  LLC: 2048
rand_sets[59]: 1945
Assign rand_sets[60]: 143  LLC: 2048
rand_sets[60]: 143
Assign rand_sets[61]: 1311  LLC: 2048
rand_sets[61]: 1311
Assign rand_sets[62]: 319  LLC: 2048
rand_sets[62]: 319
Assign rand_sets[63]: 1846  LLC: 2048
rand_sets[63]: 1846
 CLEAN-RRIP-POLICY-1: 2-2-1-3-2-3-0-2- CLEAN-RRIP-POLICY-2: 2-2-1-3-2-3-0-2-
 DIRTY-RRIP-POLICY-1: 1-2-0-3-1-3-0-2- DIRTY-RRIP-POLICY-2: 1-2-0-3-1-3-0-2-
 PSEL width: 10
Heartbeat CPU 0 instructions: 10000000 cycles: 4688066 heartbeat IPC: 2.13308 cumulative IPC: 2.13308 (Simulation time: 0 hr 0 min 18 sec) 
Heartbeat CPU 0 instructions: 20000000 cycles: 9325334 heartbeat IPC: 2.15644 cumulative IPC: 2.1447 (Simulation time: 0 hr 0 min 35 sec) 
Heartbeat CPU 0 instructions: 30000003 cycles: 14019722 heartbeat IPC: 2.1302 cumulative IPC: 2.13984 (Simulation time: 0 hr 0 min 53 sec) 
Heartbeat CPU 0 instructions: 40000000 cycles: 18670140 heartbeat IPC: 2.15034 cumulative IPC: 2.14246 (Simulation time: 0 hr 1 min 10 sec) 
Heartbeat CPU 0 instructions: 50000003 cycles: 23323497 heartbeat IPC: 2.14899 cumulative IPC: 2.14376 (Simulation time: 0 hr 1 min 28 sec) 
Heartbeat CPU 0 instructions: 60000000 cycles: 27976128 heartbeat IPC: 2.14932 cumulative IPC: 2.14469 (Simulation time: 0 hr 1 min 45 sec) 
Heartbeat CPU 0 instructions: 70000002 cycles: 32367263 heartbeat IPC: 2.27732 cumulative IPC: 2.16268 (Simulation time: 0 hr 2 min 0 sec) 
Heartbeat CPU 0 instructions: 80000000 cycles: 36304044 heartbeat IPC: 2.54015 cumulative IPC: 2.20361 (Simulation time: 0 hr 2 min 13 sec) 
Heartbeat CPU 0 instructions: 90000000 cycles: 40249273 heartbeat IPC: 2.53471 cumulative IPC: 2.23607 (Simulation time: 0 hr 2 min 25 sec) 
Heartbeat CPU 0 instructions: 100000000 cycles: 44211558 heartbeat IPC: 2.5238 cumulative IPC: 2.26185 (Simulation time: 0 hr 2 min 37 sec) 

Warmup complete CPU 0 instructions: 100000002 cycles: 44211559 (Simulation time: 0 hr 2 min 37 sec) 

Heartbeat CPU 0 instructions: 110000000 cycles: 52837940 heartbeat IPC: 1.15923 cumulative IPC: 1.15923 (Simulation time: 0 hr 2 min 57 sec) 
Heartbeat CPU 0 instructions: 120000000 cycles: 61495637 heartbeat IPC: 1.15504 cumulative IPC: 1.15713 (Simulation time: 0 hr 3 min 16 sec) 
Heartbeat CPU 0 instructions: 130000002 cycles: 70215280 heartbeat IPC: 1.14684 cumulative IPC: 1.15368 (Simulation time: 0 hr 3 min 35 sec) 
Heartbeat CPU 0 instructions: 140000000 cycles: 78777822 heartbeat IPC: 1.16788 cumulative IPC: 1.1572 (Simulation time: 0 hr 3 min 55 sec) 
Heartbeat CPU 0 instructions: 150000003 cycles: 87507335 heartbeat IPC: 1.14554 cumulative IPC: 1.15485 (Simulation time: 0 hr 4 min 14 sec) 
Heartbeat CPU 0 instructions: 160000000 cycles: 97888646 heartbeat IPC: 0.963269 cumulative IPC: 1.1178 (Simulation time: 0 hr 4 min 36 sec) 
Heartbeat CPU 0 instructions: 170000000 cycles: 110443159 heartbeat IPC: 0.796526 cumulative IPC: 1.0569 (Simulation time: 0 hr 5 min 1 sec) 
Heartbeat CPU 0 instructions: 180000000 cycles: 122940980 heartbeat IPC: 0.800139 cumulative IPC: 1.01614 (Simulation time: 0 hr 5 min 25 sec) 
Heartbeat CPU 0 instructions: 190000000 cycles: 135656667 heartbeat IPC: 0.78643 cumulative IPC: 0.984197 (Simulation time: 0 hr 5 min 50 sec) 
Heartbeat CPU 0 instructions: 200000000 cycles: 149329700 heartbeat IPC: 0.731367 cumulative IPC: 0.951311 (Simulation time: 0 hr 6 min 15 sec) 
Heartbeat CPU 0 instructions: 210000001 cycles: 163175224 heartbeat IPC: 0.722255 cumulative IPC: 0.924652 (Simulation time: 0 hr 6 min 40 sec) 
Heartbeat CPU 0 instructions: 220000000 cycles: 176895968 heartbeat IPC: 0.728823 cumulative IPC: 0.904402 (Simulation time: 0 hr 7 min 5 sec) 
Heartbeat CPU 0 instructions: 230000000 cycles: 190362585 heartbeat IPC: 0.742577 cumulative IPC: 0.889491 (Simulation time: 0 hr 7 min 31 sec) 
Heartbeat CPU 0 instructions: 240000000 cycles: 203956522 heartbeat IPC: 0.735622 cumulative IPC: 0.876397 (Simulation time: 0 hr 7 min 57 sec) 
Heartbeat CPU 0 instructions: 250000003 cycles: 214976436 heartbeat IPC: 0.907448 cumulative IPC: 0.878401 (Simulation time: 0 hr 8 min 21 sec) 
Heartbeat CPU 0 instructions: 260000000 cycles: 222763873 heartbeat IPC: 1.28412 cumulative IPC: 0.896096 (Simulation time: 0 hr 8 min 42 sec) 
Heartbeat CPU 0 instructions: 270000003 cycles: 231029479 heartbeat IPC: 1.20983 cumulative IPC: 0.909977 (Simulation time: 0 hr 9 min 3 sec) 
Heartbeat CPU 0 instructions: 280000000 cycles: 239448269 heartbeat IPC: 1.18782 cumulative IPC: 0.921958 (Simulation time: 0 hr 9 min 24 sec) 
Heartbeat CPU 0 instructions: 290000000 cycles: 248046443 heartbeat IPC: 1.16304 cumulative IPC: 0.932127 (Simulation time: 0 hr 9 min 46 sec) 
Heartbeat CPU 0 instructions: 300000000 cycles: 256657960 heartbeat IPC: 1.16124 cumulative IPC: 0.941414 (Simulation time: 0 hr 10 min 7 sec) 
Heartbeat CPU 0 instructions: 310000000 cycles: 265277939 heartbeat IPC: 1.1601 cumulative IPC: 0.949941 (Simulation time: 0 hr 10 min 29 sec) 
Heartbeat CPU 0 instructions: 320000000 cycles: 273958889 heartbeat IPC: 1.15195 cumulative IPC: 0.957574 (Simulation time: 0 hr 10 min 52 sec) 
Heartbeat CPU 0 instructions: 330000002 cycles: 282599393 heartbeat IPC: 1.15734 cumulative IPC: 0.964814 (Simulation time: 0 hr 11 min 15 sec) 
Heartbeat CPU 0 instructions: 340000000 cycles: 292607813 heartbeat IPC: 0.999159 cumulative IPC: 0.966198 (Simulation time: 0 hr 11 min 38 sec) 
Heartbeat CPU 0 instructions: 350000001 cycles: 301137498 heartbeat IPC: 1.17238 cumulative IPC: 0.973043 (Simulation time: 0 hr 12 min 0 sec) 
Heartbeat CPU 0 instructions: 360000000 cycles: 309646998 heartbeat IPC: 1.17516 cumulative IPC: 0.979523 (Simulation time: 0 hr 12 min 22 sec) 
Heartbeat CPU 0 instructions: 370000001 cycles: 318162157 heartbeat IPC: 1.17438 cumulative IPC: 0.985579 (Simulation time: 0 hr 12 min 43 sec) 
Heartbeat CPU 0 instructions: 380000000 cycles: 326621839 heartbeat IPC: 1.18208 cumulative IPC: 0.991465 (Simulation time: 0 hr 13 min 4 sec) 
Heartbeat CPU 0 instructions: 390000001 cycles: 334919579 heartbeat IPC: 1.20515 cumulative IPC: 0.997564 (Simulation time: 0 hr 13 min 25 sec) 
Heartbeat CPU 0 instructions: 400000000 cycles: 343295983 heartbeat IPC: 1.19383 cumulative IPC: 1.00306 (Simulation time: 0 hr 13 min 46 sec) 
Heartbeat CPU 0 instructions: 410000003 cycles: 351594706 heartbeat IPC: 1.20501 cumulative IPC: 1.00851 (Simulation time: 0 hr 14 min 7 sec) 
Heartbeat CPU 0 instructions: 420000000 cycles: 359975160 heartbeat IPC: 1.19325 cumulative IPC: 1.01342 (Simulation time: 0 hr 14 min 28 sec) 
Heartbeat CPU 0 instructions: 430000001 cycles: 368284856 heartbeat IPC: 1.20341 cumulative IPC: 1.01829 (Simulation time: 0 hr 14 min 48 sec) 
Heartbeat CPU 0 instructions: 440000000 cycles: 376542373 heartbeat IPC: 1.21102 cumulative IPC: 1.02308 (Simulation time: 0 hr 15 min 9 sec) 
Heartbeat CPU 0 instructions: 450000001 cycles: 386120063 heartbeat IPC: 1.04409 cumulative IPC: 1.02367 (Simulation time: 0 hr 15 min 32 sec) 
Heartbeat CPU 0 instructions: 460000000 cycles: 394426622 heartbeat IPC: 1.20387 cumulative IPC: 1.02794 (Simulation time: 0 hr 15 min 53 sec) 
Heartbeat CPU 0 instructions: 470000003 cycles: 402593107 heartbeat IPC: 1.22452 cumulative IPC: 1.03242 (Simulation time: 0 hr 16 min 13 sec) 
Heartbeat CPU 0 instructions: 480000000 cycles: 410793415 heartbeat IPC: 1.21947 cumulative IPC: 1.0366 (Simulation time: 0 hr 16 min 33 sec) 
Heartbeat CPU 0 instructions: 490000000 cycles: 418983558 heartbeat IPC: 1.22098 cumulative IPC: 1.04063 (Simulation time: 0 hr 16 min 54 sec) 
Heartbeat CPU 0 instructions: 500000000 cycles: 427173980 heartbeat IPC: 1.22094 cumulative IPC: 1.04449 (Simulation time: 0 hr 17 min 14 sec) 
Heartbeat CPU 0 instructions: 510000001 cycles: 435328396 heartbeat IPC: 1.22633 cumulative IPC: 1.04828 (Simulation time: 0 hr 17 min 34 sec) 
Heartbeat CPU 0 instructions: 520000000 cycles: 443511336 heartbeat IPC: 1.22205 cumulative IPC: 1.05184 (Simulation time: 0 hr 17 min 54 sec) 
Heartbeat CPU 0 instructions: 530000001 cycles: 451702757 heartbeat IPC: 1.22079 cumulative IPC: 1.05524 (Simulation time: 0 hr 18 min 15 sec) 
Heartbeat CPU 0 instructions: 540000000 cycles: 460063560 heartbeat IPC: 1.19606 cumulative IPC: 1.05807 (Simulation time: 0 hr 18 min 35 sec) 
Heartbeat CPU 0 instructions: 550000000 cycles: 468484308 heartbeat IPC: 1.18754 cumulative IPC: 1.06064 (Simulation time: 0 hr 18 min 55 sec) 
Heartbeat CPU 0 instructions: 560000000 cycles: 476673173 heartbeat IPC: 1.22117 cumulative IPC: 1.06368 (Simulation time: 0 hr 19 min 16 sec) 
Heartbeat CPU 0 instructions: 570000001 cycles: 488204451 heartbeat IPC: 0.867207 cumulative IPC: 1.05858 (Simulation time: 0 hr 19 min 38 sec) 
Heartbeat CPU 0 instructions: 580000000 cycles: 499606191 heartbeat IPC: 0.877059 cumulative IPC: 1.05403 (Simulation time: 0 hr 20 min 0 sec) 
Heartbeat CPU 0 instructions: 590000001 cycles: 511241189 heartbeat IPC: 0.859476 cumulative IPC: 1.04918 (Simulation time: 0 hr 20 min 23 sec) 
Heartbeat CPU 0 instructions: 600000000 cycles: 522648132 heartbeat IPC: 0.876659 cumulative IPC: 1.04507 (Simulation time: 0 hr 20 min 45 sec) 
Finished CPU 0 instructions: 500000001 cycles: 478436586 cumulative IPC: 1.04507 (Simulation time: 0 hr 20 min 45 sec) 

CPU 0 Branch Prediction Accuracy: 99.7422% MPKI: 0.173296
Number of Branches: 33608403 Number of Mispredictions: 86648
Number of LOAD Instructions: 180215231
Number of LOAD Instructions (ROI): 180215231
Number of STORE Instructions: 36067263
Number of STORE Instructions (ROI): 36067263
Total Destination Memory Operands: 38428915
Total Destination Memory Operands (ROI): 38428915
Total Source Memory Operands: 180215231
Total Source Memory Operands (ROI): 180215231
Number of DEPENDED LOADS: 3041533
Number of DEPENDED LOADS (ROI): 3041533
Number of SQ_ADDED: 38428892
Number of SQ_ADDED (ROI): 38428892
Number of LQ_ADDED: 207665485
Number of LQ_ADDED (ROI): 207665485
Number of Instructions read from trace: 600000257

ChampSim completed all CPUs

Region of Interest Statistics

CPU 0 cumulative IPC: 1.04507 instructions: 500000001 cycles: 478436586
ITLB TOTAL     ACCESS:   91839634  HIT:   91839615  MISS:         19
ITLB LOAD      ACCESS:   91839634  HIT:   91839615  MISS:         19
ITLB RFO       ACCESS:          0  HIT:          0  MISS:          0
ITLB PREFETCH  ACCESS:          0  HIT:          0  MISS:          0
ITLB WRITEBACK ACCESS:          0  HIT:          0  MISS:          0
ITLB PREFETCH  REQUESTED:          0  ISSUED:          0  USEFUL:          0  USELESS:          0
ITLB TOTAL MSHR MERGED:         40
ITLB LOAD MSHR MERGED:         40
ITLB RFO MSHR MERGED:          0
ITLB PREFETCH MSHR MERGED:          0
ITLB WRITEBACK MSHR MERGED:          0
ITLB TOTAL ACCESSES:   91839674 HITS:   91839615 MISSES:         59
ITLB LOAD ACCESSES:   91839674 HITS:   91839615 MISSES:         59
ITLB RFO ACCESSES:          0 HITS:          0 MISSES:          0
ITLB PREFETCH ACCESSES:          0 HITS:          0 MISSES:          0
ITLB WRITEBACK ACCESSES:          0 HITS:          0 MISSES:          0
ITLB RQ ACCESS:  500000003
ITLB RQ TO_CACHE:   91839674
ITLB RQ MERGED:  408160329
ITLB RQ FORWARD:          0
ITLB WQ ACCESS:          0
ITLB WQ TO_CACHE:          0
ITLB WQ MERGED:          0
ITLB WQ FORWARD:          0
DTLB TOTAL     ACCESS:  142043700  HIT:  141677238  MISS:     366462
DTLB LOAD      ACCESS:  119409784  HIT:  119096198  MISS:     313586
DTLB RFO       ACCESS:   22633916  HIT:   22581040  MISS:      52876
DTLB PREFETCH  ACCESS:          0  HIT:          0  MISS:          0
DTLB WRITEBACK ACCESS:          0  HIT:          0  MISS:          0
DTLB PREFETCH  REQUESTED:          0  ISSUED:          0  USEFUL:          0  USELESS:          0
DTLB TOTAL MSHR MERGED:     289771
DTLB LOAD MSHR MERGED:     241110
DTLB RFO MSHR MERGED:      48661
DTLB PREFETCH MSHR MERGED:          0
DTLB WRITEBACK MSHR MERGED:          0
DTLB TOTAL ACCESSES:  142333471 HITS:  141677238 MISSES:     656233
DTLB LOAD ACCESSES:  119650894 HITS:  119096198 MISSES:     554696
DTLB RFO ACCESSES:   22682577 HITS:   22581040 MISSES:     101537
DTLB PREFETCH ACCESSES:          0 HITS:          0 MISSES:          0
DTLB WRITEBACK ACCESSES:          0 HITS:          0 MISSES:          0
DTLB RQ ACCESS:  184791444
DTLB RQ TO_CACHE:  142333471
DTLB RQ MERGED:   42457973
DTLB RQ FORWARD:          0
DTLB WQ ACCESS:          0
DTLB WQ TO_CACHE:          0
DTLB WQ MERGED:          0
DTLB WQ FORWARD:          0
L1D TOTAL     ACCESS:  189696261  HIT:  176246434  MISS:   13449827
L1D LOAD      ACCESS:  111884653  HIT:  108596696  MISS:    3287957
L1D RFO       ACCESS:   18768875  HIT:   15987129  MISS:    2781746
L1D PREFETCH  ACCESS:   59042733  HIT:   51662609  MISS:    7380124
L1D WRITEBACK ACCESS:          0  HIT:          0  MISS:          0
L1D PREFETCH  REQUESTED:  116508197  ISSUED:  115147612  USEFUL:    7170440  USELESS:     209685
L1D TOTAL MSHR MERGED:   32074369
L1D LOAD MSHR MERGED:    7355372
L1D RFO MSHR MERGED:    9483843
L1D PREFETCH MSHR MERGED:   15235154
L1D WRITEBACK MSHR MERGED:          0
L1D TOTAL ACCESSES:  221771059 HITS:  176246861 MISSES:   45524198
L1D LOAD ACCESSES:  116508242 HITS:  108596741 MISSES:    7911501
L1D RFO ACCESSES:   28252668 HITS:   15987129 MISSES:   12265539
L1D PREFETCH ACCESSES:   77010149 HITS:   51662991 MISSES:   25347158
L1D WRITEBACK ACCESSES:          0 HITS:          0 MISSES:          0
L1D RQ ACCESS:  156535378
L1D RQ TO_CACHE:  116508200
L1D RQ MERGED:   40027133
L1D RQ FORWARD:          0
L1D WQ ACCESS:   28256066
L1D WQ TO_CACHE:   28252668
L1D WQ MERGED:       3398
L1D WQ FORWARD:        427
L1I TOTAL     ACCESS:  115828204  HIT:  115827256  MISS:        948
L1I LOAD      ACCESS:  115828204  HIT:  115827256  MISS:        948
L1I RFO       ACCESS:          0  HIT:          0  MISS:          0
L1I PREFETCH  ACCESS:          0  HIT:          0  MISS:          0
L1I WRITEBACK ACCESS:          0  HIT:          0  MISS:          0
L1I PREFETCH  REQUESTED:          0  ISSUED:          0  USEFUL:          0  USELESS:          0
L1I TOTAL MSHR MERGED:       1568
L1I LOAD MSHR MERGED:       1568
L1I RFO MSHR MERGED:          0
L1I PREFETCH MSHR MERGED:          0
L1I WRITEBACK MSHR MERGED:          0
L1I TOTAL ACCESSES:  115829772 HITS:  115827256 MISSES:       2516
L1I LOAD ACCESSES:  115829772 HITS:  115827256 MISSES:       2516
L1I RFO ACCESSES:          0 HITS:          0 MISSES:          0
L1I PREFETCH ACCESSES:          0 HITS:          0 MISSES:          0
L1I WRITEBACK ACCESSES:          0 HITS:          0 MISSES:          0
L1I RQ ACCESS:  500000007
L1I RQ TO_CACHE:  115829772
L1I RQ MERGED:  384170235
L1I RQ FORWARD:          0
L1I WQ ACCESS:          0
L1I WQ TO_CACHE:          0
L1I WQ MERGED:          0
L1I WQ FORWARD:          0
L2C TOTAL     ACCESS:   16695477  HIT:    4850924  MISS:   11844553
L2C LOAD      ACCESS:     557044  HIT:      95430  MISS:     461614
L2C RFO       ACCESS:    2781696  HIT:     266478  MISS:    2515218
L2C PREFETCH  ACCESS:   10136094  HIT:    1270658  MISS:    8865436
L2C WRITEBACK ACCESS:    3220643  HIT:    3218358  MISS:       2285
L2C PREFETCH  REQUESTED:      26112  ISSUED:      26112  USEFUL:      92809  USELESS:    8770691
L2C TOTAL MSHR MERGED:        510
L2C LOAD MSHR MERGED:          6
L2C RFO MSHR MERGED:          0
L2C PREFETCH MSHR MERGED:        504
L2C WRITEBACK MSHR MERGED:          0
L2C TOTAL ACCESSES:   16696136 HITS:    4850981 MISSES:   11845155
L2C LOAD ACCESSES:     557077 HITS:      95463 MISSES:     461614
L2C RFO ACCESSES:    2781696 HITS:     266478 MISSES:    2515218
L2C PREFETCH ACCESSES:   10136720 HITS:    1270682 MISSES:    8866038
L2C WRITEBACK ACCESSES:    3220643 HITS:    3218358 MISSES:       2285
L2C RQ ACCESS:    3338773
L2C RQ TO_CACHE:    3338740
L2C RQ MERGED:          0
L2C RQ FORWARD:          0
L2C WQ ACCESS:    3220643
L2C WQ TO_CACHE:    3220643
L2C WQ MERGED:          0
L2C WQ FORWARD:         57
LLC TOTAL     ACCESS:   14742675  HIT:    7360624  MISS:    7382051
LLC LOAD      ACCESS:     461605  HIT:     251518  MISS:     210087
LLC RFO       ACCESS:    2515196  HIT:    1800601  MISS:     714595
LLC PREFETCH  ACCESS:    8865469  HIT:    3181451  MISS:    5684018
LLC WRITEBACK ACCESS:    2900405  HIT:    2127054  MISS:     773351
LLC PREFETCH  REQUESTED:          0  ISSUED:          0  USEFUL:       4266  USELESS:    5689145
LLC TOTAL MSHR MERGED:          2
LLC LOAD MSHR MERGED:          0
LLC RFO MSHR MERGED:          0
LLC PREFETCH MSHR MERGED:          2
LLC WRITEBACK MSHR MERGED:          0
LLC TOTAL ACCESSES:   14742757 HITS:    7360702 MISSES:    7382055
LLC LOAD ACCESSES:     461608 HITS:     251521 MISSES:     210087
LLC RFO ACCESSES:    2515218 HITS:    1800623 MISSES:     714595
LLC PREFETCH ACCESSES:    8865526 HITS:    3181504 MISSES:    5684022
LLC WRITEBACK ACCESSES:    2900405 HITS:    2127054 MISSES:     773351
LLC 0 RQ ACCESS:    2976826
LLC 0 RQ TO_CACHE:    2976801
LLC 0 RQ MERGED:          0
LLC 0 RQ FORWARD:          0
LLC WQ ACCESS:    2900405
LLC WQ TO_CACHE:    2900405
LLC WQ MERGED:          0
LLC WQ FORWARD:         78
Major fault: 0 Minor fault: 57518
CPU 0 L1D next line prefetcher final stats
CPU 0 L2C PC-based stride prefetcher final stats
All Misses: 7976658
All Hits: 8262198
SD Algo Stats - Switches: 0 SRR-Repls: 217084 BRR-Repls: 0

DRAM Statistics
 CHANNEL 0
 RQ ROW_BUFFER_HIT:    3679794  ROW_BUFFER_MISS:    2925838
 DBUS_CONGESTED:    3043649
 WQ ROW_BUFFER_HIT:     103732  ROW_BUFFER_MISS:     884496  FULL:          0

 AVG_CONGESTED_CYCLE: 12
LOADS RETIRED: 157818985
INSTR RETIRED: 500000000
