
*** ChampSim Multicore Out-of-Order Simulator ***

Warmup Instructions: 100000000
Simulation Instructions: 500000000
Number of CPUs: 1
LLC sets: 2048
LLC ways: 16
Clean RRIP Policies: 2213230222132302 Dirty RRIP Policies: 1203130212031302 PSEL Width: 10 Track Set: 4294967295 PSEL Mask: 1 Demote Mask: 1040130010401300DS Algo: 0Window size: 0
Off-chip DRAM Size: 4096 MB Channels: 1 Width: 64-bit Data Rate: 1600 MT/s

CPU 0 runs /mnt/beegfs/iconst01/spec2017/Gcc.trace.gz
NOT SORTED
TRACE STRING: /mnt/beegfs/iconst01/spec2017/Gcc.trace.gz
SORTED
TRACE STRING: /mnt/beegfs/iconst01/spec2017/Gcc.trace.gz
INITIAL
TRACE STRING: /mnt/beegfs/iconst01/spec2017/Gcc.trace.gz

champsim_seed used: 269

CPU 0 L1D next line prefetcher
CPU 0 L2C IP-based stride prefetcher
Initialize DRRIP state
Assign rand_sets[0]: 454  LLC: 2048
rand_sets[0]: 454
Assign rand_sets[1]: 1662  LLC: 2048
rand_sets[1]: 1662
Assign rand_sets[2]: 1921  LLC: 2048
rand_sets[2]: 1921
Assign rand_sets[3]: 1131  LLC: 2048
rand_sets[3]: 1131
Assign rand_sets[4]: 331  LLC: 2048
rand_sets[4]: 331
Assign rand_sets[5]: 1531  LLC: 2048
rand_sets[5]: 1531
Assign rand_sets[6]: 482  LLC: 2048
rand_sets[6]: 482
Assign rand_sets[7]: 1275  LLC: 2048
rand_sets[7]: 1275
Assign rand_sets[8]: 1876  LLC: 2048
rand_sets[8]: 1876
Assign rand_sets[9]: 2038  LLC: 2048
rand_sets[9]: 2038
Assign rand_sets[10]: 701  LLC: 2048
rand_sets[10]: 701
Assign rand_sets[11]: 479  LLC: 2048
rand_sets[11]: 479
Assign rand_sets[12]: 892  LLC: 2048
rand_sets[12]: 892
Assign rand_sets[13]: 1820  LLC: 2048
rand_sets[13]: 1820
Assign rand_sets[14]: 1505  LLC: 2048
rand_sets[14]: 1505
Assign rand_sets[15]: 1159  LLC: 2048
rand_sets[15]: 1159
Assign rand_sets[16]: 513  LLC: 2048
rand_sets[16]: 513
Assign rand_sets[17]: 703  LLC: 2048
rand_sets[17]: 703
Assign rand_sets[18]: 561  LLC: 2048
rand_sets[18]: 561
Assign rand_sets[19]: 990  LLC: 2048
rand_sets[19]: 990
Assign rand_sets[20]: 342  LLC: 2048
rand_sets[20]: 342
Assign rand_sets[21]: 882  LLC: 2048
rand_sets[21]: 882
Assign rand_sets[22]: 15  LLC: 2048
rand_sets[22]: 15
Assign rand_sets[23]: 71  LLC: 2048
rand_sets[23]: 71
Assign rand_sets[24]: 1127  LLC: 2048
rand_sets[24]: 1127
Assign rand_sets[25]: 1382  LLC: 2048
rand_sets[25]: 1382
Assign rand_sets[26]: 647  LLC: 2048
rand_sets[26]: 647
Assign rand_sets[27]: 857  LLC: 2048
rand_sets[27]: 857
Assign rand_sets[28]: 1450  LLC: 2048
rand_sets[28]: 1450
Assign rand_sets[29]: 1160  LLC: 2048
rand_sets[29]: 1160
Assign rand_sets[30]: 1852  LLC: 2048
rand_sets[30]: 1852
Assign rand_sets[31]: 1881  LLC: 2048
rand_sets[31]: 1881
Assign rand_sets[32]: 1770  LLC: 2048
rand_sets[32]: 1770
Assign rand_sets[33]: 1622  LLC: 2048
rand_sets[33]: 1622
Assign rand_sets[34]: 275  LLC: 2048
rand_sets[34]: 275
Assign rand_sets[35]: 635  LLC: 2048
rand_sets[35]: 635
Assign rand_sets[36]: 466  LLC: 2048
rand_sets[36]: 466
Assign rand_sets[37]: 1413  LLC: 2048
rand_sets[37]: 1413
Assign rand_sets[38]: 417  LLC: 2048
rand_sets[38]: 417
Assign rand_sets[39]: 472  LLC: 2048
rand_sets[39]: 472
Assign rand_sets[40]: 1340  LLC: 2048
rand_sets[40]: 1340
Assign rand_sets[41]: 852  LLC: 2048
rand_sets[41]: 852
Assign rand_sets[42]: 1365  LLC: 2048
rand_sets[42]: 1365
Assign rand_sets[43]: 47  LLC: 2048
rand_sets[43]: 47
Assign rand_sets[44]: 823  LLC: 2048
rand_sets[44]: 823
Assign rand_sets[45]: 686  LLC: 2048
rand_sets[45]: 686
Assign rand_sets[46]: 1637  LLC: 2048
rand_sets[46]: 1637
Assign rand_sets[47]: 1115  LLC: 2048
rand_sets[47]: 1115
Assign rand_sets[48]: 986  LLC: 2048
rand_sets[48]: 986
Assign rand_sets[49]: 258  LLC: 2048
rand_sets[49]: 258
Assign rand_sets[50]: 633  LLC: 2048
rand_sets[50]: 633
Assign rand_sets[51]: 920  LLC: 2048
rand_sets[51]: 920
Assign rand_sets[52]: 204  LLC: 2048
rand_sets[52]: 204
Assign rand_sets[53]: 227  LLC: 2048
rand_sets[53]: 227
Assign rand_sets[54]: 1818  LLC: 2048
rand_sets[54]: 1818
Assign rand_sets[55]: 886  LLC: 2048
rand_sets[55]: 886
Assign rand_sets[56]: 1422  LLC: 2048
rand_sets[56]: 1422
Assign rand_sets[57]: 607  LLC: 2048
rand_sets[57]: 607
Assign rand_sets[58]: 217  LLC: 2048
rand_sets[58]: 217
Assign rand_sets[59]: 1945  LLC: 2048
rand_sets[59]: 1945
Assign rand_sets[60]: 143  LLC: 2048
rand_sets[60]: 143
Assign rand_sets[61]: 1311  LLC: 2048
rand_sets[61]: 1311
Assign rand_sets[62]: 319  LLC: 2048
rand_sets[62]: 319
Assign rand_sets[63]: 1846  LLC: 2048
rand_sets[63]: 1846
 CLEAN-RRIP-POLICY-1: 2-2-1-3-2-3-0-2- CLEAN-RRIP-POLICY-2: 2-2-1-3-2-3-0-2-
 DIRTY-RRIP-POLICY-1: 1-2-0-3-1-3-0-2- DIRTY-RRIP-POLICY-2: 1-2-0-3-1-3-0-2-
 PSEL width: 10
Heartbeat CPU 0 instructions: 10000001 cycles: 7315979 heartbeat IPC: 1.36687 cumulative IPC: 1.36687 (Simulation time: 0 hr 0 min 14 sec) 
Heartbeat CPU 0 instructions: 20000000 cycles: 14307686 heartbeat IPC: 1.43027 cumulative IPC: 1.39785 (Simulation time: 0 hr 0 min 28 sec) 
Heartbeat CPU 0 instructions: 30000001 cycles: 21020646 heartbeat IPC: 1.48966 cumulative IPC: 1.42717 (Simulation time: 0 hr 0 min 43 sec) 
Heartbeat CPU 0 instructions: 40000000 cycles: 27481448 heartbeat IPC: 1.5478 cumulative IPC: 1.45553 (Simulation time: 0 hr 0 min 58 sec) 
Heartbeat CPU 0 instructions: 50000001 cycles: 33583225 heartbeat IPC: 1.63887 cumulative IPC: 1.48884 (Simulation time: 0 hr 1 min 13 sec) 
Heartbeat CPU 0 instructions: 60000000 cycles: 40064450 heartbeat IPC: 1.54292 cumulative IPC: 1.49759 (Simulation time: 0 hr 1 min 28 sec) 
Heartbeat CPU 0 instructions: 70000000 cycles: 47103564 heartbeat IPC: 1.42063 cumulative IPC: 1.48609 (Simulation time: 0 hr 1 min 42 sec) 
Heartbeat CPU 0 instructions: 80000000 cycles: 54193828 heartbeat IPC: 1.41038 cumulative IPC: 1.47618 (Simulation time: 0 hr 1 min 56 sec) 
Heartbeat CPU 0 instructions: 90000003 cycles: 61198540 heartbeat IPC: 1.42761 cumulative IPC: 1.47062 (Simulation time: 0 hr 2 min 10 sec) 
Heartbeat CPU 0 instructions: 100000000 cycles: 68366000 heartbeat IPC: 1.39519 cumulative IPC: 1.46272 (Simulation time: 0 hr 2 min 23 sec) 

Warmup complete CPU 0 instructions: 100000004 cycles: 68366001 (Simulation time: 0 hr 2 min 23 sec) 

Heartbeat CPU 0 instructions: 110000003 cycles: 95997983 heartbeat IPC: 0.3619 cumulative IPC: 0.361899 (Simulation time: 0 hr 2 min 50 sec) 
Heartbeat CPU 0 instructions: 120000000 cycles: 123445564 heartbeat IPC: 0.364331 cumulative IPC: 0.363111 (Simulation time: 0 hr 3 min 17 sec) 
Heartbeat CPU 0 instructions: 130000000 cycles: 148413345 heartbeat IPC: 0.400516 cumulative IPC: 0.374778 (Simulation time: 0 hr 3 min 44 sec) 
Heartbeat CPU 0 instructions: 140000000 cycles: 177969717 heartbeat IPC: 0.338337 cumulative IPC: 0.364951 (Simulation time: 0 hr 4 min 10 sec) 
Heartbeat CPU 0 instructions: 150000000 cycles: 207837137 heartbeat IPC: 0.334813 cumulative IPC: 0.358497 (Simulation time: 0 hr 4 min 37 sec) 
Heartbeat CPU 0 instructions: 160000000 cycles: 235251138 heartbeat IPC: 0.364777 cumulative IPC: 0.359529 (Simulation time: 0 hr 5 min 3 sec) 
Heartbeat CPU 0 instructions: 170000001 cycles: 263242326 heartbeat IPC: 0.357255 cumulative IPC: 0.359202 (Simulation time: 0 hr 5 min 31 sec) 
Heartbeat CPU 0 instructions: 180000000 cycles: 291689959 heartbeat IPC: 0.351523 cumulative IPC: 0.358224 (Simulation time: 0 hr 5 min 58 sec) 
Heartbeat CPU 0 instructions: 190000002 cycles: 319692853 heartbeat IPC: 0.357106 cumulative IPC: 0.358099 (Simulation time: 0 hr 6 min 25 sec) 
Heartbeat CPU 0 instructions: 200000000 cycles: 348042215 heartbeat IPC: 0.352742 cumulative IPC: 0.357556 (Simulation time: 0 hr 6 min 53 sec) 
Heartbeat CPU 0 instructions: 210000002 cycles: 375879057 heartbeat IPC: 0.359236 cumulative IPC: 0.357708 (Simulation time: 0 hr 7 min 20 sec) 
Heartbeat CPU 0 instructions: 220000000 cycles: 405063889 heartbeat IPC: 0.342644 cumulative IPC: 0.356403 (Simulation time: 0 hr 7 min 46 sec) 
Heartbeat CPU 0 instructions: 230000000 cycles: 432577280 heartbeat IPC: 0.363459 cumulative IPC: 0.356936 (Simulation time: 0 hr 8 min 12 sec) 
Heartbeat CPU 0 instructions: 240000000 cycles: 458493097 heartbeat IPC: 0.385865 cumulative IPC: 0.358857 (Simulation time: 0 hr 8 min 37 sec) 
Heartbeat CPU 0 instructions: 250000000 cycles: 488606764 heartbeat IPC: 0.332075 cumulative IPC: 0.356938 (Simulation time: 0 hr 9 min 5 sec) 
Heartbeat CPU 0 instructions: 260000000 cycles: 515682694 heartbeat IPC: 0.369332 cumulative IPC: 0.357688 (Simulation time: 0 hr 9 min 32 sec) 
Heartbeat CPU 0 instructions: 270000003 cycles: 544086884 heartbeat IPC: 0.352061 cumulative IPC: 0.357352 (Simulation time: 0 hr 10 min 0 sec) 
Heartbeat CPU 0 instructions: 280000000 cycles: 572277536 heartbeat IPC: 0.354727 cumulative IPC: 0.357206 (Simulation time: 0 hr 10 min 27 sec) 
Heartbeat CPU 0 instructions: 290000000 cycles: 601186925 heartbeat IPC: 0.345908 cumulative IPC: 0.356593 (Simulation time: 0 hr 10 min 56 sec) 
Heartbeat CPU 0 instructions: 300000000 cycles: 631188236 heartbeat IPC: 0.333319 cumulative IPC: 0.355352 (Simulation time: 0 hr 11 min 22 sec) 
Heartbeat CPU 0 instructions: 310000001 cycles: 660614745 heartbeat IPC: 0.33983 cumulative IPC: 0.354581 (Simulation time: 0 hr 11 min 49 sec) 
Heartbeat CPU 0 instructions: 320000000 cycles: 688827662 heartbeat IPC: 0.354448 cumulative IPC: 0.354575 (Simulation time: 0 hr 12 min 15 sec) 
Heartbeat CPU 0 instructions: 330000000 cycles: 717455441 heartbeat IPC: 0.349311 cumulative IPC: 0.354343 (Simulation time: 0 hr 12 min 41 sec) 
Heartbeat CPU 0 instructions: 340000000 cycles: 746727982 heartbeat IPC: 0.341617 cumulative IPC: 0.353793 (Simulation time: 0 hr 13 min 8 sec) 
Heartbeat CPU 0 instructions: 350000003 cycles: 773761017 heartbeat IPC: 0.369918 cumulative IPC: 0.354411 (Simulation time: 0 hr 13 min 33 sec) 
Heartbeat CPU 0 instructions: 360000000 cycles: 801907076 heartbeat IPC: 0.355289 cumulative IPC: 0.354445 (Simulation time: 0 hr 13 min 59 sec) 
Heartbeat CPU 0 instructions: 370000000 cycles: 830086634 heartbeat IPC: 0.354867 cumulative IPC: 0.354461 (Simulation time: 0 hr 14 min 24 sec) 
Heartbeat CPU 0 instructions: 380000000 cycles: 858578151 heartbeat IPC: 0.350982 cumulative IPC: 0.354335 (Simulation time: 0 hr 14 min 49 sec) 
Heartbeat CPU 0 instructions: 390000001 cycles: 886170447 heartbeat IPC: 0.36242 cumulative IPC: 0.354608 (Simulation time: 0 hr 15 min 14 sec) 
Heartbeat CPU 0 instructions: 400000000 cycles: 914794169 heartbeat IPC: 0.349361 cumulative IPC: 0.354431 (Simulation time: 0 hr 15 min 39 sec) 
Heartbeat CPU 0 instructions: 410000001 cycles: 942092578 heartbeat IPC: 0.366322 cumulative IPC: 0.354802 (Simulation time: 0 hr 16 min 4 sec) 
Heartbeat CPU 0 instructions: 420000000 cycles: 969400924 heartbeat IPC: 0.366188 cumulative IPC: 0.355147 (Simulation time: 0 hr 16 min 29 sec) 
Heartbeat CPU 0 instructions: 430000002 cycles: 997091462 heartbeat IPC: 0.361134 cumulative IPC: 0.355326 (Simulation time: 0 hr 16 min 54 sec) 
Heartbeat CPU 0 instructions: 440000000 cycles: 1026615235 heartbeat IPC: 0.33871 cumulative IPC: 0.354814 (Simulation time: 0 hr 17 min 19 sec) 
Heartbeat CPU 0 instructions: 450000002 cycles: 1055837903 heartbeat IPC: 0.3422 cumulative IPC: 0.35444 (Simulation time: 0 hr 17 min 45 sec) 
Heartbeat CPU 0 instructions: 460000000 cycles: 1083523113 heartbeat IPC: 0.361204 cumulative IPC: 0.354625 (Simulation time: 0 hr 18 min 10 sec) 
Heartbeat CPU 0 instructions: 470000000 cycles: 1111157159 heartbeat IPC: 0.361872 cumulative IPC: 0.354817 (Simulation time: 0 hr 18 min 35 sec) 
Heartbeat CPU 0 instructions: 480000000 cycles: 1139033325 heartbeat IPC: 0.358729 cumulative IPC: 0.354919 (Simulation time: 0 hr 19 min 0 sec) 
Heartbeat CPU 0 instructions: 490000000 cycles: 1166619000 heartbeat IPC: 0.362507 cumulative IPC: 0.355109 (Simulation time: 0 hr 19 min 25 sec) 
Heartbeat CPU 0 instructions: 500000000 cycles: 1194917702 heartbeat IPC: 0.353373 cumulative IPC: 0.355066 (Simulation time: 0 hr 19 min 50 sec) 
Heartbeat CPU 0 instructions: 510000000 cycles: 1229288890 heartbeat IPC: 0.290941 cumulative IPC: 0.353167 (Simulation time: 0 hr 20 min 18 sec) 
Heartbeat CPU 0 instructions: 520000000 cycles: 1257287832 heartbeat IPC: 0.357156 cumulative IPC: 0.353261 (Simulation time: 0 hr 20 min 44 sec) 
Heartbeat CPU 0 instructions: 530000001 cycles: 1286758906 heartbeat IPC: 0.339316 cumulative IPC: 0.352924 (Simulation time: 0 hr 21 min 11 sec) 
Heartbeat CPU 0 instructions: 540000000 cycles: 1314821540 heartbeat IPC: 0.356346 cumulative IPC: 0.353001 (Simulation time: 0 hr 21 min 37 sec) 
Heartbeat CPU 0 instructions: 550000001 cycles: 1343996022 heartbeat IPC: 0.342765 cumulative IPC: 0.352767 (Simulation time: 0 hr 22 min 4 sec) 
Heartbeat CPU 0 instructions: 560000000 cycles: 1369371241 heartbeat IPC: 0.394085 cumulative IPC: 0.353573 (Simulation time: 0 hr 22 min 30 sec) 
Heartbeat CPU 0 instructions: 570000000 cycles: 1398869522 heartbeat IPC: 0.339003 cumulative IPC: 0.35325 (Simulation time: 0 hr 22 min 56 sec) 
Heartbeat CPU 0 instructions: 580000000 cycles: 1426827147 heartbeat IPC: 0.357684 cumulative IPC: 0.353341 (Simulation time: 0 hr 23 min 23 sec) 
Heartbeat CPU 0 instructions: 590000001 cycles: 1451565701 heartbeat IPC: 0.404227 cumulative IPC: 0.354251 (Simulation time: 0 hr 23 min 47 sec) 
Heartbeat CPU 0 instructions: 600000000 cycles: 1477617605 heartbeat IPC: 0.383849 cumulative IPC: 0.354798 (Simulation time: 0 hr 24 min 13 sec) 
Finished CPU 0 instructions: 500000000 cycles: 1409251626 cumulative IPC: 0.354798 (Simulation time: 0 hr 24 min 13 sec) 

CPU 0 Branch Prediction Accuracy: 86.4311% MPKI: 26.2662
Number of Branches: 96788573 Number of Mispredictions: 13133102
Number of LOAD Instructions: 164682285
Number of LOAD Instructions (ROI): 164682285
Number of STORE Instructions: 78194750
Number of STORE Instructions (ROI): 78194750
Total Destination Memory Operands: 83268534
Total Destination Memory Operands (ROI): 83268534
Total Source Memory Operands: 164712438
Total Source Memory Operands (ROI): 164712438
Number of DEPENDED LOADS: 7057949
Number of DEPENDED LOADS (ROI): 7057949
Number of SQ_ADDED: 83268522
Number of SQ_ADDED (ROI): 83268522
Number of LQ_ADDED: 236707838
Number of LQ_ADDED (ROI): 236707838
Number of Instructions read from trace: 600000066

ChampSim completed all CPUs

Region of Interest Statistics

CPU 0 cumulative IPC: 0.354798 instructions: 500000000 cycles: 1409251626
ITLB TOTAL     ACCESS:  100516731  HIT:  100312285  MISS:     204446
ITLB LOAD      ACCESS:  100516731  HIT:  100312285  MISS:     204446
ITLB RFO       ACCESS:          0  HIT:          0  MISS:          0
ITLB PREFETCH  ACCESS:          0  HIT:          0  MISS:          0
ITLB WRITEBACK ACCESS:          0  HIT:          0  MISS:          0
ITLB PREFETCH  REQUESTED:          0  ISSUED:          0  USEFUL:          0  USELESS:          0
ITLB TOTAL MSHR MERGED:     172424
ITLB LOAD MSHR MERGED:     172424
ITLB RFO MSHR MERGED:          0
ITLB PREFETCH MSHR MERGED:          0
ITLB WRITEBACK MSHR MERGED:          0
ITLB TOTAL ACCESSES:  100689155 HITS:  100312285 MISSES:     376870
ITLB LOAD ACCESSES:  100689155 HITS:  100312285 MISSES:     376870
ITLB RFO ACCESSES:          0 HITS:          0 MISSES:          0
ITLB PREFETCH ACCESSES:          0 HITS:          0 MISSES:          0
ITLB WRITEBACK ACCESSES:          0 HITS:          0 MISSES:          0
ITLB RQ ACCESS:  500000057
ITLB RQ TO_CACHE:  100689155
ITLB RQ MERGED:  399310902
ITLB RQ FORWARD:          0
ITLB WQ ACCESS:          0
ITLB WQ TO_CACHE:          0
ITLB WQ MERGED:          0
ITLB WQ FORWARD:          0
DTLB TOTAL     ACCESS:  165338603  HIT:  164704251  MISS:     634352
DTLB LOAD      ACCESS:  106293420  HIT:  105723490  MISS:     569930
DTLB RFO       ACCESS:   59045183  HIT:   58980761  MISS:      64422
DTLB PREFETCH  ACCESS:          0  HIT:          0  MISS:          0
DTLB WRITEBACK ACCESS:          0  HIT:          0  MISS:          0
DTLB PREFETCH  REQUESTED:          0  ISSUED:          0  USEFUL:          0  USELESS:          0
DTLB TOTAL MSHR MERGED:      99999
DTLB LOAD MSHR MERGED:      59466
DTLB RFO MSHR MERGED:      40533
DTLB PREFETCH MSHR MERGED:          0
DTLB WRITEBACK MSHR MERGED:          0
DTLB TOTAL ACCESSES:  165438602 HITS:  164704251 MISSES:     734351
DTLB LOAD ACCESSES:  106352886 HITS:  105723490 MISSES:     629396
DTLB RFO ACCESSES:   59085716 HITS:   58980761 MISSES:     104955
DTLB PREFETCH ACCESSES:          0 HITS:          0 MISSES:          0
DTLB WRITEBACK ACCESSES:          0 HITS:          0 MISSES:          0
DTLB RQ ACCESS:  200312932
DTLB RQ TO_CACHE:  165438602
DTLB RQ MERGED:   34874330
DTLB RQ FORWARD:          0
DTLB WQ ACCESS:          0
DTLB WQ TO_CACHE:          0
DTLB WQ MERGED:          0
DTLB WQ FORWARD:          0
L1D TOTAL     ACCESS:  281851587  HIT:  273942226  MISS:    7909361
L1D LOAD      ACCESS:  110420483  HIT:  107143031  MISS:    3277452
L1D RFO       ACCESS:   67127952  HIT:   66237763  MISS:     890189
L1D PREFETCH  ACCESS:  104303152  HIT:  100561432  MISS:    3741720
L1D WRITEBACK ACCESS:          0  HIT:          0  MISS:          0
L1D PREFETCH  REQUESTED:  110818716  ISSUED:  109119434  USEFUL:    1662355  USELESS:    2079329
L1D TOTAL MSHR MERGED:    2855599
L1D LOAD MSHR MERGED:     495145
L1D RFO MSHR MERGED:    1857592
L1D PREFETCH MSHR MERGED:     502862
L1D WRITEBACK MSHR MERGED:          0
L1D TOTAL ACCESSES:  284734602 HITS:  273969642 MISSES:   10764960
L1D LOAD ACCESSES:  110820147 HITS:  107144462 MISSES:    3675685
L1D RFO ACCESSES:   68974153 HITS:   66237763 MISSES:    2736390
L1D PREFETCH ACCESSES:  104940302 HITS:  100587417 MISSES:    4352885
L1D WRITEBACK ACCESSES:          0 HITS:          0 MISSES:          0
L1D RQ ACCESS:  130760329
L1D RQ TO_CACHE:  110818719
L1D RQ MERGED:   19940179
L1D RQ FORWARD:          0
L1D WQ ACCESS:   69552603
L1D WQ TO_CACHE:   68974154
L1D WQ MERGED:     578449
L1D WQ FORWARD:      27416
L1I TOTAL     ACCESS:  126564021  HIT:  122325468  MISS:    4238553
L1I LOAD      ACCESS:  126564021  HIT:  122325468  MISS:    4238553
L1I RFO       ACCESS:          0  HIT:          0  MISS:          0
L1I PREFETCH  ACCESS:          0  HIT:          0  MISS:          0
L1I WRITEBACK ACCESS:          0  HIT:          0  MISS:          0
L1I PREFETCH  REQUESTED:          0  ISSUED:          0  USEFUL:          0  USELESS:          0
L1I TOTAL MSHR MERGED:    1834615
L1I LOAD MSHR MERGED:    1834615
L1I RFO MSHR MERGED:          0
L1I PREFETCH MSHR MERGED:          0
L1I WRITEBACK MSHR MERGED:          0
L1I TOTAL ACCESSES:  128398639 HITS:  122325468 MISSES:    6073171
L1I LOAD ACCESSES:  128398639 HITS:  122325468 MISSES:    6073171
L1I RFO ACCESSES:          0 HITS:          0 MISSES:          0
L1I PREFETCH ACCESSES:          0 HITS:          0 MISSES:          0
L1I WRITEBACK ACCESSES:          0 HITS:          0 MISSES:          0
L1I RQ ACCESS:  500000057
L1I RQ TO_CACHE:  128398639
L1I RQ MERGED:  371601418
L1I RQ FORWARD:          0
L1I WQ ACCESS:          0
L1I WQ TO_CACHE:          0
L1I WQ MERGED:          0
L1I WQ FORWARD:          0
L2C TOTAL     ACCESS:   14905382  HIT:   11158996  MISS:    3746386
L2C LOAD      ACCESS:    7418884  HIT:    5098979  MISS:    2319905
L2C RFO       ACCESS:     878700  HIT:     409920  MISS:     468780
L2C PREFETCH  ACCESS:    4568563  HIT:    3628117  MISS:     940446
L2C WRITEBACK ACCESS:    2039235  HIT:    2021980  MISS:      17255
L2C PREFETCH  REQUESTED:     842742  ISSUED:     842742  USEFUL:     203422  USELESS:     736730
L2C TOTAL MSHR MERGED:       6931
L2C LOAD MSHR MERGED:        750
L2C RFO MSHR MERGED:          0
L2C PREFETCH MSHR MERGED:       6181
L2C WRITEBACK MSHR MERGED:          0
L2C TOTAL ACCESSES:   14913171 HITS:   11159447 MISSES:    3753724
L2C LOAD ACCESSES:    7419093 HITS:    5099188 MISSES:    2319905
L2C RFO ACCESSES:     878798 HITS:     410018 MISSES:     468780
L2C PREFETCH ACCESSES:    4576045 HITS:    3628261 MISSES:     947784
L2C WRITEBACK ACCESSES:    2039235 HITS:    2021980 MISSES:      17255
L2C RQ ACCESS:    8297894
L2C RQ TO_CACHE:    8297587
L2C RQ MERGED:          0
L2C RQ FORWARD:          0
L2C WQ ACCESS:    2039235
L2C WQ TO_CACHE:    2039235
L2C WQ MERGED:          0
L2C WQ FORWARD:        451
LLC TOTAL     ACCESS:    4609660  HIT:    3996980  MISS:     612680
LLC LOAD      ACCESS:    2319140  HIT:    2071463  MISS:     247677
LLC RFO       ACCESS:     468768  HIT:     420246  MISS:      48522
LLC PREFETCH  ACCESS:     941500  HIT:     669506  MISS:     271994
LLC WRITEBACK ACCESS:     880252  HIT:     835765  MISS:      44487
LLC PREFETCH  REQUESTED:          0  ISSUED:          0  USEFUL:      13769  USELESS:     258614
LLC TOTAL MSHR MERGED:         84
LLC LOAD MSHR MERGED:         26
LLC RFO MSHR MERGED:          0
LLC PREFETCH MSHR MERGED:         58
LLC WRITEBACK MSHR MERGED:          0
LLC TOTAL ACCESSES:    4609782 HITS:    3997018 MISSES:     612764
LLC LOAD ACCESSES:    2319155 HITS:    2071478 MISSES:     247677
LLC RFO ACCESSES:     468780 HITS:     420258 MISSES:      48522
LLC PREFETCH ACCESSES:     941595 HITS:     669517 MISSES:     272078
LLC WRITEBACK ACCESSES:     880252 HITS:     835765 MISSES:      44487
LLC 0 RQ ACCESS:    2787935
LLC 0 RQ TO_CACHE:    2787908
LLC 0 RQ MERGED:          0
LLC 0 RQ FORWARD:          0
LLC WQ ACCESS:     880252
LLC WQ TO_CACHE:     880252
LLC WQ MERGED:          0
LLC WQ FORWARD:         38
Major fault: 0 Minor fault: 12862
CPU 0 L1D next line prefetcher final stats
CPU 0 L2C PC-based stride prefetcher final stats
All Misses: 733327
All Hits: 4693339
SD Algo Stats - Switches: 0 SRR-Repls: 293474 BRR-Repls: 0

DRAM Statistics
 CHANNEL 0
 RQ ROW_BUFFER_HIT:     114874  ROW_BUFFER_MISS:     452727
 DBUS_CONGESTED:     312179
 WQ ROW_BUFFER_HIT:      10071  ROW_BUFFER_MISS:     145604  FULL:          0

 AVG_CONGESTED_CYCLE: 13
LOADS RETIRED: 136549171
INSTR RETIRED: 500000000
