
*** ChampSim Multicore Out-of-Order Simulator ***

Warmup Instructions: 100000000
Simulation Instructions: 500000000
Number of CPUs: 1
LLC sets: 2048
LLC ways: 16
Clean RRIP Policies: 220000002200 Dirty RRIP Policies: 1000020010000200 PSEL Width: 10 Track Set: 4294967295 PSEL Mask: 1 Demote Mask: 4142124241421242DS Algo: 0Window size: 0
Off-chip DRAM Size: 4096 MB Channels: 1 Width: 64-bit Data Rate: 1600 MT/s

CPU 0 runs /mnt/beegfs/iconst01/spec2017/Fotonik3d.trace.gz
NOT SORTED
TRACE STRING: /mnt/beegfs/iconst01/spec2017/Fotonik3d.trace.gz
SORTED
TRACE STRING: /mnt/beegfs/iconst01/spec2017/Fotonik3d.trace.gz
INITIAL
TRACE STRING: /mnt/beegfs/iconst01/spec2017/Fotonik3d.trace.gz

champsim_seed used: 881

CPU 0 L1D next line prefetcher
CPU 0 L2C IP-based stride prefetcher
Initialize DRRIP state
Assign rand_sets[0]: 454  LLC: 2048
rand_sets[0]: 454
Assign rand_sets[1]: 1662  LLC: 2048
rand_sets[1]: 1662
Assign rand_sets[2]: 1921  LLC: 2048
rand_sets[2]: 1921
Assign rand_sets[3]: 1131  LLC: 2048
rand_sets[3]: 1131
Assign rand_sets[4]: 331  LLC: 2048
rand_sets[4]: 331
Assign rand_sets[5]: 1531  LLC: 2048
rand_sets[5]: 1531
Assign rand_sets[6]: 482  LLC: 2048
rand_sets[6]: 482
Assign rand_sets[7]: 1275  LLC: 2048
rand_sets[7]: 1275
Assign rand_sets[8]: 1876  LLC: 2048
rand_sets[8]: 1876
Assign rand_sets[9]: 2038  LLC: 2048
rand_sets[9]: 2038
Assign rand_sets[10]: 701  LLC: 2048
rand_sets[10]: 701
Assign rand_sets[11]: 479  LLC: 2048
rand_sets[11]: 479
Assign rand_sets[12]: 892  LLC: 2048
rand_sets[12]: 892
Assign rand_sets[13]: 1820  LLC: 2048
rand_sets[13]: 1820
Assign rand_sets[14]: 1505  LLC: 2048
rand_sets[14]: 1505
Assign rand_sets[15]: 1159  LLC: 2048
rand_sets[15]: 1159
Assign rand_sets[16]: 513  LLC: 2048
rand_sets[16]: 513
Assign rand_sets[17]: 703  LLC: 2048
rand_sets[17]: 703
Assign rand_sets[18]: 561  LLC: 2048
rand_sets[18]: 561
Assign rand_sets[19]: 990  LLC: 2048
rand_sets[19]: 990
Assign rand_sets[20]: 342  LLC: 2048
rand_sets[20]: 342
Assign rand_sets[21]: 882  LLC: 2048
rand_sets[21]: 882
Assign rand_sets[22]: 15  LLC: 2048
rand_sets[22]: 15
Assign rand_sets[23]: 71  LLC: 2048
rand_sets[23]: 71
Assign rand_sets[24]: 1127  LLC: 2048
rand_sets[24]: 1127
Assign rand_sets[25]: 1382  LLC: 2048
rand_sets[25]: 1382
Assign rand_sets[26]: 647  LLC: 2048
rand_sets[26]: 647
Assign rand_sets[27]: 857  LLC: 2048
rand_sets[27]: 857
Assign rand_sets[28]: 1450  LLC: 2048
rand_sets[28]: 1450
Assign rand_sets[29]: 1160  LLC: 2048
rand_sets[29]: 1160
Assign rand_sets[30]: 1852  LLC: 2048
rand_sets[30]: 1852
Assign rand_sets[31]: 1881  LLC: 2048
rand_sets[31]: 1881
Assign rand_sets[32]: 1770  LLC: 2048
rand_sets[32]: 1770
Assign rand_sets[33]: 1622  LLC: 2048
rand_sets[33]: 1622
Assign rand_sets[34]: 275  LLC: 2048
rand_sets[34]: 275
Assign rand_sets[35]: 635  LLC: 2048
rand_sets[35]: 635
Assign rand_sets[36]: 466  LLC: 2048
rand_sets[36]: 466
Assign rand_sets[37]: 1413  LLC: 2048
rand_sets[37]: 1413
Assign rand_sets[38]: 417  LLC: 2048
rand_sets[38]: 417
Assign rand_sets[39]: 472  LLC: 2048
rand_sets[39]: 472
Assign rand_sets[40]: 1340  LLC: 2048
rand_sets[40]: 1340
Assign rand_sets[41]: 852  LLC: 2048
rand_sets[41]: 852
Assign rand_sets[42]: 1365  LLC: 2048
rand_sets[42]: 1365
Assign rand_sets[43]: 47  LLC: 2048
rand_sets[43]: 47
Assign rand_sets[44]: 823  LLC: 2048
rand_sets[44]: 823
Assign rand_sets[45]: 686  LLC: 2048
rand_sets[45]: 686
Assign rand_sets[46]: 1637  LLC: 2048
rand_sets[46]: 1637
Assign rand_sets[47]: 1115  LLC: 2048
rand_sets[47]: 1115
Assign rand_sets[48]: 986  LLC: 2048
rand_sets[48]: 986
Assign rand_sets[49]: 258  LLC: 2048
rand_sets[49]: 258
Assign rand_sets[50]: 633  LLC: 2048
rand_sets[50]: 633
Assign rand_sets[51]: 920  LLC: 2048
rand_sets[51]: 920
Assign rand_sets[52]: 204  LLC: 2048
rand_sets[52]: 204
Assign rand_sets[53]: 227  LLC: 2048
rand_sets[53]: 227
Assign rand_sets[54]: 1818  LLC: 2048
rand_sets[54]: 1818
Assign rand_sets[55]: 886  LLC: 2048
rand_sets[55]: 886
Assign rand_sets[56]: 1422  LLC: 2048
rand_sets[56]: 1422
Assign rand_sets[57]: 607  LLC: 2048
rand_sets[57]: 607
Assign rand_sets[58]: 217  LLC: 2048
rand_sets[58]: 217
Assign rand_sets[59]: 1945  LLC: 2048
rand_sets[59]: 1945
Assign rand_sets[60]: 143  LLC: 2048
rand_sets[60]: 143
Assign rand_sets[61]: 1311  LLC: 2048
rand_sets[61]: 1311
Assign rand_sets[62]: 319  LLC: 2048
rand_sets[62]: 319
Assign rand_sets[63]: 1846  LLC: 2048
rand_sets[63]: 1846
 CLEAN-RRIP-POLICY-1: 0-0-0-0-2-2-0-0- CLEAN-RRIP-POLICY-2: 0-0-0-0-2-2-0-0-
 DIRTY-RRIP-POLICY-1: 1-0-0-0-0-2-0-0- DIRTY-RRIP-POLICY-2: 1-0-0-0-0-2-0-0-
 PSEL width: 10
Heartbeat CPU 0 instructions: 10000002 cycles: 7306839 heartbeat IPC: 1.36858 cumulative IPC: 1.36858 (Simulation time: 0 hr 0 min 25 sec) 
Heartbeat CPU 0 instructions: 20000000 cycles: 14613921 heartbeat IPC: 1.36854 cumulative IPC: 1.36856 (Simulation time: 0 hr 0 min 49 sec) 
Heartbeat CPU 0 instructions: 30000001 cycles: 21920876 heartbeat IPC: 1.36856 cumulative IPC: 1.36856 (Simulation time: 0 hr 1 min 14 sec) 
Heartbeat CPU 0 instructions: 40000000 cycles: 29227717 heartbeat IPC: 1.36858 cumulative IPC: 1.36856 (Simulation time: 0 hr 1 min 39 sec) 
Heartbeat CPU 0 instructions: 50000001 cycles: 36534483 heartbeat IPC: 1.36859 cumulative IPC: 1.36857 (Simulation time: 0 hr 2 min 4 sec) 
Heartbeat CPU 0 instructions: 60000000 cycles: 43841549 heartbeat IPC: 1.36854 cumulative IPC: 1.36856 (Simulation time: 0 hr 2 min 29 sec) 
Heartbeat CPU 0 instructions: 70000002 cycles: 51148398 heartbeat IPC: 1.36858 cumulative IPC: 1.36857 (Simulation time: 0 hr 2 min 55 sec) 
Heartbeat CPU 0 instructions: 80000000 cycles: 58455192 heartbeat IPC: 1.36859 cumulative IPC: 1.36857 (Simulation time: 0 hr 3 min 20 sec) 
Heartbeat CPU 0 instructions: 90000003 cycles: 65765827 heartbeat IPC: 1.36787 cumulative IPC: 1.36849 (Simulation time: 0 hr 3 min 45 sec) 
Heartbeat CPU 0 instructions: 100000000 cycles: 73076497 heartbeat IPC: 1.36786 cumulative IPC: 1.36843 (Simulation time: 0 hr 4 min 10 sec) 

Warmup complete CPU 0 instructions: 100000002 cycles: 73076509 (Simulation time: 0 hr 4 min 10 sec) 

Heartbeat CPU 0 instructions: 110000001 cycles: 85611631 heartbeat IPC: 0.797758 cumulative IPC: 0.797758 (Simulation time: 0 hr 4 min 40 sec) 
Heartbeat CPU 0 instructions: 120000000 cycles: 98092471 heartbeat IPC: 0.801228 cumulative IPC: 0.799489 (Simulation time: 0 hr 5 min 10 sec) 
Heartbeat CPU 0 instructions: 130000000 cycles: 110612058 heartbeat IPC: 0.798748 cumulative IPC: 0.799242 (Simulation time: 0 hr 5 min 41 sec) 
Heartbeat CPU 0 instructions: 140000000 cycles: 123137002 heartbeat IPC: 0.798407 cumulative IPC: 0.799033 (Simulation time: 0 hr 6 min 11 sec) 
Heartbeat CPU 0 instructions: 150000001 cycles: 135595166 heartbeat IPC: 0.802687 cumulative IPC: 0.799761 (Simulation time: 0 hr 6 min 41 sec) 
Heartbeat CPU 0 instructions: 160000000 cycles: 148108414 heartbeat IPC: 0.799153 cumulative IPC: 0.79966 (Simulation time: 0 hr 7 min 11 sec) 
Heartbeat CPU 0 instructions: 170000001 cycles: 160604148 heartbeat IPC: 0.800273 cumulative IPC: 0.799747 (Simulation time: 0 hr 7 min 41 sec) 
Heartbeat CPU 0 instructions: 180000000 cycles: 173122334 heartbeat IPC: 0.798838 cumulative IPC: 0.799634 (Simulation time: 0 hr 8 min 11 sec) 
Heartbeat CPU 0 instructions: 190000000 cycles: 185659375 heartbeat IPC: 0.797636 cumulative IPC: 0.799411 (Simulation time: 0 hr 8 min 41 sec) 
Heartbeat CPU 0 instructions: 200000000 cycles: 198157107 heartbeat IPC: 0.800145 cumulative IPC: 0.799484 (Simulation time: 0 hr 9 min 12 sec) 
Heartbeat CPU 0 instructions: 210000002 cycles: 210700463 heartbeat IPC: 0.797235 cumulative IPC: 0.799279 (Simulation time: 0 hr 9 min 42 sec) 
Heartbeat CPU 0 instructions: 220000000 cycles: 223252886 heartbeat IPC: 0.796659 cumulative IPC: 0.79906 (Simulation time: 0 hr 10 min 12 sec) 
Heartbeat CPU 0 instructions: 230000002 cycles: 235738980 heartbeat IPC: 0.800891 cumulative IPC: 0.799201 (Simulation time: 0 hr 10 min 42 sec) 
Heartbeat CPU 0 instructions: 240000000 cycles: 248960996 heartbeat IPC: 0.756314 cumulative IPC: 0.795977 (Simulation time: 0 hr 11 min 13 sec) 
Heartbeat CPU 0 instructions: 250000001 cycles: 267021973 heartbeat IPC: 0.55368 cumulative IPC: 0.773413 (Simulation time: 0 hr 11 min 46 sec) 
Heartbeat CPU 0 instructions: 260000000 cycles: 284979645 heartbeat IPC: 0.556865 cumulative IPC: 0.755062 (Simulation time: 0 hr 12 min 19 sec) 
Heartbeat CPU 0 instructions: 270000000 cycles: 303009542 heartbeat IPC: 0.554634 cumulative IPC: 0.739346 (Simulation time: 0 hr 12 min 52 sec) 
Heartbeat CPU 0 instructions: 280000000 cycles: 320972937 heartbeat IPC: 0.556688 cumulative IPC: 0.72611 (Simulation time: 0 hr 13 min 25 sec) 
Heartbeat CPU 0 instructions: 290000001 cycles: 350408233 heartbeat IPC: 0.339728 cumulative IPC: 0.6851 (Simulation time: 0 hr 14 min 7 sec) 
Heartbeat CPU 0 instructions: 300000000 cycles: 388527741 heartbeat IPC: 0.262333 cumulative IPC: 0.634012 (Simulation time: 0 hr 14 min 53 sec) 
Heartbeat CPU 0 instructions: 310000000 cycles: 405931182 heartbeat IPC: 0.574599 cumulative IPC: 0.630906 (Simulation time: 0 hr 15 min 26 sec) 
Heartbeat CPU 0 instructions: 320000000 cycles: 423279290 heartbeat IPC: 0.576432 cumulative IPC: 0.628207 (Simulation time: 0 hr 15 min 58 sec) 
Heartbeat CPU 0 instructions: 330000003 cycles: 440725302 heartbeat IPC: 0.573197 cumulative IPC: 0.625597 (Simulation time: 0 hr 16 min 30 sec) 
Heartbeat CPU 0 instructions: 340000000 cycles: 458089348 heartbeat IPC: 0.575902 cumulative IPC: 0.623356 (Simulation time: 0 hr 17 min 2 sec) 
Heartbeat CPU 0 instructions: 350000001 cycles: 473431516 heartbeat IPC: 0.651798 cumulative IPC: 0.624446 (Simulation time: 0 hr 17 min 32 sec) 
Heartbeat CPU 0 instructions: 360000000 cycles: 485490206 heartbeat IPC: 0.829277 cumulative IPC: 0.630435 (Simulation time: 0 hr 17 min 59 sec) 
Heartbeat CPU 0 instructions: 370000002 cycles: 497314946 heartbeat IPC: 0.845685 cumulative IPC: 0.636435 (Simulation time: 0 hr 18 min 26 sec) 
Heartbeat CPU 0 instructions: 380000000 cycles: 509308279 heartbeat IPC: 0.833796 cumulative IPC: 0.641861 (Simulation time: 0 hr 18 min 54 sec) 
Heartbeat CPU 0 instructions: 390000003 cycles: 522760894 heartbeat IPC: 0.74335 cumulative IPC: 0.644897 (Simulation time: 0 hr 19 min 22 sec) 
Heartbeat CPU 0 instructions: 400000000 cycles: 535161604 heartbeat IPC: 0.806405 cumulative IPC: 0.649231 (Simulation time: 0 hr 19 min 50 sec) 
Heartbeat CPU 0 instructions: 410000003 cycles: 547270155 heartbeat IPC: 0.825863 cumulative IPC: 0.653741 (Simulation time: 0 hr 20 min 18 sec) 
Heartbeat CPU 0 instructions: 420000000 cycles: 560194720 heartbeat IPC: 0.77372 cumulative IPC: 0.656925 (Simulation time: 0 hr 20 min 46 sec) 
Heartbeat CPU 0 instructions: 430000003 cycles: 579049362 heartbeat IPC: 0.530374 cumulative IPC: 0.652209 (Simulation time: 0 hr 21 min 12 sec) 
Heartbeat CPU 0 instructions: 440000000 cycles: 597941933 heartbeat IPC: 0.529308 cumulative IPC: 0.647785 (Simulation time: 0 hr 21 min 37 sec) 
Heartbeat CPU 0 instructions: 450000003 cycles: 616829704 heartbeat IPC: 0.529443 cumulative IPC: 0.643674 (Simulation time: 0 hr 22 min 3 sec) 
Heartbeat CPU 0 instructions: 460000000 cycles: 635715833 heartbeat IPC: 0.529489 cumulative IPC: 0.639841 (Simulation time: 0 hr 22 min 28 sec) 
Heartbeat CPU 0 instructions: 470000003 cycles: 654612323 heartbeat IPC: 0.529199 cumulative IPC: 0.636246 (Simulation time: 0 hr 22 min 54 sec) 
Heartbeat CPU 0 instructions: 480000000 cycles: 673501151 heartbeat IPC: 0.529413 cumulative IPC: 0.632885 (Simulation time: 0 hr 23 min 20 sec) 
Heartbeat CPU 0 instructions: 490000003 cycles: 692378268 heartbeat IPC: 0.529742 cumulative IPC: 0.629741 (Simulation time: 0 hr 23 min 45 sec) 
Heartbeat CPU 0 instructions: 500000000 cycles: 711238681 heartbeat IPC: 0.530211 cumulative IPC: 0.6268 (Simulation time: 0 hr 24 min 11 sec) 
Heartbeat CPU 0 instructions: 510000003 cycles: 730113090 heartbeat IPC: 0.529818 cumulative IPC: 0.624014 (Simulation time: 0 hr 24 min 36 sec) 
Heartbeat CPU 0 instructions: 520000000 cycles: 749011544 heartbeat IPC: 0.529144 cumulative IPC: 0.621361 (Simulation time: 0 hr 25 min 2 sec) 
Heartbeat CPU 0 instructions: 530000001 cycles: 767914285 heartbeat IPC: 0.529024 cumulative IPC: 0.618849 (Simulation time: 0 hr 25 min 27 sec) 
Heartbeat CPU 0 instructions: 540000000 cycles: 786767585 heartbeat IPC: 0.530411 cumulative IPC: 0.616513 (Simulation time: 0 hr 25 min 53 sec) 
Heartbeat CPU 0 instructions: 550000001 cycles: 805585297 heartbeat IPC: 0.531414 cumulative IPC: 0.614327 (Simulation time: 0 hr 26 min 18 sec) 
Heartbeat CPU 0 instructions: 560000000 cycles: 824435703 heartbeat IPC: 0.530492 cumulative IPC: 0.612224 (Simulation time: 0 hr 26 min 44 sec) 
Heartbeat CPU 0 instructions: 570000001 cycles: 843279969 heartbeat IPC: 0.530665 cumulative IPC: 0.610228 (Simulation time: 0 hr 27 min 9 sec) 
Heartbeat CPU 0 instructions: 580000000 cycles: 862103790 heartbeat IPC: 0.531242 cumulative IPC: 0.608344 (Simulation time: 0 hr 27 min 35 sec) 
Heartbeat CPU 0 instructions: 590000001 cycles: 880949799 heartbeat IPC: 0.530616 cumulative IPC: 0.606531 (Simulation time: 0 hr 28 min 1 sec) 
Heartbeat CPU 0 instructions: 600000000 cycles: 899814424 heartbeat IPC: 0.530093 cumulative IPC: 0.604787 (Simulation time: 0 hr 28 min 26 sec) 
Finished CPU 0 instructions: 500000002 cycles: 826737929 cumulative IPC: 0.604787 (Simulation time: 0 hr 28 min 26 sec) 

CPU 0 Branch Prediction Accuracy: 99.5931% MPKI: 0.08288
Number of Branches: 10184133 Number of Mispredictions: 41440
Number of LOAD Instructions: 261155957
Number of LOAD Instructions (ROI): 261155957
Number of STORE Instructions: 57884062
Number of STORE Instructions (ROI): 57884062
Total Destination Memory Operands: 83293336
Total Destination Memory Operands (ROI): 83293336
Total Source Memory Operands: 261155957
Total Source Memory Operands (ROI): 261155957
Number of DEPENDED LOADS: 22256589
Number of DEPENDED LOADS (ROI): 22256589
Number of SQ_ADDED: 83293300
Number of SQ_ADDED (ROI): 83293300
Number of LQ_ADDED: 1781533114
Number of LQ_ADDED (ROI): 1781533114
Number of Instructions read from trace: 600000257

ChampSim completed all CPUs

Region of Interest Statistics

CPU 0 cumulative IPC: 0.604787 instructions: 500000002 cycles: 826737929
ITLB TOTAL     ACCESS:   94921084  HIT:   94921046  MISS:         38
ITLB LOAD      ACCESS:   94921084  HIT:   94921046  MISS:         38
ITLB RFO       ACCESS:          0  HIT:          0  MISS:          0
ITLB PREFETCH  ACCESS:          0  HIT:          0  MISS:          0
ITLB WRITEBACK ACCESS:          0  HIT:          0  MISS:          0
ITLB PREFETCH  REQUESTED:          0  ISSUED:          0  USEFUL:          0  USELESS:          0
ITLB TOTAL MSHR MERGED:         93
ITLB LOAD MSHR MERGED:         93
ITLB RFO MSHR MERGED:          0
ITLB PREFETCH MSHR MERGED:          0
ITLB WRITEBACK MSHR MERGED:          0
ITLB TOTAL ACCESSES:   94921177 HITS:   94921046 MISSES:        131
ITLB LOAD ACCESSES:   94921177 HITS:   94921046 MISSES:        131
ITLB RFO ACCESSES:          0 HITS:          0 MISSES:          0
ITLB PREFETCH ACCESSES:          0 HITS:          0 MISSES:          0
ITLB WRITEBACK ACCESSES:          0 HITS:          0 MISSES:          0
ITLB RQ ACCESS:  500000001
ITLB RQ TO_CACHE:   94921178
ITLB RQ MERGED:  405078823
ITLB RQ FORWARD:          0
ITLB WQ ACCESS:          0
ITLB WQ TO_CACHE:          0
ITLB WQ MERGED:          0
ITLB WQ FORWARD:          0
DTLB TOTAL     ACCESS:  149252677  HIT:  148655716  MISS:     596961
DTLB LOAD      ACCESS:  107375119  HIT:  106778169  MISS:     596950
DTLB RFO       ACCESS:   41877558  HIT:   41877547  MISS:         11
DTLB PREFETCH  ACCESS:          0  HIT:          0  MISS:          0
DTLB WRITEBACK ACCESS:          0  HIT:          0  MISS:          0
DTLB PREFETCH  REQUESTED:          0  ISSUED:          0  USEFUL:          0  USELESS:          0
DTLB TOTAL MSHR MERGED:     134159
DTLB LOAD MSHR MERGED:     134159
DTLB RFO MSHR MERGED:          0
DTLB PREFETCH MSHR MERGED:          0
DTLB WRITEBACK MSHR MERGED:          0
DTLB TOTAL ACCESSES:  149386836 HITS:  148655716 MISSES:     731120
DTLB LOAD ACCESSES:  107509278 HITS:  106778169 MISSES:     731109
DTLB RFO ACCESSES:   41877558 HITS:   41877547 MISSES:         11
DTLB PREFETCH ACCESSES:          0 HITS:          0 MISSES:          0
DTLB WRITEBACK ACCESSES:          0 HITS:          0 MISSES:          0
DTLB RQ ACCESS:  259759307
DTLB RQ TO_CACHE:  149386836
DTLB RQ MERGED:  110372471
DTLB RQ FORWARD:          0
DTLB WQ ACCESS:          0
DTLB WQ TO_CACHE:          0
DTLB WQ MERGED:          0
DTLB WQ FORWARD:          0
L1D TOTAL     ACCESS:  261399294  HIT:  245938692  MISS:   15460602
L1D LOAD      ACCESS:  118100289  HIT:  112630097  MISS:    5470192
L1D RFO       ACCESS:   68946799  HIT:   68932394  MISS:      14405
L1D PREFETCH  ACCESS:   74352206  HIT:   64376201  MISS:    9976005
L1D WRITEBACK ACCESS:          0  HIT:          0  MISS:          0
L1D PREFETCH  REQUESTED:  120667241  ISSUED:  119366420  USEFUL:    8042454  USELESS:    1933573
L1D TOTAL MSHR MERGED:   16424356
L1D LOAD MSHR MERGED:    4972147
L1D RFO MSHR MERGED:      21771
L1D PREFETCH MSHR MERGED:   11430438
L1D WRITEBACK MSHR MERGED:          0
L1D TOTAL ACCESSES:  277933825 HITS:  246048867 MISSES:   31884958
L1D LOAD ACCESSES:  120674772 HITS:  112637628 MISSES:    8037144
L1D RFO ACCESSES:   68968569 HITS:   68932394 MISSES:      36175
L1D PREFETCH ACCESSES:   88290484 HITS:   64478845 MISSES:   23811639
L1D WRITEBACK ACCESSES:          0 HITS:          0 MISSES:          0
L1D RQ ACCESS:  190684991
L1D RQ TO_CACHE:  120667241
L1D RQ MERGED:   70010219
L1D RQ FORWARD:          0
L1D WQ ACCESS:   69074336
L1D WQ TO_CACHE:   68968571
L1D WQ MERGED:     105765
L1D WQ FORWARD:     110175
L1I TOTAL     ACCESS:  121797335  HIT:  121796262  MISS:       1073
L1I LOAD      ACCESS:  121797335  HIT:  121796262  MISS:       1073
L1I RFO       ACCESS:          0  HIT:          0  MISS:          0
L1I PREFETCH  ACCESS:          0  HIT:          0  MISS:          0
L1I WRITEBACK ACCESS:          0  HIT:          0  MISS:          0
L1I PREFETCH  REQUESTED:          0  ISSUED:          0  USEFUL:          0  USELESS:          0
L1I TOTAL MSHR MERGED:       1090
L1I LOAD MSHR MERGED:       1090
L1I RFO MSHR MERGED:          0
L1I PREFETCH MSHR MERGED:          0
L1I WRITEBACK MSHR MERGED:          0
L1I TOTAL ACCESSES:  121798425 HITS:  121796262 MISSES:       2163
L1I LOAD ACCESSES:  121798425 HITS:  121796262 MISSES:       2163
L1I RFO ACCESSES:          0 HITS:          0 MISSES:          0
L1I PREFETCH ACCESSES:          0 HITS:          0 MISSES:          0
L1I WRITEBACK ACCESSES:          0 HITS:          0 MISSES:          0
L1I RQ ACCESS:  500000000
L1I RQ TO_CACHE:  121798425
L1I RQ MERGED:  378201575
L1I RQ FORWARD:          0
L1I WQ ACCESS:          0
L1I WQ TO_CACHE:          0
L1I WQ MERGED:          0
L1I WQ FORWARD:          0
L2C TOTAL     ACCESS:   22496484  HIT:    9116028  MISS:   13380456
L2C LOAD      ACCESS:    3066033  HIT:     394416  MISS:    2671617
L2C RFO       ACCESS:      14404  HIT:      13990  MISS:        414
L2C PREFETCH  ACCESS:   12786074  HIT:    2079438  MISS:   10706636
L2C WRITEBACK ACCESS:    6629973  HIT:    6628184  MISS:       1789
L2C PREFETCH  REQUESTED:     628466  ISSUED:     628466  USEFUL:     168785  USELESS:   10538647
L2C TOTAL MSHR MERGED:      61592
L2C LOAD MSHR MERGED:      20587
L2C RFO MSHR MERGED:          0
L2C PREFETCH MSHR MERGED:      41005
L2C WRITEBACK MSHR MERGED:          0
L2C TOTAL ACCESSES:   22683735 HITS:    9116081 MISSES:   13567654
L2C LOAD ACCESSES:    3066070 HITS:     394453 MISSES:    2671617
L2C RFO ACCESSES:      14404 HITS:      13990 MISSES:        414
L2C PREFETCH ACCESSES:   12973288 HITS:    2079454 MISSES:   10893834
L2C WRITEBACK ACCESSES:    6629973 HITS:    6628184 MISSES:       1789
L2C RQ ACCESS:    3080474
L2C RQ TO_CACHE:    3080437
L2C RQ MERGED:          0
L2C RQ FORWARD:          0
L2C WQ ACCESS:    6629973
L2C WQ TO_CACHE:    6629973
L2C WQ MERGED:          0
L2C WQ FORWARD:         53
LLC TOTAL     ACCESS:   20076251  HIT:    6406254  MISS:   13669997
LLC LOAD      ACCESS:    2651030  HIT:     178559  MISS:    2472471
LLC RFO       ACCESS:        414  HIT:         19  MISS:        395
LLC PREFETCH  ACCESS:   10833569  HIT:     242450  MISS:   10591119
LLC WRITEBACK ACCESS:    6591238  HIT:    5985226  MISS:     606012
LLC PREFETCH  REQUESTED:          0  ISSUED:          0  USEFUL:      52140  USELESS:   10540434
LLC TOTAL MSHR MERGED:      17938
LLC LOAD MSHR MERGED:       8852
LLC RFO MSHR MERGED:          0
LLC PREFETCH MSHR MERGED:       9086
LLC WRITEBACK MSHR MERGED:          0
LLC TOTAL ACCESSES:   20094191 HITS:    6406255 MISSES:   13687936
LLC LOAD ACCESSES:    2651030 HITS:     178559 MISSES:    2472471
LLC RFO ACCESSES:        414 HITS:         19 MISSES:        395
LLC PREFETCH ACCESSES:   10851509 HITS:     242451 MISSES:   10609058
LLC WRITEBACK ACCESSES:    6591238 HITS:    5985226 MISSES:     606012
LLC 0 RQ ACCESS:    2651444
LLC 0 RQ TO_CACHE:    2651444
LLC 0 RQ MERGED:          0
LLC 0 RQ FORWARD:          0
LLC WQ ACCESS:    6591239
LLC WQ TO_CACHE:    6591239
LLC WQ MERGED:          0
LLC WQ FORWARD:          1
Major fault: 0 Minor fault: 183991
CPU 0 L1D next line prefetcher final stats
CPU 0 L2C PC-based stride prefetcher final stats
All Misses: 15955520
All Hits: 7051777
SD Algo Stats - Switches: 264 SRR-Repls: 2224317 BRR-Repls: 307231

DRAM Statistics
 CHANNEL 0
 RQ ROW_BUFFER_HIT:    7212394  ROW_BUFFER_MISS:    5851591
 DBUS_CONGESTED:   11051430
 WQ ROW_BUFFER_HIT:     812982  ROW_BUFFER_MISS:    5768348  FULL:          0

 AVG_CONGESTED_CYCLE: 13
LOADS RETIRED: 204440772
INSTR RETIRED: 500000000
