
*** ChampSim Multicore Out-of-Order Simulator ***

Warmup Instructions: 100000000
Simulation Instructions: 500000000
Number of CPUs: 1
LLC sets: 2048
LLC ways: 16
Clean RRIP Policies: 2203222022032220 Dirty RRIP Policies: 1203022012030220 PSEL Width: 10 Track Set: 4294967295 PSEL Mask: 1 Demote Mask: 2102414021024140DS Algo: 0Window size: 0
Off-chip DRAM Size: 4096 MB Channels: 1 Width: 64-bit Data Rate: 1600 MT/s

CPU 0 runs /mnt/beegfs/iconst01/spec2017/Omnetpp.trace.gz
NOT SORTED
TRACE STRING: /mnt/beegfs/iconst01/spec2017/Omnetpp.trace.gz
SORTED
TRACE STRING: /mnt/beegfs/iconst01/spec2017/Omnetpp.trace.gz
INITIAL
TRACE STRING: /mnt/beegfs/iconst01/spec2017/Omnetpp.trace.gz

champsim_seed used: 739

CPU 0 L1D next line prefetcher
CPU 0 L2C IP-based stride prefetcher
Initialize DRRIP state
Assign rand_sets[0]: 454  LLC: 2048
rand_sets[0]: 454
Assign rand_sets[1]: 1662  LLC: 2048
rand_sets[1]: 1662
Assign rand_sets[2]: 1921  LLC: 2048
rand_sets[2]: 1921
Assign rand_sets[3]: 1131  LLC: 2048
rand_sets[3]: 1131
Assign rand_sets[4]: 331  LLC: 2048
rand_sets[4]: 331
Assign rand_sets[5]: 1531  LLC: 2048
rand_sets[5]: 1531
Assign rand_sets[6]: 482  LLC: 2048
rand_sets[6]: 482
Assign rand_sets[7]: 1275  LLC: 2048
rand_sets[7]: 1275
Assign rand_sets[8]: 1876  LLC: 2048
rand_sets[8]: 1876
Assign rand_sets[9]: 2038  LLC: 2048
rand_sets[9]: 2038
Assign rand_sets[10]: 701  LLC: 2048
rand_sets[10]: 701
Assign rand_sets[11]: 479  LLC: 2048
rand_sets[11]: 479
Assign rand_sets[12]: 892  LLC: 2048
rand_sets[12]: 892
Assign rand_sets[13]: 1820  LLC: 2048
rand_sets[13]: 1820
Assign rand_sets[14]: 1505  LLC: 2048
rand_sets[14]: 1505
Assign rand_sets[15]: 1159  LLC: 2048
rand_sets[15]: 1159
Assign rand_sets[16]: 513  LLC: 2048
rand_sets[16]: 513
Assign rand_sets[17]: 703  LLC: 2048
rand_sets[17]: 703
Assign rand_sets[18]: 561  LLC: 2048
rand_sets[18]: 561
Assign rand_sets[19]: 990  LLC: 2048
rand_sets[19]: 990
Assign rand_sets[20]: 342  LLC: 2048
rand_sets[20]: 342
Assign rand_sets[21]: 882  LLC: 2048
rand_sets[21]: 882
Assign rand_sets[22]: 15  LLC: 2048
rand_sets[22]: 15
Assign rand_sets[23]: 71  LLC: 2048
rand_sets[23]: 71
Assign rand_sets[24]: 1127  LLC: 2048
rand_sets[24]: 1127
Assign rand_sets[25]: 1382  LLC: 2048
rand_sets[25]: 1382
Assign rand_sets[26]: 647  LLC: 2048
rand_sets[26]: 647
Assign rand_sets[27]: 857  LLC: 2048
rand_sets[27]: 857
Assign rand_sets[28]: 1450  LLC: 2048
rand_sets[28]: 1450
Assign rand_sets[29]: 1160  LLC: 2048
rand_sets[29]: 1160
Assign rand_sets[30]: 1852  LLC: 2048
rand_sets[30]: 1852
Assign rand_sets[31]: 1881  LLC: 2048
rand_sets[31]: 1881
Assign rand_sets[32]: 1770  LLC: 2048
rand_sets[32]: 1770
Assign rand_sets[33]: 1622  LLC: 2048
rand_sets[33]: 1622
Assign rand_sets[34]: 275  LLC: 2048
rand_sets[34]: 275
Assign rand_sets[35]: 635  LLC: 2048
rand_sets[35]: 635
Assign rand_sets[36]: 466  LLC: 2048
rand_sets[36]: 466
Assign rand_sets[37]: 1413  LLC: 2048
rand_sets[37]: 1413
Assign rand_sets[38]: 417  LLC: 2048
rand_sets[38]: 417
Assign rand_sets[39]: 472  LLC: 2048
rand_sets[39]: 472
Assign rand_sets[40]: 1340  LLC: 2048
rand_sets[40]: 1340
Assign rand_sets[41]: 852  LLC: 2048
rand_sets[41]: 852
Assign rand_sets[42]: 1365  LLC: 2048
rand_sets[42]: 1365
Assign rand_sets[43]: 47  LLC: 2048
rand_sets[43]: 47
Assign rand_sets[44]: 823  LLC: 2048
rand_sets[44]: 823
Assign rand_sets[45]: 686  LLC: 2048
rand_sets[45]: 686
Assign rand_sets[46]: 1637  LLC: 2048
rand_sets[46]: 1637
Assign rand_sets[47]: 1115  LLC: 2048
rand_sets[47]: 1115
Assign rand_sets[48]: 986  LLC: 2048
rand_sets[48]: 986
Assign rand_sets[49]: 258  LLC: 2048
rand_sets[49]: 258
Assign rand_sets[50]: 633  LLC: 2048
rand_sets[50]: 633
Assign rand_sets[51]: 920  LLC: 2048
rand_sets[51]: 920
Assign rand_sets[52]: 204  LLC: 2048
rand_sets[52]: 204
Assign rand_sets[53]: 227  LLC: 2048
rand_sets[53]: 227
Assign rand_sets[54]: 1818  LLC: 2048
rand_sets[54]: 1818
Assign rand_sets[55]: 886  LLC: 2048
rand_sets[55]: 886
Assign rand_sets[56]: 1422  LLC: 2048
rand_sets[56]: 1422
Assign rand_sets[57]: 607  LLC: 2048
rand_sets[57]: 607
Assign rand_sets[58]: 217  LLC: 2048
rand_sets[58]: 217
Assign rand_sets[59]: 1945  LLC: 2048
rand_sets[59]: 1945
Assign rand_sets[60]: 143  LLC: 2048
rand_sets[60]: 143
Assign rand_sets[61]: 1311  LLC: 2048
rand_sets[61]: 1311
Assign rand_sets[62]: 319  LLC: 2048
rand_sets[62]: 319
Assign rand_sets[63]: 1846  LLC: 2048
rand_sets[63]: 1846
 CLEAN-RRIP-POLICY-1: 2-2-0-3-2-2-2-0- CLEAN-RRIP-POLICY-2: 2-2-0-3-2-2-2-0-
 DIRTY-RRIP-POLICY-1: 1-2-0-3-0-2-2-0- DIRTY-RRIP-POLICY-2: 1-2-0-3-0-2-2-0-
 PSEL width: 10
Heartbeat CPU 0 instructions: 10000000 cycles: 7320852 heartbeat IPC: 1.36596 cumulative IPC: 1.36596 (Simulation time: 0 hr 0 min 25 sec) 
Heartbeat CPU 0 instructions: 20000000 cycles: 14625865 heartbeat IPC: 1.36892 cumulative IPC: 1.36744 (Simulation time: 0 hr 0 min 56 sec) 
Heartbeat CPU 0 instructions: 30000003 cycles: 21928427 heartbeat IPC: 1.36938 cumulative IPC: 1.36809 (Simulation time: 0 hr 1 min 21 sec) 
Heartbeat CPU 0 instructions: 40000000 cycles: 29217937 heartbeat IPC: 1.37183 cumulative IPC: 1.36902 (Simulation time: 0 hr 1 min 40 sec) 
Heartbeat CPU 0 instructions: 50000000 cycles: 36495624 heartbeat IPC: 1.37406 cumulative IPC: 1.37003 (Simulation time: 0 hr 2 min 5 sec) 
Heartbeat CPU 0 instructions: 60000000 cycles: 43776895 heartbeat IPC: 1.37339 cumulative IPC: 1.37059 (Simulation time: 0 hr 2 min 24 sec) 
Heartbeat CPU 0 instructions: 70000001 cycles: 51063379 heartbeat IPC: 1.3724 cumulative IPC: 1.37085 (Simulation time: 0 hr 2 min 47 sec) 
Heartbeat CPU 0 instructions: 80000000 cycles: 58339550 heartbeat IPC: 1.37435 cumulative IPC: 1.37128 (Simulation time: 0 hr 3 min 10 sec) 
Heartbeat CPU 0 instructions: 90000000 cycles: 65646917 heartbeat IPC: 1.36848 cumulative IPC: 1.37097 (Simulation time: 0 hr 3 min 29 sec) 
Heartbeat CPU 0 instructions: 100000000 cycles: 72940151 heartbeat IPC: 1.37113 cumulative IPC: 1.37099 (Simulation time: 0 hr 3 min 49 sec) 

Warmup complete CPU 0 instructions: 100000002 cycles: 72940152 (Simulation time: 0 hr 3 min 49 sec) 

Heartbeat CPU 0 instructions: 110000002 cycles: 114231068 heartbeat IPC: 0.242184 cumulative IPC: 0.242184 (Simulation time: 0 hr 4 min 30 sec) 
Heartbeat CPU 0 instructions: 120000000 cycles: 155247523 heartbeat IPC: 0.243805 cumulative IPC: 0.242992 (Simulation time: 0 hr 5 min 9 sec) 
Heartbeat CPU 0 instructions: 130000002 cycles: 196455434 heartbeat IPC: 0.242672 cumulative IPC: 0.242885 (Simulation time: 0 hr 5 min 48 sec) 
Heartbeat CPU 0 instructions: 140000000 cycles: 237829391 heartbeat IPC: 0.241698 cumulative IPC: 0.242587 (Simulation time: 0 hr 6 min 33 sec) 
Heartbeat CPU 0 instructions: 150000002 cycles: 278735912 heartbeat IPC: 0.24446 cumulative IPC: 0.242959 (Simulation time: 0 hr 7 min 11 sec) 
Heartbeat CPU 0 instructions: 160000000 cycles: 319658758 heartbeat IPC: 0.244362 cumulative IPC: 0.243192 (Simulation time: 0 hr 7 min 50 sec) 
Heartbeat CPU 0 instructions: 170000001 cycles: 359740574 heartbeat IPC: 0.24949 cumulative IPC: 0.244072 (Simulation time: 0 hr 8 min 28 sec) 
Heartbeat CPU 0 instructions: 180000000 cycles: 400615952 heartbeat IPC: 0.244646 cumulative IPC: 0.244144 (Simulation time: 0 hr 9 min 9 sec) 
Heartbeat CPU 0 instructions: 190000002 cycles: 441508438 heartbeat IPC: 0.244544 cumulative IPC: 0.244188 (Simulation time: 0 hr 9 min 47 sec) 
Heartbeat CPU 0 instructions: 200000000 cycles: 483741133 heartbeat IPC: 0.236783 cumulative IPC: 0.243427 (Simulation time: 0 hr 10 min 26 sec) 
Heartbeat CPU 0 instructions: 210000003 cycles: 524683159 heartbeat IPC: 0.244248 cumulative IPC: 0.243501 (Simulation time: 0 hr 11 min 5 sec) 
Heartbeat CPU 0 instructions: 220000000 cycles: 565884663 heartbeat IPC: 0.24271 cumulative IPC: 0.243435 (Simulation time: 0 hr 11 min 44 sec) 
Heartbeat CPU 0 instructions: 230000000 cycles: 607033124 heartbeat IPC: 0.243022 cumulative IPC: 0.243403 (Simulation time: 0 hr 12 min 23 sec) 
Heartbeat CPU 0 instructions: 240000000 cycles: 647843652 heartbeat IPC: 0.245035 cumulative IPC: 0.243519 (Simulation time: 0 hr 13 min 1 sec) 
Heartbeat CPU 0 instructions: 250000000 cycles: 688740180 heartbeat IPC: 0.24452 cumulative IPC: 0.243586 (Simulation time: 0 hr 13 min 42 sec) 
Heartbeat CPU 0 instructions: 260000000 cycles: 729762525 heartbeat IPC: 0.24377 cumulative IPC: 0.243597 (Simulation time: 0 hr 14 min 21 sec) 
Heartbeat CPU 0 instructions: 270000000 cycles: 770868884 heartbeat IPC: 0.243271 cumulative IPC: 0.243578 (Simulation time: 0 hr 15 min 0 sec) 
Heartbeat CPU 0 instructions: 280000000 cycles: 812375576 heartbeat IPC: 0.240925 cumulative IPC: 0.243429 (Simulation time: 0 hr 15 min 39 sec) 
Heartbeat CPU 0 instructions: 290000001 cycles: 852949908 heartbeat IPC: 0.246461 cumulative IPC: 0.243587 (Simulation time: 0 hr 16 min 17 sec) 
Heartbeat CPU 0 instructions: 300000000 cycles: 894301954 heartbeat IPC: 0.241826 cumulative IPC: 0.243498 (Simulation time: 0 hr 16 min 56 sec) 
Heartbeat CPU 0 instructions: 310000000 cycles: 935615523 heartbeat IPC: 0.242051 cumulative IPC: 0.243429 (Simulation time: 0 hr 17 min 34 sec) 
Heartbeat CPU 0 instructions: 320000000 cycles: 976624013 heartbeat IPC: 0.243852 cumulative IPC: 0.243448 (Simulation time: 0 hr 18 min 12 sec) 
Heartbeat CPU 0 instructions: 330000000 cycles: 1017650497 heartbeat IPC: 0.243745 cumulative IPC: 0.243461 (Simulation time: 0 hr 18 min 50 sec) 
Heartbeat CPU 0 instructions: 340000000 cycles: 1059287026 heartbeat IPC: 0.240174 cumulative IPC: 0.243322 (Simulation time: 0 hr 19 min 29 sec) 
Heartbeat CPU 0 instructions: 350000001 cycles: 1100353524 heartbeat IPC: 0.243508 cumulative IPC: 0.24333 (Simulation time: 0 hr 20 min 6 sec) 
Heartbeat CPU 0 instructions: 360000000 cycles: 1141654637 heartbeat IPC: 0.242124 cumulative IPC: 0.243283 (Simulation time: 0 hr 20 min 44 sec) 
Heartbeat CPU 0 instructions: 370000000 cycles: 1181991730 heartbeat IPC: 0.247911 cumulative IPC: 0.243451 (Simulation time: 0 hr 21 min 21 sec) 
Heartbeat CPU 0 instructions: 380000000 cycles: 1223381059 heartbeat IPC: 0.241608 cumulative IPC: 0.243385 (Simulation time: 0 hr 21 min 59 sec) 
Heartbeat CPU 0 instructions: 390000001 cycles: 1264180225 heartbeat IPC: 0.245103 cumulative IPC: 0.243444 (Simulation time: 0 hr 22 min 36 sec) 
Heartbeat CPU 0 instructions: 400000000 cycles: 1305100264 heartbeat IPC: 0.244379 cumulative IPC: 0.243475 (Simulation time: 0 hr 23 min 14 sec) 
Heartbeat CPU 0 instructions: 410000000 cycles: 1345862131 heartbeat IPC: 0.245327 cumulative IPC: 0.243534 (Simulation time: 0 hr 23 min 51 sec) 
Heartbeat CPU 0 instructions: 420000000 cycles: 1386679701 heartbeat IPC: 0.244993 cumulative IPC: 0.243579 (Simulation time: 0 hr 24 min 28 sec) 
Heartbeat CPU 0 instructions: 430000000 cycles: 1427572622 heartbeat IPC: 0.244541 cumulative IPC: 0.243609 (Simulation time: 0 hr 25 min 6 sec) 
Heartbeat CPU 0 instructions: 440000000 cycles: 1468497269 heartbeat IPC: 0.244352 cumulative IPC: 0.24363 (Simulation time: 0 hr 25 min 43 sec) 
Heartbeat CPU 0 instructions: 450000002 cycles: 1509296930 heartbeat IPC: 0.2451 cumulative IPC: 0.243672 (Simulation time: 0 hr 26 min 20 sec) 
Heartbeat CPU 0 instructions: 460000000 cycles: 1549528547 heartbeat IPC: 0.248561 cumulative IPC: 0.243805 (Simulation time: 0 hr 26 min 58 sec) 
Heartbeat CPU 0 instructions: 470000000 cycles: 1590642437 heartbeat IPC: 0.243227 cumulative IPC: 0.24379 (Simulation time: 0 hr 27 min 35 sec) 
Heartbeat CPU 0 instructions: 480000000 cycles: 1631374485 heartbeat IPC: 0.245507 cumulative IPC: 0.243834 (Simulation time: 0 hr 28 min 12 sec) 
Heartbeat CPU 0 instructions: 490000001 cycles: 1672283222 heartbeat IPC: 0.244447 cumulative IPC: 0.24385 (Simulation time: 0 hr 28 min 50 sec) 
Heartbeat CPU 0 instructions: 500000000 cycles: 1713372713 heartbeat IPC: 0.243371 cumulative IPC: 0.243838 (Simulation time: 0 hr 29 min 27 sec) 
Heartbeat CPU 0 instructions: 510000000 cycles: 1753908411 heartbeat IPC: 0.246696 cumulative IPC: 0.243907 (Simulation time: 0 hr 30 min 4 sec) 
Heartbeat CPU 0 instructions: 520000000 cycles: 1795258833 heartbeat IPC: 0.241836 cumulative IPC: 0.243857 (Simulation time: 0 hr 30 min 42 sec) 
Heartbeat CPU 0 instructions: 530000000 cycles: 1836032647 heartbeat IPC: 0.245255 cumulative IPC: 0.24389 (Simulation time: 0 hr 31 min 19 sec) 
Heartbeat CPU 0 instructions: 540000000 cycles: 1876565319 heartbeat IPC: 0.246715 cumulative IPC: 0.243953 (Simulation time: 0 hr 31 min 57 sec) 
Heartbeat CPU 0 instructions: 550000001 cycles: 1917860282 heartbeat IPC: 0.24216 cumulative IPC: 0.243913 (Simulation time: 0 hr 32 min 35 sec) 
Heartbeat CPU 0 instructions: 560000000 cycles: 1959297931 heartbeat IPC: 0.241326 cumulative IPC: 0.243856 (Simulation time: 0 hr 33 min 12 sec) 
Heartbeat CPU 0 instructions: 570000003 cycles: 2000622152 heartbeat IPC: 0.241989 cumulative IPC: 0.243816 (Simulation time: 0 hr 33 min 50 sec) 
Heartbeat CPU 0 instructions: 580000000 cycles: 2041780002 heartbeat IPC: 0.242967 cumulative IPC: 0.243798 (Simulation time: 0 hr 34 min 28 sec) 
Heartbeat CPU 0 instructions: 590000001 cycles: 2083428798 heartbeat IPC: 0.240103 cumulative IPC: 0.243722 (Simulation time: 0 hr 35 min 6 sec) 
Heartbeat CPU 0 instructions: 600000000 cycles: 2124770470 heartbeat IPC: 0.241887 cumulative IPC: 0.243685 (Simulation time: 0 hr 35 min 43 sec) 
Finished CPU 0 instructions: 500000000 cycles: 2051830326 cumulative IPC: 0.243685 (Simulation time: 0 hr 35 min 43 sec) 

CPU 0 Branch Prediction Accuracy: 96.2429% MPKI: 5.85335
Number of Branches: 77897976 Number of Mispredictions: 2926674
Number of LOAD Instructions: 193081861
Number of LOAD Instructions (ROI): 193081861
Number of STORE Instructions: 97310749
Number of STORE Instructions (ROI): 97310749
Total Destination Memory Operands: 106368027
Total Destination Memory Operands (ROI): 106368027
Total Source Memory Operands: 193081861
Total Source Memory Operands (ROI): 193081861
Number of DEPENDED LOADS: 6462050
Number of DEPENDED LOADS (ROI): 6462050
Number of SQ_ADDED: 106367982
Number of SQ_ADDED (ROI): 106367982
Number of LQ_ADDED: 433800779
Number of LQ_ADDED (ROI): 433800779
Number of Instructions read from trace: 600000256

ChampSim completed all CPUs

Region of Interest Statistics

CPU 0 cumulative IPC: 0.243685 instructions: 500000000 cycles: 2051830326
ITLB TOTAL     ACCESS:  151070813  HIT:  151054982  MISS:      15831
ITLB LOAD      ACCESS:  151070813  HIT:  151054982  MISS:      15831
ITLB RFO       ACCESS:          0  HIT:          0  MISS:          0
ITLB PREFETCH  ACCESS:          0  HIT:          0  MISS:          0
ITLB WRITEBACK ACCESS:          0  HIT:          0  MISS:          0
ITLB PREFETCH  REQUESTED:          0  ISSUED:          0  USEFUL:          0  USELESS:          0
ITLB TOTAL MSHR MERGED:      17461
ITLB LOAD MSHR MERGED:      17461
ITLB RFO MSHR MERGED:          0
ITLB PREFETCH MSHR MERGED:          0
ITLB WRITEBACK MSHR MERGED:          0
ITLB TOTAL ACCESSES:  151088274 HITS:  151054982 MISSES:      33292
ITLB LOAD ACCESSES:  151088274 HITS:  151054982 MISSES:      33292
ITLB RFO ACCESSES:          0 HITS:          0 MISSES:          0
ITLB PREFETCH ACCESSES:          0 HITS:          0 MISSES:          0
ITLB WRITEBACK ACCESSES:          0 HITS:          0 MISSES:          0
ITLB RQ ACCESS:  500000242
ITLB RQ TO_CACHE:  151088274
ITLB RQ MERGED:  348911968
ITLB RQ FORWARD:          0
ITLB WQ ACCESS:          0
ITLB WQ TO_CACHE:          0
ITLB WQ MERGED:          0
ITLB WQ FORWARD:          0
DTLB TOTAL     ACCESS:  199550372  HIT:  194171363  MISS:    5379009
DTLB LOAD      ACCESS:  123128141  HIT:  118109596  MISS:    5018545
DTLB RFO       ACCESS:   76422231  HIT:   76061767  MISS:     360464
DTLB PREFETCH  ACCESS:          0  HIT:          0  MISS:          0
DTLB WRITEBACK ACCESS:          0  HIT:          0  MISS:          0
DTLB PREFETCH  REQUESTED:          0  ISSUED:          0  USEFUL:          0  USELESS:          0
DTLB TOTAL MSHR MERGED:     916714
DTLB LOAD MSHR MERGED:     807208
DTLB RFO MSHR MERGED:     109506
DTLB PREFETCH MSHR MERGED:          0
DTLB WRITEBACK MSHR MERGED:          0
DTLB TOTAL ACCESSES:  200467086 HITS:  194171363 MISSES:    6295723
DTLB LOAD ACCESSES:  123935349 HITS:  118109596 MISSES:    5825753
DTLB RFO ACCESSES:   76531737 HITS:   76061767 MISSES:     469970
DTLB PREFETCH ACCESSES:          0 HITS:          0 MISSES:          0
DTLB WRITEBACK ACCESSES:          0 HITS:          0 MISSES:          0
DTLB RQ ACCESS:  243864686
DTLB RQ TO_CACHE:  200467086
DTLB RQ MERGED:   43397600
DTLB RQ FORWARD:          0
DTLB WQ ACCESS:          0
DTLB WQ TO_CACHE:          0
DTLB WQ MERGED:          0
DTLB WQ FORWARD:          0
L1D TOTAL     ACCESS:  335492490  HIT:  317396492  MISS:   18095998
L1D LOAD      ACCESS:  127659894  HIT:  118709232  MISS:    8950662
L1D RFO       ACCESS:   87031482  HIT:   86238501  MISS:     792981
L1D PREFETCH  ACCESS:  120801114  HIT:  112448759  MISS:    8352355
L1D WRITEBACK ACCESS:          0  HIT:          0  MISS:          0
L1D PREFETCH  REQUESTED:  128470853  ISSUED:  126872764  USEFUL:    1731893  USELESS:    6620473
L1D TOTAL MSHR MERGED:    3943727
L1D LOAD MSHR MERGED:     982066
L1D RFO MSHR MERGED:    1119884
L1D PREFETCH MSHR MERGED:    1841777
L1D WRITEBACK MSHR MERGED:          0
L1D TOTAL ACCESSES:  339525575 HITS:  317485850 MISSES:   22039725
L1D LOAD ACCESSES:  128471367 HITS:  118709746 MISSES:    9761621
L1D RFO ACCESSES:   88078204 HITS:   86238501 MISSES:    1839703
L1D PREFETCH ACCESSES:  122976004 HITS:  112537603 MISSES:   10438401
L1D WRITEBACK ACCESSES:          0 HITS:          0 MISSES:          0
L1D RQ ACCESS:  155233301
L1D RQ TO_CACHE:  128470853
L1D RQ MERGED:   26761934
L1D RQ FORWARD:          0
L1D WQ ACCESS:   88631385
L1D WQ TO_CACHE:   88078203
L1D WQ MERGED:     553182
L1D WQ FORWARD:      89358
L1I TOTAL     ACCESS:  175361957  HIT:  175095747  MISS:     266210
L1I LOAD      ACCESS:  175361957  HIT:  175095747  MISS:     266210
L1I RFO       ACCESS:          0  HIT:          0  MISS:          0
L1I PREFETCH  ACCESS:          0  HIT:          0  MISS:          0
L1I WRITEBACK ACCESS:          0  HIT:          0  MISS:          0
L1I PREFETCH  REQUESTED:          0  ISSUED:          0  USEFUL:          0  USELESS:          0
L1I TOTAL MSHR MERGED:     226960
L1I LOAD MSHR MERGED:     226960
L1I RFO MSHR MERGED:          0
L1I PREFETCH MSHR MERGED:          0
L1I WRITEBACK MSHR MERGED:          0
L1I TOTAL ACCESSES:  175588917 HITS:  175095747 MISSES:     493170
L1I LOAD ACCESSES:  175588917 HITS:  175095747 MISSES:     493170
L1I RFO ACCESSES:          0 HITS:          0 MISSES:          0
L1I PREFETCH ACCESSES:          0 HITS:          0 MISSES:          0
L1I WRITEBACK ACCESSES:          0 HITS:          0 MISSES:          0
L1I RQ ACCESS:  500000242
L1I RQ TO_CACHE:  175588917
L1I RQ MERGED:  324411325
L1I RQ FORWARD:          0
L1I WQ ACCESS:          0
L1I WQ TO_CACHE:          0
L1I WQ MERGED:          0
L1I WQ FORWARD:          0
L2C TOTAL     ACCESS:   23738296  HIT:   12112574  MISS:   11625722
L2C LOAD      ACCESS:    9044600  HIT:    3564912  MISS:    5479688
L2C RFO       ACCESS:     719761  HIT:     129886  MISS:     589875
L2C PREFETCH  ACCESS:    8613645  HIT:    3086198  MISS:    5527447
L2C WRITEBACK ACCESS:    5360290  HIT:    5331578  MISS:      28712
L2C PREFETCH  REQUESTED:      18060  ISSUED:      18060  USEFUL:     322944  USELESS:    5204678
L2C TOTAL MSHR MERGED:         29
L2C LOAD MSHR MERGED:          5
L2C RFO MSHR MERGED:          0
L2C PREFETCH MSHR MERGED:         24
L2C WRITEBACK MSHR MERGED:          0
L2C TOTAL ACCESSES:   23740096 HITS:   12114339 MISSES:   11625757
L2C LOAD ACCESSES:    9045765 HITS:    3566077 MISSES:    5479688
L2C RFO ACCESSES:     719819 HITS:     129944 MISSES:     589875
L2C PREFETCH ACCESSES:    8614222 HITS:    3086740 MISSES:    5527482
L2C WRITEBACK ACCESSES:    5360290 HITS:    5331578 MISSES:      28712
L2C RQ ACCESS:    9765584
L2C RQ TO_CACHE:    9764361
L2C RQ MERGED:          0
L2C RQ FORWARD:          0
L2C WQ ACCESS:    5360290
L2C WQ TO_CACHE:    5360290
L2C WQ MERGED:          0
L2C WQ FORWARD:       1765
LLC TOTAL     ACCESS:   15448660  HIT:    5841607  MISS:    9607053
LLC LOAD      ACCESS:    5479655  HIT:    1676235  MISS:    3803420
LLC RFO       ACCESS:     589872  HIT:     235228  MISS:     354644
LLC PREFETCH  ACCESS:    5527443  HIT:     842056  MISS:    4685387
LLC WRITEBACK ACCESS:    3851690  HIT:    3088088  MISS:     763602
LLC PREFETCH  REQUESTED:          0  ISSUED:          0  USEFUL:      15013  USELESS:    4670819
LLC TOTAL MSHR MERGED:          0
LLC LOAD MSHR MERGED:          0
LLC RFO MSHR MERGED:          0
LLC PREFETCH MSHR MERGED:          0
LLC WRITEBACK MSHR MERGED:          0
LLC TOTAL ACCESSES:   15448706 HITS:    5841653 MISSES:    9607053
LLC LOAD ACCESSES:    5479683 HITS:    1676263 MISSES:    3803420
LLC RFO ACCESSES:     589875 HITS:     235231 MISSES:     354644
LLC PREFETCH ACCESSES:    5527458 HITS:     842071 MISSES:    4685387
LLC WRITEBACK ACCESSES:    3851690 HITS:    3088088 MISSES:     763602
LLC 0 RQ ACCESS:    6069558
LLC 0 RQ TO_CACHE:    6069527
LLC 0 RQ MERGED:          0
LLC 0 RQ FORWARD:          0
LLC WQ ACCESS:    3851690
LLC WQ TO_CACHE:    3851690
LLC WQ MERGED:          0
LLC WQ FORWARD:         46
Major fault: 0 Minor fault: 44814
CPU 0 L1D next line prefetcher final stats
CPU 0 L2C PC-based stride prefetcher final stats
All Misses: 11627505
All Hits: 6993669
SD Algo Stats - Switches: 0 SRR-Repls: 4344604 BRR-Repls: 0

DRAM Statistics
 CHANNEL 0
 RQ ROW_BUFFER_HIT:    1495870  ROW_BUFFER_MISS:    7344810
 DBUS_CONGESTED:    6099571
 WQ ROW_BUFFER_HIT:     213958  ROW_BUFFER_MISS:    2365229  FULL:          0

 AVG_CONGESTED_CYCLE: 13
LOADS RETIRED: 160808997
INSTR RETIRED: 500000000
