
*** ChampSim Multicore Out-of-Order Simulator ***

Warmup Instructions: 100000000
Simulation Instructions: 500000000
Number of CPUs: 1
LLC sets: 2048
LLC ways: 16
Clean RRIP Policies: 2313230223132302 Dirty RRIP Policies: 2303130223031302 PSEL Width: 10 Track Set: 4294967295 PSEL Mask: 1 Demote Mask: 4030100040301000DS Algo: 0Window size: 0
Off-chip DRAM Size: 4096 MB Channels: 1 Width: 64-bit Data Rate: 1600 MT/s

CPU 0 runs /mnt/beegfs/iconst01/spec2017/Xz.trace.gz
NOT SORTED
TRACE STRING: /mnt/beegfs/iconst01/spec2017/Xz.trace.gz
SORTED
TRACE STRING: /mnt/beegfs/iconst01/spec2017/Xz.trace.gz
INITIAL
TRACE STRING: /mnt/beegfs/iconst01/spec2017/Xz.trace.gz

champsim_seed used: 210

CPU 0 L1D next line prefetcher
CPU 0 L2C IP-based stride prefetcher
Initialize DRRIP state
Assign rand_sets[0]: 454  LLC: 2048
rand_sets[0]: 454
Assign rand_sets[1]: 1662  LLC: 2048
rand_sets[1]: 1662
Assign rand_sets[2]: 1921  LLC: 2048
rand_sets[2]: 1921
Assign rand_sets[3]: 1131  LLC: 2048
rand_sets[3]: 1131
Assign rand_sets[4]: 331  LLC: 2048
rand_sets[4]: 331
Assign rand_sets[5]: 1531  LLC: 2048
rand_sets[5]: 1531
Assign rand_sets[6]: 482  LLC: 2048
rand_sets[6]: 482
Assign rand_sets[7]: 1275  LLC: 2048
rand_sets[7]: 1275
Assign rand_sets[8]: 1876  LLC: 2048
rand_sets[8]: 1876
Assign rand_sets[9]: 2038  LLC: 2048
rand_sets[9]: 2038
Assign rand_sets[10]: 701  LLC: 2048
rand_sets[10]: 701
Assign rand_sets[11]: 479  LLC: 2048
rand_sets[11]: 479
Assign rand_sets[12]: 892  LLC: 2048
rand_sets[12]: 892
Assign rand_sets[13]: 1820  LLC: 2048
rand_sets[13]: 1820
Assign rand_sets[14]: 1505  LLC: 2048
rand_sets[14]: 1505
Assign rand_sets[15]: 1159  LLC: 2048
rand_sets[15]: 1159
Assign rand_sets[16]: 513  LLC: 2048
rand_sets[16]: 513
Assign rand_sets[17]: 703  LLC: 2048
rand_sets[17]: 703
Assign rand_sets[18]: 561  LLC: 2048
rand_sets[18]: 561
Assign rand_sets[19]: 990  LLC: 2048
rand_sets[19]: 990
Assign rand_sets[20]: 342  LLC: 2048
rand_sets[20]: 342
Assign rand_sets[21]: 882  LLC: 2048
rand_sets[21]: 882
Assign rand_sets[22]: 15  LLC: 2048
rand_sets[22]: 15
Assign rand_sets[23]: 71  LLC: 2048
rand_sets[23]: 71
Assign rand_sets[24]: 1127  LLC: 2048
rand_sets[24]: 1127
Assign rand_sets[25]: 1382  LLC: 2048
rand_sets[25]: 1382
Assign rand_sets[26]: 647  LLC: 2048
rand_sets[26]: 647
Assign rand_sets[27]: 857  LLC: 2048
rand_sets[27]: 857
Assign rand_sets[28]: 1450  LLC: 2048
rand_sets[28]: 1450
Assign rand_sets[29]: 1160  LLC: 2048
rand_sets[29]: 1160
Assign rand_sets[30]: 1852  LLC: 2048
rand_sets[30]: 1852
Assign rand_sets[31]: 1881  LLC: 2048
rand_sets[31]: 1881
Assign rand_sets[32]: 1770  LLC: 2048
rand_sets[32]: 1770
Assign rand_sets[33]: 1622  LLC: 2048
rand_sets[33]: 1622
Assign rand_sets[34]: 275  LLC: 2048
rand_sets[34]: 275
Assign rand_sets[35]: 635  LLC: 2048
rand_sets[35]: 635
Assign rand_sets[36]: 466  LLC: 2048
rand_sets[36]: 466
Assign rand_sets[37]: 1413  LLC: 2048
rand_sets[37]: 1413
Assign rand_sets[38]: 417  LLC: 2048
rand_sets[38]: 417
Assign rand_sets[39]: 472  LLC: 2048
rand_sets[39]: 472
Assign rand_sets[40]: 1340  LLC: 2048
rand_sets[40]: 1340
Assign rand_sets[41]: 852  LLC: 2048
rand_sets[41]: 852
Assign rand_sets[42]: 1365  LLC: 2048
rand_sets[42]: 1365
Assign rand_sets[43]: 47  LLC: 2048
rand_sets[43]: 47
Assign rand_sets[44]: 823  LLC: 2048
rand_sets[44]: 823
Assign rand_sets[45]: 686  LLC: 2048
rand_sets[45]: 686
Assign rand_sets[46]: 1637  LLC: 2048
rand_sets[46]: 1637
Assign rand_sets[47]: 1115  LLC: 2048
rand_sets[47]: 1115
Assign rand_sets[48]: 986  LLC: 2048
rand_sets[48]: 986
Assign rand_sets[49]: 258  LLC: 2048
rand_sets[49]: 258
Assign rand_sets[50]: 633  LLC: 2048
rand_sets[50]: 633
Assign rand_sets[51]: 920  LLC: 2048
rand_sets[51]: 920
Assign rand_sets[52]: 204  LLC: 2048
rand_sets[52]: 204
Assign rand_sets[53]: 227  LLC: 2048
rand_sets[53]: 227
Assign rand_sets[54]: 1818  LLC: 2048
rand_sets[54]: 1818
Assign rand_sets[55]: 886  LLC: 2048
rand_sets[55]: 886
Assign rand_sets[56]: 1422  LLC: 2048
rand_sets[56]: 1422
Assign rand_sets[57]: 607  LLC: 2048
rand_sets[57]: 607
Assign rand_sets[58]: 217  LLC: 2048
rand_sets[58]: 217
Assign rand_sets[59]: 1945  LLC: 2048
rand_sets[59]: 1945
Assign rand_sets[60]: 143  LLC: 2048
rand_sets[60]: 143
Assign rand_sets[61]: 1311  LLC: 2048
rand_sets[61]: 1311
Assign rand_sets[62]: 319  LLC: 2048
rand_sets[62]: 319
Assign rand_sets[63]: 1846  LLC: 2048
rand_sets[63]: 1846
 CLEAN-RRIP-POLICY-1: 2-3-1-3-2-3-0-2- CLEAN-RRIP-POLICY-2: 2-3-1-3-2-3-0-2-
 DIRTY-RRIP-POLICY-1: 2-3-0-3-1-3-0-2- DIRTY-RRIP-POLICY-2: 2-3-0-3-1-3-0-2-
 PSEL width: 10
Heartbeat CPU 0 instructions: 10000000 cycles: 4305307 heartbeat IPC: 2.32271 cumulative IPC: 2.32271 (Simulation time: 0 hr 0 min 12 sec) 
Heartbeat CPU 0 instructions: 20000000 cycles: 8617246 heartbeat IPC: 2.31914 cumulative IPC: 2.32093 (Simulation time: 0 hr 0 min 24 sec) 
Heartbeat CPU 0 instructions: 30000003 cycles: 13161208 heartbeat IPC: 2.20072 cumulative IPC: 2.27943 (Simulation time: 0 hr 0 min 36 sec) 
Heartbeat CPU 0 instructions: 40000000 cycles: 17515757 heartbeat IPC: 2.29645 cumulative IPC: 2.28366 (Simulation time: 0 hr 0 min 48 sec) 
Heartbeat CPU 0 instructions: 50000001 cycles: 21878611 heartbeat IPC: 2.29208 cumulative IPC: 2.28534 (Simulation time: 0 hr 1 min 0 sec) 
Heartbeat CPU 0 instructions: 60000000 cycles: 26178838 heartbeat IPC: 2.32546 cumulative IPC: 2.29193 (Simulation time: 0 hr 1 min 12 sec) 
Heartbeat CPU 0 instructions: 70000001 cycles: 30244732 heartbeat IPC: 2.45948 cumulative IPC: 2.31445 (Simulation time: 0 hr 1 min 23 sec) 
Heartbeat CPU 0 instructions: 80000000 cycles: 34523527 heartbeat IPC: 2.33711 cumulative IPC: 2.31726 (Simulation time: 0 hr 1 min 34 sec) 
Heartbeat CPU 0 instructions: 90000001 cycles: 38740167 heartbeat IPC: 2.37156 cumulative IPC: 2.32317 (Simulation time: 0 hr 1 min 46 sec) 
Heartbeat CPU 0 instructions: 100000000 cycles: 42980559 heartbeat IPC: 2.35827 cumulative IPC: 2.32663 (Simulation time: 0 hr 1 min 57 sec) 

Warmup complete CPU 0 instructions: 100000001 cycles: 42980560 (Simulation time: 0 hr 1 min 57 sec) 

Heartbeat CPU 0 instructions: 110000000 cycles: 53118302 heartbeat IPC: 0.986413 cumulative IPC: 0.986413 (Simulation time: 0 hr 2 min 14 sec) 
Heartbeat CPU 0 instructions: 120000000 cycles: 63751772 heartbeat IPC: 0.940427 cumulative IPC: 0.962871 (Simulation time: 0 hr 2 min 32 sec) 
Heartbeat CPU 0 instructions: 130000001 cycles: 74364335 heartbeat IPC: 0.94228 cumulative IPC: 0.955908 (Simulation time: 0 hr 2 min 50 sec) 
Heartbeat CPU 0 instructions: 140000000 cycles: 84060708 heartbeat IPC: 1.03131 cumulative IPC: 0.973706 (Simulation time: 0 hr 3 min 7 sec) 
Heartbeat CPU 0 instructions: 150000001 cycles: 94380712 heartbeat IPC: 0.968992 cumulative IPC: 0.97276 (Simulation time: 0 hr 3 min 24 sec) 
Heartbeat CPU 0 instructions: 160000000 cycles: 104447414 heartbeat IPC: 0.993374 cumulative IPC: 0.976136 (Simulation time: 0 hr 3 min 42 sec) 
Heartbeat CPU 0 instructions: 170000000 cycles: 114122346 heartbeat IPC: 1.0336 cumulative IPC: 0.983951 (Simulation time: 0 hr 3 min 59 sec) 
Heartbeat CPU 0 instructions: 180000000 cycles: 124673965 heartbeat IPC: 0.947722 cumulative IPC: 0.979271 (Simulation time: 0 hr 4 min 17 sec) 
Heartbeat CPU 0 instructions: 190000001 cycles: 134941099 heartbeat IPC: 0.973982 cumulative IPC: 0.978681 (Simulation time: 0 hr 4 min 34 sec) 
Heartbeat CPU 0 instructions: 200000000 cycles: 145525072 heartbeat IPC: 0.944825 cumulative IPC: 0.975186 (Simulation time: 0 hr 4 min 52 sec) 
Heartbeat CPU 0 instructions: 210000002 cycles: 157989014 heartbeat IPC: 0.802315 cumulative IPC: 0.956451 (Simulation time: 0 hr 5 min 11 sec) 
Heartbeat CPU 0 instructions: 220000000 cycles: 170536958 heartbeat IPC: 0.796943 cumulative IPC: 0.94076 (Simulation time: 0 hr 5 min 30 sec) 
Heartbeat CPU 0 instructions: 230000000 cycles: 182721865 heartbeat IPC: 0.820687 cumulative IPC: 0.93029 (Simulation time: 0 hr 5 min 48 sec) 
Heartbeat CPU 0 instructions: 240000000 cycles: 194870197 heartbeat IPC: 0.823158 cumulative IPC: 0.921722 (Simulation time: 0 hr 6 min 7 sec) 
Heartbeat CPU 0 instructions: 250000000 cycles: 206852714 heartbeat IPC: 0.834549 cumulative IPC: 0.915348 (Simulation time: 0 hr 6 min 26 sec) 
Heartbeat CPU 0 instructions: 260000000 cycles: 218428318 heartbeat IPC: 0.863886 cumulative IPC: 0.911952 (Simulation time: 0 hr 6 min 44 sec) 
Heartbeat CPU 0 instructions: 270000003 cycles: 230320673 heartbeat IPC: 0.840877 cumulative IPC: 0.90744 (Simulation time: 0 hr 7 min 3 sec) 
Heartbeat CPU 0 instructions: 280000000 cycles: 241873984 heartbeat IPC: 0.865552 cumulative IPC: 0.905007 (Simulation time: 0 hr 7 min 21 sec) 
Heartbeat CPU 0 instructions: 290000002 cycles: 253411505 heartbeat IPC: 0.866737 cumulative IPC: 0.902909 (Simulation time: 0 hr 7 min 40 sec) 
Heartbeat CPU 0 instructions: 300000000 cycles: 265869073 heartbeat IPC: 0.802725 cumulative IPC: 0.89731 (Simulation time: 0 hr 7 min 59 sec) 
Heartbeat CPU 0 instructions: 310000000 cycles: 278037380 heartbeat IPC: 0.821807 cumulative IPC: 0.893401 (Simulation time: 0 hr 8 min 17 sec) 
Heartbeat CPU 0 instructions: 320000000 cycles: 290708350 heartbeat IPC: 0.789206 cumulative IPC: 0.888072 (Simulation time: 0 hr 8 min 36 sec) 
Heartbeat CPU 0 instructions: 330000003 cycles: 302660891 heartbeat IPC: 0.836642 cumulative IPC: 0.885704 (Simulation time: 0 hr 8 min 55 sec) 
Heartbeat CPU 0 instructions: 340000000 cycles: 314785094 heartbeat IPC: 0.824796 cumulative IPC: 0.882987 (Simulation time: 0 hr 9 min 13 sec) 
Heartbeat CPU 0 instructions: 350000001 cycles: 325796546 heartbeat IPC: 0.908146 cumulative IPC: 0.883967 (Simulation time: 0 hr 9 min 32 sec) 
Heartbeat CPU 0 instructions: 360000000 cycles: 337603166 heartbeat IPC: 0.846982 cumulative IPC: 0.882485 (Simulation time: 0 hr 9 min 50 sec) 
Heartbeat CPU 0 instructions: 370000001 cycles: 349028951 heartbeat IPC: 0.875214 cumulative IPC: 0.882213 (Simulation time: 0 hr 10 min 8 sec) 
Heartbeat CPU 0 instructions: 380000000 cycles: 360038529 heartbeat IPC: 0.9083 cumulative IPC: 0.883119 (Simulation time: 0 hr 10 min 27 sec) 
Heartbeat CPU 0 instructions: 390000003 cycles: 370678573 heartbeat IPC: 0.939846 cumulative IPC: 0.884961 (Simulation time: 0 hr 10 min 45 sec) 
Heartbeat CPU 0 instructions: 400000000 cycles: 380921323 heartbeat IPC: 0.9763 cumulative IPC: 0.88773 (Simulation time: 0 hr 11 min 2 sec) 
Heartbeat CPU 0 instructions: 410000000 cycles: 391462872 heartbeat IPC: 0.948627 cumulative IPC: 0.889572 (Simulation time: 0 hr 11 min 20 sec) 
Heartbeat CPU 0 instructions: 420000000 cycles: 400856326 heartbeat IPC: 1.06457 cumulative IPC: 0.894165 (Simulation time: 0 hr 11 min 38 sec) 
Heartbeat CPU 0 instructions: 430000002 cycles: 409952347 heartbeat IPC: 1.09938 cumulative IPC: 0.899252 (Simulation time: 0 hr 11 min 55 sec) 
Heartbeat CPU 0 instructions: 440000000 cycles: 420232833 heartbeat IPC: 0.972716 cumulative IPC: 0.901254 (Simulation time: 0 hr 12 min 13 sec) 
Heartbeat CPU 0 instructions: 450000002 cycles: 431328138 heartbeat IPC: 0.901282 cumulative IPC: 0.901254 (Simulation time: 0 hr 12 min 31 sec) 
Heartbeat CPU 0 instructions: 460000000 cycles: 442891922 heartbeat IPC: 0.864769 cumulative IPC: 0.900199 (Simulation time: 0 hr 12 min 49 sec) 
Heartbeat CPU 0 instructions: 470000003 cycles: 453096950 heartbeat IPC: 0.979909 cumulative IPC: 0.902183 (Simulation time: 0 hr 13 min 6 sec) 
Heartbeat CPU 0 instructions: 480000000 cycles: 463648263 heartbeat IPC: 0.947749 cumulative IPC: 0.903326 (Simulation time: 0 hr 13 min 24 sec) 
Heartbeat CPU 0 instructions: 490000000 cycles: 473616627 heartbeat IPC: 1.00317 cumulative IPC: 0.905637 (Simulation time: 0 hr 13 min 41 sec) 
Heartbeat CPU 0 instructions: 500000000 cycles: 485409963 heartbeat IPC: 0.847937 cumulative IPC: 0.904099 (Simulation time: 0 hr 13 min 59 sec) 
Heartbeat CPU 0 instructions: 510000002 cycles: 497824587 heartbeat IPC: 0.805502 cumulative IPC: 0.901408 (Simulation time: 0 hr 14 min 18 sec) 
Heartbeat CPU 0 instructions: 520000000 cycles: 509694884 heartbeat IPC: 0.842439 cumulative IPC: 0.899908 (Simulation time: 0 hr 14 min 36 sec) 
Heartbeat CPU 0 instructions: 530000001 cycles: 521543630 heartbeat IPC: 0.843971 cumulative IPC: 0.898523 (Simulation time: 0 hr 14 min 54 sec) 
Heartbeat CPU 0 instructions: 540000000 cycles: 533162566 heartbeat IPC: 0.860664 cumulative IPC: 0.897626 (Simulation time: 0 hr 15 min 12 sec) 
Heartbeat CPU 0 instructions: 550000001 cycles: 544561002 heartbeat IPC: 0.877313 cumulative IPC: 0.897164 (Simulation time: 0 hr 15 min 30 sec) 
Heartbeat CPU 0 instructions: 560000000 cycles: 556139525 heartbeat IPC: 0.863668 cumulative IPC: 0.896408 (Simulation time: 0 hr 15 min 48 sec) 
Heartbeat CPU 0 instructions: 570000000 cycles: 567557464 heartbeat IPC: 0.875815 cumulative IPC: 0.89596 (Simulation time: 0 hr 16 min 6 sec) 
Heartbeat CPU 0 instructions: 580000000 cycles: 578335931 heartbeat IPC: 0.927776 cumulative IPC: 0.896601 (Simulation time: 0 hr 16 min 24 sec) 
Heartbeat CPU 0 instructions: 590000003 cycles: 589751114 heartbeat IPC: 0.876027 cumulative IPC: 0.896171 (Simulation time: 0 hr 16 min 41 sec) 
Heartbeat CPU 0 instructions: 600000000 cycles: 600344077 heartbeat IPC: 0.944023 cumulative IPC: 0.897081 (Simulation time: 0 hr 16 min 59 sec) 
Finished CPU 0 instructions: 500000001 cycles: 557363525 cumulative IPC: 0.897081 (Simulation time: 0 hr 16 min 59 sec) 

CPU 0 Branch Prediction Accuracy: 93.0095% MPKI: 10.0046
Number of Branches: 71558147 Number of Mispredictions: 5002285
Number of LOAD Instructions: 145708893
Number of LOAD Instructions (ROI): 145708893
Number of STORE Instructions: 40463820
Number of STORE Instructions (ROI): 40463820
Total Destination Memory Operands: 45240498
Total Destination Memory Operands (ROI): 45240498
Total Source Memory Operands: 145708893
Total Source Memory Operands (ROI): 145708893
Number of DEPENDED LOADS: 10672405
Number of DEPENDED LOADS (ROI): 10672405
Number of SQ_ADDED: 45240498
Number of SQ_ADDED (ROI): 45240498
Number of LQ_ADDED: 193323272
Number of LQ_ADDED (ROI): 193323272
Number of Instructions read from trace: 600000002

ChampSim completed all CPUs

Region of Interest Statistics

CPU 0 cumulative IPC: 0.897081 instructions: 500000001 cycles: 557363525
ITLB TOTAL     ACCESS:   77992354  HIT:   77992353  MISS:          1
ITLB LOAD      ACCESS:   77992354  HIT:   77992353  MISS:          1
ITLB RFO       ACCESS:          0  HIT:          0  MISS:          0
ITLB PREFETCH  ACCESS:          0  HIT:          0  MISS:          0
ITLB WRITEBACK ACCESS:          0  HIT:          0  MISS:          0
ITLB PREFETCH  REQUESTED:          0  ISSUED:          0  USEFUL:          0  USELESS:          0
ITLB TOTAL MSHR MERGED:          0
ITLB LOAD MSHR MERGED:          0
ITLB RFO MSHR MERGED:          0
ITLB PREFETCH MSHR MERGED:          0
ITLB WRITEBACK MSHR MERGED:          0
ITLB TOTAL ACCESSES:   77992354 HITS:   77992353 MISSES:          1
ITLB LOAD ACCESSES:   77992354 HITS:   77992353 MISSES:          1
ITLB RFO ACCESSES:          0 HITS:          0 MISSES:          0
ITLB PREFETCH ACCESSES:          0 HITS:          0 MISSES:          0
ITLB WRITEBACK ACCESSES:          0 HITS:          0 MISSES:          0
ITLB RQ ACCESS:  499999995
ITLB RQ TO_CACHE:   77992354
ITLB RQ MERGED:  422007641
ITLB RQ FORWARD:          0
ITLB WQ ACCESS:          0
ITLB WQ TO_CACHE:          0
ITLB WQ MERGED:          0
ITLB WQ FORWARD:          0
DTLB TOTAL     ACCESS:   98670887  HIT:   97789551  MISS:     881336
DTLB LOAD      ACCESS:   70891034  HIT:   70029501  MISS:     861533
DTLB RFO       ACCESS:   27779853  HIT:   27760050  MISS:      19803
DTLB PREFETCH  ACCESS:          0  HIT:          0  MISS:          0
DTLB WRITEBACK ACCESS:          0  HIT:          0  MISS:          0
DTLB PREFETCH  REQUESTED:          0  ISSUED:          0  USEFUL:          0  USELESS:          0
DTLB TOTAL MSHR MERGED:      87393
DTLB LOAD MSHR MERGED:      65649
DTLB RFO MSHR MERGED:      21744
DTLB PREFETCH MSHR MERGED:          0
DTLB WRITEBACK MSHR MERGED:          0
DTLB TOTAL ACCESSES:   98758280 HITS:   97789551 MISSES:     968729
DTLB LOAD ACCESSES:   70956683 HITS:   70029501 MISSES:     927182
DTLB RFO ACCESSES:   27801597 HITS:   27760050 MISSES:      41547
DTLB PREFETCH ACCESSES:          0 HITS:          0 MISSES:          0
DTLB WRITEBACK ACCESSES:          0 HITS:          0 MISSES:          0
DTLB RQ ACCESS:  150272647
DTLB RQ TO_CACHE:   98758280
DTLB RQ MERGED:   51514367
DTLB RQ FORWARD:          0
DTLB WQ ACCESS:          0
DTLB WQ TO_CACHE:          0
DTLB WQ MERGED:          0
DTLB WQ FORWARD:          0
L1D TOTAL     ACCESS:  173327306  HIT:  169158689  MISS:    4168617
L1D LOAD      ACCESS:   75281436  HIT:   73400098  MISS:    1881338
L1D RFO       ACCESS:   36778445  HIT:   36571832  MISS:     206613
L1D PREFETCH  ACCESS:   61267425  HIT:   59186759  MISS:    2080666
L1D WRITEBACK ACCESS:          0  HIT:          0  MISS:          0
L1D PREFETCH  REQUESTED:   75384429  ISSUED:   74820252  USEFUL:     415121  USELESS:    1665534
L1D TOTAL MSHR MERGED:     374176
L1D LOAD MSHR MERGED:     111763
L1D RFO MSHR MERGED:     132986
L1D PREFETCH MSHR MERGED:     129427
L1D WRITEBACK MSHR MERGED:          0
L1D TOTAL ACCESSES:  173853232 HITS:  169310439 MISSES:    4542793
L1D LOAD ACCESSES:   75387480 HITS:   73403149 MISSES:    1984331
L1D RFO ACCESSES:   36910028 HITS:   36571832 MISSES:     338196
L1D PREFETCH ACCESSES:   61555724 HITS:   59335458 MISSES:    2220266
L1D WRITEBACK ACCESSES:          0 HITS:          0 MISSES:          0
L1D RQ ACCESS:  112610244
L1D RQ TO_CACHE:   75384429
L1D RQ MERGED:   37222764
L1D RQ FORWARD:          0
L1D WQ ACCESS:   37662403
L1D WQ TO_CACHE:   36910028
L1D WQ MERGED:     752375
L1D WQ FORWARD:     151750
L1I TOTAL     ACCESS:  100700323  HIT:  100700298  MISS:         25
L1I LOAD      ACCESS:  100700323  HIT:  100700298  MISS:         25
L1I RFO       ACCESS:          0  HIT:          0  MISS:          0
L1I PREFETCH  ACCESS:          0  HIT:          0  MISS:          0
L1I WRITEBACK ACCESS:          0  HIT:          0  MISS:          0
L1I PREFETCH  REQUESTED:          0  ISSUED:          0  USEFUL:          0  USELESS:          0
L1I TOTAL MSHR MERGED:         10
L1I LOAD MSHR MERGED:         10
L1I RFO MSHR MERGED:          0
L1I PREFETCH MSHR MERGED:          0
L1I WRITEBACK MSHR MERGED:          0
L1I TOTAL ACCESSES:  100700333 HITS:  100700298 MISSES:         35
L1I LOAD ACCESSES:  100700333 HITS:  100700298 MISSES:         35
L1I RFO ACCESSES:          0 HITS:          0 MISSES:          0
L1I PREFETCH ACCESSES:          0 HITS:          0 MISSES:          0
L1I WRITEBACK ACCESSES:          0 HITS:          0 MISSES:          0
L1I RQ ACCESS:  499999995
L1I RQ TO_CACHE:  100700333
L1I RQ MERGED:  399299662
L1I RQ FORWARD:          0
L1I WQ ACCESS:          0
L1I WQ TO_CACHE:          0
L1I WQ MERGED:          0
L1I WQ FORWARD:          0
L2C TOTAL     ACCESS:    5852577  HIT:    4009395  MISS:    1843182
L2C LOAD      ACCESS:    1872468  HIT:    1061511  MISS:     810957
L2C RFO       ACCESS:     205203  HIT:     100564  MISS:     104639
L2C PREFETCH  ACCESS:    2169275  HIT:    1246109  MISS:     923166
L2C WRITEBACK ACCESS:    1605631  HIT:    1601211  MISS:       4420
L2C PREFETCH  REQUESTED:      91709  ISSUED:      91709  USEFUL:      86452  USELESS:     836737
L2C TOTAL MSHR MERGED:       1024
L2C LOAD MSHR MERGED:        264
L2C RFO MSHR MERGED:          0
L2C PREFETCH MSHR MERGED:        760
L2C WRITEBACK MSHR MERGED:          0
L2C TOTAL ACCESSES:    5853921 HITS:    4009564 MISSES:    1844357
L2C LOAD ACCESSES:    1872593 HITS:    1061636 MISSES:     810957
L2C RFO ACCESSES:     205210 HITS:     100571 MISSES:     104639
L2C PREFETCH ACCESSES:    2170487 HITS:    1246146 MISSES:     924341
L2C WRITEBACK ACCESSES:    1605631 HITS:    1601211 MISSES:       4420
L2C RQ ACCESS:    2077803
L2C RQ TO_CACHE:    2077671
L2C RQ MERGED:          0
L2C RQ FORWARD:          0
L2C WQ ACCESS:    1605631
L2C WQ TO_CACHE:    1605631
L2C WQ MERGED:          0
L2C WQ FORWARD:        169
LLC TOTAL     ACCESS:    2673555  HIT:    2177614  MISS:     495941
LLC LOAD      ACCESS:     810684  HIT:     634507  MISS:     176177
LLC RFO       ACCESS:     104639  HIT:      59001  MISS:      45638
LLC PREFETCH  ACCESS:     923558  HIT:     682401  MISS:     241157
LLC WRITEBACK ACCESS:     834674  HIT:     801705  MISS:      32969
LLC PREFETCH  REQUESTED:          0  ISSUED:          0  USEFUL:       9886  USELESS:     231375
LLC TOTAL MSHR MERGED:          8
LLC LOAD MSHR MERGED:          2
LLC RFO MSHR MERGED:          0
LLC PREFETCH MSHR MERGED:          6
LLC WRITEBACK MSHR MERGED:          0
LLC TOTAL ACCESSES:    2673575 HITS:    2177626 MISSES:     495949
LLC LOAD ACCESSES:     810693 HITS:     634516 MISSES:     176177
LLC RFO ACCESSES:     104639 HITS:      59001 MISSES:      45638
LLC PREFETCH ACCESSES:     923569 HITS:     682404 MISSES:     241165
LLC WRITEBACK ACCESSES:     834674 HITS:     801705 MISSES:      32969
LLC 0 RQ ACCESS:     915332
LLC 0 RQ TO_CACHE:     915323
LLC 0 RQ MERGED:          0
LLC 0 RQ FORWARD:          0
LLC WQ ACCESS:     834674
LLC WQ TO_CACHE:     834674
LLC WQ MERGED:          0
LLC WQ FORWARD:         12
Major fault: 0 Minor fault: 11278
CPU 0 L1D next line prefetcher final stats
CPU 0 L2C PC-based stride prefetcher final stats
All Misses: 615360
All Hits: 2439213
SD Algo Stats - Switches: 0 SRR-Repls: 210694 BRR-Repls: 0

DRAM Statistics
 CHANNEL 0
 RQ ROW_BUFFER_HIT:      29695  ROW_BUFFER_MISS:     432646
 DBUS_CONGESTED:     359547
 WQ ROW_BUFFER_HIT:      15831  ROW_BUFFER_MISS:     216763  FULL:          0

 AVG_CONGESTED_CYCLE: 13
LOADS RETIRED: 121769268
INSTR RETIRED: 500000000
