
*** ChampSim Multicore Out-of-Order Simulator ***

Warmup Instructions: 100000000
Simulation Instructions: 500000000
Number of CPUs: 1
LLC sets: 2048
LLC ways: 16
Clean RRIP Policies: 321210103212101 Dirty RRIP Policies: 1301011113010111 PSEL Width: 10 Track Set: 4294967295 PSEL Mask: 1 Demote Mask: 240441402404414DS Algo: 0Window size: 0
Off-chip DRAM Size: 4096 MB Channels: 1 Width: 64-bit Data Rate: 1600 MT/s

CPU 0 runs /mnt/beegfs/iconst01/spec2017/Gcc.trace.gz
NOT SORTED
TRACE STRING: /mnt/beegfs/iconst01/spec2017/Gcc.trace.gz
SORTED
TRACE STRING: /mnt/beegfs/iconst01/spec2017/Gcc.trace.gz
INITIAL
TRACE STRING: /mnt/beegfs/iconst01/spec2017/Gcc.trace.gz

champsim_seed used: 269

CPU 0 L1D next line prefetcher
CPU 0 L2C IP-based stride prefetcher
Initialize DRRIP state
Assign rand_sets[0]: 454  LLC: 2048
rand_sets[0]: 454
Assign rand_sets[1]: 1662  LLC: 2048
rand_sets[1]: 1662
Assign rand_sets[2]: 1921  LLC: 2048
rand_sets[2]: 1921
Assign rand_sets[3]: 1131  LLC: 2048
rand_sets[3]: 1131
Assign rand_sets[4]: 331  LLC: 2048
rand_sets[4]: 331
Assign rand_sets[5]: 1531  LLC: 2048
rand_sets[5]: 1531
Assign rand_sets[6]: 482  LLC: 2048
rand_sets[6]: 482
Assign rand_sets[7]: 1275  LLC: 2048
rand_sets[7]: 1275
Assign rand_sets[8]: 1876  LLC: 2048
rand_sets[8]: 1876
Assign rand_sets[9]: 2038  LLC: 2048
rand_sets[9]: 2038
Assign rand_sets[10]: 701  LLC: 2048
rand_sets[10]: 701
Assign rand_sets[11]: 479  LLC: 2048
rand_sets[11]: 479
Assign rand_sets[12]: 892  LLC: 2048
rand_sets[12]: 892
Assign rand_sets[13]: 1820  LLC: 2048
rand_sets[13]: 1820
Assign rand_sets[14]: 1505  LLC: 2048
rand_sets[14]: 1505
Assign rand_sets[15]: 1159  LLC: 2048
rand_sets[15]: 1159
Assign rand_sets[16]: 513  LLC: 2048
rand_sets[16]: 513
Assign rand_sets[17]: 703  LLC: 2048
rand_sets[17]: 703
Assign rand_sets[18]: 561  LLC: 2048
rand_sets[18]: 561
Assign rand_sets[19]: 990  LLC: 2048
rand_sets[19]: 990
Assign rand_sets[20]: 342  LLC: 2048
rand_sets[20]: 342
Assign rand_sets[21]: 882  LLC: 2048
rand_sets[21]: 882
Assign rand_sets[22]: 15  LLC: 2048
rand_sets[22]: 15
Assign rand_sets[23]: 71  LLC: 2048
rand_sets[23]: 71
Assign rand_sets[24]: 1127  LLC: 2048
rand_sets[24]: 1127
Assign rand_sets[25]: 1382  LLC: 2048
rand_sets[25]: 1382
Assign rand_sets[26]: 647  LLC: 2048
rand_sets[26]: 647
Assign rand_sets[27]: 857  LLC: 2048
rand_sets[27]: 857
Assign rand_sets[28]: 1450  LLC: 2048
rand_sets[28]: 1450
Assign rand_sets[29]: 1160  LLC: 2048
rand_sets[29]: 1160
Assign rand_sets[30]: 1852  LLC: 2048
rand_sets[30]: 1852
Assign rand_sets[31]: 1881  LLC: 2048
rand_sets[31]: 1881
Assign rand_sets[32]: 1770  LLC: 2048
rand_sets[32]: 1770
Assign rand_sets[33]: 1622  LLC: 2048
rand_sets[33]: 1622
Assign rand_sets[34]: 275  LLC: 2048
rand_sets[34]: 275
Assign rand_sets[35]: 635  LLC: 2048
rand_sets[35]: 635
Assign rand_sets[36]: 466  LLC: 2048
rand_sets[36]: 466
Assign rand_sets[37]: 1413  LLC: 2048
rand_sets[37]: 1413
Assign rand_sets[38]: 417  LLC: 2048
rand_sets[38]: 417
Assign rand_sets[39]: 472  LLC: 2048
rand_sets[39]: 472
Assign rand_sets[40]: 1340  LLC: 2048
rand_sets[40]: 1340
Assign rand_sets[41]: 852  LLC: 2048
rand_sets[41]: 852
Assign rand_sets[42]: 1365  LLC: 2048
rand_sets[42]: 1365
Assign rand_sets[43]: 47  LLC: 2048
rand_sets[43]: 47
Assign rand_sets[44]: 823  LLC: 2048
rand_sets[44]: 823
Assign rand_sets[45]: 686  LLC: 2048
rand_sets[45]: 686
Assign rand_sets[46]: 1637  LLC: 2048
rand_sets[46]: 1637
Assign rand_sets[47]: 1115  LLC: 2048
rand_sets[47]: 1115
Assign rand_sets[48]: 986  LLC: 2048
rand_sets[48]: 986
Assign rand_sets[49]: 258  LLC: 2048
rand_sets[49]: 258
Assign rand_sets[50]: 633  LLC: 2048
rand_sets[50]: 633
Assign rand_sets[51]: 920  LLC: 2048
rand_sets[51]: 920
Assign rand_sets[52]: 204  LLC: 2048
rand_sets[52]: 204
Assign rand_sets[53]: 227  LLC: 2048
rand_sets[53]: 227
Assign rand_sets[54]: 1818  LLC: 2048
rand_sets[54]: 1818
Assign rand_sets[55]: 886  LLC: 2048
rand_sets[55]: 886
Assign rand_sets[56]: 1422  LLC: 2048
rand_sets[56]: 1422
Assign rand_sets[57]: 607  LLC: 2048
rand_sets[57]: 607
Assign rand_sets[58]: 217  LLC: 2048
rand_sets[58]: 217
Assign rand_sets[59]: 1945  LLC: 2048
rand_sets[59]: 1945
Assign rand_sets[60]: 143  LLC: 2048
rand_sets[60]: 143
Assign rand_sets[61]: 1311  LLC: 2048
rand_sets[61]: 1311
Assign rand_sets[62]: 319  LLC: 2048
rand_sets[62]: 319
Assign rand_sets[63]: 1846  LLC: 2048
rand_sets[63]: 1846
 CLEAN-RRIP-POLICY-1: 0-3-2-1-2-1-0-1- CLEAN-RRIP-POLICY-2: 0-3-2-1-2-1-0-1-
 DIRTY-RRIP-POLICY-1: 1-3-0-1-0-1-1-1- DIRTY-RRIP-POLICY-2: 1-3-0-1-0-1-1-1-
 PSEL width: 10
Heartbeat CPU 0 instructions: 10000001 cycles: 7315912 heartbeat IPC: 1.36688 cumulative IPC: 1.36688 (Simulation time: 0 hr 0 min 15 sec) 
Heartbeat CPU 0 instructions: 20000000 cycles: 14307489 heartbeat IPC: 1.43029 cumulative IPC: 1.39787 (Simulation time: 0 hr 0 min 30 sec) 
Heartbeat CPU 0 instructions: 30000001 cycles: 21020413 heartbeat IPC: 1.48966 cumulative IPC: 1.42718 (Simulation time: 0 hr 0 min 46 sec) 
Heartbeat CPU 0 instructions: 40000000 cycles: 27481214 heartbeat IPC: 1.5478 cumulative IPC: 1.45554 (Simulation time: 0 hr 1 min 3 sec) 
Heartbeat CPU 0 instructions: 50000001 cycles: 33582952 heartbeat IPC: 1.63888 cumulative IPC: 1.48885 (Simulation time: 0 hr 1 min 18 sec) 
Heartbeat CPU 0 instructions: 60000000 cycles: 40064107 heartbeat IPC: 1.54293 cumulative IPC: 1.4976 (Simulation time: 0 hr 1 min 35 sec) 
Heartbeat CPU 0 instructions: 70000000 cycles: 47101730 heartbeat IPC: 1.42093 cumulative IPC: 1.48615 (Simulation time: 0 hr 1 min 50 sec) 
Heartbeat CPU 0 instructions: 80000000 cycles: 54191302 heartbeat IPC: 1.41052 cumulative IPC: 1.47625 (Simulation time: 0 hr 2 min 5 sec) 
Heartbeat CPU 0 instructions: 90000003 cycles: 61195615 heartbeat IPC: 1.42769 cumulative IPC: 1.47069 (Simulation time: 0 hr 2 min 20 sec) 
Heartbeat CPU 0 instructions: 100000000 cycles: 68362791 heartbeat IPC: 1.39525 cumulative IPC: 1.46278 (Simulation time: 0 hr 2 min 35 sec) 

Warmup complete CPU 0 instructions: 100000004 cycles: 68362792 (Simulation time: 0 hr 2 min 35 sec) 

Heartbeat CPU 0 instructions: 110000003 cycles: 95998295 heartbeat IPC: 0.361853 cumulative IPC: 0.361853 (Simulation time: 0 hr 3 min 5 sec) 
Heartbeat CPU 0 instructions: 120000000 cycles: 123446436 heartbeat IPC: 0.364323 cumulative IPC: 0.363084 (Simulation time: 0 hr 3 min 35 sec) 
Heartbeat CPU 0 instructions: 130000000 cycles: 148422913 heartbeat IPC: 0.400377 cumulative IPC: 0.374718 (Simulation time: 0 hr 4 min 5 sec) 
Heartbeat CPU 0 instructions: 140000000 cycles: 177830549 heartbeat IPC: 0.340048 cumulative IPC: 0.365404 (Simulation time: 0 hr 4 min 33 sec) 
Heartbeat CPU 0 instructions: 150000000 cycles: 207670035 heartbeat IPC: 0.335126 cumulative IPC: 0.358919 (Simulation time: 0 hr 5 min 3 sec) 
Heartbeat CPU 0 instructions: 160000000 cycles: 235080578 heartbeat IPC: 0.364823 cumulative IPC: 0.35989 (Simulation time: 0 hr 5 min 31 sec) 
Heartbeat CPU 0 instructions: 170000001 cycles: 263088702 heartbeat IPC: 0.357039 cumulative IPC: 0.35948 (Simulation time: 0 hr 6 min 2 sec) 
Heartbeat CPU 0 instructions: 180000000 cycles: 291498960 heartbeat IPC: 0.351986 cumulative IPC: 0.358525 (Simulation time: 0 hr 6 min 32 sec) 
Heartbeat CPU 0 instructions: 190000002 cycles: 319482008 heartbeat IPC: 0.357359 cumulative IPC: 0.358396 (Simulation time: 0 hr 7 min 1 sec) 
Heartbeat CPU 0 instructions: 200000000 cycles: 347796209 heartbeat IPC: 0.35318 cumulative IPC: 0.357867 (Simulation time: 0 hr 7 min 31 sec) 
Heartbeat CPU 0 instructions: 210000002 cycles: 375613745 heartbeat IPC: 0.359486 cumulative IPC: 0.358014 (Simulation time: 0 hr 8 min 1 sec) 
Heartbeat CPU 0 instructions: 220000000 cycles: 404703643 heartbeat IPC: 0.343762 cumulative IPC: 0.356781 (Simulation time: 0 hr 8 min 29 sec) 
Heartbeat CPU 0 instructions: 230000000 cycles: 432222464 heartbeat IPC: 0.363388 cumulative IPC: 0.357281 (Simulation time: 0 hr 8 min 58 sec) 
Heartbeat CPU 0 instructions: 240000000 cycles: 458205642 heartbeat IPC: 0.384864 cumulative IPC: 0.359119 (Simulation time: 0 hr 9 min 25 sec) 
Heartbeat CPU 0 instructions: 250000000 cycles: 488326145 heartbeat IPC: 0.332 cumulative IPC: 0.357174 (Simulation time: 0 hr 9 min 56 sec) 
Heartbeat CPU 0 instructions: 260000000 cycles: 515448672 heartbeat IPC: 0.368697 cumulative IPC: 0.357873 (Simulation time: 0 hr 10 min 25 sec) 
Heartbeat CPU 0 instructions: 270000003 cycles: 543865806 heartbeat IPC: 0.3519 cumulative IPC: 0.357516 (Simulation time: 0 hr 10 min 56 sec) 
Heartbeat CPU 0 instructions: 280000000 cycles: 571985200 heartbeat IPC: 0.355626 cumulative IPC: 0.357411 (Simulation time: 0 hr 11 min 26 sec) 
Heartbeat CPU 0 instructions: 290000000 cycles: 600831898 heartbeat IPC: 0.34666 cumulative IPC: 0.356828 (Simulation time: 0 hr 11 min 56 sec) 
Heartbeat CPU 0 instructions: 300000000 cycles: 630668986 heartbeat IPC: 0.335153 cumulative IPC: 0.355678 (Simulation time: 0 hr 12 min 25 sec) 
Heartbeat CPU 0 instructions: 310000001 cycles: 660021229 heartbeat IPC: 0.34069 cumulative IPC: 0.354935 (Simulation time: 0 hr 12 min 55 sec) 
Heartbeat CPU 0 instructions: 320000000 cycles: 688195035 heartbeat IPC: 0.35494 cumulative IPC: 0.354935 (Simulation time: 0 hr 13 min 23 sec) 
Heartbeat CPU 0 instructions: 330000000 cycles: 716821550 heartbeat IPC: 0.349326 cumulative IPC: 0.354687 (Simulation time: 0 hr 13 min 52 sec) 
Heartbeat CPU 0 instructions: 340000000 cycles: 746073490 heartbeat IPC: 0.341858 cumulative IPC: 0.354133 (Simulation time: 0 hr 14 min 22 sec) 
Heartbeat CPU 0 instructions: 350000003 cycles: 773086003 heartbeat IPC: 0.370199 cumulative IPC: 0.354749 (Simulation time: 0 hr 14 min 50 sec) 
Heartbeat CPU 0 instructions: 360000000 cycles: 801190838 heartbeat IPC: 0.355811 cumulative IPC: 0.35479 (Simulation time: 0 hr 15 min 18 sec) 
Heartbeat CPU 0 instructions: 370000000 cycles: 829387580 heartbeat IPC: 0.354651 cumulative IPC: 0.354785 (Simulation time: 0 hr 15 min 46 sec) 
Heartbeat CPU 0 instructions: 380000000 cycles: 857921348 heartbeat IPC: 0.350462 cumulative IPC: 0.354629 (Simulation time: 0 hr 16 min 15 sec) 
Heartbeat CPU 0 instructions: 390000001 cycles: 885554633 heartbeat IPC: 0.361882 cumulative IPC: 0.354874 (Simulation time: 0 hr 16 min 42 sec) 
Heartbeat CPU 0 instructions: 400000000 cycles: 914217287 heartbeat IPC: 0.348886 cumulative IPC: 0.354671 (Simulation time: 0 hr 17 min 11 sec) 
Heartbeat CPU 0 instructions: 410000001 cycles: 941538138 heartbeat IPC: 0.366021 cumulative IPC: 0.355026 (Simulation time: 0 hr 17 min 38 sec) 
Heartbeat CPU 0 instructions: 420000000 cycles: 968864184 heartbeat IPC: 0.365951 cumulative IPC: 0.355358 (Simulation time: 0 hr 18 min 6 sec) 
Heartbeat CPU 0 instructions: 430000002 cycles: 996571773 heartbeat IPC: 0.360912 cumulative IPC: 0.355523 (Simulation time: 0 hr 18 min 34 sec) 
Heartbeat CPU 0 instructions: 440000000 cycles: 1026112691 heartbeat IPC: 0.338513 cumulative IPC: 0.354999 (Simulation time: 0 hr 19 min 2 sec) 
Heartbeat CPU 0 instructions: 450000002 cycles: 1055371830 heartbeat IPC: 0.341774 cumulative IPC: 0.354607 (Simulation time: 0 hr 19 min 31 sec) 
Heartbeat CPU 0 instructions: 460000000 cycles: 1083076412 heartbeat IPC: 0.360951 cumulative IPC: 0.35478 (Simulation time: 0 hr 19 min 59 sec) 
Heartbeat CPU 0 instructions: 470000000 cycles: 1110737114 heartbeat IPC: 0.361524 cumulative IPC: 0.354959 (Simulation time: 0 hr 20 min 27 sec) 
Heartbeat CPU 0 instructions: 480000000 cycles: 1138640107 heartbeat IPC: 0.358384 cumulative IPC: 0.355048 (Simulation time: 0 hr 20 min 55 sec) 
Heartbeat CPU 0 instructions: 490000000 cycles: 1166260994 heartbeat IPC: 0.362045 cumulative IPC: 0.355224 (Simulation time: 0 hr 21 min 23 sec) 
Heartbeat CPU 0 instructions: 500000000 cycles: 1194574641 heartbeat IPC: 0.353187 cumulative IPC: 0.355173 (Simulation time: 0 hr 21 min 51 sec) 
Heartbeat CPU 0 instructions: 510000000 cycles: 1229803599 heartbeat IPC: 0.283857 cumulative IPC: 0.35301 (Simulation time: 0 hr 22 min 23 sec) 
Heartbeat CPU 0 instructions: 520000000 cycles: 1257888564 heartbeat IPC: 0.356062 cumulative IPC: 0.353082 (Simulation time: 0 hr 22 min 52 sec) 
Heartbeat CPU 0 instructions: 530000001 cycles: 1287174034 heartbeat IPC: 0.341466 cumulative IPC: 0.352803 (Simulation time: 0 hr 23 min 21 sec) 
Heartbeat CPU 0 instructions: 540000000 cycles: 1315208108 heartbeat IPC: 0.356709 cumulative IPC: 0.352891 (Simulation time: 0 hr 23 min 50 sec) 
Heartbeat CPU 0 instructions: 550000001 cycles: 1344392379 heartbeat IPC: 0.34265 cumulative IPC: 0.352656 (Simulation time: 0 hr 24 min 21 sec) 
Heartbeat CPU 0 instructions: 560000000 cycles: 1369771561 heartbeat IPC: 0.394024 cumulative IPC: 0.353463 (Simulation time: 0 hr 24 min 49 sec) 
Heartbeat CPU 0 instructions: 570000000 cycles: 1399173384 heartbeat IPC: 0.340115 cumulative IPC: 0.353168 (Simulation time: 0 hr 25 min 19 sec) 
Heartbeat CPU 0 instructions: 580000000 cycles: 1427091050 heartbeat IPC: 0.358196 cumulative IPC: 0.353272 (Simulation time: 0 hr 25 min 48 sec) 
Heartbeat CPU 0 instructions: 590000001 cycles: 1451864837 heartbeat IPC: 0.403652 cumulative IPC: 0.354174 (Simulation time: 0 hr 26 min 15 sec) 
Heartbeat CPU 0 instructions: 600000000 cycles: 1478035651 heartbeat IPC: 0.382105 cumulative IPC: 0.354692 (Simulation time: 0 hr 26 min 43 sec) 
Finished CPU 0 instructions: 500000000 cycles: 1409672881 cumulative IPC: 0.354692 (Simulation time: 0 hr 26 min 43 sec) 

CPU 0 Branch Prediction Accuracy: 86.4311% MPKI: 26.2662
Number of Branches: 96788573 Number of Mispredictions: 13133102
Number of LOAD Instructions: 164682285
Number of LOAD Instructions (ROI): 164682285
Number of STORE Instructions: 78194750
Number of STORE Instructions (ROI): 78194750
Total Destination Memory Operands: 83268534
Total Destination Memory Operands (ROI): 83268534
Total Source Memory Operands: 164712438
Total Source Memory Operands (ROI): 164712438
Number of DEPENDED LOADS: 7063119
Number of DEPENDED LOADS (ROI): 7063119
Number of SQ_ADDED: 83268522
Number of SQ_ADDED (ROI): 83268522
Number of LQ_ADDED: 236679437
Number of LQ_ADDED (ROI): 236679437
Number of Instructions read from trace: 600000066

ChampSim completed all CPUs

Region of Interest Statistics

CPU 0 cumulative IPC: 0.354692 instructions: 500000000 cycles: 1409672881
ITLB TOTAL     ACCESS:  100510767  HIT:  100306321  MISS:     204446
ITLB LOAD      ACCESS:  100510767  HIT:  100306321  MISS:     204446
ITLB RFO       ACCESS:          0  HIT:          0  MISS:          0
ITLB PREFETCH  ACCESS:          0  HIT:          0  MISS:          0
ITLB WRITEBACK ACCESS:          0  HIT:          0  MISS:          0
ITLB PREFETCH  REQUESTED:          0  ISSUED:          0  USEFUL:          0  USELESS:          0
ITLB TOTAL MSHR MERGED:     172423
ITLB LOAD MSHR MERGED:     172423
ITLB RFO MSHR MERGED:          0
ITLB PREFETCH MSHR MERGED:          0
ITLB WRITEBACK MSHR MERGED:          0
ITLB TOTAL ACCESSES:  100683190 HITS:  100306321 MISSES:     376869
ITLB LOAD ACCESSES:  100683190 HITS:  100306321 MISSES:     376869
ITLB RFO ACCESSES:          0 HITS:          0 MISSES:          0
ITLB PREFETCH ACCESSES:          0 HITS:          0 MISSES:          0
ITLB WRITEBACK ACCESSES:          0 HITS:          0 MISSES:          0
ITLB RQ ACCESS:  500000057
ITLB RQ TO_CACHE:  100683190
ITLB RQ MERGED:  399316867
ITLB RQ FORWARD:          0
ITLB WQ ACCESS:          0
ITLB WQ TO_CACHE:          0
ITLB WQ MERGED:          0
ITLB WQ FORWARD:          0
DTLB TOTAL     ACCESS:  165332725  HIT:  164698379  MISS:     634346
DTLB LOAD      ACCESS:  106289558  HIT:  105719558  MISS:     570000
DTLB RFO       ACCESS:   59043167  HIT:   58978821  MISS:      64346
DTLB PREFETCH  ACCESS:          0  HIT:          0  MISS:          0
DTLB WRITEBACK ACCESS:          0  HIT:          0  MISS:          0
DTLB PREFETCH  REQUESTED:          0  ISSUED:          0  USEFUL:          0  USELESS:          0
DTLB TOTAL MSHR MERGED:      99935
DTLB LOAD MSHR MERGED:      59445
DTLB RFO MSHR MERGED:      40490
DTLB PREFETCH MSHR MERGED:          0
DTLB WRITEBACK MSHR MERGED:          0
DTLB TOTAL ACCESSES:  165432660 HITS:  164698379 MISSES:     734281
DTLB LOAD ACCESSES:  106349003 HITS:  105719558 MISSES:     629445
DTLB RFO ACCESSES:   59083657 HITS:   58978821 MISSES:     104836
DTLB PREFETCH ACCESSES:          0 HITS:          0 MISSES:          0
DTLB WRITEBACK ACCESSES:          0 HITS:          0 MISSES:          0
DTLB RQ ACCESS:  200307816
DTLB RQ TO_CACHE:  165432660
DTLB RQ MERGED:   34875156
DTLB RQ FORWARD:          0
DTLB WQ ACCESS:          0
DTLB WQ TO_CACHE:          0
DTLB WQ MERGED:          0
DTLB WQ FORWARD:          0
L1D TOTAL     ACCESS:  281807705  HIT:  273898406  MISS:    7909299
L1D LOAD      ACCESS:  110418186  HIT:  107140519  MISS:    3277667
L1D RFO       ACCESS:   67098512  HIT:   66207210  MISS:     891302
L1D PREFETCH  ACCESS:  104291007  HIT:  100550677  MISS:    3740330
L1D WRITEBACK ACCESS:          0  HIT:          0  MISS:          0
L1D PREFETCH  REQUESTED:  110813486  ISSUED:  109114253  USEFUL:    1661159  USELESS:    2079135
L1D TOTAL MSHR MERGED:    2889120
L1D LOAD MSHR MERGED:     492445
L1D RFO MSHR MERGED:    1887869
L1D PREFETCH MSHR MERGED:     508806
L1D WRITEBACK MSHR MERGED:          0
L1D TOTAL ACCESSES:  284724347 HITS:  273925928 MISSES:   10798419
L1D LOAD ACCESSES:  110815019 HITS:  107142052 MISSES:    3672967
L1D RFO ACCESSES:   68973879 HITS:   66207210 MISSES:    2766669
L1D PREFETCH ACCESSES:  104935449 HITS:  100576666 MISSES:    4358783
L1D WRITEBACK ACCESSES:          0 HITS:          0 MISSES:          0
L1D RQ ACCESS:  130755213
L1D RQ TO_CACHE:  110813489
L1D RQ MERGED:   19940191
L1D RQ FORWARD:          0
L1D WQ ACCESS:   69552603
L1D WQ TO_CACHE:   68973880
L1D WQ MERGED:     578723
L1D WQ FORWARD:      27522
L1I TOTAL     ACCESS:  126558529  HIT:  122319976  MISS:    4238553
L1I LOAD      ACCESS:  126558529  HIT:  122319976  MISS:    4238553
L1I RFO       ACCESS:          0  HIT:          0  MISS:          0
L1I PREFETCH  ACCESS:          0  HIT:          0  MISS:          0
L1I WRITEBACK ACCESS:          0  HIT:          0  MISS:          0
L1I PREFETCH  REQUESTED:          0  ISSUED:          0  USEFUL:          0  USELESS:          0
L1I TOTAL MSHR MERGED:    1834514
L1I LOAD MSHR MERGED:    1834514
L1I RFO MSHR MERGED:          0
L1I PREFETCH MSHR MERGED:          0
L1I WRITEBACK MSHR MERGED:          0
L1I TOTAL ACCESSES:  128393046 HITS:  122319976 MISSES:    6073070
L1I LOAD ACCESSES:  128393046 HITS:  122319976 MISSES:    6073070
L1I RFO ACCESSES:          0 HITS:          0 MISSES:          0
L1I PREFETCH ACCESSES:          0 HITS:          0 MISSES:          0
L1I WRITEBACK ACCESSES:          0 HITS:          0 MISSES:          0
L1I RQ ACCESS:  500000057
L1I RQ TO_CACHE:  128393046
L1I RQ MERGED:  371607011
L1I RQ FORWARD:          0
L1I WQ ACCESS:          0
L1I WQ TO_CACHE:          0
L1I WQ MERGED:          0
L1I WQ FORWARD:          0
L2C TOTAL     ACCESS:   14904719  HIT:   11158264  MISS:    3746455
L2C LOAD      ACCESS:    7418870  HIT:    5098779  MISS:    2320091
L2C RFO       ACCESS:     878701  HIT:     409894  MISS:     468807
L2C PREFETCH  ACCESS:    4567913  HIT:    3627614  MISS:     940299
L2C WRITEBACK ACCESS:    2039235  HIT:    2021977  MISS:      17258
L2C PREFETCH  REQUESTED:     842707  ISSUED:     842707  USEFUL:     203273  USELESS:     736732
L2C TOTAL MSHR MERGED:       7463
L2C LOAD MSHR MERGED:        882
L2C RFO MSHR MERGED:          0
L2C PREFETCH MSHR MERGED:       6581
L2C WRITEBACK MSHR MERGED:          0
L2C TOTAL ACCESSES:   14913092 HITS:   11158711 MISSES:    3754381
L2C LOAD ACCESSES:    7419075 HITS:    5098984 MISSES:    2320091
L2C RFO ACCESSES:     878800 HITS:     409993 MISSES:     468807
L2C PREFETCH ACCESSES:    4575982 HITS:    3627757 MISSES:     948225
L2C WRITEBACK ACCESSES:    2039235 HITS:    2021977 MISSES:      17258
L2C RQ ACCESS:    8297878
L2C RQ TO_CACHE:    8297574
L2C RQ MERGED:          0
L2C RQ FORWARD:          0
L2C WQ ACCESS:    2039235
L2C WQ TO_CACHE:    2039235
L2C WQ MERGED:          0
L2C WQ FORWARD:        447
LLC TOTAL     ACCESS:    4609813  HIT:    3968631  MISS:     641182
LLC LOAD      ACCESS:    2319197  HIT:    2084891  MISS:     234306
LLC RFO       ACCESS:     468797  HIT:     370922  MISS:      97875
LLC PREFETCH  ACCESS:     941522  HIT:     647963  MISS:     293559
LLC WRITEBACK ACCESS:     880297  HIT:     864855  MISS:      15442
LLC PREFETCH  REQUESTED:          0  ISSUED:          0  USEFUL:      41943  USELESS:     252928
LLC TOTAL MSHR MERGED:        104
LLC LOAD MSHR MERGED:         38
LLC RFO MSHR MERGED:          0
LLC PREFETCH MSHR MERGED:         66
LLC WRITEBACK MSHR MERGED:          0
LLC TOTAL ACCESSES:    4609948 HITS:    3968662 MISSES:     641286
LLC LOAD ACCESSES:    2319209 HITS:    2084903 MISSES:     234306
LLC RFO ACCESSES:     468807 HITS:     370932 MISSES:      97875
LLC PREFETCH ACCESSES:     941635 HITS:     647972 MISSES:     293663
LLC WRITEBACK ACCESSES:     880297 HITS:     864855 MISSES:      15442
LLC 0 RQ ACCESS:    2788016
LLC 0 RQ TO_CACHE:    2787994
LLC 0 RQ MERGED:          0
LLC 0 RQ FORWARD:          0
LLC WQ ACCESS:     880297
LLC WQ TO_CACHE:     880297
LLC WQ MERGED:          0
LLC WQ FORWARD:         31
Major fault: 0 Minor fault: 12862
CPU 0 L1D next line prefetcher final stats
CPU 0 L2C PC-based stride prefetcher final stats
All Misses: 752267
All Hits: 4674552
SD Algo Stats - Switches: 0 SRR-Repls: 273551 BRR-Repls: 0

DRAM Statistics
 CHANNEL 0
 RQ ROW_BUFFER_HIT:     124876  ROW_BUFFER_MISS:     498812
 DBUS_CONGESTED:     422799
 WQ ROW_BUFFER_HIT:      24077  ROW_BUFFER_MISS:     230897  FULL:          0

 AVG_CONGESTED_CYCLE: 13
LOADS RETIRED: 136549171
INSTR RETIRED: 500000000
