
*** ChampSim Multicore Out-of-Order Simulator ***

Warmup Instructions: 100000000
Simulation Instructions: 500000000
Number of CPUs: 1
LLC sets: 2048
LLC ways: 16
Clean RRIP Policies: 2213210222132102 Dirty RRIP Policies: 1203110212031102 PSEL Width: 10 Track Set: 4294967295 PSEL Mask: 1 Demote Mask: 1040100010401000DS Algo: 0Window size: 0
Off-chip DRAM Size: 4096 MB Channels: 1 Width: 64-bit Data Rate: 1600 MT/s

CPU 0 runs /mnt/beegfs/iconst01/spec2017/cactuBSSN.trace.gz
NOT SORTED
TRACE STRING: /mnt/beegfs/iconst01/spec2017/cactuBSSN.trace.gz
SORTED
TRACE STRING: /mnt/beegfs/iconst01/spec2017/cactuBSSN.trace.gz
INITIAL
TRACE STRING: /mnt/beegfs/iconst01/spec2017/cactuBSSN.trace.gz

champsim_seed used: 838

CPU 0 L1D next line prefetcher
CPU 0 L2C IP-based stride prefetcher
Initialize DRRIP state
Assign rand_sets[0]: 454  LLC: 2048
rand_sets[0]: 454
Assign rand_sets[1]: 1662  LLC: 2048
rand_sets[1]: 1662
Assign rand_sets[2]: 1921  LLC: 2048
rand_sets[2]: 1921
Assign rand_sets[3]: 1131  LLC: 2048
rand_sets[3]: 1131
Assign rand_sets[4]: 331  LLC: 2048
rand_sets[4]: 331
Assign rand_sets[5]: 1531  LLC: 2048
rand_sets[5]: 1531
Assign rand_sets[6]: 482  LLC: 2048
rand_sets[6]: 482
Assign rand_sets[7]: 1275  LLC: 2048
rand_sets[7]: 1275
Assign rand_sets[8]: 1876  LLC: 2048
rand_sets[8]: 1876
Assign rand_sets[9]: 2038  LLC: 2048
rand_sets[9]: 2038
Assign rand_sets[10]: 701  LLC: 2048
rand_sets[10]: 701
Assign rand_sets[11]: 479  LLC: 2048
rand_sets[11]: 479
Assign rand_sets[12]: 892  LLC: 2048
rand_sets[12]: 892
Assign rand_sets[13]: 1820  LLC: 2048
rand_sets[13]: 1820
Assign rand_sets[14]: 1505  LLC: 2048
rand_sets[14]: 1505
Assign rand_sets[15]: 1159  LLC: 2048
rand_sets[15]: 1159
Assign rand_sets[16]: 513  LLC: 2048
rand_sets[16]: 513
Assign rand_sets[17]: 703  LLC: 2048
rand_sets[17]: 703
Assign rand_sets[18]: 561  LLC: 2048
rand_sets[18]: 561
Assign rand_sets[19]: 990  LLC: 2048
rand_sets[19]: 990
Assign rand_sets[20]: 342  LLC: 2048
rand_sets[20]: 342
Assign rand_sets[21]: 882  LLC: 2048
rand_sets[21]: 882
Assign rand_sets[22]: 15  LLC: 2048
rand_sets[22]: 15
Assign rand_sets[23]: 71  LLC: 2048
rand_sets[23]: 71
Assign rand_sets[24]: 1127  LLC: 2048
rand_sets[24]: 1127
Assign rand_sets[25]: 1382  LLC: 2048
rand_sets[25]: 1382
Assign rand_sets[26]: 647  LLC: 2048
rand_sets[26]: 647
Assign rand_sets[27]: 857  LLC: 2048
rand_sets[27]: 857
Assign rand_sets[28]: 1450  LLC: 2048
rand_sets[28]: 1450
Assign rand_sets[29]: 1160  LLC: 2048
rand_sets[29]: 1160
Assign rand_sets[30]: 1852  LLC: 2048
rand_sets[30]: 1852
Assign rand_sets[31]: 1881  LLC: 2048
rand_sets[31]: 1881
Assign rand_sets[32]: 1770  LLC: 2048
rand_sets[32]: 1770
Assign rand_sets[33]: 1622  LLC: 2048
rand_sets[33]: 1622
Assign rand_sets[34]: 275  LLC: 2048
rand_sets[34]: 275
Assign rand_sets[35]: 635  LLC: 2048
rand_sets[35]: 635
Assign rand_sets[36]: 466  LLC: 2048
rand_sets[36]: 466
Assign rand_sets[37]: 1413  LLC: 2048
rand_sets[37]: 1413
Assign rand_sets[38]: 417  LLC: 2048
rand_sets[38]: 417
Assign rand_sets[39]: 472  LLC: 2048
rand_sets[39]: 472
Assign rand_sets[40]: 1340  LLC: 2048
rand_sets[40]: 1340
Assign rand_sets[41]: 852  LLC: 2048
rand_sets[41]: 852
Assign rand_sets[42]: 1365  LLC: 2048
rand_sets[42]: 1365
Assign rand_sets[43]: 47  LLC: 2048
rand_sets[43]: 47
Assign rand_sets[44]: 823  LLC: 2048
rand_sets[44]: 823
Assign rand_sets[45]: 686  LLC: 2048
rand_sets[45]: 686
Assign rand_sets[46]: 1637  LLC: 2048
rand_sets[46]: 1637
Assign rand_sets[47]: 1115  LLC: 2048
rand_sets[47]: 1115
Assign rand_sets[48]: 986  LLC: 2048
rand_sets[48]: 986
Assign rand_sets[49]: 258  LLC: 2048
rand_sets[49]: 258
Assign rand_sets[50]: 633  LLC: 2048
rand_sets[50]: 633
Assign rand_sets[51]: 920  LLC: 2048
rand_sets[51]: 920
Assign rand_sets[52]: 204  LLC: 2048
rand_sets[52]: 204
Assign rand_sets[53]: 227  LLC: 2048
rand_sets[53]: 227
Assign rand_sets[54]: 1818  LLC: 2048
rand_sets[54]: 1818
Assign rand_sets[55]: 886  LLC: 2048
rand_sets[55]: 886
Assign rand_sets[56]: 1422  LLC: 2048
rand_sets[56]: 1422
Assign rand_sets[57]: 607  LLC: 2048
rand_sets[57]: 607
Assign rand_sets[58]: 217  LLC: 2048
rand_sets[58]: 217
Assign rand_sets[59]: 1945  LLC: 2048
rand_sets[59]: 1945
Assign rand_sets[60]: 143  LLC: 2048
rand_sets[60]: 143
Assign rand_sets[61]: 1311  LLC: 2048
rand_sets[61]: 1311
Assign rand_sets[62]: 319  LLC: 2048
rand_sets[62]: 319
Assign rand_sets[63]: 1846  LLC: 2048
rand_sets[63]: 1846
 CLEAN-RRIP-POLICY-1: 2-2-1-3-2-1-0-2- CLEAN-RRIP-POLICY-2: 2-2-1-3-2-1-0-2-
 DIRTY-RRIP-POLICY-1: 1-2-0-3-1-1-0-2- DIRTY-RRIP-POLICY-2: 1-2-0-3-1-1-0-2-
 PSEL width: 10
Heartbeat CPU 0 instructions: 10000000 cycles: 6588007 heartbeat IPC: 1.51791 cumulative IPC: 1.51791 (Simulation time: 0 hr 0 min 24 sec) 
Heartbeat CPU 0 instructions: 20000000 cycles: 13179583 heartbeat IPC: 1.51709 cumulative IPC: 1.5175 (Simulation time: 0 hr 0 min 48 sec) 
Heartbeat CPU 0 instructions: 30000003 cycles: 19772898 heartbeat IPC: 1.51669 cumulative IPC: 1.51723 (Simulation time: 0 hr 1 min 12 sec) 
Heartbeat CPU 0 instructions: 40000000 cycles: 26364642 heartbeat IPC: 1.51705 cumulative IPC: 1.51718 (Simulation time: 0 hr 1 min 36 sec) 
Heartbeat CPU 0 instructions: 50000001 cycles: 32957314 heartbeat IPC: 1.51684 cumulative IPC: 1.51711 (Simulation time: 0 hr 2 min 0 sec) 
Heartbeat CPU 0 instructions: 60000000 cycles: 39556141 heartbeat IPC: 1.51542 cumulative IPC: 1.51683 (Simulation time: 0 hr 2 min 25 sec) 
Heartbeat CPU 0 instructions: 70000003 cycles: 46154514 heartbeat IPC: 1.51553 cumulative IPC: 1.51664 (Simulation time: 0 hr 2 min 49 sec) 
Heartbeat CPU 0 instructions: 80000000 cycles: 52752563 heartbeat IPC: 1.5156 cumulative IPC: 1.51651 (Simulation time: 0 hr 3 min 13 sec) 
Heartbeat CPU 0 instructions: 90000002 cycles: 59348202 heartbeat IPC: 1.51615 cumulative IPC: 1.51647 (Simulation time: 0 hr 3 min 37 sec) 
Heartbeat CPU 0 instructions: 100000000 cycles: 65943269 heartbeat IPC: 1.51628 cumulative IPC: 1.51646 (Simulation time: 0 hr 4 min 2 sec) 

Warmup complete CPU 0 instructions: 100000002 cycles: 65943270 (Simulation time: 0 hr 4 min 2 sec) 

Heartbeat CPU 0 instructions: 110000000 cycles: 79173237 heartbeat IPC: 0.75586 cumulative IPC: 0.75586 (Simulation time: 0 hr 4 min 31 sec) 
Heartbeat CPU 0 instructions: 120000000 cycles: 92365250 heartbeat IPC: 0.758034 cumulative IPC: 0.756945 (Simulation time: 0 hr 5 min 0 sec) 
Heartbeat CPU 0 instructions: 130000001 cycles: 105635558 heartbeat IPC: 0.753562 cumulative IPC: 0.755814 (Simulation time: 0 hr 5 min 29 sec) 
Heartbeat CPU 0 instructions: 140000000 cycles: 118805760 heartbeat IPC: 0.75929 cumulative IPC: 0.75668 (Simulation time: 0 hr 5 min 58 sec) 
Heartbeat CPU 0 instructions: 150000001 cycles: 131987204 heartbeat IPC: 0.758642 cumulative IPC: 0.757072 (Simulation time: 0 hr 6 min 27 sec) 
Heartbeat CPU 0 instructions: 160000000 cycles: 145218890 heartbeat IPC: 0.755762 cumulative IPC: 0.756853 (Simulation time: 0 hr 6 min 56 sec) 
Heartbeat CPU 0 instructions: 170000000 cycles: 158417614 heartbeat IPC: 0.757649 cumulative IPC: 0.756967 (Simulation time: 0 hr 7 min 25 sec) 
Heartbeat CPU 0 instructions: 180000000 cycles: 171617715 heartbeat IPC: 0.75757 cumulative IPC: 0.757042 (Simulation time: 0 hr 7 min 54 sec) 
Heartbeat CPU 0 instructions: 190000000 cycles: 184774984 heartbeat IPC: 0.760036 cumulative IPC: 0.757374 (Simulation time: 0 hr 8 min 23 sec) 
Heartbeat CPU 0 instructions: 200000000 cycles: 198026416 heartbeat IPC: 0.754635 cumulative IPC: 0.757099 (Simulation time: 0 hr 8 min 52 sec) 
Heartbeat CPU 0 instructions: 210000002 cycles: 211231481 heartbeat IPC: 0.757285 cumulative IPC: 0.757116 (Simulation time: 0 hr 9 min 21 sec) 
Heartbeat CPU 0 instructions: 220000000 cycles: 224406112 heartbeat IPC: 0.759034 cumulative IPC: 0.757275 (Simulation time: 0 hr 9 min 49 sec) 
Heartbeat CPU 0 instructions: 230000003 cycles: 237648492 heartbeat IPC: 0.755152 cumulative IPC: 0.757111 (Simulation time: 0 hr 10 min 18 sec) 
Heartbeat CPU 0 instructions: 240000000 cycles: 250832123 heartbeat IPC: 0.758516 cumulative IPC: 0.757212 (Simulation time: 0 hr 10 min 47 sec) 
Heartbeat CPU 0 instructions: 250000001 cycles: 264049957 heartbeat IPC: 0.756554 cumulative IPC: 0.757168 (Simulation time: 0 hr 11 min 16 sec) 
Heartbeat CPU 0 instructions: 260000000 cycles: 277252635 heartbeat IPC: 0.757422 cumulative IPC: 0.757184 (Simulation time: 0 hr 11 min 45 sec) 
Heartbeat CPU 0 instructions: 270000003 cycles: 290490724 heartbeat IPC: 0.755396 cumulative IPC: 0.757078 (Simulation time: 0 hr 12 min 13 sec) 
Heartbeat CPU 0 instructions: 280000000 cycles: 303694179 heartbeat IPC: 0.757377 cumulative IPC: 0.757095 (Simulation time: 0 hr 12 min 42 sec) 
Heartbeat CPU 0 instructions: 290000000 cycles: 316856878 heartbeat IPC: 0.759723 cumulative IPC: 0.757233 (Simulation time: 0 hr 13 min 11 sec) 
Heartbeat CPU 0 instructions: 300000000 cycles: 330108276 heartbeat IPC: 0.754637 cumulative IPC: 0.757103 (Simulation time: 0 hr 13 min 40 sec) 
Heartbeat CPU 0 instructions: 310000001 cycles: 343284688 heartbeat IPC: 0.758932 cumulative IPC: 0.757189 (Simulation time: 0 hr 14 min 8 sec) 
Heartbeat CPU 0 instructions: 320000000 cycles: 356477637 heartbeat IPC: 0.757981 cumulative IPC: 0.757225 (Simulation time: 0 hr 14 min 37 sec) 
Heartbeat CPU 0 instructions: 330000002 cycles: 369671418 heartbeat IPC: 0.757933 cumulative IPC: 0.757256 (Simulation time: 0 hr 15 min 6 sec) 
Heartbeat CPU 0 instructions: 340000000 cycles: 382906710 heartbeat IPC: 0.755556 cumulative IPC: 0.757185 (Simulation time: 0 hr 15 min 35 sec) 
Heartbeat CPU 0 instructions: 350000000 cycles: 396156334 heartbeat IPC: 0.754738 cumulative IPC: 0.757087 (Simulation time: 0 hr 16 min 3 sec) 
Heartbeat CPU 0 instructions: 360000000 cycles: 409367280 heartbeat IPC: 0.756948 cumulative IPC: 0.757082 (Simulation time: 0 hr 16 min 32 sec) 
Heartbeat CPU 0 instructions: 370000002 cycles: 422642566 heartbeat IPC: 0.75328 cumulative IPC: 0.75694 (Simulation time: 0 hr 17 min 1 sec) 
Heartbeat CPU 0 instructions: 380000000 cycles: 435847843 heartbeat IPC: 0.757273 cumulative IPC: 0.756952 (Simulation time: 0 hr 17 min 30 sec) 
Heartbeat CPU 0 instructions: 390000000 cycles: 449023611 heartbeat IPC: 0.758969 cumulative IPC: 0.757021 (Simulation time: 0 hr 17 min 59 sec) 
Heartbeat CPU 0 instructions: 400000000 cycles: 462214984 heartbeat IPC: 0.758071 cumulative IPC: 0.757056 (Simulation time: 0 hr 18 min 27 sec) 
Heartbeat CPU 0 instructions: 410000001 cycles: 475466975 heartbeat IPC: 0.754604 cumulative IPC: 0.756977 (Simulation time: 0 hr 18 min 56 sec) 
Heartbeat CPU 0 instructions: 420000000 cycles: 488637623 heartbeat IPC: 0.759264 cumulative IPC: 0.757048 (Simulation time: 0 hr 19 min 25 sec) 
Heartbeat CPU 0 instructions: 430000001 cycles: 501817794 heartbeat IPC: 0.758716 cumulative IPC: 0.757099 (Simulation time: 0 hr 19 min 54 sec) 
Heartbeat CPU 0 instructions: 440000000 cycles: 514980645 heartbeat IPC: 0.759714 cumulative IPC: 0.757175 (Simulation time: 0 hr 20 min 22 sec) 
Heartbeat CPU 0 instructions: 450000002 cycles: 528287262 heartbeat IPC: 0.751506 cumulative IPC: 0.757012 (Simulation time: 0 hr 20 min 51 sec) 
Heartbeat CPU 0 instructions: 460000000 cycles: 541505668 heartbeat IPC: 0.756521 cumulative IPC: 0.756998 (Simulation time: 0 hr 21 min 20 sec) 
Heartbeat CPU 0 instructions: 470000003 cycles: 554697976 heartbeat IPC: 0.758018 cumulative IPC: 0.757026 (Simulation time: 0 hr 21 min 49 sec) 
Heartbeat CPU 0 instructions: 480000000 cycles: 567932241 heartbeat IPC: 0.755614 cumulative IPC: 0.756989 (Simulation time: 0 hr 22 min 18 sec) 
Heartbeat CPU 0 instructions: 490000000 cycles: 581145045 heartbeat IPC: 0.756842 cumulative IPC: 0.756985 (Simulation time: 0 hr 22 min 46 sec) 
Heartbeat CPU 0 instructions: 500000000 cycles: 594331384 heartbeat IPC: 0.758361 cumulative IPC: 0.757019 (Simulation time: 0 hr 23 min 15 sec) 
Heartbeat CPU 0 instructions: 510000001 cycles: 607496216 heartbeat IPC: 0.7596 cumulative IPC: 0.757082 (Simulation time: 0 hr 23 min 44 sec) 
Heartbeat CPU 0 instructions: 520000000 cycles: 620777140 heartbeat IPC: 0.75296 cumulative IPC: 0.756983 (Simulation time: 0 hr 24 min 12 sec) 
Heartbeat CPU 0 instructions: 530000000 cycles: 634019762 heartbeat IPC: 0.755137 cumulative IPC: 0.75694 (Simulation time: 0 hr 24 min 41 sec) 
Heartbeat CPU 0 instructions: 540000000 cycles: 647240562 heartbeat IPC: 0.756384 cumulative IPC: 0.756928 (Simulation time: 0 hr 25 min 10 sec) 
Heartbeat CPU 0 instructions: 550000002 cycles: 660494916 heartbeat IPC: 0.754469 cumulative IPC: 0.756873 (Simulation time: 0 hr 25 min 38 sec) 
Heartbeat CPU 0 instructions: 560000000 cycles: 673684704 heartbeat IPC: 0.758162 cumulative IPC: 0.756901 (Simulation time: 0 hr 26 min 7 sec) 
Heartbeat CPU 0 instructions: 570000001 cycles: 686884859 heartbeat IPC: 0.757567 cumulative IPC: 0.756915 (Simulation time: 0 hr 26 min 36 sec) 
Heartbeat CPU 0 instructions: 580000000 cycles: 700078593 heartbeat IPC: 0.757935 cumulative IPC: 0.756936 (Simulation time: 0 hr 27 min 4 sec) 
Heartbeat CPU 0 instructions: 590000003 cycles: 713314896 heartbeat IPC: 0.755498 cumulative IPC: 0.756907 (Simulation time: 0 hr 27 min 33 sec) 
Heartbeat CPU 0 instructions: 600000000 cycles: 726566931 heartbeat IPC: 0.754601 cumulative IPC: 0.756861 (Simulation time: 0 hr 28 min 2 sec) 
Finished CPU 0 instructions: 500000000 cycles: 660623671 cumulative IPC: 0.756861 (Simulation time: 0 hr 28 min 2 sec) 

CPU 0 Branch Prediction Accuracy: 99.968% MPKI: 0.002246
Number of Branches: 3513331 Number of Mispredictions: 1123
Number of LOAD Instructions: 287251172
Number of LOAD Instructions (ROI): 287251172
Number of STORE Instructions: 51060820
Number of STORE Instructions (ROI): 51060820
Total Destination Memory Operands: 51166221
Total Destination Memory Operands (ROI): 51166221
Total Source Memory Operands: 287251172
Total Source Memory Operands (ROI): 287251172
Number of DEPENDED LOADS: 9555484
Number of DEPENDED LOADS (ROI): 9555484
Number of SQ_ADDED: 51166208
Number of SQ_ADDED (ROI): 51166208
Number of LQ_ADDED: 290419897
Number of LQ_ADDED (ROI): 290419897
Number of Instructions read from trace: 600000257

ChampSim completed all CPUs

Region of Interest Statistics

CPU 0 cumulative IPC: 0.756861 instructions: 500000000 cycles: 660623671
ITLB TOTAL     ACCESS:  108950041  HIT:  108950041  MISS:          0
ITLB LOAD      ACCESS:  108950041  HIT:  108950041  MISS:          0
ITLB RFO       ACCESS:          0  HIT:          0  MISS:          0
ITLB PREFETCH  ACCESS:          0  HIT:          0  MISS:          0
ITLB WRITEBACK ACCESS:          0  HIT:          0  MISS:          0
ITLB PREFETCH  REQUESTED:          0  ISSUED:          0  USEFUL:          0  USELESS:          0
ITLB TOTAL MSHR MERGED:          0
ITLB LOAD MSHR MERGED:          0
ITLB RFO MSHR MERGED:          0
ITLB PREFETCH MSHR MERGED:          0
ITLB WRITEBACK MSHR MERGED:          0
ITLB TOTAL ACCESSES:  108950041 HITS:  108950041 MISSES:          0
ITLB LOAD ACCESSES:  108950041 HITS:  108950041 MISSES:          0
ITLB RFO ACCESSES:          0 HITS:          0 MISSES:          0
ITLB PREFETCH ACCESSES:          0 HITS:          0 MISSES:          0
ITLB WRITEBACK ACCESSES:          0 HITS:          0 MISSES:          0
ITLB RQ ACCESS:  500000001
ITLB RQ TO_CACHE:  108950041
ITLB RQ MERGED:  391049960
ITLB RQ FORWARD:          0
ITLB WQ ACCESS:          0
ITLB WQ TO_CACHE:          0
ITLB WQ MERGED:          0
ITLB WQ FORWARD:          0
DTLB TOTAL     ACCESS:  171131252  HIT:  161114928  MISS:   10016324
DTLB LOAD      ACCESS:  143471977  HIT:  135595903  MISS:    7876074
DTLB RFO       ACCESS:   27659275  HIT:   25519025  MISS:    2140250
DTLB PREFETCH  ACCESS:          0  HIT:          0  MISS:          0
DTLB WRITEBACK ACCESS:          0  HIT:          0  MISS:          0
DTLB PREFETCH  REQUESTED:          0  ISSUED:          0  USEFUL:          0  USELESS:          0
DTLB TOTAL MSHR MERGED:     360463
DTLB LOAD MSHR MERGED:     360463
DTLB RFO MSHR MERGED:          0
DTLB PREFETCH MSHR MERGED:          0
DTLB WRITEBACK MSHR MERGED:          0
DTLB TOTAL ACCESSES:  171491715 HITS:  161114928 MISSES:   10376787
DTLB LOAD ACCESSES:  143832440 HITS:  135595903 MISSES:    8236537
DTLB RFO ACCESSES:   27659275 HITS:   25519025 MISSES:    2140250
DTLB PREFETCH ACCESSES:          0 HITS:          0 MISSES:          0
DTLB WRITEBACK ACCESSES:          0 HITS:          0 MISSES:          0
DTLB RQ ACCESS:  274072333
DTLB RQ TO_CACHE:  171491715
DTLB RQ MERGED:  102580618
DTLB RQ FORWARD:          0
DTLB WQ ACCESS:          0
DTLB WQ TO_CACHE:          0
DTLB WQ MERGED:          0
DTLB WQ FORWARD:          0
L1D TOTAL     ACCESS:  350949060  HIT:  283749760  MISS:   67199300
L1D LOAD      ACCESS:  175627121  HIT:  142587867  MISS:   33039254
L1D RFO       ACCESS:   42020022  HIT:   39214453  MISS:    2805569
L1D PREFETCH  ACCESS:  133301917  HIT:  101947440  MISS:   31354477
L1D WRITEBACK ACCESS:          0  HIT:          0  MISS:          0
L1D PREFETCH  REQUESTED:  176231170  ISSUED:  175292904  USEFUL:    2180617  USELESS:   29173862
L1D TOTAL MSHR MERGED:    1482884
L1D LOAD MSHR MERGED:     703981
L1D RFO MSHR MERGED:     349069
L1D PREFETCH MSHR MERGED:     429834
L1D WRITEBACK MSHR MERGED:          0
L1D TOTAL ACCESSES:  352544387 HITS:  283862203 MISSES:   68682184
L1D LOAD ACCESSES:  176237669 HITS:  142594366 MISSES:   33643303
L1D RFO ACCESSES:   42368422 HITS:   39214453 MISSES:    3153969
L1D PREFETCH ACCESSES:  133938296 HITS:  102053384 MISSES:   31884912
L1D WRITEBACK ACCESSES:          0 HITS:          0 MISSES:          0
L1D RQ ACCESS:  231433860
L1D RQ TO_CACHE:  176231170
L1D RQ MERGED:   55196191
L1D RQ FORWARD:          0
L1D WQ ACCESS:   42638475
L1D WQ TO_CACHE:   42368422
L1D WQ MERGED:     270053
L1D WQ FORWARD:     112443
L1I TOTAL     ACCESS:  109343678  HIT:   77827974  MISS:   31515704
L1I LOAD      ACCESS:  109343678  HIT:   77827974  MISS:   31515704
L1I RFO       ACCESS:          0  HIT:          0  MISS:          0
L1I PREFETCH  ACCESS:          0  HIT:          0  MISS:          0
L1I WRITEBACK ACCESS:          0  HIT:          0  MISS:          0
L1I PREFETCH  REQUESTED:          0  ISSUED:          0  USEFUL:          0  USELESS:          0
L1I TOTAL MSHR MERGED:   30750356
L1I LOAD MSHR MERGED:   30750356
L1I RFO MSHR MERGED:          0
L1I PREFETCH MSHR MERGED:          0
L1I WRITEBACK MSHR MERGED:          0
L1I TOTAL ACCESSES:  140094036 HITS:   77827974 MISSES:   62266062
L1I LOAD ACCESSES:  140094036 HITS:   77827974 MISSES:   62266062
L1I RFO ACCESSES:          0 HITS:          0 MISSES:          0
L1I PREFETCH ACCESSES:          0 HITS:          0 MISSES:          0
L1I WRITEBACK ACCESSES:          0 HITS:          0 MISSES:          0
L1I RQ ACCESS:  500000003
L1I RQ TO_CACHE:  140094036
L1I RQ MERGED:  359905967
L1I RQ FORWARD:          0
L1I WQ ACCESS:          0
L1I WQ TO_CACHE:          0
L1I WQ MERGED:          0
L1I WQ FORWARD:          0
L2C TOTAL     ACCESS:  113701269  HIT:  110698648  MISS:    3002621
L2C LOAD      ACCESS:   64453171  HIT:   63892529  MISS:     560642
L2C RFO       ACCESS:    2802991  HIT:    2193476  MISS:     609515
L2C PREFETCH  ACCESS:   43284104  HIT:   41457920  MISS:    1826184
L2C WRITEBACK ACCESS:    3161003  HIT:    3154723  MISS:       6280
L2C PREFETCH  REQUESTED:   15134555  ISSUED:   14619981  USEFUL:    1700999  USELESS:     125191
L2C TOTAL MSHR MERGED:      12604
L2C LOAD MSHR MERGED:          0
L2C RFO MSHR MERGED:          0
L2C PREFETCH MSHR MERGED:      12604
L2C WRITEBACK MSHR MERGED:          0
L2C TOTAL ACCESSES:  113903318 HITS:  110704510 MISSES:    3198808
L2C LOAD ACCESSES:   64455027 HITS:   63894384 MISSES:     560643
L2C RFO ACCESSES:    2804900 HITS:    2195385 MISSES:     609515
L2C PREFETCH ACCESSES:   43482388 HITS:   41460018 MISSES:    2022370
L2C WRITEBACK ACCESSES:    3161003 HITS:    3154723 MISSES:       6280
L2C RQ ACCESS:   67259928
L2C RQ TO_CACHE:   67256164
L2C RQ MERGED:          0
L2C RQ FORWARD:          0
L2C WQ ACCESS:    3161003
L2C WQ TO_CACHE:    3161003
L2C WQ MERGED:          0
L2C WQ FORWARD:       5862
LLC TOTAL     ACCESS:    3711313  HIT:    2021354  MISS:    1689959
LLC LOAD      ACCESS:     560611  HIT:     496706  MISS:      63905
LLC RFO       ACCESS:     527396  HIT:     239296  MISS:     288100
LLC PREFETCH  ACCESS:    2004763  HIT:     666842  MISS:    1337921
LLC WRITEBACK ACCESS:     618543  HIT:     618510  MISS:         33
LLC PREFETCH  REQUESTED:          0  ISSUED:          0  USEFUL:      43924  USELESS:    1287975
LLC TOTAL MSHR MERGED:       4347
LLC LOAD MSHR MERGED:          0
LLC RFO MSHR MERGED:          0
LLC PREFETCH MSHR MERGED:       4347
LLC WRITEBACK MSHR MERGED:          0
LLC TOTAL ACCESSES:    3797896 HITS:    2103590 MISSES:    1694306
LLC LOAD ACCESSES:     560642 HITS:     496737 MISSES:      63905
LLC RFO ACCESSES:     609515 HITS:     321415 MISSES:     288100
LLC PREFETCH ACCESSES:    2009196 HITS:     666928 MISSES:    1342268
LLC WRITEBACK ACCESSES:     618543 HITS:     618510 MISSES:         33
LLC 0 RQ ACCESS:    1170158
LLC 0 RQ TO_CACHE:    1088008
LLC 0 RQ MERGED:          0
LLC 0 RQ FORWARD:          0
LLC WQ ACCESS:     618543
LLC WQ TO_CACHE:     618543
LLC WQ MERGED:          0
LLC WQ FORWARD:      82236
Major fault: 0 Minor fault: 12800
CPU 0 L1D next line prefetcher final stats
CPU 0 L2C PC-based stride prefetcher final stats
All Misses: 2048418
All Hits: 2513846
SD Algo Stats - Switches: 0 SRR-Repls: 81185 BRR-Repls: 0

DRAM Statistics
 CHANNEL 0
 RQ ROW_BUFFER_HIT:     840442  ROW_BUFFER_MISS:     849484
 DBUS_CONGESTED:     892737
 WQ ROW_BUFFER_HIT:      32099  ROW_BUFFER_MISS:     259002  FULL:          0

 AVG_CONGESTED_CYCLE: 13
LOADS RETIRED: 239375970
INSTR RETIRED: 500000000
