
*** ChampSim Multicore Out-of-Order Simulator ***

Warmup Instructions: 100000000
Simulation Instructions: 500000000
Number of CPUs: 1
LLC sets: 2048
LLC ways: 16
Clean RRIP Policies: 1012222010122220 Dirty RRIP Policies: 22020000220200 PSEL Width: 10 Track Set: 4294967295 PSEL Mask: 1 Demote Mask: 4013424140134241DS Algo: 0Window size: 0
Off-chip DRAM Size: 4096 MB Channels: 1 Width: 64-bit Data Rate: 1600 MT/s

CPU 0 runs /mnt/beegfs/iconst01/spec2017/x264.trace.gz
NOT SORTED
TRACE STRING: /mnt/beegfs/iconst01/spec2017/x264.trace.gz
SORTED
TRACE STRING: /mnt/beegfs/iconst01/spec2017/x264.trace.gz
INITIAL
TRACE STRING: /mnt/beegfs/iconst01/spec2017/x264.trace.gz

champsim_seed used: 276

CPU 0 L1D next line prefetcher
CPU 0 L2C IP-based stride prefetcher
Initialize DRRIP state
Assign rand_sets[0]: 454  LLC: 2048
rand_sets[0]: 454
Assign rand_sets[1]: 1662  LLC: 2048
rand_sets[1]: 1662
Assign rand_sets[2]: 1921  LLC: 2048
rand_sets[2]: 1921
Assign rand_sets[3]: 1131  LLC: 2048
rand_sets[3]: 1131
Assign rand_sets[4]: 331  LLC: 2048
rand_sets[4]: 331
Assign rand_sets[5]: 1531  LLC: 2048
rand_sets[5]: 1531
Assign rand_sets[6]: 482  LLC: 2048
rand_sets[6]: 482
Assign rand_sets[7]: 1275  LLC: 2048
rand_sets[7]: 1275
Assign rand_sets[8]: 1876  LLC: 2048
rand_sets[8]: 1876
Assign rand_sets[9]: 2038  LLC: 2048
rand_sets[9]: 2038
Assign rand_sets[10]: 701  LLC: 2048
rand_sets[10]: 701
Assign rand_sets[11]: 479  LLC: 2048
rand_sets[11]: 479
Assign rand_sets[12]: 892  LLC: 2048
rand_sets[12]: 892
Assign rand_sets[13]: 1820  LLC: 2048
rand_sets[13]: 1820
Assign rand_sets[14]: 1505  LLC: 2048
rand_sets[14]: 1505
Assign rand_sets[15]: 1159  LLC: 2048
rand_sets[15]: 1159
Assign rand_sets[16]: 513  LLC: 2048
rand_sets[16]: 513
Assign rand_sets[17]: 703  LLC: 2048
rand_sets[17]: 703
Assign rand_sets[18]: 561  LLC: 2048
rand_sets[18]: 561
Assign rand_sets[19]: 990  LLC: 2048
rand_sets[19]: 990
Assign rand_sets[20]: 342  LLC: 2048
rand_sets[20]: 342
Assign rand_sets[21]: 882  LLC: 2048
rand_sets[21]: 882
Assign rand_sets[22]: 15  LLC: 2048
rand_sets[22]: 15
Assign rand_sets[23]: 71  LLC: 2048
rand_sets[23]: 71
Assign rand_sets[24]: 1127  LLC: 2048
rand_sets[24]: 1127
Assign rand_sets[25]: 1382  LLC: 2048
rand_sets[25]: 1382
Assign rand_sets[26]: 647  LLC: 2048
rand_sets[26]: 647
Assign rand_sets[27]: 857  LLC: 2048
rand_sets[27]: 857
Assign rand_sets[28]: 1450  LLC: 2048
rand_sets[28]: 1450
Assign rand_sets[29]: 1160  LLC: 2048
rand_sets[29]: 1160
Assign rand_sets[30]: 1852  LLC: 2048
rand_sets[30]: 1852
Assign rand_sets[31]: 1881  LLC: 2048
rand_sets[31]: 1881
Assign rand_sets[32]: 1770  LLC: 2048
rand_sets[32]: 1770
Assign rand_sets[33]: 1622  LLC: 2048
rand_sets[33]: 1622
Assign rand_sets[34]: 275  LLC: 2048
rand_sets[34]: 275
Assign rand_sets[35]: 635  LLC: 2048
rand_sets[35]: 635
Assign rand_sets[36]: 466  LLC: 2048
rand_sets[36]: 466
Assign rand_sets[37]: 1413  LLC: 2048
rand_sets[37]: 1413
Assign rand_sets[38]: 417  LLC: 2048
rand_sets[38]: 417
Assign rand_sets[39]: 472  LLC: 2048
rand_sets[39]: 472
Assign rand_sets[40]: 1340  LLC: 2048
rand_sets[40]: 1340
Assign rand_sets[41]: 852  LLC: 2048
rand_sets[41]: 852
Assign rand_sets[42]: 1365  LLC: 2048
rand_sets[42]: 1365
Assign rand_sets[43]: 47  LLC: 2048
rand_sets[43]: 47
Assign rand_sets[44]: 823  LLC: 2048
rand_sets[44]: 823
Assign rand_sets[45]: 686  LLC: 2048
rand_sets[45]: 686
Assign rand_sets[46]: 1637  LLC: 2048
rand_sets[46]: 1637
Assign rand_sets[47]: 1115  LLC: 2048
rand_sets[47]: 1115
Assign rand_sets[48]: 986  LLC: 2048
rand_sets[48]: 986
Assign rand_sets[49]: 258  LLC: 2048
rand_sets[49]: 258
Assign rand_sets[50]: 633  LLC: 2048
rand_sets[50]: 633
Assign rand_sets[51]: 920  LLC: 2048
rand_sets[51]: 920
Assign rand_sets[52]: 204  LLC: 2048
rand_sets[52]: 204
Assign rand_sets[53]: 227  LLC: 2048
rand_sets[53]: 227
Assign rand_sets[54]: 1818  LLC: 2048
rand_sets[54]: 1818
Assign rand_sets[55]: 886  LLC: 2048
rand_sets[55]: 886
Assign rand_sets[56]: 1422  LLC: 2048
rand_sets[56]: 1422
Assign rand_sets[57]: 607  LLC: 2048
rand_sets[57]: 607
Assign rand_sets[58]: 217  LLC: 2048
rand_sets[58]: 217
Assign rand_sets[59]: 1945  LLC: 2048
rand_sets[59]: 1945
Assign rand_sets[60]: 143  LLC: 2048
rand_sets[60]: 143
Assign rand_sets[61]: 1311  LLC: 2048
rand_sets[61]: 1311
Assign rand_sets[62]: 319  LLC: 2048
rand_sets[62]: 319
Assign rand_sets[63]: 1846  LLC: 2048
rand_sets[63]: 1846
 CLEAN-RRIP-POLICY-1: 1-0-1-2-2-2-2-0- CLEAN-RRIP-POLICY-2: 1-0-1-2-2-2-2-0-
 DIRTY-RRIP-POLICY-1: 0-0-2-2-0-2-0-0- DIRTY-RRIP-POLICY-2: 0-0-2-2-0-2-0-0-
 PSEL width: 10
Heartbeat CPU 0 instructions: 10000000 cycles: 4124769 heartbeat IPC: 2.42438 cumulative IPC: 2.42438 (Simulation time: 0 hr 0 min 13 sec) 
Heartbeat CPU 0 instructions: 20000000 cycles: 8234006 heartbeat IPC: 2.43354 cumulative IPC: 2.42895 (Simulation time: 0 hr 0 min 27 sec) 
Heartbeat CPU 0 instructions: 30000003 cycles: 12464982 heartbeat IPC: 2.36352 cumulative IPC: 2.40674 (Simulation time: 0 hr 0 min 40 sec) 
Heartbeat CPU 0 instructions: 40000000 cycles: 16636999 heartbeat IPC: 2.39692 cumulative IPC: 2.40428 (Simulation time: 0 hr 0 min 53 sec) 
Heartbeat CPU 0 instructions: 50000000 cycles: 20699504 heartbeat IPC: 2.46154 cumulative IPC: 2.41552 (Simulation time: 0 hr 1 min 6 sec) 
Heartbeat CPU 0 instructions: 60000000 cycles: 25022985 heartbeat IPC: 2.31295 cumulative IPC: 2.3978 (Simulation time: 0 hr 1 min 19 sec) 
Heartbeat CPU 0 instructions: 70000000 cycles: 29371269 heartbeat IPC: 2.29976 cumulative IPC: 2.38328 (Simulation time: 0 hr 1 min 32 sec) 
Heartbeat CPU 0 instructions: 80000000 cycles: 33721431 heartbeat IPC: 2.29876 cumulative IPC: 2.37238 (Simulation time: 0 hr 1 min 45 sec) 
Heartbeat CPU 0 instructions: 90000002 cycles: 38032472 heartbeat IPC: 2.31963 cumulative IPC: 2.3664 (Simulation time: 0 hr 1 min 58 sec) 
Heartbeat CPU 0 instructions: 100000000 cycles: 42329412 heartbeat IPC: 2.32724 cumulative IPC: 2.36242 (Simulation time: 0 hr 2 min 11 sec) 

Warmup complete CPU 0 instructions: 100000001 cycles: 42329413 (Simulation time: 0 hr 2 min 11 sec) 

Heartbeat CPU 0 instructions: 110000001 cycles: 49405098 heartbeat IPC: 1.41329 cumulative IPC: 1.41329 (Simulation time: 0 hr 2 min 28 sec) 
Heartbeat CPU 0 instructions: 120000000 cycles: 58900246 heartbeat IPC: 1.05317 cumulative IPC: 1.20694 (Simulation time: 0 hr 2 min 46 sec) 
Heartbeat CPU 0 instructions: 130000000 cycles: 63742636 heartbeat IPC: 2.0651 cumulative IPC: 1.401 (Simulation time: 0 hr 3 min 3 sec) 
Heartbeat CPU 0 instructions: 140000000 cycles: 68665677 heartbeat IPC: 2.03126 cumulative IPC: 1.51882 (Simulation time: 0 hr 3 min 19 sec) 
Heartbeat CPU 0 instructions: 150000002 cycles: 75500920 heartbeat IPC: 1.46301 cumulative IPC: 1.50732 (Simulation time: 0 hr 3 min 37 sec) 
Heartbeat CPU 0 instructions: 160000000 cycles: 83327667 heartbeat IPC: 1.27767 cumulative IPC: 1.46348 (Simulation time: 0 hr 3 min 54 sec) 
Heartbeat CPU 0 instructions: 170000000 cycles: 90743632 heartbeat IPC: 1.34844 cumulative IPC: 1.44586 (Simulation time: 0 hr 4 min 11 sec) 
Heartbeat CPU 0 instructions: 180000000 cycles: 98063860 heartbeat IPC: 1.36608 cumulative IPC: 1.43538 (Simulation time: 0 hr 4 min 28 sec) 
Heartbeat CPU 0 instructions: 190000002 cycles: 105263964 heartbeat IPC: 1.38887 cumulative IPC: 1.43006 (Simulation time: 0 hr 4 min 44 sec) 
Heartbeat CPU 0 instructions: 200000000 cycles: 112527718 heartbeat IPC: 1.3767 cumulative IPC: 1.42454 (Simulation time: 0 hr 5 min 1 sec) 
Heartbeat CPU 0 instructions: 210000000 cycles: 119412764 heartbeat IPC: 1.45242 cumulative IPC: 1.42703 (Simulation time: 0 hr 5 min 17 sec) 
Heartbeat CPU 0 instructions: 220000000 cycles: 126199804 heartbeat IPC: 1.4734 cumulative IPC: 1.43078 (Simulation time: 0 hr 5 min 34 sec) 
Heartbeat CPU 0 instructions: 230000003 cycles: 132921838 heartbeat IPC: 1.48765 cumulative IPC: 1.435 (Simulation time: 0 hr 5 min 50 sec) 
Heartbeat CPU 0 instructions: 240000000 cycles: 139669261 heartbeat IPC: 1.48205 cumulative IPC: 1.43826 (Simulation time: 0 hr 6 min 6 sec) 
Heartbeat CPU 0 instructions: 250000001 cycles: 146378869 heartbeat IPC: 1.4904 cumulative IPC: 1.44162 (Simulation time: 0 hr 6 min 22 sec) 
Heartbeat CPU 0 instructions: 260000000 cycles: 153067090 heartbeat IPC: 1.49517 cumulative IPC: 1.44486 (Simulation time: 0 hr 6 min 38 sec) 
Heartbeat CPU 0 instructions: 270000001 cycles: 160031136 heartbeat IPC: 1.43595 cumulative IPC: 1.44433 (Simulation time: 0 hr 6 min 55 sec) 
Heartbeat CPU 0 instructions: 280000000 cycles: 167569677 heartbeat IPC: 1.32652 cumulative IPC: 1.43724 (Simulation time: 0 hr 7 min 12 sec) 
Heartbeat CPU 0 instructions: 290000000 cycles: 175524672 heartbeat IPC: 1.25707 cumulative IPC: 1.42648 (Simulation time: 0 hr 7 min 29 sec) 
Heartbeat CPU 0 instructions: 300000000 cycles: 183730791 heartbeat IPC: 1.2186 cumulative IPC: 1.41441 (Simulation time: 0 hr 7 min 46 sec) 
Heartbeat CPU 0 instructions: 310000002 cycles: 192066153 heartbeat IPC: 1.19971 cumulative IPC: 1.40246 (Simulation time: 0 hr 8 min 4 sec) 
Heartbeat CPU 0 instructions: 320000000 cycles: 202108986 heartbeat IPC: 0.995735 cumulative IPC: 1.3769 (Simulation time: 0 hr 8 min 24 sec) 
Heartbeat CPU 0 instructions: 330000002 cycles: 206778526 heartbeat IPC: 2.14154 cumulative IPC: 1.39861 (Simulation time: 0 hr 8 min 40 sec) 
Heartbeat CPU 0 instructions: 340000000 cycles: 212057429 heartbeat IPC: 1.89433 cumulative IPC: 1.41403 (Simulation time: 0 hr 8 min 57 sec) 
Heartbeat CPU 0 instructions: 350000000 cycles: 219263583 heartbeat IPC: 1.3877 cumulative IPC: 1.41295 (Simulation time: 0 hr 9 min 14 sec) 
Heartbeat CPU 0 instructions: 360000000 cycles: 226939301 heartbeat IPC: 1.30281 cumulative IPC: 1.40838 (Simulation time: 0 hr 9 min 31 sec) 
Heartbeat CPU 0 instructions: 370000000 cycles: 234374444 heartbeat IPC: 1.34496 cumulative IPC: 1.40592 (Simulation time: 0 hr 9 min 48 sec) 
Heartbeat CPU 0 instructions: 380000000 cycles: 241671985 heartbeat IPC: 1.37032 cumulative IPC: 1.40462 (Simulation time: 0 hr 10 min 5 sec) 
Heartbeat CPU 0 instructions: 390000000 cycles: 249820910 heartbeat IPC: 1.22716 cumulative IPC: 1.39765 (Simulation time: 0 hr 10 min 22 sec) 
Heartbeat CPU 0 instructions: 400000000 cycles: 258015623 heartbeat IPC: 1.2203 cumulative IPC: 1.39091 (Simulation time: 0 hr 10 min 40 sec) 
Heartbeat CPU 0 instructions: 410000001 cycles: 265821372 heartbeat IPC: 1.28111 cumulative IPC: 1.38707 (Simulation time: 0 hr 10 min 57 sec) 
Heartbeat CPU 0 instructions: 420000000 cycles: 273891328 heartbeat IPC: 1.23916 cumulative IPC: 1.38192 (Simulation time: 0 hr 11 min 15 sec) 
Heartbeat CPU 0 instructions: 430000001 cycles: 282168314 heartbeat IPC: 1.20817 cumulative IPC: 1.37592 (Simulation time: 0 hr 11 min 33 sec) 
Heartbeat CPU 0 instructions: 440000000 cycles: 290233998 heartbeat IPC: 1.23982 cumulative IPC: 1.3715 (Simulation time: 0 hr 11 min 50 sec) 
Heartbeat CPU 0 instructions: 450000001 cycles: 298127208 heartbeat IPC: 1.26691 cumulative IPC: 1.36827 (Simulation time: 0 hr 12 min 7 sec) 
Heartbeat CPU 0 instructions: 460000000 cycles: 307993247 heartbeat IPC: 1.01358 cumulative IPC: 1.3551 (Simulation time: 0 hr 12 min 27 sec) 
Heartbeat CPU 0 instructions: 470000002 cycles: 312651163 heartbeat IPC: 2.14688 cumulative IPC: 1.36874 (Simulation time: 0 hr 12 min 43 sec) 
Heartbeat CPU 0 instructions: 480000000 cycles: 317938074 heartbeat IPC: 1.89146 cumulative IPC: 1.37877 (Simulation time: 0 hr 13 min 0 sec) 
Heartbeat CPU 0 instructions: 490000001 cycles: 325271537 heartbeat IPC: 1.36361 cumulative IPC: 1.37837 (Simulation time: 0 hr 13 min 18 sec) 
Heartbeat CPU 0 instructions: 500000000 cycles: 334000352 heartbeat IPC: 1.14563 cumulative IPC: 1.37141 (Simulation time: 0 hr 13 min 38 sec) 
Heartbeat CPU 0 instructions: 510000002 cycles: 342729470 heartbeat IPC: 1.14559 cumulative IPC: 1.36485 (Simulation time: 0 hr 13 min 58 sec) 
Heartbeat CPU 0 instructions: 520000000 cycles: 351456386 heartbeat IPC: 1.14588 cumulative IPC: 1.35866 (Simulation time: 0 hr 14 min 17 sec) 
Heartbeat CPU 0 instructions: 530000000 cycles: 360160882 heartbeat IPC: 1.14883 cumulative IPC: 1.35292 (Simulation time: 0 hr 14 min 37 sec) 
Heartbeat CPU 0 instructions: 540000000 cycles: 368413264 heartbeat IPC: 1.21177 cumulative IPC: 1.34935 (Simulation time: 0 hr 14 min 56 sec) 
Heartbeat CPU 0 instructions: 550000000 cycles: 375451323 heartbeat IPC: 1.42085 cumulative IPC: 1.35086 (Simulation time: 0 hr 15 min 13 sec) 
Heartbeat CPU 0 instructions: 560000000 cycles: 382048543 heartbeat IPC: 1.51579 cumulative IPC: 1.35406 (Simulation time: 0 hr 15 min 30 sec) 
Heartbeat CPU 0 instructions: 570000002 cycles: 388608515 heartbeat IPC: 1.5244 cumulative IPC: 1.35729 (Simulation time: 0 hr 15 min 47 sec) 
Heartbeat CPU 0 instructions: 580000000 cycles: 395225159 heartbeat IPC: 1.51134 cumulative IPC: 1.36018 (Simulation time: 0 hr 16 min 4 sec) 
Heartbeat CPU 0 instructions: 590000002 cycles: 401885919 heartbeat IPC: 1.50133 cumulative IPC: 1.36279 (Simulation time: 0 hr 16 min 21 sec) 
Heartbeat CPU 0 instructions: 600000000 cycles: 408665797 heartbeat IPC: 1.47495 cumulative IPC: 1.36487 (Simulation time: 0 hr 16 min 38 sec) 
Finished CPU 0 instructions: 500000000 cycles: 366336392 cumulative IPC: 1.36487 (Simulation time: 0 hr 16 min 38 sec) 

CPU 0 Branch Prediction Accuracy: 93.4682% MPKI: 2.44079
Number of Branches: 18683822 Number of Mispredictions: 1220394
Number of LOAD Instructions: 142551610
Number of LOAD Instructions (ROI): 142551610
Number of STORE Instructions: 44807454
Number of STORE Instructions (ROI): 44807454
Total Destination Memory Operands: 48357071
Total Destination Memory Operands (ROI): 48357071
Total Source Memory Operands: 142551610
Total Source Memory Operands (ROI): 142551610
Number of DEPENDED LOADS: 7393906
Number of DEPENDED LOADS (ROI): 7393906
Number of SQ_ADDED: 48357051
Number of SQ_ADDED (ROI): 48357051
Number of LQ_ADDED: 157205781
Number of LQ_ADDED (ROI): 157205781
Number of Instructions read from trace: 600000256

ChampSim completed all CPUs

Region of Interest Statistics

CPU 0 cumulative IPC: 1.36487 instructions: 500000000 cycles: 366336392
ITLB TOTAL     ACCESS:   88184159  HIT:   88184090  MISS:         69
ITLB LOAD      ACCESS:   88184159  HIT:   88184090  MISS:         69
ITLB RFO       ACCESS:          0  HIT:          0  MISS:          0
ITLB PREFETCH  ACCESS:          0  HIT:          0  MISS:          0
ITLB WRITEBACK ACCESS:          0  HIT:          0  MISS:          0
ITLB PREFETCH  REQUESTED:          0  ISSUED:          0  USEFUL:          0  USELESS:          0
ITLB TOTAL MSHR MERGED:         84
ITLB LOAD MSHR MERGED:         84
ITLB RFO MSHR MERGED:          0
ITLB PREFETCH MSHR MERGED:          0
ITLB WRITEBACK MSHR MERGED:          0
ITLB TOTAL ACCESSES:   88184243 HITS:   88184090 MISSES:        153
ITLB LOAD ACCESSES:   88184243 HITS:   88184090 MISSES:        153
ITLB RFO ACCESSES:          0 HITS:          0 MISSES:          0
ITLB PREFETCH ACCESSES:          0 HITS:          0 MISSES:          0
ITLB WRITEBACK ACCESSES:          0 HITS:          0 MISSES:          0
ITLB RQ ACCESS:  500000000
ITLB RQ TO_CACHE:   88184243
ITLB RQ MERGED:  411815757
ITLB RQ FORWARD:          0
ITLB WQ ACCESS:          0
ITLB WQ TO_CACHE:          0
ITLB WQ MERGED:          0
ITLB WQ FORWARD:          0
DTLB TOTAL     ACCESS:   88204523  HIT:   88077102  MISS:     127421
DTLB LOAD      ACCESS:   59485673  HIT:   59393225  MISS:      92448
DTLB RFO       ACCESS:   28718850  HIT:   28683877  MISS:      34973
DTLB PREFETCH  ACCESS:          0  HIT:          0  MISS:          0
DTLB WRITEBACK ACCESS:          0  HIT:          0  MISS:          0
DTLB PREFETCH  REQUESTED:          0  ISSUED:          0  USEFUL:          0  USELESS:          0
DTLB TOTAL MSHR MERGED:     141027
DTLB LOAD MSHR MERGED:     107595
DTLB RFO MSHR MERGED:      33432
DTLB PREFETCH MSHR MERGED:          0
DTLB WRITEBACK MSHR MERGED:          0
DTLB TOTAL ACCESSES:   88345550 HITS:   88077102 MISSES:     268448
DTLB LOAD ACCESSES:   59593268 HITS:   59393225 MISSES:     200043
DTLB RFO ACCESSES:   28752282 HITS:   28683877 MISSES:      68405
DTLB PREFETCH ACCESSES:          0 HITS:          0 MISSES:          0
DTLB WRITEBACK ACCESSES:          0 HITS:          0 MISSES:          0
DTLB RQ ACCESS:  154559982
DTLB RQ TO_CACHE:   88345550
DTLB RQ MERGED:   66214432
DTLB RQ FORWARD:          0
DTLB WQ ACCESS:          0
DTLB WQ TO_CACHE:          0
DTLB WQ MERGED:          0
DTLB WQ FORWARD:          0
L1D TOTAL     ACCESS:  127829756  HIT:  124605808  MISS:    3223948
L1D LOAD      ACCESS:   53174203  HIT:   51979752  MISS:    1194451
L1D RFO       ACCESS:   37428963  HIT:   36814898  MISS:     614065
L1D PREFETCH  ACCESS:   37226590  HIT:   35811158  MISS:    1415432
L1D WRITEBACK ACCESS:          0  HIT:          0  MISS:          0
L1D PREFETCH  REQUESTED:   53660892  ISSUED:   52457521  USEFUL:     352953  USELESS:    1062444
L1D TOTAL MSHR MERGED:    2885930
L1D LOAD MSHR MERGED:     524462
L1D RFO MSHR MERGED:    1525203
L1D PREFETCH MSHR MERGED:     836265
L1D WRITEBACK MSHR MERGED:          0
L1D TOTAL ACCESSES:  130750493 HITS:  124640615 MISSES:    6109878
L1D LOAD ACCESSES:   53663694 HITS:   51982554 MISSES:    1681140
L1D RFO ACCESSES:   38952956 HITS:   36814898 MISSES:    2138058
L1D PREFETCH ACCESSES:   38133843 HITS:   35843163 MISSES:    2290680
L1D WRITEBACK ACCESSES:          0 HITS:          0 MISSES:          0
L1D RQ ACCESS:  113715090
L1D RQ TO_CACHE:   53660892
L1D RQ MERGED:   60051396
L1D RQ FORWARD:          0
L1D WQ ACCESS:   40844891
L1D WQ TO_CACHE:   38952956
L1D WQ MERGED:    1891935
L1D WQ FORWARD:      34807
L1I TOTAL     ACCESS:  108369950  HIT:  107810835  MISS:     559115
L1I LOAD      ACCESS:  108369950  HIT:  107810835  MISS:     559115
L1I RFO       ACCESS:          0  HIT:          0  MISS:          0
L1I PREFETCH  ACCESS:          0  HIT:          0  MISS:          0
L1I WRITEBACK ACCESS:          0  HIT:          0  MISS:          0
L1I PREFETCH  REQUESTED:          0  ISSUED:          0  USEFUL:          0  USELESS:          0
L1I TOTAL MSHR MERGED:     529086
L1I LOAD MSHR MERGED:     529086
L1I RFO MSHR MERGED:          0
L1I PREFETCH MSHR MERGED:          0
L1I WRITEBACK MSHR MERGED:          0
L1I TOTAL ACCESSES:  108899036 HITS:  107810835 MISSES:    1088201
L1I LOAD ACCESSES:  108899036 HITS:  107810835 MISSES:    1088201
L1I RFO ACCESSES:          0 HITS:          0 MISSES:          0
L1I PREFETCH ACCESSES:          0 HITS:          0 MISSES:          0
L1I WRITEBACK ACCESSES:          0 HITS:          0 MISSES:          0
L1I RQ ACCESS:  500000002
L1I RQ TO_CACHE:  108899036
L1I RQ MERGED:  391100966
L1I RQ FORWARD:          0
L1I WQ ACCESS:          0
L1I WQ TO_CACHE:          0
L1I WQ MERGED:          0
L1I WQ FORWARD:          0
L2C TOTAL     ACCESS:    4690872  HIT:    3866459  MISS:     824413
L2C LOAD      ACCESS:    1715681  HIT:    1562750  MISS:     152931
L2C RFO       ACCESS:     611447  HIT:     421172  MISS:     190275
L2C PREFETCH  ACCESS:    1660817  HIT:    1181797  MISS:     479020
L2C WRITEBACK ACCESS:     702927  HIT:     700740  MISS:       2187
L2C PREFETCH  REQUESTED:     256501  ISSUED:     256501  USEFUL:     173103  USELESS:     306583
L2C TOTAL MSHR MERGED:      11499
L2C LOAD MSHR MERGED:       3325
L2C RFO MSHR MERGED:          0
L2C PREFETCH MSHR MERGED:       8174
L2C WRITEBACK MSHR MERGED:          0
L2C TOTAL ACCESSES:    4710996 HITS:    3868048 MISSES:     842948
L2C LOAD ACCESSES:    1715793 HITS:    1562862 MISSES:     152931
L2C RFO ACCESSES:     612855 HITS:     422580 MISSES:     190275
L2C PREFETCH ACCESSES:    1679421 HITS:    1181866 MISSES:     497555
L2C WRITEBACK ACCESSES:     702927 HITS:     700740 MISSES:       2187
L2C RQ ACCESS:    2328648
L2C RQ TO_CACHE:    2327128
L2C RQ MERGED:          0
L2C RQ FORWARD:          0
L2C WQ ACCESS:     702927
L2C WQ TO_CACHE:     702927
L2C WQ MERGED:          0
L2C WQ FORWARD:       1589
LLC TOTAL     ACCESS:    1045657  HIT:     231686  MISS:     813971
LLC LOAD      ACCESS:     149602  HIT:      73488  MISS:      76114
LLC RFO       ACCESS:     190266  HIT:      11425  MISS:     178841
LLC PREFETCH  ACCESS:     484909  HIT:      85979  MISS:     398930
LLC WRITEBACK ACCESS:     220880  HIT:      60794  MISS:     160086
LLC PREFETCH  REQUESTED:          0  ISSUED:          0  USEFUL:      12365  USELESS:     387651
LLC TOTAL MSHR MERGED:       3318
LLC LOAD MSHR MERGED:       1553
LLC RFO MSHR MERGED:          0
LLC PREFETCH MSHR MERGED:       1765
LLC WRITEBACK MSHR MERGED:          0
LLC TOTAL ACCESSES:    1048988 HITS:     231699 MISSES:     817289
LLC LOAD ACCESSES:     149606 HITS:      73492 MISSES:      76114
LLC RFO ACCESSES:     190275 HITS:      11434 MISSES:     178841
LLC PREFETCH ACCESSES:     488227 HITS:      85979 MISSES:     402248
LLC WRITEBACK ACCESSES:     220880 HITS:      60794 MISSES:     160086
LLC 0 RQ ACCESS:     339881
LLC 0 RQ TO_CACHE:     339868
LLC 0 RQ MERGED:          0
LLC 0 RQ FORWARD:          0
LLC WQ ACCESS:     220880
LLC WQ TO_CACHE:     220880
LLC WQ MERGED:          0
LLC WQ FORWARD:         13
Major fault: 0 Minor fault: 6811
CPU 0 L1D next line prefetcher final stats
CPU 0 L2C PC-based stride prefetcher final stats
All Misses: 924715
All Hits: 327925
SD Algo Stats - Switches: 0 SRR-Repls: 84742 BRR-Repls: 0

DRAM Statistics
 CHANNEL 0
 RQ ROW_BUFFER_HIT:     353029  ROW_BUFFER_MISS:     300765
 DBUS_CONGESTED:     468232
 WQ ROW_BUFFER_HIT:      44254  ROW_BUFFER_MISS:     176240  FULL:          0

 AVG_CONGESTED_CYCLE: 13
LOADS RETIRED: 119922929
INSTR RETIRED: 500000000
