
*** ChampSim Multicore Out-of-Order Simulator ***

Warmup Instructions: 100000000
Simulation Instructions: 500000000
Number of CPUs: 1
LLC sets: 2048
LLC ways: 16
Clean RRIP Policies: 2313210323132103 Dirty RRIP Policies: 2303110323031103 PSEL Width: 10 Track Set: 4294967295 PSEL Mask: 1 Demote Mask: 4330130143301301DS Algo: 0Window size: 0
Off-chip DRAM Size: 4096 MB Channels: 1 Width: 64-bit Data Rate: 1600 MT/s

CPU 0 runs /mnt/beegfs/iconst01/spec2017/Blender.trace.gz
NOT SORTED
TRACE STRING: /mnt/beegfs/iconst01/spec2017/Blender.trace.gz
SORTED
TRACE STRING: /mnt/beegfs/iconst01/spec2017/Blender.trace.gz
INITIAL
TRACE STRING: /mnt/beegfs/iconst01/spec2017/Blender.trace.gz

champsim_seed used: 700

CPU 0 L1D next line prefetcher
CPU 0 L2C IP-based stride prefetcher
Initialize DRRIP state
Assign rand_sets[0]: 454  LLC: 2048
rand_sets[0]: 454
Assign rand_sets[1]: 1662  LLC: 2048
rand_sets[1]: 1662
Assign rand_sets[2]: 1921  LLC: 2048
rand_sets[2]: 1921
Assign rand_sets[3]: 1131  LLC: 2048
rand_sets[3]: 1131
Assign rand_sets[4]: 331  LLC: 2048
rand_sets[4]: 331
Assign rand_sets[5]: 1531  LLC: 2048
rand_sets[5]: 1531
Assign rand_sets[6]: 482  LLC: 2048
rand_sets[6]: 482
Assign rand_sets[7]: 1275  LLC: 2048
rand_sets[7]: 1275
Assign rand_sets[8]: 1876  LLC: 2048
rand_sets[8]: 1876
Assign rand_sets[9]: 2038  LLC: 2048
rand_sets[9]: 2038
Assign rand_sets[10]: 701  LLC: 2048
rand_sets[10]: 701
Assign rand_sets[11]: 479  LLC: 2048
rand_sets[11]: 479
Assign rand_sets[12]: 892  LLC: 2048
rand_sets[12]: 892
Assign rand_sets[13]: 1820  LLC: 2048
rand_sets[13]: 1820
Assign rand_sets[14]: 1505  LLC: 2048
rand_sets[14]: 1505
Assign rand_sets[15]: 1159  LLC: 2048
rand_sets[15]: 1159
Assign rand_sets[16]: 513  LLC: 2048
rand_sets[16]: 513
Assign rand_sets[17]: 703  LLC: 2048
rand_sets[17]: 703
Assign rand_sets[18]: 561  LLC: 2048
rand_sets[18]: 561
Assign rand_sets[19]: 990  LLC: 2048
rand_sets[19]: 990
Assign rand_sets[20]: 342  LLC: 2048
rand_sets[20]: 342
Assign rand_sets[21]: 882  LLC: 2048
rand_sets[21]: 882
Assign rand_sets[22]: 15  LLC: 2048
rand_sets[22]: 15
Assign rand_sets[23]: 71  LLC: 2048
rand_sets[23]: 71
Assign rand_sets[24]: 1127  LLC: 2048
rand_sets[24]: 1127
Assign rand_sets[25]: 1382  LLC: 2048
rand_sets[25]: 1382
Assign rand_sets[26]: 647  LLC: 2048
rand_sets[26]: 647
Assign rand_sets[27]: 857  LLC: 2048
rand_sets[27]: 857
Assign rand_sets[28]: 1450  LLC: 2048
rand_sets[28]: 1450
Assign rand_sets[29]: 1160  LLC: 2048
rand_sets[29]: 1160
Assign rand_sets[30]: 1852  LLC: 2048
rand_sets[30]: 1852
Assign rand_sets[31]: 1881  LLC: 2048
rand_sets[31]: 1881
Assign rand_sets[32]: 1770  LLC: 2048
rand_sets[32]: 1770
Assign rand_sets[33]: 1622  LLC: 2048
rand_sets[33]: 1622
Assign rand_sets[34]: 275  LLC: 2048
rand_sets[34]: 275
Assign rand_sets[35]: 635  LLC: 2048
rand_sets[35]: 635
Assign rand_sets[36]: 466  LLC: 2048
rand_sets[36]: 466
Assign rand_sets[37]: 1413  LLC: 2048
rand_sets[37]: 1413
Assign rand_sets[38]: 417  LLC: 2048
rand_sets[38]: 417
Assign rand_sets[39]: 472  LLC: 2048
rand_sets[39]: 472
Assign rand_sets[40]: 1340  LLC: 2048
rand_sets[40]: 1340
Assign rand_sets[41]: 852  LLC: 2048
rand_sets[41]: 852
Assign rand_sets[42]: 1365  LLC: 2048
rand_sets[42]: 1365
Assign rand_sets[43]: 47  LLC: 2048
rand_sets[43]: 47
Assign rand_sets[44]: 823  LLC: 2048
rand_sets[44]: 823
Assign rand_sets[45]: 686  LLC: 2048
rand_sets[45]: 686
Assign rand_sets[46]: 1637  LLC: 2048
rand_sets[46]: 1637
Assign rand_sets[47]: 1115  LLC: 2048
rand_sets[47]: 1115
Assign rand_sets[48]: 986  LLC: 2048
rand_sets[48]: 986
Assign rand_sets[49]: 258  LLC: 2048
rand_sets[49]: 258
Assign rand_sets[50]: 633  LLC: 2048
rand_sets[50]: 633
Assign rand_sets[51]: 920  LLC: 2048
rand_sets[51]: 920
Assign rand_sets[52]: 204  LLC: 2048
rand_sets[52]: 204
Assign rand_sets[53]: 227  LLC: 2048
rand_sets[53]: 227
Assign rand_sets[54]: 1818  LLC: 2048
rand_sets[54]: 1818
Assign rand_sets[55]: 886  LLC: 2048
rand_sets[55]: 886
Assign rand_sets[56]: 1422  LLC: 2048
rand_sets[56]: 1422
Assign rand_sets[57]: 607  LLC: 2048
rand_sets[57]: 607
Assign rand_sets[58]: 217  LLC: 2048
rand_sets[58]: 217
Assign rand_sets[59]: 1945  LLC: 2048
rand_sets[59]: 1945
Assign rand_sets[60]: 143  LLC: 2048
rand_sets[60]: 143
Assign rand_sets[61]: 1311  LLC: 2048
rand_sets[61]: 1311
Assign rand_sets[62]: 319  LLC: 2048
rand_sets[62]: 319
Assign rand_sets[63]: 1846  LLC: 2048
rand_sets[63]: 1846
 CLEAN-RRIP-POLICY-1: 2-3-1-3-2-1-0-3- CLEAN-RRIP-POLICY-2: 2-3-1-3-2-1-0-3-
 DIRTY-RRIP-POLICY-1: 2-3-0-3-1-1-0-3- DIRTY-RRIP-POLICY-2: 2-3-0-3-1-1-0-3-
 PSEL width: 10
Heartbeat CPU 0 instructions: 10000002 cycles: 5483383 heartbeat IPC: 1.82369 cumulative IPC: 1.82369 (Simulation time: 0 hr 0 min 13 sec) 
Heartbeat CPU 0 instructions: 20000000 cycles: 10918537 heartbeat IPC: 1.83987 cumulative IPC: 1.83175 (Simulation time: 0 hr 0 min 26 sec) 
Heartbeat CPU 0 instructions: 30000000 cycles: 16457161 heartbeat IPC: 1.8055 cumulative IPC: 1.82291 (Simulation time: 0 hr 0 min 39 sec) 
Heartbeat CPU 0 instructions: 40000000 cycles: 21912373 heartbeat IPC: 1.83311 cumulative IPC: 1.82545 (Simulation time: 0 hr 0 min 53 sec) 
Heartbeat CPU 0 instructions: 50000000 cycles: 27418287 heartbeat IPC: 1.81623 cumulative IPC: 1.8236 (Simulation time: 0 hr 1 min 6 sec) 
Heartbeat CPU 0 instructions: 60000000 cycles: 32800284 heartbeat IPC: 1.85805 cumulative IPC: 1.82925 (Simulation time: 0 hr 1 min 20 sec) 
Heartbeat CPU 0 instructions: 70000001 cycles: 38359831 heartbeat IPC: 1.79871 cumulative IPC: 1.82483 (Simulation time: 0 hr 1 min 33 sec) 
Heartbeat CPU 0 instructions: 80000000 cycles: 43822085 heartbeat IPC: 1.83075 cumulative IPC: 1.82556 (Simulation time: 0 hr 1 min 47 sec) 
Heartbeat CPU 0 instructions: 90000000 cycles: 49272853 heartbeat IPC: 1.8346 cumulative IPC: 1.82656 (Simulation time: 0 hr 2 min 0 sec) 
Heartbeat CPU 0 instructions: 100000000 cycles: 54821413 heartbeat IPC: 1.80227 cumulative IPC: 1.8241 (Simulation time: 0 hr 2 min 13 sec) 

Warmup complete CPU 0 instructions: 100000002 cycles: 54821414 (Simulation time: 0 hr 2 min 13 sec) 

Heartbeat CPU 0 instructions: 110000001 cycles: 70192147 heartbeat IPC: 0.650587 cumulative IPC: 0.650587 (Simulation time: 0 hr 2 min 33 sec) 
Heartbeat CPU 0 instructions: 120000000 cycles: 86439759 heartbeat IPC: 0.615475 cumulative IPC: 0.632544 (Simulation time: 0 hr 2 min 53 sec) 
Heartbeat CPU 0 instructions: 130000000 cycles: 101851845 heartbeat IPC: 0.648841 cumulative IPC: 0.637885 (Simulation time: 0 hr 3 min 13 sec) 
Heartbeat CPU 0 instructions: 140000000 cycles: 116974496 heartbeat IPC: 0.66126 cumulative IPC: 0.643572 (Simulation time: 0 hr 3 min 32 sec) 
Heartbeat CPU 0 instructions: 150000000 cycles: 132699090 heartbeat IPC: 0.635946 cumulative IPC: 0.642033 (Simulation time: 0 hr 3 min 52 sec) 
Heartbeat CPU 0 instructions: 160000000 cycles: 148778583 heartbeat IPC: 0.62191 cumulative IPC: 0.638589 (Simulation time: 0 hr 4 min 12 sec) 
Heartbeat CPU 0 instructions: 170000001 cycles: 164650439 heartbeat IPC: 0.630046 cumulative IPC: 0.637354 (Simulation time: 0 hr 4 min 31 sec) 
Heartbeat CPU 0 instructions: 180000000 cycles: 180458374 heartbeat IPC: 0.632594 cumulative IPC: 0.636755 (Simulation time: 0 hr 4 min 51 sec) 
Heartbeat CPU 0 instructions: 190000002 cycles: 195636231 heartbeat IPC: 0.658855 cumulative IPC: 0.639137 (Simulation time: 0 hr 5 min 11 sec) 
Heartbeat CPU 0 instructions: 200000000 cycles: 210659112 heartbeat IPC: 0.665651 cumulative IPC: 0.641693 (Simulation time: 0 hr 5 min 30 sec) 
Heartbeat CPU 0 instructions: 210000003 cycles: 225927193 heartbeat IPC: 0.654961 cumulative IPC: 0.642877 (Simulation time: 0 hr 5 min 50 sec) 
Heartbeat CPU 0 instructions: 220000000 cycles: 241212668 heartbeat IPC: 0.654216 cumulative IPC: 0.643807 (Simulation time: 0 hr 6 min 10 sec) 
Heartbeat CPU 0 instructions: 230000001 cycles: 257111840 heartbeat IPC: 0.628964 cumulative IPC: 0.64264 (Simulation time: 0 hr 6 min 30 sec) 
Heartbeat CPU 0 instructions: 240000000 cycles: 272787643 heartbeat IPC: 0.637926 cumulative IPC: 0.642301 (Simulation time: 0 hr 6 min 49 sec) 
Heartbeat CPU 0 instructions: 250000003 cycles: 288219790 heartbeat IPC: 0.647998 cumulative IPC: 0.642678 (Simulation time: 0 hr 7 min 8 sec) 
Heartbeat CPU 0 instructions: 260000000 cycles: 304456415 heartbeat IPC: 0.615891 cumulative IPC: 0.640936 (Simulation time: 0 hr 7 min 28 sec) 
Heartbeat CPU 0 instructions: 270000001 cycles: 319569075 heartbeat IPC: 0.661697 cumulative IPC: 0.642121 (Simulation time: 0 hr 7 min 48 sec) 
Heartbeat CPU 0 instructions: 280000000 cycles: 334540709 heartbeat IPC: 0.66793 cumulative IPC: 0.643502 (Simulation time: 0 hr 8 min 7 sec) 
Heartbeat CPU 0 instructions: 290000002 cycles: 349409800 heartbeat IPC: 0.672536 cumulative IPC: 0.644968 (Simulation time: 0 hr 8 min 27 sec) 
Heartbeat CPU 0 instructions: 300000000 cycles: 365524209 heartbeat IPC: 0.620562 cumulative IPC: 0.643702 (Simulation time: 0 hr 8 min 47 sec) 
Heartbeat CPU 0 instructions: 310000000 cycles: 381080557 heartbeat IPC: 0.642824 cumulative IPC: 0.64366 (Simulation time: 0 hr 9 min 7 sec) 
Heartbeat CPU 0 instructions: 320000000 cycles: 396345797 heartbeat IPC: 0.655083 cumulative IPC: 0.644171 (Simulation time: 0 hr 9 min 26 sec) 
Heartbeat CPU 0 instructions: 330000000 cycles: 412731180 heartbeat IPC: 0.6103 cumulative IPC: 0.64262 (Simulation time: 0 hr 9 min 46 sec) 
Heartbeat CPU 0 instructions: 340000000 cycles: 427817796 heartbeat IPC: 0.662839 cumulative IPC: 0.643438 (Simulation time: 0 hr 10 min 5 sec) 
Heartbeat CPU 0 instructions: 350000000 cycles: 442764674 heartbeat IPC: 0.669036 cumulative IPC: 0.644424 (Simulation time: 0 hr 10 min 24 sec) 
Heartbeat CPU 0 instructions: 360000000 cycles: 457812090 heartbeat IPC: 0.664566 cumulative IPC: 0.645176 (Simulation time: 0 hr 10 min 43 sec) 
Heartbeat CPU 0 instructions: 370000002 cycles: 473747291 heartbeat IPC: 0.627542 cumulative IPC: 0.644505 (Simulation time: 0 hr 11 min 3 sec) 
Heartbeat CPU 0 instructions: 380000000 cycles: 488995897 heartbeat IPC: 0.655798 cumulative IPC: 0.644902 (Simulation time: 0 hr 11 min 23 sec) 
Heartbeat CPU 0 instructions: 390000003 cycles: 504282384 heartbeat IPC: 0.654173 cumulative IPC: 0.645217 (Simulation time: 0 hr 11 min 42 sec) 
Heartbeat CPU 0 instructions: 400000000 cycles: 520603300 heartbeat IPC: 0.612711 cumulative IPC: 0.644078 (Simulation time: 0 hr 12 min 2 sec) 
Heartbeat CPU 0 instructions: 410000001 cycles: 535963038 heartbeat IPC: 0.651053 cumulative IPC: 0.644301 (Simulation time: 0 hr 12 min 21 sec) 
Heartbeat CPU 0 instructions: 420000000 cycles: 551053145 heartbeat IPC: 0.662686 cumulative IPC: 0.64486 (Simulation time: 0 hr 12 min 40 sec) 
Heartbeat CPU 0 instructions: 430000000 cycles: 566872961 heartbeat IPC: 0.632119 cumulative IPC: 0.644466 (Simulation time: 0 hr 12 min 59 sec) 
Heartbeat CPU 0 instructions: 440000000 cycles: 581949944 heartbeat IPC: 0.663263 cumulative IPC: 0.645004 (Simulation time: 0 hr 13 min 18 sec) 
Heartbeat CPU 0 instructions: 450000000 cycles: 597199876 heartbeat IPC: 0.655741 cumulative IPC: 0.645306 (Simulation time: 0 hr 13 min 37 sec) 
Heartbeat CPU 0 instructions: 460000000 cycles: 613389018 heartbeat IPC: 0.617698 cumulative IPC: 0.644506 (Simulation time: 0 hr 13 min 57 sec) 
Heartbeat CPU 0 instructions: 470000000 cycles: 628719721 heartbeat IPC: 0.652286 cumulative IPC: 0.644714 (Simulation time: 0 hr 14 min 15 sec) 
Heartbeat CPU 0 instructions: 480000000 cycles: 643856826 heartbeat IPC: 0.660628 cumulative IPC: 0.645123 (Simulation time: 0 hr 14 min 34 sec) 
Heartbeat CPU 0 instructions: 490000002 cycles: 659356675 heartbeat IPC: 0.645168 cumulative IPC: 0.645124 (Simulation time: 0 hr 14 min 54 sec) 
Heartbeat CPU 0 instructions: 500000000 cycles: 674406027 heartbeat IPC: 0.66448 cumulative IPC: 0.645594 (Simulation time: 0 hr 15 min 13 sec) 
Heartbeat CPU 0 instructions: 510000001 cycles: 689709775 heartbeat IPC: 0.653435 cumulative IPC: 0.645783 (Simulation time: 0 hr 15 min 32 sec) 
Heartbeat CPU 0 instructions: 520000000 cycles: 705443047 heartbeat IPC: 0.635596 cumulative IPC: 0.645536 (Simulation time: 0 hr 15 min 51 sec) 
Heartbeat CPU 0 instructions: 530000001 cycles: 721053761 heartbeat IPC: 0.640586 cumulative IPC: 0.64542 (Simulation time: 0 hr 16 min 10 sec) 
Heartbeat CPU 0 instructions: 540000000 cycles: 735806565 heartbeat IPC: 0.677837 cumulative IPC: 0.646123 (Simulation time: 0 hr 16 min 29 sec) 
Heartbeat CPU 0 instructions: 550000001 cycles: 751221896 heartbeat IPC: 0.648705 cumulative IPC: 0.64618 (Simulation time: 0 hr 16 min 48 sec) 
Heartbeat CPU 0 instructions: 560000000 cycles: 766117669 heartbeat IPC: 0.671331 cumulative IPC: 0.646707 (Simulation time: 0 hr 17 min 6 sec) 
Heartbeat CPU 0 instructions: 570000002 cycles: 781436940 heartbeat IPC: 0.652773 cumulative IPC: 0.646834 (Simulation time: 0 hr 17 min 25 sec) 
Heartbeat CPU 0 instructions: 580000000 cycles: 796618977 heartbeat IPC: 0.658673 cumulative IPC: 0.647077 (Simulation time: 0 hr 17 min 44 sec) 
Heartbeat CPU 0 instructions: 590000001 cycles: 811734974 heartbeat IPC: 0.661551 cumulative IPC: 0.647366 (Simulation time: 0 hr 18 min 2 sec) 
Heartbeat CPU 0 instructions: 600000000 cycles: 826516319 heartbeat IPC: 0.676528 cumulative IPC: 0.647924 (Simulation time: 0 hr 18 min 21 sec) 
Finished CPU 0 instructions: 500000000 cycles: 771694913 cumulative IPC: 0.647924 (Simulation time: 0 hr 18 min 21 sec) 

CPU 0 Branch Prediction Accuracy: 93.7783% MPKI: 10.0718
Number of Branches: 80940586 Number of Mispredictions: 5035908
Number of LOAD Instructions: 184238101
Number of LOAD Instructions (ROI): 184238101
Number of STORE Instructions: 33143298
Number of STORE Instructions (ROI): 33143298
Total Destination Memory Operands: 33324321
Total Destination Memory Operands (ROI): 33324321
Total Source Memory Operands: 184238101
Total Source Memory Operands (ROI): 184238101
Number of DEPENDED LOADS: 4457876
Number of DEPENDED LOADS (ROI): 4457876
Number of SQ_ADDED: 33324292
Number of SQ_ADDED (ROI): 33324292
Number of LQ_ADDED: 184883757
Number of LQ_ADDED (ROI): 184883757
Number of Instructions read from trace: 600000256

ChampSim completed all CPUs

Region of Interest Statistics

CPU 0 cumulative IPC: 0.647924 instructions: 500000000 cycles: 771694913
ITLB TOTAL     ACCESS:   77763097  HIT:   77763097  MISS:          0
ITLB LOAD      ACCESS:   77763097  HIT:   77763097  MISS:          0
ITLB RFO       ACCESS:          0  HIT:          0  MISS:          0
ITLB PREFETCH  ACCESS:          0  HIT:          0  MISS:          0
ITLB WRITEBACK ACCESS:          0  HIT:          0  MISS:          0
ITLB PREFETCH  REQUESTED:          0  ISSUED:          0  USEFUL:          0  USELESS:          0
ITLB TOTAL MSHR MERGED:          0
ITLB LOAD MSHR MERGED:          0
ITLB RFO MSHR MERGED:          0
ITLB PREFETCH MSHR MERGED:          0
ITLB WRITEBACK MSHR MERGED:          0
ITLB TOTAL ACCESSES:   77763097 HITS:   77763097 MISSES:          0
ITLB LOAD ACCESSES:   77763097 HITS:   77763097 MISSES:          0
ITLB RFO ACCESSES:          0 HITS:          0 MISSES:          0
ITLB PREFETCH ACCESSES:          0 HITS:          0 MISSES:          0
ITLB WRITEBACK ACCESSES:          0 HITS:          0 MISSES:          0
ITLB RQ ACCESS:  500000245
ITLB RQ TO_CACHE:   77763097
ITLB RQ MERGED:  422237148
ITLB RQ FORWARD:          0
ITLB WQ ACCESS:          0
ITLB WQ TO_CACHE:          0
ITLB WQ MERGED:          0
ITLB WQ FORWARD:          0
DTLB TOTAL     ACCESS:   88447580  HIT:   87310735  MISS:    1136845
DTLB LOAD      ACCESS:   66318817  HIT:   65186212  MISS:    1132605
DTLB RFO       ACCESS:   22128763  HIT:   22124523  MISS:       4240
DTLB PREFETCH  ACCESS:          0  HIT:          0  MISS:          0
DTLB WRITEBACK ACCESS:          0  HIT:          0  MISS:          0
DTLB PREFETCH  REQUESTED:          0  ISSUED:          0  USEFUL:          0  USELESS:          0
DTLB TOTAL MSHR MERGED:     135697
DTLB LOAD MSHR MERGED:     133880
DTLB RFO MSHR MERGED:       1817
DTLB PREFETCH MSHR MERGED:          0
DTLB WRITEBACK MSHR MERGED:          0
DTLB TOTAL ACCESSES:   88583277 HITS:   87310735 MISSES:    1272542
DTLB LOAD ACCESSES:   66452697 HITS:   65186212 MISSES:    1266485
DTLB RFO ACCESSES:   22130580 HITS:   22124523 MISSES:       6057
DTLB PREFETCH ACCESSES:          0 HITS:          0 MISSES:          0
DTLB WRITEBACK ACCESSES:          0 HITS:          0 MISSES:          0
DTLB RQ ACCESS:  177582936
DTLB RQ TO_CACHE:   88583277
DTLB RQ MERGED:   88999659
DTLB RQ FORWARD:          0
DTLB WQ ACCESS:          0
DTLB WQ TO_CACHE:          0
DTLB WQ MERGED:          0
DTLB WQ FORWARD:          0
L1D TOTAL     ACCESS:  142162966  HIT:  136603897  MISS:    5559069
L1D LOAD      ACCESS:   61389981  HIT:   58300689  MISS:    3089292
L1D RFO       ACCESS:   27669756  HIT:   27588191  MISS:      81565
L1D PREFETCH  ACCESS:   53103229  HIT:   50715017  MISS:    2388212
L1D WRITEBACK ACCESS:          0  HIT:          0  MISS:          0
L1D PREFETCH  REQUESTED:   61681575  ISSUED:   60763385  USEFUL:     681324  USELESS:    1706893
L1D TOTAL MSHR MERGED:    1136067
L1D LOAD MSHR MERGED:     375309
L1D RFO MSHR MERGED:     163211
L1D PREFETCH MSHR MERGED:     597547
L1D WRITEBACK MSHR MERGED:          0
L1D TOTAL ACCESSES:  143396548 HITS:  136701412 MISSES:    6695136
L1D LOAD ACCESSES:   61681586 HITS:   58300700 MISSES:    3380886
L1D RFO ACCESSES:   27829174 HITS:   27588191 MISSES:     240983
L1D PREFETCH ACCESSES:   53885788 HITS:   50812521 MISSES:    3073267
L1D WRITEBACK ACCESSES:          0 HITS:          0 MISSES:          0
L1D RQ ACCESS:  149749970
L1D RQ TO_CACHE:   61681575
L1D RQ MERGED:   88068384
L1D RQ FORWARD:          0
L1D WQ ACCESS:   27832966
L1D WQ TO_CACHE:   27829174
L1D WQ MERGED:       3792
L1D WQ FORWARD:      97515
L1I TOTAL     ACCESS:   96238482  HIT:   96079157  MISS:     159325
L1I LOAD      ACCESS:   96238482  HIT:   96079157  MISS:     159325
L1I RFO       ACCESS:          0  HIT:          0  MISS:          0
L1I PREFETCH  ACCESS:          0  HIT:          0  MISS:          0
L1I WRITEBACK ACCESS:          0  HIT:          0  MISS:          0
L1I PREFETCH  REQUESTED:          0  ISSUED:          0  USEFUL:          0  USELESS:          0
L1I TOTAL MSHR MERGED:     131016
L1I LOAD MSHR MERGED:     131016
L1I RFO MSHR MERGED:          0
L1I PREFETCH MSHR MERGED:          0
L1I WRITEBACK MSHR MERGED:          0
L1I TOTAL ACCESSES:   96369498 HITS:   96079157 MISSES:     290341
L1I LOAD ACCESSES:   96369498 HITS:   96079157 MISSES:     290341
L1I RFO ACCESSES:          0 HITS:          0 MISSES:          0
L1I PREFETCH ACCESSES:          0 HITS:          0 MISSES:          0
L1I WRITEBACK ACCESSES:          0 HITS:          0 MISSES:          0
L1I RQ ACCESS:  500000245
L1I RQ TO_CACHE:   96369498
L1I RQ MERGED:  403630747
L1I RQ FORWARD:          0
L1I WQ ACCESS:          0
L1I WQ TO_CACHE:          0
L1I WQ MERGED:          0
L1I WQ FORWARD:          0
L2C TOTAL     ACCESS:    5912540  HIT:    3063847  MISS:    2848693
L2C LOAD      ACCESS:    3164892  HIT:    1583674  MISS:    1581218
L2C RFO       ACCESS:      77696  HIT:      44925  MISS:      32771
L2C PREFETCH  ACCESS:    2526412  HIT:    1297291  MISS:    1229121
L2C WRITEBACK ACCESS:     143540  HIT:     137957  MISS:       5583
L2C PREFETCH  REQUESTED:      52728  ISSUED:      52728  USEFUL:      19350  USELESS:    1209811
L2C TOTAL MSHR MERGED:       1090
L2C LOAD MSHR MERGED:        298
L2C RFO MSHR MERGED:          0
L2C PREFETCH MSHR MERGED:        792
L2C WRITEBACK MSHR MERGED:          0
L2C TOTAL ACCESSES:    5913738 HITS:    3063933 MISSES:    2849805
L2C LOAD ACCESSES:    3164902 HITS:    1583684 MISSES:    1581218
L2C RFO ACCESSES:      77772 HITS:      45001 MISSES:      32771
L2C PREFETCH ACCESSES:    2527524 HITS:    1297291 MISSES:    1230233
L2C WRITEBACK ACCESSES:     143540 HITS:     137957 MISSES:       5583
L2C RQ ACCESS:    3242674
L2C RQ TO_CACHE:    3242588
L2C RQ MERGED:          0
L2C RQ FORWARD:          0
L2C WQ ACCESS:     143540
L2C WQ TO_CACHE:     143540
L2C WQ MERGED:          0
L2C WQ FORWARD:         86
LLC TOTAL     ACCESS:    2892667  HIT:    1689384  MISS:    1203283
LLC LOAD      ACCESS:    1580920  HIT:     908018  MISS:     672902
LLC RFO       ACCESS:      32761  HIT:      32411  MISS:        350
LLC PREFETCH  ACCESS:    1229441  HIT:     700028  MISS:     529413
LLC WRITEBACK ACCESS:      49545  HIT:      48927  MISS:        618
LLC PREFETCH  REQUESTED:          0  ISSUED:          0  USEFUL:       3694  USELESS:     519934
LLC TOTAL MSHR MERGED:          0
LLC LOAD MSHR MERGED:          0
LLC RFO MSHR MERGED:          0
LLC PREFETCH MSHR MERGED:          0
LLC WRITEBACK MSHR MERGED:          0
LLC TOTAL ACCESSES:    2892677 HITS:    1689394 MISSES:    1203283
LLC LOAD ACCESSES:    1580920 HITS:     908018 MISSES:     672902
LLC RFO ACCESSES:      32771 HITS:      32421 MISSES:        350
LLC PREFETCH ACCESSES:    1229441 HITS:     700028 MISSES:     529413
LLC WRITEBACK ACCESSES:      49545 HITS:      48927 MISSES:        618
LLC 0 RQ ACCESS:    1613691
LLC 0 RQ TO_CACHE:    1613681
LLC 0 RQ MERGED:          0
LLC 0 RQ FORWARD:          0
LLC WQ ACCESS:      49545
LLC WQ TO_CACHE:      49545
LLC WQ MERGED:          0
LLC WQ FORWARD:         10
Major fault: 0 Minor fault: 8460
CPU 0 L1D next line prefetcher final stats
CPU 0 L2C PC-based stride prefetcher final stats
All Misses: 1607230
All Hits: 1822035
SD Algo Stats - Switches: 0 SRR-Repls: 868130 BRR-Repls: 0

DRAM Statistics
 CHANNEL 0
 RQ ROW_BUFFER_HIT:     418483  ROW_BUFFER_MISS:     783949
 DBUS_CONGESTED:     427527
 WQ ROW_BUFFER_HIT:         83  ROW_BUFFER_MISS:        539  FULL:          0

 AVG_CONGESTED_CYCLE: 12
LOADS RETIRED: 153532848
INSTR RETIRED: 500000000
