
*** ChampSim Multicore Out-of-Order Simulator ***

Warmup Instructions: 100000000
Simulation Instructions: 500000000
Number of CPUs: 1
LLC sets: 2048
LLC ways: 16
Clean RRIP Policies: 2313210323132103 Dirty RRIP Policies: 2303110323031103 PSEL Width: 10 Track Set: 4294967295 PSEL Mask: 1 Demote Mask: 4330130143301301DS Algo: 0Window size: 0
Off-chip DRAM Size: 4096 MB Channels: 1 Width: 64-bit Data Rate: 1600 MT/s

CPU 0 runs /mnt/beegfs/iconst01/spec2017/Fotonik3d.trace.gz
NOT SORTED
TRACE STRING: /mnt/beegfs/iconst01/spec2017/Fotonik3d.trace.gz
SORTED
TRACE STRING: /mnt/beegfs/iconst01/spec2017/Fotonik3d.trace.gz
INITIAL
TRACE STRING: /mnt/beegfs/iconst01/spec2017/Fotonik3d.trace.gz

champsim_seed used: 881

CPU 0 L1D next line prefetcher
CPU 0 L2C IP-based stride prefetcher
Initialize DRRIP state
Assign rand_sets[0]: 454  LLC: 2048
rand_sets[0]: 454
Assign rand_sets[1]: 1662  LLC: 2048
rand_sets[1]: 1662
Assign rand_sets[2]: 1921  LLC: 2048
rand_sets[2]: 1921
Assign rand_sets[3]: 1131  LLC: 2048
rand_sets[3]: 1131
Assign rand_sets[4]: 331  LLC: 2048
rand_sets[4]: 331
Assign rand_sets[5]: 1531  LLC: 2048
rand_sets[5]: 1531
Assign rand_sets[6]: 482  LLC: 2048
rand_sets[6]: 482
Assign rand_sets[7]: 1275  LLC: 2048
rand_sets[7]: 1275
Assign rand_sets[8]: 1876  LLC: 2048
rand_sets[8]: 1876
Assign rand_sets[9]: 2038  LLC: 2048
rand_sets[9]: 2038
Assign rand_sets[10]: 701  LLC: 2048
rand_sets[10]: 701
Assign rand_sets[11]: 479  LLC: 2048
rand_sets[11]: 479
Assign rand_sets[12]: 892  LLC: 2048
rand_sets[12]: 892
Assign rand_sets[13]: 1820  LLC: 2048
rand_sets[13]: 1820
Assign rand_sets[14]: 1505  LLC: 2048
rand_sets[14]: 1505
Assign rand_sets[15]: 1159  LLC: 2048
rand_sets[15]: 1159
Assign rand_sets[16]: 513  LLC: 2048
rand_sets[16]: 513
Assign rand_sets[17]: 703  LLC: 2048
rand_sets[17]: 703
Assign rand_sets[18]: 561  LLC: 2048
rand_sets[18]: 561
Assign rand_sets[19]: 990  LLC: 2048
rand_sets[19]: 990
Assign rand_sets[20]: 342  LLC: 2048
rand_sets[20]: 342
Assign rand_sets[21]: 882  LLC: 2048
rand_sets[21]: 882
Assign rand_sets[22]: 15  LLC: 2048
rand_sets[22]: 15
Assign rand_sets[23]: 71  LLC: 2048
rand_sets[23]: 71
Assign rand_sets[24]: 1127  LLC: 2048
rand_sets[24]: 1127
Assign rand_sets[25]: 1382  LLC: 2048
rand_sets[25]: 1382
Assign rand_sets[26]: 647  LLC: 2048
rand_sets[26]: 647
Assign rand_sets[27]: 857  LLC: 2048
rand_sets[27]: 857
Assign rand_sets[28]: 1450  LLC: 2048
rand_sets[28]: 1450
Assign rand_sets[29]: 1160  LLC: 2048
rand_sets[29]: 1160
Assign rand_sets[30]: 1852  LLC: 2048
rand_sets[30]: 1852
Assign rand_sets[31]: 1881  LLC: 2048
rand_sets[31]: 1881
Assign rand_sets[32]: 1770  LLC: 2048
rand_sets[32]: 1770
Assign rand_sets[33]: 1622  LLC: 2048
rand_sets[33]: 1622
Assign rand_sets[34]: 275  LLC: 2048
rand_sets[34]: 275
Assign rand_sets[35]: 635  LLC: 2048
rand_sets[35]: 635
Assign rand_sets[36]: 466  LLC: 2048
rand_sets[36]: 466
Assign rand_sets[37]: 1413  LLC: 2048
rand_sets[37]: 1413
Assign rand_sets[38]: 417  LLC: 2048
rand_sets[38]: 417
Assign rand_sets[39]: 472  LLC: 2048
rand_sets[39]: 472
Assign rand_sets[40]: 1340  LLC: 2048
rand_sets[40]: 1340
Assign rand_sets[41]: 852  LLC: 2048
rand_sets[41]: 852
Assign rand_sets[42]: 1365  LLC: 2048
rand_sets[42]: 1365
Assign rand_sets[43]: 47  LLC: 2048
rand_sets[43]: 47
Assign rand_sets[44]: 823  LLC: 2048
rand_sets[44]: 823
Assign rand_sets[45]: 686  LLC: 2048
rand_sets[45]: 686
Assign rand_sets[46]: 1637  LLC: 2048
rand_sets[46]: 1637
Assign rand_sets[47]: 1115  LLC: 2048
rand_sets[47]: 1115
Assign rand_sets[48]: 986  LLC: 2048
rand_sets[48]: 986
Assign rand_sets[49]: 258  LLC: 2048
rand_sets[49]: 258
Assign rand_sets[50]: 633  LLC: 2048
rand_sets[50]: 633
Assign rand_sets[51]: 920  LLC: 2048
rand_sets[51]: 920
Assign rand_sets[52]: 204  LLC: 2048
rand_sets[52]: 204
Assign rand_sets[53]: 227  LLC: 2048
rand_sets[53]: 227
Assign rand_sets[54]: 1818  LLC: 2048
rand_sets[54]: 1818
Assign rand_sets[55]: 886  LLC: 2048
rand_sets[55]: 886
Assign rand_sets[56]: 1422  LLC: 2048
rand_sets[56]: 1422
Assign rand_sets[57]: 607  LLC: 2048
rand_sets[57]: 607
Assign rand_sets[58]: 217  LLC: 2048
rand_sets[58]: 217
Assign rand_sets[59]: 1945  LLC: 2048
rand_sets[59]: 1945
Assign rand_sets[60]: 143  LLC: 2048
rand_sets[60]: 143
Assign rand_sets[61]: 1311  LLC: 2048
rand_sets[61]: 1311
Assign rand_sets[62]: 319  LLC: 2048
rand_sets[62]: 319
Assign rand_sets[63]: 1846  LLC: 2048
rand_sets[63]: 1846
 CLEAN-RRIP-POLICY-1: 2-3-1-3-2-1-0-3- CLEAN-RRIP-POLICY-2: 2-3-1-3-2-1-0-3-
 DIRTY-RRIP-POLICY-1: 2-3-0-3-1-1-0-3- DIRTY-RRIP-POLICY-2: 2-3-0-3-1-1-0-3-
 PSEL width: 10
Heartbeat CPU 0 instructions: 10000002 cycles: 7306870 heartbeat IPC: 1.36858 cumulative IPC: 1.36858 (Simulation time: 0 hr 0 min 25 sec) 
Heartbeat CPU 0 instructions: 20000000 cycles: 14613972 heartbeat IPC: 1.36853 cumulative IPC: 1.36855 (Simulation time: 0 hr 0 min 49 sec) 
Heartbeat CPU 0 instructions: 30000001 cycles: 21920938 heartbeat IPC: 1.36856 cumulative IPC: 1.36855 (Simulation time: 0 hr 1 min 14 sec) 
Heartbeat CPU 0 instructions: 40000000 cycles: 29227780 heartbeat IPC: 1.36858 cumulative IPC: 1.36856 (Simulation time: 0 hr 1 min 39 sec) 
Heartbeat CPU 0 instructions: 50000001 cycles: 36534579 heartbeat IPC: 1.36859 cumulative IPC: 1.36857 (Simulation time: 0 hr 2 min 4 sec) 
Heartbeat CPU 0 instructions: 60000000 cycles: 43841646 heartbeat IPC: 1.36854 cumulative IPC: 1.36856 (Simulation time: 0 hr 2 min 29 sec) 
Heartbeat CPU 0 instructions: 70000002 cycles: 51148503 heartbeat IPC: 1.36858 cumulative IPC: 1.36856 (Simulation time: 0 hr 2 min 54 sec) 
Heartbeat CPU 0 instructions: 80000000 cycles: 58455311 heartbeat IPC: 1.36859 cumulative IPC: 1.36857 (Simulation time: 0 hr 3 min 19 sec) 
Heartbeat CPU 0 instructions: 90000003 cycles: 65765970 heartbeat IPC: 1.36787 cumulative IPC: 1.36849 (Simulation time: 0 hr 3 min 45 sec) 
Heartbeat CPU 0 instructions: 100000000 cycles: 73076655 heartbeat IPC: 1.36786 cumulative IPC: 1.36843 (Simulation time: 0 hr 4 min 10 sec) 

Warmup complete CPU 0 instructions: 100000002 cycles: 73076667 (Simulation time: 0 hr 4 min 10 sec) 

Heartbeat CPU 0 instructions: 110000001 cycles: 85570498 heartbeat IPC: 0.800394 cumulative IPC: 0.800395 (Simulation time: 0 hr 4 min 41 sec) 
Heartbeat CPU 0 instructions: 120000000 cycles: 98010584 heartbeat IPC: 0.803853 cumulative IPC: 0.80212 (Simulation time: 0 hr 5 min 11 sec) 
Heartbeat CPU 0 instructions: 130000000 cycles: 110523938 heartbeat IPC: 0.799146 cumulative IPC: 0.801126 (Simulation time: 0 hr 5 min 41 sec) 
Heartbeat CPU 0 instructions: 140000000 cycles: 123004317 heartbeat IPC: 0.801258 cumulative IPC: 0.801159 (Simulation time: 0 hr 6 min 12 sec) 
Heartbeat CPU 0 instructions: 150000000 cycles: 135450239 heartbeat IPC: 0.803476 cumulative IPC: 0.801622 (Simulation time: 0 hr 6 min 42 sec) 
Heartbeat CPU 0 instructions: 160000000 cycles: 147926731 heartbeat IPC: 0.801507 cumulative IPC: 0.801602 (Simulation time: 0 hr 7 min 12 sec) 
Heartbeat CPU 0 instructions: 170000001 cycles: 160419526 heartbeat IPC: 0.800461 cumulative IPC: 0.801439 (Simulation time: 0 hr 7 min 43 sec) 
Heartbeat CPU 0 instructions: 180000000 cycles: 172914736 heartbeat IPC: 0.800307 cumulative IPC: 0.801298 (Simulation time: 0 hr 8 min 13 sec) 
Heartbeat CPU 0 instructions: 190000002 cycles: 185427596 heartbeat IPC: 0.799178 cumulative IPC: 0.801061 (Simulation time: 0 hr 8 min 43 sec) 
Heartbeat CPU 0 instructions: 200000000 cycles: 197907461 heartbeat IPC: 0.801291 cumulative IPC: 0.801084 (Simulation time: 0 hr 9 min 14 sec) 
Heartbeat CPU 0 instructions: 210000002 cycles: 210437708 heartbeat IPC: 0.798069 cumulative IPC: 0.800809 (Simulation time: 0 hr 9 min 44 sec) 
Heartbeat CPU 0 instructions: 220000000 cycles: 222970189 heartbeat IPC: 0.797926 cumulative IPC: 0.800568 (Simulation time: 0 hr 10 min 15 sec) 
Heartbeat CPU 0 instructions: 230000002 cycles: 235449129 heartbeat IPC: 0.80135 cumulative IPC: 0.800628 (Simulation time: 0 hr 10 min 45 sec) 
Heartbeat CPU 0 instructions: 240000000 cycles: 248608638 heartbeat IPC: 0.759907 cumulative IPC: 0.797575 (Simulation time: 0 hr 11 min 16 sec) 
Heartbeat CPU 0 instructions: 250000001 cycles: 266763343 heartbeat IPC: 0.550821 cumulative IPC: 0.774447 (Simulation time: 0 hr 11 min 50 sec) 
Heartbeat CPU 0 instructions: 260000000 cycles: 284898157 heartbeat IPC: 0.551426 cumulative IPC: 0.755353 (Simulation time: 0 hr 12 min 23 sec) 
Heartbeat CPU 0 instructions: 270000000 cycles: 303098906 heartbeat IPC: 0.549428 cumulative IPC: 0.739059 (Simulation time: 0 hr 12 min 56 sec) 
Heartbeat CPU 0 instructions: 280000000 cycles: 321242535 heartbeat IPC: 0.551158 cumulative IPC: 0.725321 (Simulation time: 0 hr 13 min 29 sec) 
Heartbeat CPU 0 instructions: 290000001 cycles: 351778602 heartbeat IPC: 0.327482 cumulative IPC: 0.681732 (Simulation time: 0 hr 14 min 11 sec) 
Heartbeat CPU 0 instructions: 300000000 cycles: 391960271 heartbeat IPC: 0.24887 cumulative IPC: 0.627188 (Simulation time: 0 hr 14 min 59 sec) 
Heartbeat CPU 0 instructions: 310000000 cycles: 409549312 heartbeat IPC: 0.568536 cumulative IPC: 0.624122 (Simulation time: 0 hr 15 min 31 sec) 
Heartbeat CPU 0 instructions: 320000000 cycles: 427058211 heartbeat IPC: 0.571138 cumulative IPC: 0.621501 (Simulation time: 0 hr 16 min 4 sec) 
Heartbeat CPU 0 instructions: 330000003 cycles: 444695825 heartbeat IPC: 0.56697 cumulative IPC: 0.618913 (Simulation time: 0 hr 16 min 35 sec) 
Heartbeat CPU 0 instructions: 340000000 cycles: 462214590 heartbeat IPC: 0.570816 cumulative IPC: 0.616748 (Simulation time: 0 hr 17 min 7 sec) 
Heartbeat CPU 0 instructions: 350000001 cycles: 477802969 heartbeat IPC: 0.641504 cumulative IPC: 0.617701 (Simulation time: 0 hr 17 min 37 sec) 
Heartbeat CPU 0 instructions: 360000000 cycles: 489618452 heartbeat IPC: 0.846347 cumulative IPC: 0.624187 (Simulation time: 0 hr 18 min 4 sec) 
Heartbeat CPU 0 instructions: 370000002 cycles: 501189580 heartbeat IPC: 0.86422 cumulative IPC: 0.630675 (Simulation time: 0 hr 18 min 31 sec) 
Heartbeat CPU 0 instructions: 380000000 cycles: 512985073 heartbeat IPC: 0.847781 cumulative IPC: 0.636496 (Simulation time: 0 hr 18 min 59 sec) 
Heartbeat CPU 0 instructions: 390000003 cycles: 526211380 heartbeat IPC: 0.756069 cumulative IPC: 0.639986 (Simulation time: 0 hr 19 min 27 sec) 
Heartbeat CPU 0 instructions: 400000000 cycles: 538422652 heartbeat IPC: 0.818915 cumulative IPC: 0.644682 (Simulation time: 0 hr 19 min 54 sec) 
Heartbeat CPU 0 instructions: 410000001 cycles: 550323019 heartbeat IPC: 0.84031 cumulative IPC: 0.64956 (Simulation time: 0 hr 20 min 22 sec) 
Heartbeat CPU 0 instructions: 420000000 cycles: 563092889 heartbeat IPC: 0.783093 cumulative IPC: 0.65304 (Simulation time: 0 hr 20 min 50 sec) 
Heartbeat CPU 0 instructions: 430000003 cycles: 581501450 heartbeat IPC: 0.543226 cumulative IPC: 0.649064 (Simulation time: 0 hr 21 min 15 sec) 
Heartbeat CPU 0 instructions: 440000000 cycles: 599885576 heartbeat IPC: 0.543947 cumulative IPC: 0.645395 (Simulation time: 0 hr 21 min 40 sec) 
Heartbeat CPU 0 instructions: 450000003 cycles: 618312352 heartbeat IPC: 0.542689 cumulative IPC: 0.641924 (Simulation time: 0 hr 22 min 5 sec) 
Heartbeat CPU 0 instructions: 460000000 cycles: 636687736 heartbeat IPC: 0.544206 cumulative IPC: 0.638738 (Simulation time: 0 hr 22 min 30 sec) 
Heartbeat CPU 0 instructions: 470000003 cycles: 655101518 heartbeat IPC: 0.543072 cumulative IPC: 0.635712 (Simulation time: 0 hr 22 min 55 sec) 
Heartbeat CPU 0 instructions: 480000000 cycles: 673507022 heartbeat IPC: 0.543316 cumulative IPC: 0.632879 (Simulation time: 0 hr 23 min 21 sec) 
Heartbeat CPU 0 instructions: 490000003 cycles: 691964459 heartbeat IPC: 0.541787 cumulative IPC: 0.630163 (Simulation time: 0 hr 23 min 46 sec) 
Heartbeat CPU 0 instructions: 500000000 cycles: 710293486 heartbeat IPC: 0.545583 cumulative IPC: 0.62773 (Simulation time: 0 hr 24 min 11 sec) 
Heartbeat CPU 0 instructions: 510000003 cycles: 728706724 heartbeat IPC: 0.543088 cumulative IPC: 0.625353 (Simulation time: 0 hr 24 min 36 sec) 
Heartbeat CPU 0 instructions: 520000000 cycles: 747101505 heartbeat IPC: 0.543632 cumulative IPC: 0.623122 (Simulation time: 0 hr 25 min 1 sec) 
Heartbeat CPU 0 instructions: 530000001 cycles: 765520819 heartbeat IPC: 0.542908 cumulative IPC: 0.620989 (Simulation time: 0 hr 25 min 26 sec) 
Heartbeat CPU 0 instructions: 540000000 cycles: 783888565 heartbeat IPC: 0.544433 cumulative IPC: 0.61901 (Simulation time: 0 hr 25 min 51 sec) 
Heartbeat CPU 0 instructions: 550000001 cycles: 802217454 heartbeat IPC: 0.545587 cumulative IPC: 0.617165 (Simulation time: 0 hr 26 min 16 sec) 
Heartbeat CPU 0 instructions: 560000000 cycles: 820581599 heartbeat IPC: 0.544539 cumulative IPC: 0.615381 (Simulation time: 0 hr 26 min 42 sec) 
Heartbeat CPU 0 instructions: 570000001 cycles: 838936845 heartbeat IPC: 0.544803 cumulative IPC: 0.613689 (Simulation time: 0 hr 27 min 7 sec) 
Heartbeat CPU 0 instructions: 580000000 cycles: 857193032 heartbeat IPC: 0.547759 cumulative IPC: 0.612154 (Simulation time: 0 hr 27 min 32 sec) 
Heartbeat CPU 0 instructions: 590000001 cycles: 875543959 heartbeat IPC: 0.544932 cumulative IPC: 0.610617 (Simulation time: 0 hr 27 min 57 sec) 
Heartbeat CPU 0 instructions: 600000000 cycles: 893923886 heartbeat IPC: 0.544072 cumulative IPC: 0.609127 (Simulation time: 0 hr 28 min 22 sec) 
Finished CPU 0 instructions: 500000002 cycles: 820847233 cumulative IPC: 0.609127 (Simulation time: 0 hr 28 min 22 sec) 

CPU 0 Branch Prediction Accuracy: 99.5931% MPKI: 0.08288
Number of Branches: 10184133 Number of Mispredictions: 41440
Number of LOAD Instructions: 261155957
Number of LOAD Instructions (ROI): 261155957
Number of STORE Instructions: 57884062
Number of STORE Instructions (ROI): 57884062
Total Destination Memory Operands: 83293336
Total Destination Memory Operands (ROI): 83293336
Total Source Memory Operands: 261155957
Total Source Memory Operands (ROI): 261155957
Number of DEPENDED LOADS: 22256700
Number of DEPENDED LOADS (ROI): 22256700
Number of SQ_ADDED: 83293300
Number of SQ_ADDED (ROI): 83293300
Number of LQ_ADDED: 1778921546
Number of LQ_ADDED (ROI): 1778921546
Number of Instructions read from trace: 600000257

ChampSim completed all CPUs

Region of Interest Statistics

CPU 0 cumulative IPC: 0.609127 instructions: 500000002 cycles: 820847233
ITLB TOTAL     ACCESS:   95018023  HIT:   95017985  MISS:         38
ITLB LOAD      ACCESS:   95018023  HIT:   95017985  MISS:         38
ITLB RFO       ACCESS:          0  HIT:          0  MISS:          0
ITLB PREFETCH  ACCESS:          0  HIT:          0  MISS:          0
ITLB WRITEBACK ACCESS:          0  HIT:          0  MISS:          0
ITLB PREFETCH  REQUESTED:          0  ISSUED:          0  USEFUL:          0  USELESS:          0
ITLB TOTAL MSHR MERGED:         93
ITLB LOAD MSHR MERGED:         93
ITLB RFO MSHR MERGED:          0
ITLB PREFETCH MSHR MERGED:          0
ITLB WRITEBACK MSHR MERGED:          0
ITLB TOTAL ACCESSES:   95018116 HITS:   95017985 MISSES:        131
ITLB LOAD ACCESSES:   95018116 HITS:   95017985 MISSES:        131
ITLB RFO ACCESSES:          0 HITS:          0 MISSES:          0
ITLB PREFETCH ACCESSES:          0 HITS:          0 MISSES:          0
ITLB WRITEBACK ACCESSES:          0 HITS:          0 MISSES:          0
ITLB RQ ACCESS:  500000001
ITLB RQ TO_CACHE:   95018117
ITLB RQ MERGED:  404981884
ITLB RQ FORWARD:          0
ITLB WQ ACCESS:          0
ITLB WQ TO_CACHE:          0
ITLB WQ MERGED:          0
ITLB WQ FORWARD:          0
DTLB TOTAL     ACCESS:  149282509  HIT:  148685548  MISS:     596961
DTLB LOAD      ACCESS:  107405801  HIT:  106808851  MISS:     596950
DTLB RFO       ACCESS:   41876708  HIT:   41876697  MISS:         11
DTLB PREFETCH  ACCESS:          0  HIT:          0  MISS:          0
DTLB WRITEBACK ACCESS:          0  HIT:          0  MISS:          0
DTLB PREFETCH  REQUESTED:          0  ISSUED:          0  USEFUL:          0  USELESS:          0
DTLB TOTAL MSHR MERGED:     133700
DTLB LOAD MSHR MERGED:     133700
DTLB RFO MSHR MERGED:          0
DTLB PREFETCH MSHR MERGED:          0
DTLB WRITEBACK MSHR MERGED:          0
DTLB TOTAL ACCESSES:  149416209 HITS:  148685548 MISSES:     730661
DTLB LOAD ACCESSES:  107539501 HITS:  106808851 MISSES:     730650
DTLB RFO ACCESSES:   41876708 HITS:   41876697 MISSES:         11
DTLB PREFETCH ACCESSES:          0 HITS:          0 MISSES:          0
DTLB WRITEBACK ACCESSES:          0 HITS:          0 MISSES:          0
DTLB RQ ACCESS:  259759197
DTLB RQ TO_CACHE:  149416209
DTLB RQ MERGED:  110342988
DTLB RQ FORWARD:          0
DTLB WQ ACCESS:          0
DTLB WQ TO_CACHE:          0
DTLB WQ MERGED:          0
DTLB WQ FORWARD:          0
L1D TOTAL     ACCESS:  261661383  HIT:  246175899  MISS:   15485484
L1D LOAD      ACCESS:  118112778  HIT:  112654400  MISS:    5458378
L1D RFO       ACCESS:   68946867  HIT:   68932462  MISS:      14405
L1D PREFETCH  ACCESS:   74601738  HIT:   64589037  MISS:   10012701
L1D WRITEBACK ACCESS:          0  HIT:          0  MISS:          0
L1D PREFETCH  REQUESTED:  120681136  ISSUED:  119437246  USEFUL:    8054164  USELESS:    1958559
L1D TOTAL MSHR MERGED:   16405035
L1D LOAD MSHR MERGED:    4973108
L1D RFO MSHR MERGED:      21704
L1D PREFETCH MSHR MERGED:   11410223
L1D WRITEBACK MSHR MERGED:          0
L1D TOTAL ACCESSES:  278176479 HITS:  246285960 MISSES:   31890519
L1D LOAD ACCESSES:  120688663 HITS:  112661927 MISSES:    8026736
L1D RFO ACCESSES:   68968570 HITS:   68932462 MISSES:      36108
L1D PREFETCH ACCESSES:   88519246 HITS:   64691571 MISSES:   23827675
L1D WRITEBACK ACCESSES:          0 HITS:          0 MISSES:          0
L1D RQ ACCESS:  190684881
L1D RQ TO_CACHE:  120681136
L1D RQ MERGED:   69996218
L1D RQ FORWARD:          0
L1D WQ ACCESS:   69074336
L1D WQ TO_CACHE:   68968572
L1D WQ MERGED:     105764
L1D WQ FORWARD:     110061
L1I TOTAL     ACCESS:  121883312  HIT:  121882239  MISS:       1073
L1I LOAD      ACCESS:  121883312  HIT:  121882239  MISS:       1073
L1I RFO       ACCESS:          0  HIT:          0  MISS:          0
L1I PREFETCH  ACCESS:          0  HIT:          0  MISS:          0
L1I WRITEBACK ACCESS:          0  HIT:          0  MISS:          0
L1I PREFETCH  REQUESTED:          0  ISSUED:          0  USEFUL:          0  USELESS:          0
L1I TOTAL MSHR MERGED:       1121
L1I LOAD MSHR MERGED:       1121
L1I RFO MSHR MERGED:          0
L1I PREFETCH MSHR MERGED:          0
L1I WRITEBACK MSHR MERGED:          0
L1I TOTAL ACCESSES:  121884433 HITS:  121882239 MISSES:       2194
L1I LOAD ACCESSES:  121884433 HITS:  121882239 MISSES:       2194
L1I RFO ACCESSES:          0 HITS:          0 MISSES:          0
L1I PREFETCH ACCESSES:          0 HITS:          0 MISSES:          0
L1I WRITEBACK ACCESSES:          0 HITS:          0 MISSES:          0
L1I RQ ACCESS:  500000000
L1I RQ TO_CACHE:  121884433
L1I RQ MERGED:  378115567
L1I RQ FORWARD:          0
L1I WQ ACCESS:          0
L1I WQ TO_CACHE:          0
L1I WQ MERGED:          0
L1I WQ FORWARD:          0
L2C TOTAL     ACCESS:   22489145  HIT:    9083974  MISS:   13405171
L2C LOAD      ACCESS:    3054672  HIT:     375430  MISS:    2679242
L2C RFO       ACCESS:      14404  HIT:      13989  MISS:        415
L2C PREFETCH  ACCESS:   12790157  HIT:    2066437  MISS:   10723720
L2C WRITEBACK ACCESS:    6629912  HIT:    6628118  MISS:       1794
L2C PREFETCH  REQUESTED:     579076  ISSUED:     579076  USEFUL:     154416  USELESS:   10570099
L2C TOTAL MSHR MERGED:      50789
L2C LOAD MSHR MERGED:      17426
L2C RFO MSHR MERGED:          0
L2C PREFETCH MSHR MERGED:      33363
L2C WRITEBACK MSHR MERGED:          0
L2C TOTAL ACCESSES:   22663496 HITS:    9084012 MISSES:   13579484
L2C LOAD ACCESSES:    3054701 HITS:     375459 MISSES:    2679242
L2C RFO ACCESSES:      14404 HITS:      13989 MISSES:        415
L2C PREFETCH ACCESSES:   12964479 HITS:    2066446 MISSES:   10898033
L2C WRITEBACK ACCESSES:    6629912 HITS:    6628118 MISSES:       1794
L2C RQ ACCESS:    3069105
L2C RQ TO_CACHE:    3069076
L2C RQ MERGED:          0
L2C RQ FORWARD:          0
L2C WQ ACCESS:    6629912
L2C WQ TO_CACHE:    6629912
L2C WQ MERGED:          0
L2C WQ FORWARD:         38
LLC TOTAL     ACCESS:   20100492  HIT:     359199  MISS:   19741293
LLC LOAD      ACCESS:    2661816  HIT:      59854  MISS:    2601962
LLC RFO       ACCESS:        415  HIT:         24  MISS:        391
LLC PREFETCH  ACCESS:   10846996  HIT:     126248  MISS:   10720748
LLC WRITEBACK ACCESS:    6591265  HIT:     173073  MISS:    6418192
LLC PREFETCH  REQUESTED:          0  ISSUED:          0  USEFUL:      47040  USELESS:   10660464
LLC TOTAL MSHR MERGED:      16453
LLC LOAD MSHR MERGED:       8512
LLC RFO MSHR MERGED:          0
LLC PREFETCH MSHR MERGED:       7941
LLC WRITEBACK MSHR MERGED:          0
LLC TOTAL ACCESSES:   20116946 HITS:     359199 MISSES:   19757747
LLC LOAD ACCESSES:    2661816 HITS:      59854 MISSES:    2601962
LLC RFO ACCESSES:        415 HITS:         24 MISSES:        391
LLC PREFETCH ACCESSES:   10863450 HITS:     126248 MISSES:   10737202
LLC WRITEBACK ACCESSES:    6591265 HITS:     173073 MISSES:    6418192
LLC 0 RQ ACCESS:    2662231
LLC 0 RQ TO_CACHE:    2662231
LLC 0 RQ MERGED:          0
LLC 0 RQ FORWARD:          0
LLC WQ ACCESS:    6591266
LLC WQ TO_CACHE:    6591266
LLC WQ MERGED:          0
LLC WQ FORWARD:          0
Major fault: 0 Minor fault: 183991
CPU 0 L1D next line prefetcher final stats
CPU 0 L2C PC-based stride prefetcher final stats
All Misses: 22665441
All Hits: 366097
SD Algo Stats - Switches: 329 SRR-Repls: 1822919 BRR-Repls: 836449

DRAM Statistics
 CHANNEL 0
 RQ ROW_BUFFER_HIT:    7484487  ROW_BUFFER_MISS:    5838615
 DBUS_CONGESTED:   11995931
 WQ ROW_BUFFER_HIT:    2693510  ROW_BUFFER_MISS:    3881771  FULL:          0

 AVG_CONGESTED_CYCLE: 13
LOADS RETIRED: 204440772
INSTR RETIRED: 500000000
