
*** ChampSim Multicore Out-of-Order Simulator ***

Warmup Instructions: 100000000
Simulation Instructions: 500000000
Number of CPUs: 1
LLC sets: 2048
LLC ways: 16
Clean RRIP Policies: 2313210323132103 Dirty RRIP Policies: 2303110323031103 PSEL Width: 10 Track Set: 4294967295 PSEL Mask: 1 Demote Mask: 4330130143301301DS Algo: 0Window size: 0
Off-chip DRAM Size: 4096 MB Channels: 1 Width: 64-bit Data Rate: 1600 MT/s

CPU 0 runs /mnt/beegfs/iconst01/spec2017/Wrf.trace.gz
NOT SORTED
TRACE STRING: /mnt/beegfs/iconst01/spec2017/Wrf.trace.gz
SORTED
TRACE STRING: /mnt/beegfs/iconst01/spec2017/Wrf.trace.gz
INITIAL
TRACE STRING: /mnt/beegfs/iconst01/spec2017/Wrf.trace.gz

champsim_seed used: 303

CPU 0 L1D next line prefetcher
CPU 0 L2C IP-based stride prefetcher
Initialize DRRIP state
Assign rand_sets[0]: 454  LLC: 2048
rand_sets[0]: 454
Assign rand_sets[1]: 1662  LLC: 2048
rand_sets[1]: 1662
Assign rand_sets[2]: 1921  LLC: 2048
rand_sets[2]: 1921
Assign rand_sets[3]: 1131  LLC: 2048
rand_sets[3]: 1131
Assign rand_sets[4]: 331  LLC: 2048
rand_sets[4]: 331
Assign rand_sets[5]: 1531  LLC: 2048
rand_sets[5]: 1531
Assign rand_sets[6]: 482  LLC: 2048
rand_sets[6]: 482
Assign rand_sets[7]: 1275  LLC: 2048
rand_sets[7]: 1275
Assign rand_sets[8]: 1876  LLC: 2048
rand_sets[8]: 1876
Assign rand_sets[9]: 2038  LLC: 2048
rand_sets[9]: 2038
Assign rand_sets[10]: 701  LLC: 2048
rand_sets[10]: 701
Assign rand_sets[11]: 479  LLC: 2048
rand_sets[11]: 479
Assign rand_sets[12]: 892  LLC: 2048
rand_sets[12]: 892
Assign rand_sets[13]: 1820  LLC: 2048
rand_sets[13]: 1820
Assign rand_sets[14]: 1505  LLC: 2048
rand_sets[14]: 1505
Assign rand_sets[15]: 1159  LLC: 2048
rand_sets[15]: 1159
Assign rand_sets[16]: 513  LLC: 2048
rand_sets[16]: 513
Assign rand_sets[17]: 703  LLC: 2048
rand_sets[17]: 703
Assign rand_sets[18]: 561  LLC: 2048
rand_sets[18]: 561
Assign rand_sets[19]: 990  LLC: 2048
rand_sets[19]: 990
Assign rand_sets[20]: 342  LLC: 2048
rand_sets[20]: 342
Assign rand_sets[21]: 882  LLC: 2048
rand_sets[21]: 882
Assign rand_sets[22]: 15  LLC: 2048
rand_sets[22]: 15
Assign rand_sets[23]: 71  LLC: 2048
rand_sets[23]: 71
Assign rand_sets[24]: 1127  LLC: 2048
rand_sets[24]: 1127
Assign rand_sets[25]: 1382  LLC: 2048
rand_sets[25]: 1382
Assign rand_sets[26]: 647  LLC: 2048
rand_sets[26]: 647
Assign rand_sets[27]: 857  LLC: 2048
rand_sets[27]: 857
Assign rand_sets[28]: 1450  LLC: 2048
rand_sets[28]: 1450
Assign rand_sets[29]: 1160  LLC: 2048
rand_sets[29]: 1160
Assign rand_sets[30]: 1852  LLC: 2048
rand_sets[30]: 1852
Assign rand_sets[31]: 1881  LLC: 2048
rand_sets[31]: 1881
Assign rand_sets[32]: 1770  LLC: 2048
rand_sets[32]: 1770
Assign rand_sets[33]: 1622  LLC: 2048
rand_sets[33]: 1622
Assign rand_sets[34]: 275  LLC: 2048
rand_sets[34]: 275
Assign rand_sets[35]: 635  LLC: 2048
rand_sets[35]: 635
Assign rand_sets[36]: 466  LLC: 2048
rand_sets[36]: 466
Assign rand_sets[37]: 1413  LLC: 2048
rand_sets[37]: 1413
Assign rand_sets[38]: 417  LLC: 2048
rand_sets[38]: 417
Assign rand_sets[39]: 472  LLC: 2048
rand_sets[39]: 472
Assign rand_sets[40]: 1340  LLC: 2048
rand_sets[40]: 1340
Assign rand_sets[41]: 852  LLC: 2048
rand_sets[41]: 852
Assign rand_sets[42]: 1365  LLC: 2048
rand_sets[42]: 1365
Assign rand_sets[43]: 47  LLC: 2048
rand_sets[43]: 47
Assign rand_sets[44]: 823  LLC: 2048
rand_sets[44]: 823
Assign rand_sets[45]: 686  LLC: 2048
rand_sets[45]: 686
Assign rand_sets[46]: 1637  LLC: 2048
rand_sets[46]: 1637
Assign rand_sets[47]: 1115  LLC: 2048
rand_sets[47]: 1115
Assign rand_sets[48]: 986  LLC: 2048
rand_sets[48]: 986
Assign rand_sets[49]: 258  LLC: 2048
rand_sets[49]: 258
Assign rand_sets[50]: 633  LLC: 2048
rand_sets[50]: 633
Assign rand_sets[51]: 920  LLC: 2048
rand_sets[51]: 920
Assign rand_sets[52]: 204  LLC: 2048
rand_sets[52]: 204
Assign rand_sets[53]: 227  LLC: 2048
rand_sets[53]: 227
Assign rand_sets[54]: 1818  LLC: 2048
rand_sets[54]: 1818
Assign rand_sets[55]: 886  LLC: 2048
rand_sets[55]: 886
Assign rand_sets[56]: 1422  LLC: 2048
rand_sets[56]: 1422
Assign rand_sets[57]: 607  LLC: 2048
rand_sets[57]: 607
Assign rand_sets[58]: 217  LLC: 2048
rand_sets[58]: 217
Assign rand_sets[59]: 1945  LLC: 2048
rand_sets[59]: 1945
Assign rand_sets[60]: 143  LLC: 2048
rand_sets[60]: 143
Assign rand_sets[61]: 1311  LLC: 2048
rand_sets[61]: 1311
Assign rand_sets[62]: 319  LLC: 2048
rand_sets[62]: 319
Assign rand_sets[63]: 1846  LLC: 2048
rand_sets[63]: 1846
 CLEAN-RRIP-POLICY-1: 2-3-1-3-2-1-0-3- CLEAN-RRIP-POLICY-2: 2-3-1-3-2-1-0-3-
 DIRTY-RRIP-POLICY-1: 2-3-0-3-1-1-0-3- DIRTY-RRIP-POLICY-2: 2-3-0-3-1-1-0-3-
 PSEL width: 10
Heartbeat CPU 0 instructions: 10000002 cycles: 6559583 heartbeat IPC: 1.52449 cumulative IPC: 1.52449 (Simulation time: 0 hr 0 min 22 sec) 
Heartbeat CPU 0 instructions: 20000000 cycles: 12222260 heartbeat IPC: 1.76595 cumulative IPC: 1.63636 (Simulation time: 0 hr 0 min 42 sec) 
Heartbeat CPU 0 instructions: 30000003 cycles: 18204099 heartbeat IPC: 1.67173 cumulative IPC: 1.64798 (Simulation time: 0 hr 1 min 3 sec) 
Heartbeat CPU 0 instructions: 40000000 cycles: 24059421 heartbeat IPC: 1.70785 cumulative IPC: 1.66255 (Simulation time: 0 hr 1 min 24 sec) 
Heartbeat CPU 0 instructions: 50000000 cycles: 29528424 heartbeat IPC: 1.82849 cumulative IPC: 1.69328 (Simulation time: 0 hr 1 min 45 sec) 
Heartbeat CPU 0 instructions: 60000000 cycles: 35641202 heartbeat IPC: 1.63592 cumulative IPC: 1.68344 (Simulation time: 0 hr 2 min 7 sec) 
Heartbeat CPU 0 instructions: 70000000 cycles: 41360920 heartbeat IPC: 1.74834 cumulative IPC: 1.69242 (Simulation time: 0 hr 2 min 28 sec) 
Heartbeat CPU 0 instructions: 80000000 cycles: 47231846 heartbeat IPC: 1.70331 cumulative IPC: 1.69377 (Simulation time: 0 hr 2 min 49 sec) 
Heartbeat CPU 0 instructions: 90000000 cycles: 52985377 heartbeat IPC: 1.73806 cumulative IPC: 1.69858 (Simulation time: 0 hr 3 min 10 sec) 
Heartbeat CPU 0 instructions: 100000000 cycles: 58538460 heartbeat IPC: 1.8008 cumulative IPC: 1.70828 (Simulation time: 0 hr 3 min 31 sec) 

Warmup complete CPU 0 instructions: 100000004 cycles: 58538462 (Simulation time: 0 hr 3 min 31 sec) 

Heartbeat CPU 0 instructions: 110000001 cycles: 72898440 heartbeat IPC: 0.69638 cumulative IPC: 0.69638 (Simulation time: 0 hr 3 min 58 sec) 
Heartbeat CPU 0 instructions: 120000000 cycles: 85516467 heartbeat IPC: 0.792517 cumulative IPC: 0.741345 (Simulation time: 0 hr 4 min 24 sec) 
Heartbeat CPU 0 instructions: 130000000 cycles: 96003282 heartbeat IPC: 0.953578 cumulative IPC: 0.800751 (Simulation time: 0 hr 4 min 47 sec) 
Heartbeat CPU 0 instructions: 140000000 cycles: 107251202 heartbeat IPC: 0.889053 cumulative IPC: 0.82114 (Simulation time: 0 hr 5 min 12 sec) 
Heartbeat CPU 0 instructions: 150000002 cycles: 118566867 heartbeat IPC: 0.883731 cumulative IPC: 0.832939 (Simulation time: 0 hr 5 min 36 sec) 
Heartbeat CPU 0 instructions: 160000000 cycles: 127653457 heartbeat IPC: 1.10052 cumulative IPC: 0.868118 (Simulation time: 0 hr 5 min 59 sec) 
Heartbeat CPU 0 instructions: 170000003 cycles: 138284458 heartbeat IPC: 0.940645 cumulative IPC: 0.877787 (Simulation time: 0 hr 6 min 23 sec) 
Heartbeat CPU 0 instructions: 180000000 cycles: 151259209 heartbeat IPC: 0.770727 cumulative IPC: 0.862806 (Simulation time: 0 hr 6 min 48 sec) 
Heartbeat CPU 0 instructions: 190000000 cycles: 166330202 heartbeat IPC: 0.663526 cumulative IPC: 0.834943 (Simulation time: 0 hr 7 min 13 sec) 
Heartbeat CPU 0 instructions: 200000000 cycles: 181400987 heartbeat IPC: 0.663535 cumulative IPC: 0.813918 (Simulation time: 0 hr 7 min 38 sec) 
Heartbeat CPU 0 instructions: 210000000 cycles: 196453457 heartbeat IPC: 0.664343 cumulative IPC: 0.797593 (Simulation time: 0 hr 8 min 3 sec) 
Heartbeat CPU 0 instructions: 220000000 cycles: 212225195 heartbeat IPC: 0.634046 cumulative IPC: 0.780809 (Simulation time: 0 hr 8 min 30 sec) 
Heartbeat CPU 0 instructions: 230000003 cycles: 231364576 heartbeat IPC: 0.522483 cumulative IPC: 0.752201 (Simulation time: 0 hr 9 min 0 sec) 
Heartbeat CPU 0 instructions: 240000000 cycles: 240994611 heartbeat IPC: 1.03842 cumulative IPC: 0.767308 (Simulation time: 0 hr 9 min 22 sec) 
Heartbeat CPU 0 instructions: 250000000 cycles: 250453682 heartbeat IPC: 1.05719 cumulative IPC: 0.781595 (Simulation time: 0 hr 9 min 45 sec) 
Heartbeat CPU 0 instructions: 260000000 cycles: 260817506 heartbeat IPC: 0.964895 cumulative IPC: 0.790987 (Simulation time: 0 hr 10 min 8 sec) 
Heartbeat CPU 0 instructions: 270000000 cycles: 271164674 heartbeat IPC: 0.966448 cumulative IPC: 0.799525 (Simulation time: 0 hr 10 min 32 sec) 
Heartbeat CPU 0 instructions: 280000000 cycles: 280751038 heartbeat IPC: 1.04315 cumulative IPC: 0.810035 (Simulation time: 0 hr 10 min 57 sec) 
Heartbeat CPU 0 instructions: 290000000 cycles: 290844031 heartbeat IPC: 0.990786 cumulative IPC: 0.817888 (Simulation time: 0 hr 11 min 22 sec) 
Heartbeat CPU 0 instructions: 300000000 cycles: 299663912 heartbeat IPC: 1.1338 cumulative IPC: 0.829444 (Simulation time: 0 hr 11 min 45 sec) 
Heartbeat CPU 0 instructions: 310000002 cycles: 313874570 heartbeat IPC: 0.703697 cumulative IPC: 0.822445 (Simulation time: 0 hr 12 min 12 sec) 
Heartbeat CPU 0 instructions: 320000000 cycles: 330172517 heartbeat IPC: 0.613574 cumulative IPC: 0.809913 (Simulation time: 0 hr 12 min 41 sec) 
Heartbeat CPU 0 instructions: 330000002 cycles: 340856439 heartbeat IPC: 0.935986 cumulative IPC: 0.814684 (Simulation time: 0 hr 13 min 5 sec) 
Heartbeat CPU 0 instructions: 340000000 cycles: 351694726 heartbeat IPC: 0.922655 cumulative IPC: 0.818676 (Simulation time: 0 hr 13 min 30 sec) 
Heartbeat CPU 0 instructions: 350000002 cycles: 364912769 heartbeat IPC: 0.756542 cumulative IPC: 0.815995 (Simulation time: 0 hr 13 min 57 sec) 
Heartbeat CPU 0 instructions: 360000000 cycles: 376175817 heartbeat IPC: 0.887859 cumulative IPC: 0.818543 (Simulation time: 0 hr 14 min 21 sec) 
Heartbeat CPU 0 instructions: 370000000 cycles: 387028167 heartbeat IPC: 0.921459 cumulative IPC: 0.821944 (Simulation time: 0 hr 14 min 45 sec) 
Heartbeat CPU 0 instructions: 380000000 cycles: 397451889 heartbeat IPC: 0.95935 cumulative IPC: 0.82617 (Simulation time: 0 hr 15 min 10 sec) 
Heartbeat CPU 0 instructions: 390000001 cycles: 415064357 heartbeat IPC: 0.56778 cumulative IPC: 0.813405 (Simulation time: 0 hr 15 min 39 sec) 
Heartbeat CPU 0 instructions: 400000000 cycles: 427715754 heartbeat IPC: 0.790426 cumulative IPC: 0.812618 (Simulation time: 0 hr 16 min 4 sec) 
Heartbeat CPU 0 instructions: 410000002 cycles: 438434395 heartbeat IPC: 0.932954 cumulative IPC: 0.816013 (Simulation time: 0 hr 16 min 26 sec) 
Heartbeat CPU 0 instructions: 420000000 cycles: 448645358 heartbeat IPC: 0.979339 cumulative IPC: 0.820288 (Simulation time: 0 hr 16 min 49 sec) 
Heartbeat CPU 0 instructions: 430000001 cycles: 458696098 heartbeat IPC: 0.994952 cumulative IPC: 0.824675 (Simulation time: 0 hr 17 min 11 sec) 
Heartbeat CPU 0 instructions: 440000000 cycles: 470620970 heartbeat IPC: 0.838583 cumulative IPC: 0.825077 (Simulation time: 0 hr 17 min 34 sec) 
Heartbeat CPU 0 instructions: 450000002 cycles: 485697418 heartbeat IPC: 0.663286 cumulative IPC: 0.819367 (Simulation time: 0 hr 17 min 58 sec) 
Heartbeat CPU 0 instructions: 460000000 cycles: 500762689 heartbeat IPC: 0.663778 cumulative IPC: 0.814067 (Simulation time: 0 hr 18 min 22 sec) 
Heartbeat CPU 0 instructions: 470000003 cycles: 515811225 heartbeat IPC: 0.664517 cumulative IPC: 0.809145 (Simulation time: 0 hr 18 min 46 sec) 
Heartbeat CPU 0 instructions: 480000000 cycles: 531635784 heartbeat IPC: 0.631929 cumulative IPC: 0.803217 (Simulation time: 0 hr 19 min 12 sec) 
Heartbeat CPU 0 instructions: 490000002 cycles: 550879070 heartbeat IPC: 0.519662 cumulative IPC: 0.792135 (Simulation time: 0 hr 19 min 41 sec) 
Heartbeat CPU 0 instructions: 500000000 cycles: 560445960 heartbeat IPC: 1.04527 cumulative IPC: 0.79696 (Simulation time: 0 hr 20 min 3 sec) 
Heartbeat CPU 0 instructions: 510000002 cycles: 569944583 heartbeat IPC: 1.05278 cumulative IPC: 0.801711 (Simulation time: 0 hr 20 min 25 sec) 
Heartbeat CPU 0 instructions: 520000000 cycles: 580286706 heartbeat IPC: 0.966919 cumulative IPC: 0.804986 (Simulation time: 0 hr 20 min 48 sec) 
Heartbeat CPU 0 instructions: 530000002 cycles: 590689284 heartbeat IPC: 0.9613 cumulative IPC: 0.808042 (Simulation time: 0 hr 21 min 11 sec) 
Heartbeat CPU 0 instructions: 540000000 cycles: 600229004 heartbeat IPC: 1.04825 cumulative IPC: 0.812272 (Simulation time: 0 hr 21 min 35 sec) 
Heartbeat CPU 0 instructions: 550000002 cycles: 610354412 heartbeat IPC: 0.987615 cumulative IPC: 0.815489 (Simulation time: 0 hr 21 min 59 sec) 
Heartbeat CPU 0 instructions: 560000000 cycles: 619186051 heartbeat IPC: 1.13229 cumulative IPC: 0.82048 (Simulation time: 0 hr 22 min 21 sec) 
Heartbeat CPU 0 instructions: 570000001 cycles: 633221468 heartbeat IPC: 0.712483 cumulative IPC: 0.817842 (Simulation time: 0 hr 22 min 48 sec) 
Heartbeat CPU 0 instructions: 580000000 cycles: 649676918 heartbeat IPC: 0.607701 cumulative IPC: 0.811993 (Simulation time: 0 hr 23 min 16 sec) 
Heartbeat CPU 0 instructions: 590000002 cycles: 659843245 heartbeat IPC: 0.98364 cumulative IPC: 0.814895 (Simulation time: 0 hr 23 min 40 sec) 
Heartbeat CPU 0 instructions: 600000000 cycles: 671192072 heartbeat IPC: 0.881148 cumulative IPC: 0.816122 (Simulation time: 0 hr 24 min 4 sec) 
Finished CPU 0 instructions: 500000000 cycles: 612653629 cumulative IPC: 0.816122 (Simulation time: 0 hr 24 min 4 sec) 

CPU 0 Branch Prediction Accuracy: 99.5219% MPKI: 0.251582
Number of Branches: 26312578 Number of Mispredictions: 125791
Number of LOAD Instructions: 235643083
Number of LOAD Instructions (ROI): 235643083
Number of STORE Instructions: 37593550
Number of STORE Instructions (ROI): 37593550
Total Destination Memory Operands: 40480968
Total Destination Memory Operands (ROI): 40480968
Total Source Memory Operands: 235643083
Total Source Memory Operands (ROI): 235643083
Number of DEPENDED LOADS: 6700668
Number of DEPENDED LOADS (ROI): 6700668
Number of SQ_ADDED: 40480950
Number of SQ_ADDED (ROI): 40480950
Number of LQ_ADDED: 391592887
Number of LQ_ADDED (ROI): 391592887
Number of Instructions read from trace: 600000259

ChampSim completed all CPUs

Region of Interest Statistics

CPU 0 cumulative IPC: 0.816122 instructions: 500000000 cycles: 612653629
ITLB TOTAL     ACCESS:  109370514  HIT:  109370001  MISS:        513
ITLB LOAD      ACCESS:  109370514  HIT:  109370001  MISS:        513
ITLB RFO       ACCESS:          0  HIT:          0  MISS:          0
ITLB PREFETCH  ACCESS:          0  HIT:          0  MISS:          0
ITLB WRITEBACK ACCESS:          0  HIT:          0  MISS:          0
ITLB PREFETCH  REQUESTED:          0  ISSUED:          0  USEFUL:          0  USELESS:          0
ITLB TOTAL MSHR MERGED:        967
ITLB LOAD MSHR MERGED:        967
ITLB RFO MSHR MERGED:          0
ITLB PREFETCH MSHR MERGED:          0
ITLB WRITEBACK MSHR MERGED:          0
ITLB TOTAL ACCESSES:  109371481 HITS:  109370001 MISSES:       1480
ITLB LOAD ACCESSES:  109371481 HITS:  109370001 MISSES:       1480
ITLB RFO ACCESSES:          0 HITS:          0 MISSES:          0
ITLB PREFETCH ACCESSES:          0 HITS:          0 MISSES:          0
ITLB WRITEBACK ACCESSES:          0 HITS:          0 MISSES:          0
ITLB RQ ACCESS:  500000003
ITLB RQ TO_CACHE:  109371481
ITLB RQ MERGED:  390628522
ITLB RQ FORWARD:          0
ITLB WQ ACCESS:          0
ITLB WQ TO_CACHE:          0
ITLB WQ MERGED:          0
ITLB WQ FORWARD:          0
DTLB TOTAL     ACCESS:  130401994  HIT:  130144433  MISS:     257561
DTLB LOAD      ACCESS:  109054823  HIT:  108834054  MISS:     220769
DTLB RFO       ACCESS:   21347171  HIT:   21310379  MISS:      36792
DTLB PREFETCH  ACCESS:          0  HIT:          0  MISS:          0
DTLB WRITEBACK ACCESS:          0  HIT:          0  MISS:          0
DTLB PREFETCH  REQUESTED:          0  ISSUED:          0  USEFUL:          0  USELESS:          0
DTLB TOTAL MSHR MERGED:     121605
DTLB LOAD MSHR MERGED:      83715
DTLB RFO MSHR MERGED:      37890
DTLB PREFETCH MSHR MERGED:          0
DTLB WRITEBACK MSHR MERGED:          0
DTLB TOTAL ACCESSES:  130523599 HITS:  130144433 MISSES:     379166
DTLB LOAD ACCESSES:  109138538 HITS:  108834054 MISSES:     304484
DTLB RFO ACCESSES:   21385061 HITS:   21310379 MISSES:      74682
DTLB PREFETCH ACCESSES:          0 HITS:          0 MISSES:          0
DTLB WRITEBACK ACCESSES:          0 HITS:          0 MISSES:          0
DTLB RQ ACCESS:  218633774
DTLB RQ TO_CACHE:  130523600
DTLB RQ MERGED:   88110174
DTLB RQ FORWARD:          0
DTLB WQ ACCESS:          0
DTLB WQ TO_CACHE:          0
DTLB WQ MERGED:          0
DTLB WQ FORWARD:          0
L1D TOTAL     ACCESS:  204607798  HIT:  193550063  MISS:   11057735
L1D LOAD      ACCESS:  106231840  HIT:  103028024  MISS:    3203816
L1D RFO       ACCESS:   26999659  HIT:   25245555  MISS:    1754104
L1D PREFETCH  ACCESS:   71376299  HIT:   65276484  MISS:    6099815
L1D WRITEBACK ACCESS:          0  HIT:          0  MISS:          0
L1D PREFETCH  REQUESTED:  108959504  ISSUED:  107269652  USEFUL:    5663362  USELESS:     436447
L1D TOTAL MSHR MERGED:   18462281
L1D LOAD MSHR MERGED:    4773336
L1D RFO MSHR MERGED:    6435683
L1D PREFETCH MSHR MERGED:    7253262
L1D WRITEBACK MSHR MERGED:          0
L1D TOTAL ACCESSES:  223133459 HITS:  193613443 MISSES:   29520016
L1D LOAD ACCESSES:  108986333 HITS:  103054853 MISSES:    5931480
L1D RFO ACCESSES:   33432298 HITS:   25245555 MISSES:    8186743
L1D PREFETCH ACCESSES:   80714828 HITS:   65313035 MISSES:   15401793
L1D WRITEBACK ACCESSES:          0 HITS:          0 MISSES:          0
L1D RQ ACCESS:  184990336
L1D RQ TO_CACHE:  108959504
L1D RQ MERGED:   76004003
L1D RQ FORWARD:          0
L1D WQ ACCESS:   33643426
L1D WQ TO_CACHE:   33432297
L1D WQ MERGED:     211129
L1D WQ FORWARD:      63380
L1I TOTAL     ACCESS:  134058249  HIT:  134033671  MISS:      24578
L1I LOAD      ACCESS:  134058249  HIT:  134033671  MISS:      24578
L1I RFO       ACCESS:          0  HIT:          0  MISS:          0
L1I PREFETCH  ACCESS:          0  HIT:          0  MISS:          0
L1I WRITEBACK ACCESS:          0  HIT:          0  MISS:          0
L1I PREFETCH  REQUESTED:          0  ISSUED:          0  USEFUL:          0  USELESS:          0
L1I TOTAL MSHR MERGED:      30489
L1I LOAD MSHR MERGED:      30489
L1I RFO MSHR MERGED:          0
L1I PREFETCH MSHR MERGED:          0
L1I WRITEBACK MSHR MERGED:          0
L1I TOTAL ACCESSES:  134088738 HITS:  134033671 MISSES:      55067
L1I LOAD ACCESSES:  134088738 HITS:  134033671 MISSES:      55067
L1I RFO ACCESSES:          0 HITS:          0 MISSES:          0
L1I PREFETCH ACCESSES:          0 HITS:          0 MISSES:          0
L1I WRITEBACK ACCESSES:          0 HITS:          0 MISSES:          0
L1I RQ ACCESS:  500000005
L1I RQ TO_CACHE:  134088738
L1I RQ MERGED:  365911267
L1I RQ FORWARD:          0
L1I WQ ACCESS:          0
L1I WQ TO_CACHE:          0
L1I WQ MERGED:          0
L1I WQ FORWARD:          0
L2C TOTAL     ACCESS:   14918178  HIT:    6940302  MISS:    7977876
L2C LOAD      ACCESS:    1182516  HIT:     298002  MISS:     884514
L2C RFO       ACCESS:    1750852  HIT:     369352  MISS:    1381500
L2C PREFETCH  ACCESS:    8303167  HIT:    2599988  MISS:    5703179
L2C WRITEBACK ACCESS:    3681643  HIT:    3672960  MISS:       8683
L2C PREFETCH  REQUESTED:     385796  ISSUED:     385796  USEFUL:     113532  USELESS:    5590476
L2C TOTAL MSHR MERGED:      39423
L2C LOAD MSHR MERGED:       1937
L2C RFO MSHR MERGED:       1247
L2C PREFETCH MSHR MERGED:      36239
L2C WRITEBACK MSHR MERGED:          0
L2C TOTAL ACCESSES:   15089035 HITS:    6940989 MISSES:    8148046
L2C LOAD ACCESSES:    1182722 HITS:     298208 MISSES:     884514
L2C RFO ACCESSES:    1751060 HITS:     369560 MISSES:    1381500
L2C PREFETCH ACCESSES:    8473610 HITS:    2600261 MISSES:    5873349
L2C WRITEBACK ACCESSES:    3681643 HITS:    3672960 MISSES:       8683
L2C RQ ACCESS:    2933782
L2C RQ TO_CACHE:    2933368
L2C RQ MERGED:          0
L2C RQ FORWARD:          0
L2C WQ ACCESS:    3681643
L2C WQ TO_CACHE:    3681643
L2C WQ MERGED:          0
L2C WQ FORWARD:        687
LLC TOTAL     ACCESS:   11170930  HIT:    3155934  MISS:    8014996
LLC LOAD      ACCESS:     882567  HIT:     188370  MISS:     694197
LLC RFO       ACCESS:    1380250  HIT:     231136  MISS:    1149114
LLC PREFETCH  ACCESS:    5803527  HIT:     901421  MISS:    4902106
LLC WRITEBACK ACCESS:    3104586  HIT:    1835007  MISS:    1269579
LLC PREFETCH  REQUESTED:          0  ISSUED:          0  USEFUL:      31600  USELESS:    4870175
LLC TOTAL MSHR MERGED:      25798
LLC LOAD MSHR MERGED:       7995
LLC RFO MSHR MERGED:        611
LLC PREFETCH MSHR MERGED:      17192
LLC WRITEBACK MSHR MERGED:          0
LLC TOTAL ACCESSES:   11196750 HITS:    3155956 MISSES:    8040794
LLC LOAD ACCESSES:     882577 HITS:     188380 MISSES:     694197
LLC RFO ACCESSES:    1380253 HITS:     231139 MISSES:    1149114
LLC PREFETCH ACCESSES:    5829334 HITS:     901430 MISSES:    4927904
LLC WRITEBACK ACCESSES:    3104586 HITS:    1835007 MISSES:    1269579
LLC 0 RQ ACCESS:    2262830
LLC 0 RQ TO_CACHE:    2262817
LLC 0 RQ MERGED:          0
LLC 0 RQ FORWARD:          0
LLC WQ ACCESS:    3104586
LLC WQ TO_CACHE:    3104586
LLC WQ MERGED:          0
LLC WQ FORWARD:         22
Major fault: 0 Minor fault: 11519
CPU 0 L1D next line prefetcher final stats
CPU 0 L2C PC-based stride prefetcher final stats
All Misses: 10092867
All Hits: 3689280
SD Algo Stats - Switches: 0 SRR-Repls: 794197 BRR-Repls: 0

DRAM Statistics
 CHANNEL 0
 RQ ROW_BUFFER_HIT:    4024486  ROW_BUFFER_MISS:    2720048
 DBUS_CONGESTED:    4661425
 WQ ROW_BUFFER_HIT:     634626  ROW_BUFFER_MISS:    1703412  FULL:          0

 AVG_CONGESTED_CYCLE: 13
LOADS RETIRED: 190375692
INSTR RETIRED: 500000000
