
*** ChampSim Multicore Out-of-Order Simulator ***

Warmup Instructions: 100000000
Simulation Instructions: 500000000
Number of CPUs: 1
LLC sets: 2048
LLC ways: 16
Clean RRIP Policies: 1213030112130301 Dirty RRIP Policies: 2213130122131301 PSEL Width: 10 Track Set: 4294967295 PSEL Mask: 1 Demote Mask: 3330201033302010DS Algo: 0Window size: 0
Off-chip DRAM Size: 4096 MB Channels: 1 Width: 64-bit Data Rate: 1600 MT/s

CPU 0 runs /mnt/beegfs/iconst01/spec2017/Parest.trace.gz
NOT SORTED
TRACE STRING: /mnt/beegfs/iconst01/spec2017/Parest.trace.gz
SORTED
TRACE STRING: /mnt/beegfs/iconst01/spec2017/Parest.trace.gz
INITIAL
TRACE STRING: /mnt/beegfs/iconst01/spec2017/Parest.trace.gz

champsim_seed used: 623

CPU 0 L1D next line prefetcher
CPU 0 L2C IP-based stride prefetcher
Initialize DRRIP state
Assign rand_sets[0]: 454  LLC: 2048
rand_sets[0]: 454
Assign rand_sets[1]: 1662  LLC: 2048
rand_sets[1]: 1662
Assign rand_sets[2]: 1921  LLC: 2048
rand_sets[2]: 1921
Assign rand_sets[3]: 1131  LLC: 2048
rand_sets[3]: 1131
Assign rand_sets[4]: 331  LLC: 2048
rand_sets[4]: 331
Assign rand_sets[5]: 1531  LLC: 2048
rand_sets[5]: 1531
Assign rand_sets[6]: 482  LLC: 2048
rand_sets[6]: 482
Assign rand_sets[7]: 1275  LLC: 2048
rand_sets[7]: 1275
Assign rand_sets[8]: 1876  LLC: 2048
rand_sets[8]: 1876
Assign rand_sets[9]: 2038  LLC: 2048
rand_sets[9]: 2038
Assign rand_sets[10]: 701  LLC: 2048
rand_sets[10]: 701
Assign rand_sets[11]: 479  LLC: 2048
rand_sets[11]: 479
Assign rand_sets[12]: 892  LLC: 2048
rand_sets[12]: 892
Assign rand_sets[13]: 1820  LLC: 2048
rand_sets[13]: 1820
Assign rand_sets[14]: 1505  LLC: 2048
rand_sets[14]: 1505
Assign rand_sets[15]: 1159  LLC: 2048
rand_sets[15]: 1159
Assign rand_sets[16]: 513  LLC: 2048
rand_sets[16]: 513
Assign rand_sets[17]: 703  LLC: 2048
rand_sets[17]: 703
Assign rand_sets[18]: 561  LLC: 2048
rand_sets[18]: 561
Assign rand_sets[19]: 990  LLC: 2048
rand_sets[19]: 990
Assign rand_sets[20]: 342  LLC: 2048
rand_sets[20]: 342
Assign rand_sets[21]: 882  LLC: 2048
rand_sets[21]: 882
Assign rand_sets[22]: 15  LLC: 2048
rand_sets[22]: 15
Assign rand_sets[23]: 71  LLC: 2048
rand_sets[23]: 71
Assign rand_sets[24]: 1127  LLC: 2048
rand_sets[24]: 1127
Assign rand_sets[25]: 1382  LLC: 2048
rand_sets[25]: 1382
Assign rand_sets[26]: 647  LLC: 2048
rand_sets[26]: 647
Assign rand_sets[27]: 857  LLC: 2048
rand_sets[27]: 857
Assign rand_sets[28]: 1450  LLC: 2048
rand_sets[28]: 1450
Assign rand_sets[29]: 1160  LLC: 2048
rand_sets[29]: 1160
Assign rand_sets[30]: 1852  LLC: 2048
rand_sets[30]: 1852
Assign rand_sets[31]: 1881  LLC: 2048
rand_sets[31]: 1881
Assign rand_sets[32]: 1770  LLC: 2048
rand_sets[32]: 1770
Assign rand_sets[33]: 1622  LLC: 2048
rand_sets[33]: 1622
Assign rand_sets[34]: 275  LLC: 2048
rand_sets[34]: 275
Assign rand_sets[35]: 635  LLC: 2048
rand_sets[35]: 635
Assign rand_sets[36]: 466  LLC: 2048
rand_sets[36]: 466
Assign rand_sets[37]: 1413  LLC: 2048
rand_sets[37]: 1413
Assign rand_sets[38]: 417  LLC: 2048
rand_sets[38]: 417
Assign rand_sets[39]: 472  LLC: 2048
rand_sets[39]: 472
Assign rand_sets[40]: 1340  LLC: 2048
rand_sets[40]: 1340
Assign rand_sets[41]: 852  LLC: 2048
rand_sets[41]: 852
Assign rand_sets[42]: 1365  LLC: 2048
rand_sets[42]: 1365
Assign rand_sets[43]: 47  LLC: 2048
rand_sets[43]: 47
Assign rand_sets[44]: 823  LLC: 2048
rand_sets[44]: 823
Assign rand_sets[45]: 686  LLC: 2048
rand_sets[45]: 686
Assign rand_sets[46]: 1637  LLC: 2048
rand_sets[46]: 1637
Assign rand_sets[47]: 1115  LLC: 2048
rand_sets[47]: 1115
Assign rand_sets[48]: 986  LLC: 2048
rand_sets[48]: 986
Assign rand_sets[49]: 258  LLC: 2048
rand_sets[49]: 258
Assign rand_sets[50]: 633  LLC: 2048
rand_sets[50]: 633
Assign rand_sets[51]: 920  LLC: 2048
rand_sets[51]: 920
Assign rand_sets[52]: 204  LLC: 2048
rand_sets[52]: 204
Assign rand_sets[53]: 227  LLC: 2048
rand_sets[53]: 227
Assign rand_sets[54]: 1818  LLC: 2048
rand_sets[54]: 1818
Assign rand_sets[55]: 886  LLC: 2048
rand_sets[55]: 886
Assign rand_sets[56]: 1422  LLC: 2048
rand_sets[56]: 1422
Assign rand_sets[57]: 607  LLC: 2048
rand_sets[57]: 607
Assign rand_sets[58]: 217  LLC: 2048
rand_sets[58]: 217
Assign rand_sets[59]: 1945  LLC: 2048
rand_sets[59]: 1945
Assign rand_sets[60]: 143  LLC: 2048
rand_sets[60]: 143
Assign rand_sets[61]: 1311  LLC: 2048
rand_sets[61]: 1311
Assign rand_sets[62]: 319  LLC: 2048
rand_sets[62]: 319
Assign rand_sets[63]: 1846  LLC: 2048
rand_sets[63]: 1846
 CLEAN-RRIP-POLICY-1: 1-2-1-3-0-3-0-1- CLEAN-RRIP-POLICY-2: 1-2-1-3-0-3-0-1-
 DIRTY-RRIP-POLICY-1: 2-2-1-3-1-3-0-1- DIRTY-RRIP-POLICY-2: 2-2-1-3-1-3-0-1-
 PSEL width: 10
Heartbeat CPU 0 instructions: 10000001 cycles: 4387120 heartbeat IPC: 2.2794 cumulative IPC: 2.2794 (Simulation time: 0 hr 0 min 14 sec) 
Heartbeat CPU 0 instructions: 20000000 cycles: 8781247 heartbeat IPC: 2.27576 cumulative IPC: 2.27758 (Simulation time: 0 hr 0 min 29 sec) 
Heartbeat CPU 0 instructions: 30000003 cycles: 13213193 heartbeat IPC: 2.25635 cumulative IPC: 2.27046 (Simulation time: 0 hr 0 min 44 sec) 
Heartbeat CPU 0 instructions: 40000000 cycles: 17643796 heartbeat IPC: 2.25703 cumulative IPC: 2.26709 (Simulation time: 0 hr 0 min 58 sec) 
Heartbeat CPU 0 instructions: 50000000 cycles: 22051980 heartbeat IPC: 2.26851 cumulative IPC: 2.26737 (Simulation time: 0 hr 1 min 12 sec) 
Heartbeat CPU 0 instructions: 60000000 cycles: 26457660 heartbeat IPC: 2.2698 cumulative IPC: 2.26777 (Simulation time: 0 hr 1 min 27 sec) 
Heartbeat CPU 0 instructions: 70000000 cycles: 30858480 heartbeat IPC: 2.2723 cumulative IPC: 2.26842 (Simulation time: 0 hr 1 min 41 sec) 
Heartbeat CPU 0 instructions: 80000000 cycles: 35254039 heartbeat IPC: 2.27502 cumulative IPC: 2.26924 (Simulation time: 0 hr 1 min 56 sec) 
Heartbeat CPU 0 instructions: 90000000 cycles: 39648302 heartbeat IPC: 2.27569 cumulative IPC: 2.26996 (Simulation time: 0 hr 2 min 11 sec) 
Heartbeat CPU 0 instructions: 100000000 cycles: 44045605 heartbeat IPC: 2.27412 cumulative IPC: 2.27037 (Simulation time: 0 hr 2 min 26 sec) 

Warmup complete CPU 0 instructions: 100000002 cycles: 44045615 (Simulation time: 0 hr 2 min 26 sec) 

Heartbeat CPU 0 instructions: 110000000 cycles: 54175093 heartbeat IPC: 0.987217 cumulative IPC: 0.987217 (Simulation time: 0 hr 2 min 45 sec) 
Heartbeat CPU 0 instructions: 120000000 cycles: 63516886 heartbeat IPC: 1.07046 cumulative IPC: 1.02715 (Simulation time: 0 hr 3 min 4 sec) 
Heartbeat CPU 0 instructions: 130000000 cycles: 72877970 heartbeat IPC: 1.06825 cumulative IPC: 1.0405 (Simulation time: 0 hr 3 min 22 sec) 
Heartbeat CPU 0 instructions: 140000000 cycles: 82420889 heartbeat IPC: 1.0479 cumulative IPC: 1.04234 (Simulation time: 0 hr 3 min 41 sec) 
Heartbeat CPU 0 instructions: 150000000 cycles: 93478526 heartbeat IPC: 0.904352 cumulative IPC: 1.01147 (Simulation time: 0 hr 4 min 1 sec) 
Heartbeat CPU 0 instructions: 160000000 cycles: 103608822 heartbeat IPC: 0.987138 cumulative IPC: 1.00733 (Simulation time: 0 hr 4 min 20 sec) 
Heartbeat CPU 0 instructions: 170000003 cycles: 113584941 heartbeat IPC: 1.00239 cumulative IPC: 1.00662 (Simulation time: 0 hr 4 min 38 sec) 
Heartbeat CPU 0 instructions: 180000000 cycles: 123446428 heartbeat IPC: 1.01405 cumulative IPC: 1.00755 (Simulation time: 0 hr 4 min 57 sec) 
Heartbeat CPU 0 instructions: 190000002 cycles: 133449522 heartbeat IPC: 0.999691 cumulative IPC: 1.00667 (Simulation time: 0 hr 5 min 16 sec) 
Heartbeat CPU 0 instructions: 200000000 cycles: 142962585 heartbeat IPC: 1.05119 cumulative IPC: 1.01095 (Simulation time: 0 hr 5 min 35 sec) 
Heartbeat CPU 0 instructions: 210000000 cycles: 152880247 heartbeat IPC: 1.0083 cumulative IPC: 1.01071 (Simulation time: 0 hr 5 min 54 sec) 
Heartbeat CPU 0 instructions: 220000000 cycles: 162220635 heartbeat IPC: 1.07062 cumulative IPC: 1.01544 (Simulation time: 0 hr 6 min 13 sec) 
Heartbeat CPU 0 instructions: 230000001 cycles: 174356510 heartbeat IPC: 0.824003 cumulative IPC: 0.997614 (Simulation time: 0 hr 6 min 33 sec) 
Heartbeat CPU 0 instructions: 240000000 cycles: 184846323 heartbeat IPC: 0.953306 cumulative IPC: 0.994313 (Simulation time: 0 hr 6 min 52 sec) 
Heartbeat CPU 0 instructions: 250000002 cycles: 194818570 heartbeat IPC: 1.00278 cumulative IPC: 0.994873 (Simulation time: 0 hr 7 min 11 sec) 
Heartbeat CPU 0 instructions: 260000000 cycles: 204577568 heartbeat IPC: 1.0247 cumulative IPC: 0.996686 (Simulation time: 0 hr 7 min 30 sec) 
Heartbeat CPU 0 instructions: 270000001 cycles: 214205920 heartbeat IPC: 1.0386 cumulative IPC: 0.999058 (Simulation time: 0 hr 7 min 48 sec) 
Heartbeat CPU 0 instructions: 280000000 cycles: 224136429 heartbeat IPC: 1.007 cumulative IPC: 0.999496 (Simulation time: 0 hr 8 min 7 sec) 
Heartbeat CPU 0 instructions: 290000002 cycles: 233515565 heartbeat IPC: 1.0662 cumulative IPC: 1.0028 (Simulation time: 0 hr 8 min 26 sec) 
Heartbeat CPU 0 instructions: 300000000 cycles: 243301783 heartbeat IPC: 1.02184 cumulative IPC: 1.00373 (Simulation time: 0 hr 8 min 45 sec) 
Heartbeat CPU 0 instructions: 310000000 cycles: 252635687 heartbeat IPC: 1.07136 cumulative IPC: 1.00676 (Simulation time: 0 hr 9 min 4 sec) 
Heartbeat CPU 0 instructions: 320000000 cycles: 262054130 heartbeat IPC: 1.06175 cumulative IPC: 1.00913 (Simulation time: 0 hr 9 min 22 sec) 
Heartbeat CPU 0 instructions: 330000003 cycles: 271607801 heartbeat IPC: 1.04672 cumulative IPC: 1.01071 (Simulation time: 0 hr 9 min 41 sec) 
Heartbeat CPU 0 instructions: 340000000 cycles: 281685588 heartbeat IPC: 0.992281 cumulative IPC: 1.00993 (Simulation time: 0 hr 10 min 0 sec) 
Heartbeat CPU 0 instructions: 350000000 cycles: 291958263 heartbeat IPC: 0.973456 cumulative IPC: 1.00842 (Simulation time: 0 hr 10 min 19 sec) 
Heartbeat CPU 0 instructions: 360000000 cycles: 301801381 heartbeat IPC: 1.01594 cumulative IPC: 1.00871 (Simulation time: 0 hr 10 min 38 sec) 
Heartbeat CPU 0 instructions: 370000000 cycles: 311456929 heartbeat IPC: 1.03567 cumulative IPC: 1.00968 (Simulation time: 0 hr 10 min 57 sec) 
Heartbeat CPU 0 instructions: 380000000 cycles: 321023797 heartbeat IPC: 1.04527 cumulative IPC: 1.01091 (Simulation time: 0 hr 11 min 15 sec) 
Heartbeat CPU 0 instructions: 390000002 cycles: 330416534 heartbeat IPC: 1.06465 cumulative IPC: 1.01267 (Simulation time: 0 hr 11 min 34 sec) 
Heartbeat CPU 0 instructions: 400000000 cycles: 340190723 heartbeat IPC: 1.0231 cumulative IPC: 1.01302 (Simulation time: 0 hr 11 min 53 sec) 
Heartbeat CPU 0 instructions: 410000000 cycles: 349462658 heartbeat IPC: 1.07852 cumulative IPC: 1.01501 (Simulation time: 0 hr 12 min 11 sec) 
Heartbeat CPU 0 instructions: 420000000 cycles: 360437141 heartbeat IPC: 0.911205 cumulative IPC: 1.01141 (Simulation time: 0 hr 12 min 31 sec) 
Heartbeat CPU 0 instructions: 430000000 cycles: 371236904 heartbeat IPC: 0.925946 cumulative IPC: 1.00858 (Simulation time: 0 hr 12 min 50 sec) 
Heartbeat CPU 0 instructions: 440000000 cycles: 381251628 heartbeat IPC: 0.99853 cumulative IPC: 1.00829 (Simulation time: 0 hr 13 min 8 sec) 
Heartbeat CPU 0 instructions: 450000000 cycles: 391194756 heartbeat IPC: 1.00572 cumulative IPC: 1.00821 (Simulation time: 0 hr 13 min 27 sec) 
Heartbeat CPU 0 instructions: 460000000 cycles: 401099309 heartbeat IPC: 1.00964 cumulative IPC: 1.00825 (Simulation time: 0 hr 13 min 45 sec) 
Heartbeat CPU 0 instructions: 470000001 cycles: 411079483 heartbeat IPC: 1.00199 cumulative IPC: 1.00808 (Simulation time: 0 hr 14 min 4 sec) 
Heartbeat CPU 0 instructions: 480000000 cycles: 420579118 heartbeat IPC: 1.05267 cumulative IPC: 1.00921 (Simulation time: 0 hr 14 min 22 sec) 
Heartbeat CPU 0 instructions: 490000002 cycles: 430497265 heartbeat IPC: 1.00825 cumulative IPC: 1.00918 (Simulation time: 0 hr 14 min 41 sec) 
Heartbeat CPU 0 instructions: 500000000 cycles: 440103907 heartbeat IPC: 1.04095 cumulative IPC: 1.00995 (Simulation time: 0 hr 14 min 59 sec) 
Heartbeat CPU 0 instructions: 510000000 cycles: 449519689 heartbeat IPC: 1.06205 cumulative IPC: 1.01116 (Simulation time: 0 hr 15 min 18 sec) 
Heartbeat CPU 0 instructions: 520000000 cycles: 459158745 heartbeat IPC: 1.03745 cumulative IPC: 1.01177 (Simulation time: 0 hr 15 min 36 sec) 
Heartbeat CPU 0 instructions: 530000001 cycles: 469485954 heartbeat IPC: 0.968316 cumulative IPC: 1.01072 (Simulation time: 0 hr 15 min 55 sec) 
Heartbeat CPU 0 instructions: 540000000 cycles: 479909029 heartbeat IPC: 0.95941 cumulative IPC: 1.00949 (Simulation time: 0 hr 16 min 13 sec) 
Heartbeat CPU 0 instructions: 550000003 cycles: 489954305 heartbeat IPC: 0.995493 cumulative IPC: 1.00918 (Simulation time: 0 hr 16 min 31 sec) 
Heartbeat CPU 0 instructions: 560000000 cycles: 499801511 heartbeat IPC: 1.01552 cumulative IPC: 1.00931 (Simulation time: 0 hr 16 min 50 sec) 
Heartbeat CPU 0 instructions: 570000002 cycles: 509537192 heartbeat IPC: 1.02715 cumulative IPC: 1.00969 (Simulation time: 0 hr 17 min 8 sec) 
Heartbeat CPU 0 instructions: 580000000 cycles: 519102738 heartbeat IPC: 1.04542 cumulative IPC: 1.0104 (Simulation time: 0 hr 17 min 26 sec) 
Heartbeat CPU 0 instructions: 590000001 cycles: 528994010 heartbeat IPC: 1.01099 cumulative IPC: 1.01042 (Simulation time: 0 hr 17 min 44 sec) 
Heartbeat CPU 0 instructions: 600000000 cycles: 538514453 heartbeat IPC: 1.05037 cumulative IPC: 1.01119 (Simulation time: 0 hr 18 min 2 sec) 
Finished CPU 0 instructions: 500000000 cycles: 494468852 cumulative IPC: 1.01119 (Simulation time: 0 hr 18 min 2 sec) 

CPU 0 Branch Prediction Accuracy: 97.8526% MPKI: 2.66709
Number of Branches: 62099103 Number of Mispredictions: 1333545
Number of LOAD Instructions: 210576465
Number of LOAD Instructions (ROI): 210576465
Number of STORE Instructions: 16915507
Number of STORE Instructions (ROI): 16915507
Total Destination Memory Operands: 16918869
Total Destination Memory Operands (ROI): 16918869
Total Source Memory Operands: 210576465
Total Source Memory Operands (ROI): 210576465
Number of DEPENDED LOADS: 345056
Number of DEPENDED LOADS (ROI): 345056
Number of SQ_ADDED: 16918826
Number of SQ_ADDED (ROI): 16918826
Number of LQ_ADDED: 210610471
Number of LQ_ADDED (ROI): 210610471
Number of Instructions read from trace: 600000257

ChampSim completed all CPUs

Region of Interest Statistics

CPU 0 cumulative IPC: 1.01119 instructions: 500000000 cycles: 494468852
ITLB TOTAL     ACCESS:   76310596  HIT:   76310558  MISS:         38
ITLB LOAD      ACCESS:   76310596  HIT:   76310558  MISS:         38
ITLB RFO       ACCESS:          0  HIT:          0  MISS:          0
ITLB PREFETCH  ACCESS:          0  HIT:          0  MISS:          0
ITLB WRITEBACK ACCESS:          0  HIT:          0  MISS:          0
ITLB PREFETCH  REQUESTED:          0  ISSUED:          0  USEFUL:          0  USELESS:          0
ITLB TOTAL MSHR MERGED:         37
ITLB LOAD MSHR MERGED:         37
ITLB RFO MSHR MERGED:          0
ITLB PREFETCH MSHR MERGED:          0
ITLB WRITEBACK MSHR MERGED:          0
ITLB TOTAL ACCESSES:   76310633 HITS:   76310558 MISSES:         75
ITLB LOAD ACCESSES:   76310633 HITS:   76310558 MISSES:         75
ITLB RFO ACCESSES:          0 HITS:          0 MISSES:          0
ITLB PREFETCH ACCESSES:          0 HITS:          0 MISSES:          0
ITLB WRITEBACK ACCESSES:          0 HITS:          0 MISSES:          0
ITLB RQ ACCESS:  500000188
ITLB RQ TO_CACHE:   76310634
ITLB RQ MERGED:  423689554
ITLB RQ FORWARD:          0
ITLB WQ ACCESS:          0
ITLB WQ TO_CACHE:          0
ITLB WQ MERGED:          0
ITLB WQ FORWARD:          0
DTLB TOTAL     ACCESS:  136772553  HIT:  136569758  MISS:     202795
DTLB LOAD      ACCESS:  128710108  HIT:  128510034  MISS:     200074
DTLB RFO       ACCESS:    8062445  HIT:    8059724  MISS:       2721
DTLB PREFETCH  ACCESS:          0  HIT:          0  MISS:          0
DTLB WRITEBACK ACCESS:          0  HIT:          0  MISS:          0
DTLB PREFETCH  REQUESTED:          0  ISSUED:          0  USEFUL:          0  USELESS:          0
DTLB TOTAL MSHR MERGED:     447554
DTLB LOAD MSHR MERGED:     443821
DTLB RFO MSHR MERGED:       3733
DTLB PREFETCH MSHR MERGED:          0
DTLB WRITEBACK MSHR MERGED:          0
DTLB TOTAL ACCESSES:  137220107 HITS:  136569758 MISSES:     650349
DTLB LOAD ACCESSES:  129153929 HITS:  128510034 MISSES:     643895
DTLB RFO ACCESSES:    8066178 HITS:    8059724 MISSES:       6454
DTLB PREFETCH ACCESSES:          0 HITS:          0 MISSES:          0
DTLB WRITEBACK ACCESSES:          0 HITS:          0 MISSES:          0
DTLB RQ ACCESS:  189419507
DTLB RQ TO_CACHE:  137220107
DTLB RQ MERGED:   52199400
DTLB RQ FORWARD:          0
DTLB WQ ACCESS:          0
DTLB WQ TO_CACHE:          0
DTLB WQ MERGED:          0
DTLB WQ FORWARD:          0
L1D TOTAL     ACCESS:  125341693  HIT:  107784779  MISS:   17556914
L1D LOAD      ACCESS:   72297704  HIT:   62023526  MISS:   10274178
L1D RFO       ACCESS:   14014897  HIT:   13862063  MISS:     152834
L1D PREFETCH  ACCESS:   39029092  HIT:   31899190  MISS:    7129902
L1D WRITEBACK ACCESS:          0  HIT:          0  MISS:          0
L1D PREFETCH  REQUESTED:   85512973  ISSUED:   84191697  USEFUL:    5870597  USELESS:    1259316
L1D TOTAL MSHR MERGED:   31568086
L1D LOAD MSHR MERGED:   18380555
L1D RFO MSHR MERGED:     266130
L1D PREFETCH MSHR MERGED:   12921401
L1D WRITEBACK MSHR MERGED:          0
L1D TOTAL ACCESSES:  156910278 HITS:  107785279 MISSES:   49124999
L1D LOAD ACCESSES:   85512992 HITS:   62023545 MISSES:   23489447
L1D RFO ACCESSES:   14281000 HITS:   13862063 MISSES:     418937
L1D PREFETCH ACCESSES:   57116286 HITS:   31899671 MISSES:   25216615
L1D WRITEBACK ACCESSES:          0 HITS:          0 MISSES:          0
L1D RQ ACCESS:  175130485
L1D RQ TO_CACHE:   85512973
L1D RQ MERGED:   89617493
L1D RQ FORWARD:          0
L1D WQ ACCESS:   14289037
L1D WQ TO_CACHE:   14281000
L1D WQ MERGED:       8037
L1D WQ FORWARD:        500
L1I TOTAL     ACCESS:   93338951  HIT:   93337155  MISS:       1796
L1I LOAD      ACCESS:   93338951  HIT:   93337155  MISS:       1796
L1I RFO       ACCESS:          0  HIT:          0  MISS:          0
L1I PREFETCH  ACCESS:          0  HIT:          0  MISS:          0
L1I WRITEBACK ACCESS:          0  HIT:          0  MISS:          0
L1I PREFETCH  REQUESTED:          0  ISSUED:          0  USEFUL:          0  USELESS:          0
L1I TOTAL MSHR MERGED:       2316
L1I LOAD MSHR MERGED:       2316
L1I RFO MSHR MERGED:          0
L1I PREFETCH MSHR MERGED:          0
L1I WRITEBACK MSHR MERGED:          0
L1I TOTAL ACCESSES:   93341267 HITS:   93337155 MISSES:       4112
L1I LOAD ACCESSES:   93341267 HITS:   93337155 MISSES:       4112
L1I RFO ACCESSES:          0 HITS:          0 MISSES:          0
L1I PREFETCH ACCESSES:          0 HITS:          0 MISSES:          0
L1I WRITEBACK ACCESSES:          0 HITS:          0 MISSES:          0
L1I RQ ACCESS:  500000187
L1I RQ TO_CACHE:   93341267
L1I RQ MERGED:  406658920
L1I RQ FORWARD:          0
L1I WQ ACCESS:          0
L1I WQ TO_CACHE:          0
L1I WQ MERGED:          0
L1I WQ FORWARD:          0
L2C TOTAL     ACCESS:   20899534  HIT:    8670341  MISS:   12229193
L2C LOAD      ACCESS:    5110665  HIT:    2144397  MISS:    2966268
L2C RFO       ACCESS:     152807  HIT:       6516  MISS:     146291
L2C PREFETCH  ACCESS:   13863309  HIT:    4746786  MISS:    9116523
L2C WRITEBACK ACCESS:    1772753  HIT:    1772642  MISS:        111
L2C PREFETCH  REQUESTED:    1806160  ISSUED:    1806160  USEFUL:    1066685  USELESS:    8051470
L2C TOTAL MSHR MERGED:      96290
L2C LOAD MSHR MERGED:      22195
L2C RFO MSHR MERGED:          0
L2C PREFETCH MSHR MERGED:      74095
L2C WRITEBACK MSHR MERGED:          0
L2C TOTAL ACCESSES:   21020092 HITS:    8670381 MISSES:   12349711
L2C LOAD ACCESSES:    5110688 HITS:    2144420 MISSES:    2966268
L2C RFO ACCESSES:     152807 HITS:       6516 MISSES:     146291
L2C PREFETCH ACCESSES:   13983844 HITS:    4746803 MISSES:    9237041
L2C WRITEBACK ACCESSES:    1772753 HITS:    1772642 MISSES:        111
L2C RQ ACCESS:    5263495
L2C RQ TO_CACHE:    5263472
L2C RQ MERGED:          0
L2C RQ FORWARD:          0
L2C WQ ACCESS:    1772753
L2C WQ TO_CACHE:    1772753
L2C WQ MERGED:          0
L2C WQ FORWARD:         40
LLC TOTAL     ACCESS:   12533315  HIT:    6656344  MISS:    5876971
LLC LOAD      ACCESS:    2944053  HIT:    2442966  MISS:     501087
LLC RFO       ACCESS:     146291  HIT:      74157  MISS:      72134
LLC PREFETCH  ACCESS:    9156986  HIT:    3908405  MISS:    5248581
LLC WRITEBACK ACCESS:     285985  HIT:     230816  MISS:      55169
LLC PREFETCH  REQUESTED:          0  ISSUED:          0  USEFUL:      14328  USELESS:    5233789
LLC TOTAL MSHR MERGED:       1644
LLC LOAD MSHR MERGED:        373
LLC RFO MSHR MERGED:          0
LLC PREFETCH MSHR MERGED:       1271
LLC WRITEBACK MSHR MERGED:          0
LLC TOTAL ACCESSES:   12534989 HITS:    6656374 MISSES:    5878615
LLC LOAD ACCESSES:    2944073 HITS:    2442986 MISSES:     501087
LLC RFO ACCESSES:     146291 HITS:      74157 MISSES:      72134
LLC PREFETCH ACCESSES:    9158640 HITS:    3908415 MISSES:    5250225
LLC WRITEBACK ACCESSES:     285985 HITS:     230816 MISSES:      55169
LLC 0 RQ ACCESS:    3090364
LLC 0 RQ TO_CACHE:    3090344
LLC 0 RQ MERGED:          0
LLC 0 RQ FORWARD:          0
LLC WQ ACCESS:     285985
LLC WQ TO_CACHE:     285985
LLC WQ MERGED:          0
LLC WQ FORWARD:         30
Major fault: 0 Minor fault: 6524
CPU 0 L1D next line prefetcher final stats
CPU 0 L2C PC-based stride prefetcher final stats
All Misses: 7679511
All Hits: 7378817
SD Algo Stats - Switches: 0 SRR-Repls: 533822 BRR-Repls: 0

DRAM Statistics
 CHANNEL 0
 RQ ROW_BUFFER_HIT:    4980333  ROW_BUFFER_MISS:     833501
 DBUS_CONGESTED:    2052153
 WQ ROW_BUFFER_HIT:      10868  ROW_BUFFER_MISS:      83881  FULL:          0

 AVG_CONGESTED_CYCLE: 12
LOADS RETIRED: 175418235
INSTR RETIRED: 500000000
