
*** ChampSim Multicore Out-of-Order Simulator ***

Warmup Instructions: 100000000
Simulation Instructions: 500000000
Number of CPUs: 1
LLC sets: 2048
LLC ways: 16
Clean RRIP Policies: 1213130112131301 Dirty RRIP Policies: 213130102131301 PSEL Width: 10 Track Set: 4294967295 PSEL Mask: 1 Demote Mask: 1340201013402010DS Algo: 0Window size: 0
Off-chip DRAM Size: 4096 MB Channels: 1 Width: 64-bit Data Rate: 1600 MT/s

CPU 0 runs /mnt/beegfs/iconst01/spec2017/Roms.trace.gz
NOT SORTED
TRACE STRING: /mnt/beegfs/iconst01/spec2017/Roms.trace.gz
SORTED
TRACE STRING: /mnt/beegfs/iconst01/spec2017/Roms.trace.gz
INITIAL
TRACE STRING: /mnt/beegfs/iconst01/spec2017/Roms.trace.gz

champsim_seed used: 417

CPU 0 L1D next line prefetcher
CPU 0 L2C IP-based stride prefetcher
Initialize DRRIP state
Assign rand_sets[0]: 454  LLC: 2048
rand_sets[0]: 454
Assign rand_sets[1]: 1662  LLC: 2048
rand_sets[1]: 1662
Assign rand_sets[2]: 1921  LLC: 2048
rand_sets[2]: 1921
Assign rand_sets[3]: 1131  LLC: 2048
rand_sets[3]: 1131
Assign rand_sets[4]: 331  LLC: 2048
rand_sets[4]: 331
Assign rand_sets[5]: 1531  LLC: 2048
rand_sets[5]: 1531
Assign rand_sets[6]: 482  LLC: 2048
rand_sets[6]: 482
Assign rand_sets[7]: 1275  LLC: 2048
rand_sets[7]: 1275
Assign rand_sets[8]: 1876  LLC: 2048
rand_sets[8]: 1876
Assign rand_sets[9]: 2038  LLC: 2048
rand_sets[9]: 2038
Assign rand_sets[10]: 701  LLC: 2048
rand_sets[10]: 701
Assign rand_sets[11]: 479  LLC: 2048
rand_sets[11]: 479
Assign rand_sets[12]: 892  LLC: 2048
rand_sets[12]: 892
Assign rand_sets[13]: 1820  LLC: 2048
rand_sets[13]: 1820
Assign rand_sets[14]: 1505  LLC: 2048
rand_sets[14]: 1505
Assign rand_sets[15]: 1159  LLC: 2048
rand_sets[15]: 1159
Assign rand_sets[16]: 513  LLC: 2048
rand_sets[16]: 513
Assign rand_sets[17]: 703  LLC: 2048
rand_sets[17]: 703
Assign rand_sets[18]: 561  LLC: 2048
rand_sets[18]: 561
Assign rand_sets[19]: 990  LLC: 2048
rand_sets[19]: 990
Assign rand_sets[20]: 342  LLC: 2048
rand_sets[20]: 342
Assign rand_sets[21]: 882  LLC: 2048
rand_sets[21]: 882
Assign rand_sets[22]: 15  LLC: 2048
rand_sets[22]: 15
Assign rand_sets[23]: 71  LLC: 2048
rand_sets[23]: 71
Assign rand_sets[24]: 1127  LLC: 2048
rand_sets[24]: 1127
Assign rand_sets[25]: 1382  LLC: 2048
rand_sets[25]: 1382
Assign rand_sets[26]: 647  LLC: 2048
rand_sets[26]: 647
Assign rand_sets[27]: 857  LLC: 2048
rand_sets[27]: 857
Assign rand_sets[28]: 1450  LLC: 2048
rand_sets[28]: 1450
Assign rand_sets[29]: 1160  LLC: 2048
rand_sets[29]: 1160
Assign rand_sets[30]: 1852  LLC: 2048
rand_sets[30]: 1852
Assign rand_sets[31]: 1881  LLC: 2048
rand_sets[31]: 1881
Assign rand_sets[32]: 1770  LLC: 2048
rand_sets[32]: 1770
Assign rand_sets[33]: 1622  LLC: 2048
rand_sets[33]: 1622
Assign rand_sets[34]: 275  LLC: 2048
rand_sets[34]: 275
Assign rand_sets[35]: 635  LLC: 2048
rand_sets[35]: 635
Assign rand_sets[36]: 466  LLC: 2048
rand_sets[36]: 466
Assign rand_sets[37]: 1413  LLC: 2048
rand_sets[37]: 1413
Assign rand_sets[38]: 417  LLC: 2048
rand_sets[38]: 417
Assign rand_sets[39]: 472  LLC: 2048
rand_sets[39]: 472
Assign rand_sets[40]: 1340  LLC: 2048
rand_sets[40]: 1340
Assign rand_sets[41]: 852  LLC: 2048
rand_sets[41]: 852
Assign rand_sets[42]: 1365  LLC: 2048
rand_sets[42]: 1365
Assign rand_sets[43]: 47  LLC: 2048
rand_sets[43]: 47
Assign rand_sets[44]: 823  LLC: 2048
rand_sets[44]: 823
Assign rand_sets[45]: 686  LLC: 2048
rand_sets[45]: 686
Assign rand_sets[46]: 1637  LLC: 2048
rand_sets[46]: 1637
Assign rand_sets[47]: 1115  LLC: 2048
rand_sets[47]: 1115
Assign rand_sets[48]: 986  LLC: 2048
rand_sets[48]: 986
Assign rand_sets[49]: 258  LLC: 2048
rand_sets[49]: 258
Assign rand_sets[50]: 633  LLC: 2048
rand_sets[50]: 633
Assign rand_sets[51]: 920  LLC: 2048
rand_sets[51]: 920
Assign rand_sets[52]: 204  LLC: 2048
rand_sets[52]: 204
Assign rand_sets[53]: 227  LLC: 2048
rand_sets[53]: 227
Assign rand_sets[54]: 1818  LLC: 2048
rand_sets[54]: 1818
Assign rand_sets[55]: 886  LLC: 2048
rand_sets[55]: 886
Assign rand_sets[56]: 1422  LLC: 2048
rand_sets[56]: 1422
Assign rand_sets[57]: 607  LLC: 2048
rand_sets[57]: 607
Assign rand_sets[58]: 217  LLC: 2048
rand_sets[58]: 217
Assign rand_sets[59]: 1945  LLC: 2048
rand_sets[59]: 1945
Assign rand_sets[60]: 143  LLC: 2048
rand_sets[60]: 143
Assign rand_sets[61]: 1311  LLC: 2048
rand_sets[61]: 1311
Assign rand_sets[62]: 319  LLC: 2048
rand_sets[62]: 319
Assign rand_sets[63]: 1846  LLC: 2048
rand_sets[63]: 1846
 CLEAN-RRIP-POLICY-1: 1-2-1-3-1-3-0-1- CLEAN-RRIP-POLICY-2: 1-2-1-3-1-3-0-1-
 DIRTY-RRIP-POLICY-1: 0-2-1-3-1-3-0-1- DIRTY-RRIP-POLICY-2: 0-2-1-3-1-3-0-1-
 PSEL width: 10
Heartbeat CPU 0 instructions: 10000000 cycles: 4688066 heartbeat IPC: 2.13308 cumulative IPC: 2.13308 (Simulation time: 0 hr 0 min 17 sec) 
Heartbeat CPU 0 instructions: 20000000 cycles: 9325334 heartbeat IPC: 2.15644 cumulative IPC: 2.1447 (Simulation time: 0 hr 0 min 34 sec) 
Heartbeat CPU 0 instructions: 30000003 cycles: 14019726 heartbeat IPC: 2.1302 cumulative IPC: 2.13984 (Simulation time: 0 hr 0 min 51 sec) 
Heartbeat CPU 0 instructions: 40000000 cycles: 18670144 heartbeat IPC: 2.15034 cumulative IPC: 2.14246 (Simulation time: 0 hr 1 min 8 sec) 
Heartbeat CPU 0 instructions: 50000003 cycles: 23323503 heartbeat IPC: 2.14899 cumulative IPC: 2.14376 (Simulation time: 0 hr 1 min 25 sec) 
Heartbeat CPU 0 instructions: 60000000 cycles: 27976128 heartbeat IPC: 2.14932 cumulative IPC: 2.14469 (Simulation time: 0 hr 1 min 42 sec) 
Heartbeat CPU 0 instructions: 70000002 cycles: 32367282 heartbeat IPC: 2.27731 cumulative IPC: 2.16268 (Simulation time: 0 hr 1 min 57 sec) 
Heartbeat CPU 0 instructions: 80000000 cycles: 36304070 heartbeat IPC: 2.54014 cumulative IPC: 2.20361 (Simulation time: 0 hr 2 min 9 sec) 
Heartbeat CPU 0 instructions: 90000000 cycles: 40249298 heartbeat IPC: 2.53471 cumulative IPC: 2.23606 (Simulation time: 0 hr 2 min 21 sec) 
Heartbeat CPU 0 instructions: 100000000 cycles: 44211584 heartbeat IPC: 2.5238 cumulative IPC: 2.26185 (Simulation time: 0 hr 2 min 33 sec) 

Warmup complete CPU 0 instructions: 100000002 cycles: 44211585 (Simulation time: 0 hr 2 min 33 sec) 

Heartbeat CPU 0 instructions: 110000000 cycles: 52866769 heartbeat IPC: 1.15538 cumulative IPC: 1.15538 (Simulation time: 0 hr 2 min 52 sec) 
Heartbeat CPU 0 instructions: 120000000 cycles: 61553464 heartbeat IPC: 1.15119 cumulative IPC: 1.15328 (Simulation time: 0 hr 3 min 11 sec) 
Heartbeat CPU 0 instructions: 130000002 cycles: 70268153 heartbeat IPC: 1.14749 cumulative IPC: 1.15134 (Simulation time: 0 hr 3 min 30 sec) 
Heartbeat CPU 0 instructions: 140000000 cycles: 78849749 heartbeat IPC: 1.16528 cumulative IPC: 1.1548 (Simulation time: 0 hr 3 min 49 sec) 
Heartbeat CPU 0 instructions: 150000003 cycles: 87583694 heartbeat IPC: 1.14496 cumulative IPC: 1.15281 (Simulation time: 0 hr 4 min 8 sec) 
Heartbeat CPU 0 instructions: 160000000 cycles: 97939497 heartbeat IPC: 0.965642 cumulative IPC: 1.11674 (Simulation time: 0 hr 4 min 29 sec) 
Heartbeat CPU 0 instructions: 170000002 cycles: 110400179 heartbeat IPC: 0.802524 cumulative IPC: 1.05758 (Simulation time: 0 hr 4 min 53 sec) 
Heartbeat CPU 0 instructions: 180000000 cycles: 122852037 heartbeat IPC: 0.803093 cumulative IPC: 1.01729 (Simulation time: 0 hr 5 min 16 sec) 
Heartbeat CPU 0 instructions: 190000000 cycles: 135577564 heartbeat IPC: 0.785822 cumulative IPC: 0.985049 (Simulation time: 0 hr 5 min 40 sec) 
Heartbeat CPU 0 instructions: 200000000 cycles: 149434548 heartbeat IPC: 0.721658 cumulative IPC: 0.950363 (Simulation time: 0 hr 6 min 4 sec) 
Heartbeat CPU 0 instructions: 210000001 cycles: 163324265 heartbeat IPC: 0.719957 cumulative IPC: 0.923495 (Simulation time: 0 hr 6 min 28 sec) 
Heartbeat CPU 0 instructions: 220000000 cycles: 177081566 heartbeat IPC: 0.726887 cumulative IPC: 0.903139 (Simulation time: 0 hr 6 min 52 sec) 
Heartbeat CPU 0 instructions: 230000000 cycles: 190616911 heartbeat IPC: 0.738806 cumulative IPC: 0.887946 (Simulation time: 0 hr 7 min 17 sec) 
Heartbeat CPU 0 instructions: 240000000 cycles: 204223837 heartbeat IPC: 0.73492 cumulative IPC: 0.874933 (Simulation time: 0 hr 7 min 42 sec) 
Heartbeat CPU 0 instructions: 250000003 cycles: 215343816 heartbeat IPC: 0.899283 cumulative IPC: 0.876515 (Simulation time: 0 hr 8 min 5 sec) 
Heartbeat CPU 0 instructions: 260000000 cycles: 223204765 heartbeat IPC: 1.27211 cumulative IPC: 0.893889 (Simulation time: 0 hr 8 min 25 sec) 
Heartbeat CPU 0 instructions: 270000003 cycles: 231703619 heartbeat IPC: 1.17663 cumulative IPC: 0.906705 (Simulation time: 0 hr 8 min 45 sec) 
Heartbeat CPU 0 instructions: 280000000 cycles: 241028263 heartbeat IPC: 1.07243 cumulative IPC: 0.914557 (Simulation time: 0 hr 9 min 6 sec) 
Heartbeat CPU 0 instructions: 290000000 cycles: 249999364 heartbeat IPC: 1.11469 cumulative IPC: 0.923281 (Simulation time: 0 hr 9 min 27 sec) 
Heartbeat CPU 0 instructions: 300000000 cycles: 258828616 heartbeat IPC: 1.1326 cumulative IPC: 0.931892 (Simulation time: 0 hr 9 min 48 sec) 
Heartbeat CPU 0 instructions: 310000000 cycles: 267674164 heartbeat IPC: 1.13051 cumulative IPC: 0.939755 (Simulation time: 0 hr 10 min 9 sec) 
Heartbeat CPU 0 instructions: 320000000 cycles: 276540317 heartbeat IPC: 1.12788 cumulative IPC: 0.946934 (Simulation time: 0 hr 10 min 31 sec) 
Heartbeat CPU 0 instructions: 330000002 cycles: 285334570 heartbeat IPC: 1.13711 cumulative IPC: 0.95387 (Simulation time: 0 hr 10 min 53 sec) 
Heartbeat CPU 0 instructions: 340000000 cycles: 295608818 heartbeat IPC: 0.973307 cumulative IPC: 0.954664 (Simulation time: 0 hr 11 min 16 sec) 
Heartbeat CPU 0 instructions: 350000001 cycles: 304579510 heartbeat IPC: 1.11474 cumulative IPC: 0.96018 (Simulation time: 0 hr 11 min 37 sec) 
Heartbeat CPU 0 instructions: 360000000 cycles: 313497719 heartbeat IPC: 1.1213 cumulative IPC: 0.965516 (Simulation time: 0 hr 11 min 58 sec) 
Heartbeat CPU 0 instructions: 370000000 cycles: 322358995 heartbeat IPC: 1.12851 cumulative IPC: 0.970708 (Simulation time: 0 hr 12 min 19 sec) 
Heartbeat CPU 0 instructions: 380000000 cycles: 331092958 heartbeat IPC: 1.14496 cumulative IPC: 0.976013 (Simulation time: 0 hr 12 min 40 sec) 
Heartbeat CPU 0 instructions: 390000001 cycles: 339611749 heartbeat IPC: 1.17388 cumulative IPC: 0.981719 (Simulation time: 0 hr 13 min 1 sec) 
Heartbeat CPU 0 instructions: 400000000 cycles: 348182618 heartbeat IPC: 1.16674 cumulative IPC: 0.986936 (Simulation time: 0 hr 13 min 21 sec) 
Heartbeat CPU 0 instructions: 410000003 cycles: 356638369 heartbeat IPC: 1.18263 cumulative IPC: 0.992233 (Simulation time: 0 hr 13 min 42 sec) 
Heartbeat CPU 0 instructions: 420000000 cycles: 365145095 heartbeat IPC: 1.17554 cumulative IPC: 0.997091 (Simulation time: 0 hr 14 min 2 sec) 
Heartbeat CPU 0 instructions: 430000001 cycles: 373549388 heartbeat IPC: 1.18987 cumulative IPC: 1.00201 (Simulation time: 0 hr 14 min 23 sec) 
Heartbeat CPU 0 instructions: 440000000 cycles: 381886102 heartbeat IPC: 1.19951 cumulative IPC: 1.00689 (Simulation time: 0 hr 14 min 43 sec) 
Heartbeat CPU 0 instructions: 450000001 cycles: 391491427 heartbeat IPC: 1.04109 cumulative IPC: 1.00783 (Simulation time: 0 hr 15 min 6 sec) 
Heartbeat CPU 0 instructions: 460000000 cycles: 399838741 heartbeat IPC: 1.19799 cumulative IPC: 1.0123 (Simulation time: 0 hr 15 min 26 sec) 
Heartbeat CPU 0 instructions: 470000003 cycles: 408042523 heartbeat IPC: 1.21895 cumulative IPC: 1.01696 (Simulation time: 0 hr 15 min 46 sec) 
Heartbeat CPU 0 instructions: 480000000 cycles: 416277490 heartbeat IPC: 1.21433 cumulative IPC: 1.02132 (Simulation time: 0 hr 16 min 7 sec) 
Heartbeat CPU 0 instructions: 490000000 cycles: 424474725 heartbeat IPC: 1.21992 cumulative IPC: 1.02561 (Simulation time: 0 hr 16 min 27 sec) 
Heartbeat CPU 0 instructions: 500000000 cycles: 432687379 heartbeat IPC: 1.21763 cumulative IPC: 1.02967 (Simulation time: 0 hr 16 min 47 sec) 
Heartbeat CPU 0 instructions: 510000001 cycles: 440845872 heartbeat IPC: 1.22572 cumulative IPC: 1.0337 (Simulation time: 0 hr 17 min 8 sec) 
Heartbeat CPU 0 instructions: 520000000 cycles: 449040469 heartbeat IPC: 1.22032 cumulative IPC: 1.03748 (Simulation time: 0 hr 17 min 28 sec) 
Heartbeat CPU 0 instructions: 530000001 cycles: 457221645 heartbeat IPC: 1.22232 cumulative IPC: 1.04114 (Simulation time: 0 hr 17 min 48 sec) 
Heartbeat CPU 0 instructions: 540000000 cycles: 465576367 heartbeat IPC: 1.19693 cumulative IPC: 1.04423 (Simulation time: 0 hr 18 min 9 sec) 
Heartbeat CPU 0 instructions: 550000001 cycles: 473974679 heartbeat IPC: 1.19072 cumulative IPC: 1.04709 (Simulation time: 0 hr 18 min 29 sec) 
Heartbeat CPU 0 instructions: 560000000 cycles: 482146232 heartbeat IPC: 1.22376 cumulative IPC: 1.05038 (Simulation time: 0 hr 18 min 50 sec) 
Heartbeat CPU 0 instructions: 570000001 cycles: 493400490 heartbeat IPC: 0.888553 cumulative IPC: 1.04633 (Simulation time: 0 hr 19 min 12 sec) 
Heartbeat CPU 0 instructions: 580000000 cycles: 504464765 heartbeat IPC: 0.90381 cumulative IPC: 1.0429 (Simulation time: 0 hr 19 min 34 sec) 
Heartbeat CPU 0 instructions: 590000001 cycles: 515723691 heartbeat IPC: 0.888184 cumulative IPC: 1.03921 (Simulation time: 0 hr 19 min 56 sec) 
Heartbeat CPU 0 instructions: 600000000 cycles: 526715309 heartbeat IPC: 0.909784 cumulative IPC: 1.03626 (Simulation time: 0 hr 20 min 19 sec) 
Finished CPU 0 instructions: 500000001 cycles: 482503737 cumulative IPC: 1.03626 (Simulation time: 0 hr 20 min 19 sec) 

CPU 0 Branch Prediction Accuracy: 99.7422% MPKI: 0.173296
Number of Branches: 33608403 Number of Mispredictions: 86648
Number of LOAD Instructions: 180215231
Number of LOAD Instructions (ROI): 180215231
Number of STORE Instructions: 36067263
Number of STORE Instructions (ROI): 36067263
Total Destination Memory Operands: 38428915
Total Destination Memory Operands (ROI): 38428915
Total Source Memory Operands: 180215231
Total Source Memory Operands (ROI): 180215231
Number of DEPENDED LOADS: 3041426
Number of DEPENDED LOADS (ROI): 3041426
Number of SQ_ADDED: 38428892
Number of SQ_ADDED (ROI): 38428892
Number of LQ_ADDED: 207656882
Number of LQ_ADDED (ROI): 207656882
Number of Instructions read from trace: 600000257

ChampSim completed all CPUs

Region of Interest Statistics

CPU 0 cumulative IPC: 1.03626 instructions: 500000001 cycles: 482503737
ITLB TOTAL     ACCESS:   91898016  HIT:   91897997  MISS:         19
ITLB LOAD      ACCESS:   91898016  HIT:   91897997  MISS:         19
ITLB RFO       ACCESS:          0  HIT:          0  MISS:          0
ITLB PREFETCH  ACCESS:          0  HIT:          0  MISS:          0
ITLB WRITEBACK ACCESS:          0  HIT:          0  MISS:          0
ITLB PREFETCH  REQUESTED:          0  ISSUED:          0  USEFUL:          0  USELESS:          0
ITLB TOTAL MSHR MERGED:         40
ITLB LOAD MSHR MERGED:         40
ITLB RFO MSHR MERGED:          0
ITLB PREFETCH MSHR MERGED:          0
ITLB WRITEBACK MSHR MERGED:          0
ITLB TOTAL ACCESSES:   91898056 HITS:   91897997 MISSES:         59
ITLB LOAD ACCESSES:   91898056 HITS:   91897997 MISSES:         59
ITLB RFO ACCESSES:          0 HITS:          0 MISSES:          0
ITLB PREFETCH ACCESSES:          0 HITS:          0 MISSES:          0
ITLB WRITEBACK ACCESSES:          0 HITS:          0 MISSES:          0
ITLB RQ ACCESS:  500000003
ITLB RQ TO_CACHE:   91898056
ITLB RQ MERGED:  408101947
ITLB RQ FORWARD:          0
ITLB WQ ACCESS:          0
ITLB WQ TO_CACHE:          0
ITLB WQ MERGED:          0
ITLB WQ FORWARD:          0
DTLB TOTAL     ACCESS:  142023764  HIT:  141657302  MISS:     366462
DTLB LOAD      ACCESS:  119391308  HIT:  119077722  MISS:     313586
DTLB RFO       ACCESS:   22632456  HIT:   22579580  MISS:      52876
DTLB PREFETCH  ACCESS:          0  HIT:          0  MISS:          0
DTLB WRITEBACK ACCESS:          0  HIT:          0  MISS:          0
DTLB PREFETCH  REQUESTED:          0  ISSUED:          0  USEFUL:          0  USELESS:          0
DTLB TOTAL MSHR MERGED:     287404
DTLB LOAD MSHR MERGED:     239574
DTLB RFO MSHR MERGED:      47830
DTLB PREFETCH MSHR MERGED:          0
DTLB WRITEBACK MSHR MERGED:          0
DTLB TOTAL ACCESSES:  142311168 HITS:  141657302 MISSES:     653866
DTLB LOAD ACCESSES:  119630882 HITS:  119077722 MISSES:     553160
DTLB RFO ACCESSES:   22680286 HITS:   22579580 MISSES:     100706
DTLB PREFETCH ACCESSES:          0 HITS:          0 MISSES:          0
DTLB WRITEBACK ACCESSES:          0 HITS:          0 MISSES:          0
DTLB RQ ACCESS:  184791551
DTLB RQ TO_CACHE:  142311168
DTLB RQ MERGED:   42480383
DTLB RQ FORWARD:          0
DTLB WQ ACCESS:          0
DTLB WQ TO_CACHE:          0
DTLB WQ MERGED:          0
DTLB WQ FORWARD:          0
L1D TOTAL     ACCESS:  189131487  HIT:  175684670  MISS:   13446817
L1D LOAD      ACCESS:  111824836  HIT:  108475409  MISS:    3349427
L1D RFO       ACCESS:   18634777  HIT:   15853013  MISS:    2781764
L1D PREFETCH  ACCESS:   58671874  HIT:   51356248  MISS:    7315626
L1D WRITEBACK ACCESS:          0  HIT:          0  MISS:          0
L1D PREFETCH  REQUESTED:  116495765  ISSUED:  115134565  USEFUL:    7106089  USELESS:     209537
L1D TOTAL MSHR MERGED:   32657358
L1D LOAD MSHR MERGED:    7465217
L1D RFO MSHR MERGED:    9617918
L1D PREFETCH MSHR MERGED:   15574223
L1D WRITEBACK MSHR MERGED:          0
L1D TOTAL ACCESSES:  221789296 HITS:  175685120 MISSES:   46104176
L1D LOAD ACCESSES:  116495832 HITS:  108475476 MISSES:    8020356
L1D RFO ACCESSES:   28252623 HITS:   15853013 MISSES:   12399610
L1D PREFETCH ACCESSES:   77040841 HITS:   51356631 MISSES:   25684210
L1D WRITEBACK ACCESSES:          0 HITS:          0 MISSES:          0
L1D RQ ACCESS:  156535485
L1D RQ TO_CACHE:  116495768
L1D RQ MERGED:   40039650
L1D RQ FORWARD:          0
L1D WQ ACCESS:   28256066
L1D WQ TO_CACHE:   28252623
L1D WQ MERGED:       3443
L1D WQ FORWARD:        450
L1I TOTAL     ACCESS:  115889557  HIT:  115888609  MISS:        948
L1I LOAD      ACCESS:  115889557  HIT:  115888609  MISS:        948
L1I RFO       ACCESS:          0  HIT:          0  MISS:          0
L1I PREFETCH  ACCESS:          0  HIT:          0  MISS:          0
L1I WRITEBACK ACCESS:          0  HIT:          0  MISS:          0
L1I PREFETCH  REQUESTED:          0  ISSUED:          0  USEFUL:          0  USELESS:          0
L1I TOTAL MSHR MERGED:       1580
L1I LOAD MSHR MERGED:       1580
L1I RFO MSHR MERGED:          0
L1I PREFETCH MSHR MERGED:          0
L1I WRITEBACK MSHR MERGED:          0
L1I TOTAL ACCESSES:  115891137 HITS:  115888609 MISSES:       2528
L1I LOAD ACCESSES:  115891137 HITS:  115888609 MISSES:       2528
L1I RFO ACCESSES:          0 HITS:          0 MISSES:          0
L1I PREFETCH ACCESSES:          0 HITS:          0 MISSES:          0
L1I WRITEBACK ACCESSES:          0 HITS:          0 MISSES:          0
L1I RQ ACCESS:  500000007
L1I RQ TO_CACHE:  115891137
L1I RQ MERGED:  384108870
L1I RQ FORWARD:          0
L1I WQ ACCESS:          0
L1I WQ TO_CACHE:          0
L1I WQ MERGED:          0
L1I WQ FORWARD:          0
L2C TOTAL     ACCESS:   16692244  HIT:    4848008  MISS:   11844236
L2C LOAD      ACCESS:     556057  HIT:      95320  MISS:     460737
L2C RFO       ACCESS:    2781692  HIT:     266740  MISS:    2514952
L2C PREFETCH  ACCESS:   10133853  HIT:    1267583  MISS:    8866270
L2C WRITEBACK ACCESS:    3220642  HIT:    3218365  MISS:       2277
L2C PREFETCH  REQUESTED:      25822  ISSUED:      25822  USEFUL:      92912  USELESS:    8771417
L2C TOTAL MSHR MERGED:        494
L2C LOAD MSHR MERGED:          3
L2C RFO MSHR MERGED:          0
L2C PREFETCH MSHR MERGED:        491
L2C WRITEBACK MSHR MERGED:          0
L2C TOTAL ACCESSES:   16692843 HITS:    4848056 MISSES:   11844787
L2C LOAD ACCESSES:     556087 HITS:      95350 MISSES:     460737
L2C RFO ACCESSES:    2781692 HITS:     266740 MISSES:    2514952
L2C PREFETCH ACCESSES:   10134422 HITS:    1267601 MISSES:    8866821
L2C WRITEBACK ACCESSES:    3220642 HITS:    3218365 MISSES:       2277
L2C RQ ACCESS:    3337779
L2C RQ TO_CACHE:    3337749
L2C RQ MERGED:          0
L2C RQ FORWARD:          0
L2C WQ ACCESS:    3220642
L2C WQ TO_CACHE:    3220642
L2C WQ MERGED:          0
L2C WQ FORWARD:         48
LLC TOTAL     ACCESS:   14742370  HIT:    7062643  MISS:    7679727
LLC LOAD      ACCESS:     460732  HIT:     223588  MISS:     237144
LLC RFO       ACCESS:    2514933  HIT:    1758307  MISS:     756626
LLC PREFETCH  ACCESS:    8866274  HIT:    2990848  MISS:    5875426
LLC WRITEBACK ACCESS:    2900431  HIT:    2089900  MISS:     810531
LLC PREFETCH  REQUESTED:          0  ISSUED:          0  USEFUL:       2907  USELESS:    5871712
LLC TOTAL MSHR MERGED:          5
LLC LOAD MSHR MERGED:          0
LLC RFO MSHR MERGED:          0
LLC PREFETCH MSHR MERGED:          5
LLC WRITEBACK MSHR MERGED:          0
LLC TOTAL ACCESSES:   14742443 HITS:    7062710 MISSES:    7679733
LLC LOAD ACCESSES:     460734 HITS:     223590 MISSES:     237144
LLC RFO ACCESSES:    2514952 HITS:    1758326 MISSES:     756626
LLC PREFETCH ACCESSES:    8866326 HITS:    2990894 MISSES:    5875432
LLC WRITEBACK ACCESSES:    2900431 HITS:    2089900 MISSES:     810531
LLC 0 RQ ACCESS:    2975686
LLC 0 RQ TO_CACHE:    2975665
LLC 0 RQ MERGED:          0
LLC 0 RQ FORWARD:          0
LLC WQ ACCESS:    2900431
LLC WQ TO_CACHE:    2900431
LLC WQ MERGED:          0
LLC WQ FORWARD:         67
Major fault: 0 Minor fault: 57518
CPU 0 L1D next line prefetcher final stats
CPU 0 L2C PC-based stride prefetcher final stats
All Misses: 8290894
All Hits: 7947657
SD Algo Stats - Switches: 0 SRR-Repls: 243604 BRR-Repls: 0

DRAM Statistics
 CHANNEL 0
 RQ ROW_BUFFER_HIT:    3758214  ROW_BUFFER_MISS:    3107840
 DBUS_CONGESTED:    3225449
 WQ ROW_BUFFER_HIT:     119096  ROW_BUFFER_MISS:     910360  FULL:          0

 AVG_CONGESTED_CYCLE: 12
LOADS RETIRED: 157818985
INSTR RETIRED: 500000000
