
*** ChampSim Multicore Out-of-Order Simulator ***

Warmup Instructions: 100000000
Simulation Instructions: 500000000
Number of CPUs: 1
LLC sets: 2048
LLC ways: 16
Clean RRIP Policies: 2213230222132302 Dirty RRIP Policies: 1203130212031302 PSEL Width: 10 Track Set: 4294967295 PSEL Mask: 1 Demote Mask: 1040100410401004DS Algo: 0Window size: 0
Off-chip DRAM Size: 4096 MB Channels: 1 Width: 64-bit Data Rate: 1600 MT/s

CPU 0 runs /mnt/beegfs/iconst01/spec2017/Parest.trace.gz
NOT SORTED
TRACE STRING: /mnt/beegfs/iconst01/spec2017/Parest.trace.gz
SORTED
TRACE STRING: /mnt/beegfs/iconst01/spec2017/Parest.trace.gz
INITIAL
TRACE STRING: /mnt/beegfs/iconst01/spec2017/Parest.trace.gz

champsim_seed used: 623

CPU 0 L1D next line prefetcher
CPU 0 L2C IP-based stride prefetcher
Initialize DRRIP state
Assign rand_sets[0]: 454  LLC: 2048
rand_sets[0]: 454
Assign rand_sets[1]: 1662  LLC: 2048
rand_sets[1]: 1662
Assign rand_sets[2]: 1921  LLC: 2048
rand_sets[2]: 1921
Assign rand_sets[3]: 1131  LLC: 2048
rand_sets[3]: 1131
Assign rand_sets[4]: 331  LLC: 2048
rand_sets[4]: 331
Assign rand_sets[5]: 1531  LLC: 2048
rand_sets[5]: 1531
Assign rand_sets[6]: 482  LLC: 2048
rand_sets[6]: 482
Assign rand_sets[7]: 1275  LLC: 2048
rand_sets[7]: 1275
Assign rand_sets[8]: 1876  LLC: 2048
rand_sets[8]: 1876
Assign rand_sets[9]: 2038  LLC: 2048
rand_sets[9]: 2038
Assign rand_sets[10]: 701  LLC: 2048
rand_sets[10]: 701
Assign rand_sets[11]: 479  LLC: 2048
rand_sets[11]: 479
Assign rand_sets[12]: 892  LLC: 2048
rand_sets[12]: 892
Assign rand_sets[13]: 1820  LLC: 2048
rand_sets[13]: 1820
Assign rand_sets[14]: 1505  LLC: 2048
rand_sets[14]: 1505
Assign rand_sets[15]: 1159  LLC: 2048
rand_sets[15]: 1159
Assign rand_sets[16]: 513  LLC: 2048
rand_sets[16]: 513
Assign rand_sets[17]: 703  LLC: 2048
rand_sets[17]: 703
Assign rand_sets[18]: 561  LLC: 2048
rand_sets[18]: 561
Assign rand_sets[19]: 990  LLC: 2048
rand_sets[19]: 990
Assign rand_sets[20]: 342  LLC: 2048
rand_sets[20]: 342
Assign rand_sets[21]: 882  LLC: 2048
rand_sets[21]: 882
Assign rand_sets[22]: 15  LLC: 2048
rand_sets[22]: 15
Assign rand_sets[23]: 71  LLC: 2048
rand_sets[23]: 71
Assign rand_sets[24]: 1127  LLC: 2048
rand_sets[24]: 1127
Assign rand_sets[25]: 1382  LLC: 2048
rand_sets[25]: 1382
Assign rand_sets[26]: 647  LLC: 2048
rand_sets[26]: 647
Assign rand_sets[27]: 857  LLC: 2048
rand_sets[27]: 857
Assign rand_sets[28]: 1450  LLC: 2048
rand_sets[28]: 1450
Assign rand_sets[29]: 1160  LLC: 2048
rand_sets[29]: 1160
Assign rand_sets[30]: 1852  LLC: 2048
rand_sets[30]: 1852
Assign rand_sets[31]: 1881  LLC: 2048
rand_sets[31]: 1881
Assign rand_sets[32]: 1770  LLC: 2048
rand_sets[32]: 1770
Assign rand_sets[33]: 1622  LLC: 2048
rand_sets[33]: 1622
Assign rand_sets[34]: 275  LLC: 2048
rand_sets[34]: 275
Assign rand_sets[35]: 635  LLC: 2048
rand_sets[35]: 635
Assign rand_sets[36]: 466  LLC: 2048
rand_sets[36]: 466
Assign rand_sets[37]: 1413  LLC: 2048
rand_sets[37]: 1413
Assign rand_sets[38]: 417  LLC: 2048
rand_sets[38]: 417
Assign rand_sets[39]: 472  LLC: 2048
rand_sets[39]: 472
Assign rand_sets[40]: 1340  LLC: 2048
rand_sets[40]: 1340
Assign rand_sets[41]: 852  LLC: 2048
rand_sets[41]: 852
Assign rand_sets[42]: 1365  LLC: 2048
rand_sets[42]: 1365
Assign rand_sets[43]: 47  LLC: 2048
rand_sets[43]: 47
Assign rand_sets[44]: 823  LLC: 2048
rand_sets[44]: 823
Assign rand_sets[45]: 686  LLC: 2048
rand_sets[45]: 686
Assign rand_sets[46]: 1637  LLC: 2048
rand_sets[46]: 1637
Assign rand_sets[47]: 1115  LLC: 2048
rand_sets[47]: 1115
Assign rand_sets[48]: 986  LLC: 2048
rand_sets[48]: 986
Assign rand_sets[49]: 258  LLC: 2048
rand_sets[49]: 258
Assign rand_sets[50]: 633  LLC: 2048
rand_sets[50]: 633
Assign rand_sets[51]: 920  LLC: 2048
rand_sets[51]: 920
Assign rand_sets[52]: 204  LLC: 2048
rand_sets[52]: 204
Assign rand_sets[53]: 227  LLC: 2048
rand_sets[53]: 227
Assign rand_sets[54]: 1818  LLC: 2048
rand_sets[54]: 1818
Assign rand_sets[55]: 886  LLC: 2048
rand_sets[55]: 886
Assign rand_sets[56]: 1422  LLC: 2048
rand_sets[56]: 1422
Assign rand_sets[57]: 607  LLC: 2048
rand_sets[57]: 607
Assign rand_sets[58]: 217  LLC: 2048
rand_sets[58]: 217
Assign rand_sets[59]: 1945  LLC: 2048
rand_sets[59]: 1945
Assign rand_sets[60]: 143  LLC: 2048
rand_sets[60]: 143
Assign rand_sets[61]: 1311  LLC: 2048
rand_sets[61]: 1311
Assign rand_sets[62]: 319  LLC: 2048
rand_sets[62]: 319
Assign rand_sets[63]: 1846  LLC: 2048
rand_sets[63]: 1846
 CLEAN-RRIP-POLICY-1: 2-2-1-3-2-3-0-2- CLEAN-RRIP-POLICY-2: 2-2-1-3-2-3-0-2-
 DIRTY-RRIP-POLICY-1: 1-2-0-3-1-3-0-2- DIRTY-RRIP-POLICY-2: 1-2-0-3-1-3-0-2-
 PSEL width: 10
Heartbeat CPU 0 instructions: 10000001 cycles: 4387159 heartbeat IPC: 2.27938 cumulative IPC: 2.27938 (Simulation time: 0 hr 0 min 14 sec) 
Heartbeat CPU 0 instructions: 20000000 cycles: 8781438 heartbeat IPC: 2.27569 cumulative IPC: 2.27753 (Simulation time: 0 hr 0 min 28 sec) 
Heartbeat CPU 0 instructions: 30000003 cycles: 13213408 heartbeat IPC: 2.25633 cumulative IPC: 2.27042 (Simulation time: 0 hr 0 min 43 sec) 
Heartbeat CPU 0 instructions: 40000000 cycles: 17644176 heartbeat IPC: 2.25694 cumulative IPC: 2.26704 (Simulation time: 0 hr 0 min 56 sec) 
Heartbeat CPU 0 instructions: 50000000 cycles: 22052807 heartbeat IPC: 2.26828 cumulative IPC: 2.26729 (Simulation time: 0 hr 1 min 10 sec) 
Heartbeat CPU 0 instructions: 60000000 cycles: 26458877 heartbeat IPC: 2.2696 cumulative IPC: 2.26767 (Simulation time: 0 hr 1 min 24 sec) 
Heartbeat CPU 0 instructions: 70000000 cycles: 30860010 heartbeat IPC: 2.27214 cumulative IPC: 2.26831 (Simulation time: 0 hr 1 min 38 sec) 
Heartbeat CPU 0 instructions: 80000000 cycles: 35255854 heartbeat IPC: 2.27488 cumulative IPC: 2.26913 (Simulation time: 0 hr 1 min 52 sec) 
Heartbeat CPU 0 instructions: 90000000 cycles: 39650270 heartbeat IPC: 2.27562 cumulative IPC: 2.26985 (Simulation time: 0 hr 2 min 6 sec) 
Heartbeat CPU 0 instructions: 100000000 cycles: 44047753 heartbeat IPC: 2.27403 cumulative IPC: 2.27026 (Simulation time: 0 hr 2 min 20 sec) 

Warmup complete CPU 0 instructions: 100000002 cycles: 44047763 (Simulation time: 0 hr 2 min 20 sec) 

Heartbeat CPU 0 instructions: 110000000 cycles: 54015524 heartbeat IPC: 1.00323 cumulative IPC: 1.00323 (Simulation time: 0 hr 2 min 38 sec) 
Heartbeat CPU 0 instructions: 120000000 cycles: 63009925 heartbeat IPC: 1.1118 cumulative IPC: 1.05473 (Simulation time: 0 hr 2 min 55 sec) 
Heartbeat CPU 0 instructions: 130000001 cycles: 72061564 heartbeat IPC: 1.10477 cumulative IPC: 1.0709 (Simulation time: 0 hr 3 min 12 sec) 
Heartbeat CPU 0 instructions: 140000000 cycles: 81271104 heartbeat IPC: 1.08583 cumulative IPC: 1.07459 (Simulation time: 0 hr 3 min 30 sec) 
Heartbeat CPU 0 instructions: 150000000 cycles: 92315901 heartbeat IPC: 0.905404 cumulative IPC: 1.03588 (Simulation time: 0 hr 3 min 48 sec) 
Heartbeat CPU 0 instructions: 160000000 cycles: 102337948 heartbeat IPC: 0.9978 cumulative IPC: 1.02933 (Simulation time: 0 hr 4 min 6 sec) 
Heartbeat CPU 0 instructions: 170000003 cycles: 112125303 heartbeat IPC: 1.02173 cumulative IPC: 1.02824 (Simulation time: 0 hr 4 min 23 sec) 
Heartbeat CPU 0 instructions: 180000000 cycles: 121777794 heartbeat IPC: 1.036 cumulative IPC: 1.0292 (Simulation time: 0 hr 4 min 41 sec) 
Heartbeat CPU 0 instructions: 190000002 cycles: 131549120 heartbeat IPC: 1.0234 cumulative IPC: 1.02856 (Simulation time: 0 hr 4 min 58 sec) 
Heartbeat CPU 0 instructions: 200000000 cycles: 140794994 heartbeat IPC: 1.08156 cumulative IPC: 1.03362 (Simulation time: 0 hr 5 min 16 sec) 
Heartbeat CPU 0 instructions: 210000000 cycles: 150442836 heartbeat IPC: 1.0365 cumulative IPC: 1.03388 (Simulation time: 0 hr 5 min 33 sec) 
Heartbeat CPU 0 instructions: 220000000 cycles: 159430494 heartbeat IPC: 1.11264 cumulative IPC: 1.04002 (Simulation time: 0 hr 5 min 51 sec) 
Heartbeat CPU 0 instructions: 230000001 cycles: 171632918 heartbeat IPC: 0.819509 cumulative IPC: 1.01893 (Simulation time: 0 hr 6 min 10 sec) 
Heartbeat CPU 0 instructions: 240000000 cycles: 182079532 heartbeat IPC: 0.957248 cumulative IPC: 1.01426 (Simulation time: 0 hr 6 min 27 sec) 
Heartbeat CPU 0 instructions: 250000002 cycles: 191906094 heartbeat IPC: 1.01765 cumulative IPC: 1.01448 (Simulation time: 0 hr 6 min 45 sec) 
Heartbeat CPU 0 instructions: 260000000 cycles: 201483852 heartbeat IPC: 1.04409 cumulative IPC: 1.01629 (Simulation time: 0 hr 7 min 2 sec) 
Heartbeat CPU 0 instructions: 270000001 cycles: 210896015 heartbeat IPC: 1.06246 cumulative IPC: 1.01889 (Simulation time: 0 hr 7 min 19 sec) 
Heartbeat CPU 0 instructions: 280000000 cycles: 220598053 heartbeat IPC: 1.03071 cumulative IPC: 1.01954 (Simulation time: 0 hr 7 min 37 sec) 
Heartbeat CPU 0 instructions: 290000002 cycles: 229699461 heartbeat IPC: 1.09873 cumulative IPC: 1.02342 (Simulation time: 0 hr 7 min 54 sec) 
Heartbeat CPU 0 instructions: 300000000 cycles: 239255407 heartbeat IPC: 1.04647 cumulative IPC: 1.02455 (Simulation time: 0 hr 8 min 11 sec) 
Heartbeat CPU 0 instructions: 310000000 cycles: 248294696 heartbeat IPC: 1.10628 cumulative IPC: 1.02817 (Simulation time: 0 hr 8 min 28 sec) 
Heartbeat CPU 0 instructions: 320000000 cycles: 257449466 heartbeat IPC: 1.09233 cumulative IPC: 1.03092 (Simulation time: 0 hr 8 min 46 sec) 
Heartbeat CPU 0 instructions: 330000003 cycles: 266770385 heartbeat IPC: 1.07286 cumulative IPC: 1.03267 (Simulation time: 0 hr 9 min 3 sec) 
Heartbeat CPU 0 instructions: 340000000 cycles: 276712845 heartbeat IPC: 1.00579 cumulative IPC: 1.03153 (Simulation time: 0 hr 9 min 21 sec) 
Heartbeat CPU 0 instructions: 350000000 cycles: 287002477 heartbeat IPC: 0.971852 cumulative IPC: 1.029 (Simulation time: 0 hr 9 min 38 sec) 
Heartbeat CPU 0 instructions: 360000000 cycles: 296761014 heartbeat IPC: 1.02474 cumulative IPC: 1.02883 (Simulation time: 0 hr 9 min 55 sec) 
Heartbeat CPU 0 instructions: 370000000 cycles: 306249639 heartbeat IPC: 1.05389 cumulative IPC: 1.02974 (Simulation time: 0 hr 10 min 12 sec) 
Heartbeat CPU 0 instructions: 380000000 cycles: 315567482 heartbeat IPC: 1.07321 cumulative IPC: 1.03123 (Simulation time: 0 hr 10 min 30 sec) 
Heartbeat CPU 0 instructions: 390000002 cycles: 324674499 heartbeat IPC: 1.09805 cumulative IPC: 1.0334 (Simulation time: 0 hr 10 min 47 sec) 
Heartbeat CPU 0 instructions: 400000000 cycles: 334199336 heartbeat IPC: 1.04989 cumulative IPC: 1.03394 (Simulation time: 0 hr 11 min 4 sec) 
Heartbeat CPU 0 instructions: 410000000 cycles: 343136401 heartbeat IPC: 1.11894 cumulative IPC: 1.03648 (Simulation time: 0 hr 11 min 21 sec) 
Heartbeat CPU 0 instructions: 420000000 cycles: 354024348 heartbeat IPC: 0.918447 cumulative IPC: 1.03234 (Simulation time: 0 hr 11 min 39 sec) 
Heartbeat CPU 0 instructions: 430000000 cycles: 364860633 heartbeat IPC: 0.922826 cumulative IPC: 1.02864 (Simulation time: 0 hr 11 min 57 sec) 
Heartbeat CPU 0 instructions: 440000000 cycles: 374702606 heartbeat IPC: 1.01606 cumulative IPC: 1.02826 (Simulation time: 0 hr 12 min 14 sec) 
Heartbeat CPU 0 instructions: 450000000 cycles: 384447057 heartbeat IPC: 1.02623 cumulative IPC: 1.0282 (Simulation time: 0 hr 12 min 32 sec) 
Heartbeat CPU 0 instructions: 460000000 cycles: 394160826 heartbeat IPC: 1.02947 cumulative IPC: 1.02824 (Simulation time: 0 hr 12 min 49 sec) 
Heartbeat CPU 0 instructions: 470000001 cycles: 403922011 heartbeat IPC: 1.02447 cumulative IPC: 1.02814 (Simulation time: 0 hr 13 min 6 sec) 
Heartbeat CPU 0 instructions: 480000000 cycles: 413144818 heartbeat IPC: 1.08427 cumulative IPC: 1.02954 (Simulation time: 0 hr 13 min 24 sec) 
Heartbeat CPU 0 instructions: 490000002 cycles: 422845336 heartbeat IPC: 1.03087 cumulative IPC: 1.02957 (Simulation time: 0 hr 13 min 41 sec) 
Heartbeat CPU 0 instructions: 500000000 cycles: 432162285 heartbeat IPC: 1.07331 cumulative IPC: 1.03062 (Simulation time: 0 hr 13 min 58 sec) 
Heartbeat CPU 0 instructions: 510000000 cycles: 441289144 heartbeat IPC: 1.09567 cumulative IPC: 1.03212 (Simulation time: 0 hr 14 min 16 sec) 
Heartbeat CPU 0 instructions: 520000000 cycles: 450686496 heartbeat IPC: 1.06413 cumulative IPC: 1.03286 (Simulation time: 0 hr 14 min 33 sec) 
Heartbeat CPU 0 instructions: 530000001 cycles: 460857122 heartbeat IPC: 0.983224 cumulative IPC: 1.03165 (Simulation time: 0 hr 14 min 51 sec) 
Heartbeat CPU 0 instructions: 540000000 cycles: 471300143 heartbeat IPC: 0.957577 cumulative IPC: 1.02984 (Simulation time: 0 hr 15 min 8 sec) 
Heartbeat CPU 0 instructions: 550000003 cycles: 481241474 heartbeat IPC: 1.0059 cumulative IPC: 1.02929 (Simulation time: 0 hr 15 min 25 sec) 
Heartbeat CPU 0 instructions: 560000000 cycles: 490919966 heartbeat IPC: 1.03322 cumulative IPC: 1.02938 (Simulation time: 0 hr 15 min 43 sec) 
Heartbeat CPU 0 instructions: 570000002 cycles: 500427855 heartbeat IPC: 1.05176 cumulative IPC: 1.02984 (Simulation time: 0 hr 16 min 0 sec) 
Heartbeat CPU 0 instructions: 580000000 cycles: 509743861 heartbeat IPC: 1.07342 cumulative IPC: 1.03072 (Simulation time: 0 hr 16 min 17 sec) 
Heartbeat CPU 0 instructions: 590000001 cycles: 519386629 heartbeat IPC: 1.03705 cumulative IPC: 1.03084 (Simulation time: 0 hr 16 min 34 sec) 
Heartbeat CPU 0 instructions: 600000000 cycles: 528610782 heartbeat IPC: 1.08411 cumulative IPC: 1.03186 (Simulation time: 0 hr 16 min 52 sec) 
Finished CPU 0 instructions: 500000000 cycles: 484563033 cumulative IPC: 1.03186 (Simulation time: 0 hr 16 min 52 sec) 

CPU 0 Branch Prediction Accuracy: 97.8526% MPKI: 2.66709
Number of Branches: 62099103 Number of Mispredictions: 1333545
Number of LOAD Instructions: 210576465
Number of LOAD Instructions (ROI): 210576465
Number of STORE Instructions: 16915507
Number of STORE Instructions (ROI): 16915507
Total Destination Memory Operands: 16918869
Total Destination Memory Operands (ROI): 16918869
Total Source Memory Operands: 210576465
Total Source Memory Operands (ROI): 210576465
Number of DEPENDED LOADS: 345413
Number of DEPENDED LOADS (ROI): 345413
Number of SQ_ADDED: 16918826
Number of SQ_ADDED (ROI): 16918826
Number of LQ_ADDED: 210608203
Number of LQ_ADDED (ROI): 210608203
Number of Instructions read from trace: 600000257

ChampSim completed all CPUs

Region of Interest Statistics

CPU 0 cumulative IPC: 1.03186 instructions: 500000000 cycles: 484563033
ITLB TOTAL     ACCESS:   76353395  HIT:   76353357  MISS:         38
ITLB LOAD      ACCESS:   76353395  HIT:   76353357  MISS:         38
ITLB RFO       ACCESS:          0  HIT:          0  MISS:          0
ITLB PREFETCH  ACCESS:          0  HIT:          0  MISS:          0
ITLB WRITEBACK ACCESS:          0  HIT:          0  MISS:          0
ITLB PREFETCH  REQUESTED:          0  ISSUED:          0  USEFUL:          0  USELESS:          0
ITLB TOTAL MSHR MERGED:         37
ITLB LOAD MSHR MERGED:         37
ITLB RFO MSHR MERGED:          0
ITLB PREFETCH MSHR MERGED:          0
ITLB WRITEBACK MSHR MERGED:          0
ITLB TOTAL ACCESSES:   76353432 HITS:   76353357 MISSES:         75
ITLB LOAD ACCESSES:   76353432 HITS:   76353357 MISSES:         75
ITLB RFO ACCESSES:          0 HITS:          0 MISSES:          0
ITLB PREFETCH ACCESSES:          0 HITS:          0 MISSES:          0
ITLB WRITEBACK ACCESSES:          0 HITS:          0 MISSES:          0
ITLB RQ ACCESS:  500000188
ITLB RQ TO_CACHE:   76353433
ITLB RQ MERGED:  423646755
ITLB RQ FORWARD:          0
ITLB WQ ACCESS:          0
ITLB WQ TO_CACHE:          0
ITLB WQ MERGED:          0
ITLB WQ FORWARD:          0
DTLB TOTAL     ACCESS:  136731293  HIT:  136528500  MISS:     202793
DTLB LOAD      ACCESS:  128669284  HIT:  128469212  MISS:     200072
DTLB RFO       ACCESS:    8062009  HIT:    8059288  MISS:       2721
DTLB PREFETCH  ACCESS:          0  HIT:          0  MISS:          0
DTLB WRITEBACK ACCESS:          0  HIT:          0  MISS:          0
DTLB PREFETCH  REQUESTED:          0  ISSUED:          0  USEFUL:          0  USELESS:          0
DTLB TOTAL MSHR MERGED:     447917
DTLB LOAD MSHR MERGED:     444272
DTLB RFO MSHR MERGED:       3645
DTLB PREFETCH MSHR MERGED:          0
DTLB WRITEBACK MSHR MERGED:          0
DTLB TOTAL ACCESSES:  137179210 HITS:  136528500 MISSES:     650710
DTLB LOAD ACCESSES:  129113556 HITS:  128469212 MISSES:     644344
DTLB RFO ACCESSES:    8065654 HITS:    8059288 MISSES:       6366
DTLB PREFETCH ACCESSES:          0 HITS:          0 MISSES:          0
DTLB WRITEBACK ACCESSES:          0 HITS:          0 MISSES:          0
DTLB RQ ACCESS:  189419146
DTLB RQ TO_CACHE:  137179210
DTLB RQ MERGED:   52239936
DTLB RQ FORWARD:          0
DTLB WQ ACCESS:          0
DTLB WQ TO_CACHE:          0
DTLB WQ MERGED:          0
DTLB WQ FORWARD:          0
L1D TOTAL     ACCESS:  125109368  HIT:  107552376  MISS:   17556992
L1D LOAD      ACCESS:   72239254  HIT:   61941324  MISS:   10297930
L1D RFO       ACCESS:   14013902  HIT:   13861061  MISS:     152841
L1D PREFETCH  ACCESS:   38856212  HIT:   31749991  MISS:    7106221
L1D WRITEBACK ACCESS:          0  HIT:          0  MISS:          0
L1D PREFETCH  REQUESTED:   85470956  ISSUED:   84151034  USEFUL:    5846809  USELESS:    1259423
L1D TOTAL MSHR MERGED:   31719876
L1D LOAD MSHR MERGED:   18417300
L1D RFO MSHR MERGED:     266805
L1D PREFETCH MSHR MERGED:   13035771
L1D WRITEBACK MSHR MERGED:          0
L1D TOTAL ACCESSES:  156829730 HITS:  107552863 MISSES:   49276867
L1D LOAD ACCESSES:   85470961 HITS:   61941329 MISSES:   23529632
L1D RFO ACCESSES:   14280674 HITS:   13861061 MISSES:     419613
L1D PREFETCH ACCESSES:   57078095 HITS:   31750473 MISSES:   25327622
L1D WRITEBACK ACCESSES:          0 HITS:          0 MISSES:          0
L1D RQ ACCESS:  175130124
L1D RQ TO_CACHE:   85470956
L1D RQ MERGED:   89659163
L1D RQ FORWARD:          0
L1D WQ ACCESS:   14289037
L1D WQ TO_CACHE:   14280674
L1D WQ MERGED:       8363
L1D WQ FORWARD:        487
L1I TOTAL     ACCESS:   93382827  HIT:   93381031  MISS:       1796
L1I LOAD      ACCESS:   93382827  HIT:   93381031  MISS:       1796
L1I RFO       ACCESS:          0  HIT:          0  MISS:          0
L1I PREFETCH  ACCESS:          0  HIT:          0  MISS:          0
L1I WRITEBACK ACCESS:          0  HIT:          0  MISS:          0
L1I PREFETCH  REQUESTED:          0  ISSUED:          0  USEFUL:          0  USELESS:          0
L1I TOTAL MSHR MERGED:       2339
L1I LOAD MSHR MERGED:       2339
L1I RFO MSHR MERGED:          0
L1I PREFETCH MSHR MERGED:          0
L1I WRITEBACK MSHR MERGED:          0
L1I TOTAL ACCESSES:   93385166 HITS:   93381031 MISSES:       4135
L1I LOAD ACCESSES:   93385166 HITS:   93381031 MISSES:       4135
L1I RFO ACCESSES:          0 HITS:          0 MISSES:          0
L1I PREFETCH ACCESSES:          0 HITS:          0 MISSES:          0
L1I WRITEBACK ACCESSES:          0 HITS:          0 MISSES:          0
L1I RQ ACCESS:  500000187
L1I RQ TO_CACHE:   93385166
L1I RQ MERGED:  406615021
L1I RQ FORWARD:          0
L1I WQ ACCESS:          0
L1I WQ TO_CACHE:          0
L1I WQ MERGED:          0
L1I WQ FORWARD:          0
L2C TOTAL     ACCESS:   20902858  HIT:    8673769  MISS:   12229089
L2C LOAD      ACCESS:    5114106  HIT:    2146100  MISS:    2968006
L2C RFO       ACCESS:     152808  HIT:       6515  MISS:     146293
L2C PREFETCH  ACCESS:   13863191  HIT:    4748510  MISS:    9114681
L2C WRITEBACK ACCESS:    1772753  HIT:    1772644  MISS:        109
L2C PREFETCH  REQUESTED:    1813701  ISSUED:    1813701  USEFUL:    1066771  USELESS:    8049567
L2C TOTAL MSHR MERGED:      98268
L2C LOAD MSHR MERGED:      22309
L2C RFO MSHR MERGED:          0
L2C PREFETCH MSHR MERGED:      75959
L2C WRITEBACK MSHR MERGED:          0
L2C TOTAL ACCESSES:   21025163 HITS:    8673803 MISSES:   12351360
L2C LOAD ACCESSES:    5114128 HITS:    2146122 MISSES:    2968006
L2C RFO ACCESSES:     152808 HITS:       6515 MISSES:     146293
L2C PREFETCH ACCESSES:   13985474 HITS:    4748522 MISSES:    9236952
L2C WRITEBACK ACCESSES:    1772753 HITS:    1772644 MISSES:        109
L2C RQ ACCESS:    5266936
L2C RQ TO_CACHE:    5266914
L2C RQ MERGED:          0
L2C RQ FORWARD:          0
L2C WQ ACCESS:    1772753
L2C WQ TO_CACHE:    1772753
L2C WQ MERGED:          0
L2C WQ FORWARD:         34
LLC TOTAL     ACCESS:   12533709  HIT:    6824686  MISS:    5709023
LLC LOAD      ACCESS:    2945680  HIT:    2504716  MISS:     440964
LLC RFO       ACCESS:     146293  HIT:      78415  MISS:      67878
LLC PREFETCH  ACCESS:    9155755  HIT:    4007064  MISS:    5148691
LLC WRITEBACK ACCESS:     285981  HIT:     234491  MISS:      51490
LLC PREFETCH  REQUESTED:          0  ISSUED:          0  USEFUL:       8015  USELESS:    5140549
LLC TOTAL MSHR MERGED:        943
LLC LOAD MSHR MERGED:        174
LLC RFO MSHR MERGED:          0
LLC PREFETCH MSHR MERGED:        769
LLC WRITEBACK MSHR MERGED:          0
LLC TOTAL ACCESSES:   12534681 HITS:    6824715 MISSES:    5709966
LLC LOAD ACCESSES:    2945697 HITS:    2504733 MISSES:     440964
LLC RFO ACCESSES:     146293 HITS:      78415 MISSES:      67878
LLC PREFETCH ACCESSES:    9156710 HITS:    4007076 MISSES:    5149634
LLC WRITEBACK ACCESSES:     285981 HITS:     234491 MISSES:      51490
LLC 0 RQ ACCESS:    3091990
LLC 0 RQ TO_CACHE:    3091973
LLC 0 RQ MERGED:          0
LLC 0 RQ FORWARD:          0
LLC WQ ACCESS:     285981
LLC WQ TO_CACHE:     285981
LLC WQ MERGED:          0
LLC WQ FORWARD:         29
Major fault: 0 Minor fault: 6524
CPU 0 L1D next line prefetcher final stats
CPU 0 L2C PC-based stride prefetcher final stats
All Misses: 7505301
All Hits: 7553420
SD Algo Stats - Switches: 0 SRR-Repls: 467095 BRR-Repls: 0

DRAM Statistics
 CHANNEL 0
 RQ ROW_BUFFER_HIT:    4851172  ROW_BUFFER_MISS:     798644
 DBUS_CONGESTED:    2026486
 WQ ROW_BUFFER_HIT:      14782  ROW_BUFFER_MISS:      71520  FULL:          0

 AVG_CONGESTED_CYCLE: 12
LOADS RETIRED: 175418235
INSTR RETIRED: 500000000
