
*** ChampSim Multicore Out-of-Order Simulator ***

Warmup Instructions: 100000000
Simulation Instructions: 500000000
Number of CPUs: 1
LLC sets: 2048
LLC ways: 16
Clean RRIP Policies: 2213230222132302 Dirty RRIP Policies: 1203130212031302 PSEL Width: 10 Track Set: 4294967295 PSEL Mask: 1 Demote Mask: 1020100010201000DS Algo: 0Window size: 0
Off-chip DRAM Size: 4096 MB Channels: 1 Width: 64-bit Data Rate: 1600 MT/s

CPU 0 runs /mnt/beegfs/iconst01/spec2017/Gcc.trace.gz
NOT SORTED
TRACE STRING: /mnt/beegfs/iconst01/spec2017/Gcc.trace.gz
SORTED
TRACE STRING: /mnt/beegfs/iconst01/spec2017/Gcc.trace.gz
INITIAL
TRACE STRING: /mnt/beegfs/iconst01/spec2017/Gcc.trace.gz

champsim_seed used: 269

CPU 0 L1D next line prefetcher
CPU 0 L2C IP-based stride prefetcher
Initialize DRRIP state
Assign rand_sets[0]: 454  LLC: 2048
rand_sets[0]: 454
Assign rand_sets[1]: 1662  LLC: 2048
rand_sets[1]: 1662
Assign rand_sets[2]: 1921  LLC: 2048
rand_sets[2]: 1921
Assign rand_sets[3]: 1131  LLC: 2048
rand_sets[3]: 1131
Assign rand_sets[4]: 331  LLC: 2048
rand_sets[4]: 331
Assign rand_sets[5]: 1531  LLC: 2048
rand_sets[5]: 1531
Assign rand_sets[6]: 482  LLC: 2048
rand_sets[6]: 482
Assign rand_sets[7]: 1275  LLC: 2048
rand_sets[7]: 1275
Assign rand_sets[8]: 1876  LLC: 2048
rand_sets[8]: 1876
Assign rand_sets[9]: 2038  LLC: 2048
rand_sets[9]: 2038
Assign rand_sets[10]: 701  LLC: 2048
rand_sets[10]: 701
Assign rand_sets[11]: 479  LLC: 2048
rand_sets[11]: 479
Assign rand_sets[12]: 892  LLC: 2048
rand_sets[12]: 892
Assign rand_sets[13]: 1820  LLC: 2048
rand_sets[13]: 1820
Assign rand_sets[14]: 1505  LLC: 2048
rand_sets[14]: 1505
Assign rand_sets[15]: 1159  LLC: 2048
rand_sets[15]: 1159
Assign rand_sets[16]: 513  LLC: 2048
rand_sets[16]: 513
Assign rand_sets[17]: 703  LLC: 2048
rand_sets[17]: 703
Assign rand_sets[18]: 561  LLC: 2048
rand_sets[18]: 561
Assign rand_sets[19]: 990  LLC: 2048
rand_sets[19]: 990
Assign rand_sets[20]: 342  LLC: 2048
rand_sets[20]: 342
Assign rand_sets[21]: 882  LLC: 2048
rand_sets[21]: 882
Assign rand_sets[22]: 15  LLC: 2048
rand_sets[22]: 15
Assign rand_sets[23]: 71  LLC: 2048
rand_sets[23]: 71
Assign rand_sets[24]: 1127  LLC: 2048
rand_sets[24]: 1127
Assign rand_sets[25]: 1382  LLC: 2048
rand_sets[25]: 1382
Assign rand_sets[26]: 647  LLC: 2048
rand_sets[26]: 647
Assign rand_sets[27]: 857  LLC: 2048
rand_sets[27]: 857
Assign rand_sets[28]: 1450  LLC: 2048
rand_sets[28]: 1450
Assign rand_sets[29]: 1160  LLC: 2048
rand_sets[29]: 1160
Assign rand_sets[30]: 1852  LLC: 2048
rand_sets[30]: 1852
Assign rand_sets[31]: 1881  LLC: 2048
rand_sets[31]: 1881
Assign rand_sets[32]: 1770  LLC: 2048
rand_sets[32]: 1770
Assign rand_sets[33]: 1622  LLC: 2048
rand_sets[33]: 1622
Assign rand_sets[34]: 275  LLC: 2048
rand_sets[34]: 275
Assign rand_sets[35]: 635  LLC: 2048
rand_sets[35]: 635
Assign rand_sets[36]: 466  LLC: 2048
rand_sets[36]: 466
Assign rand_sets[37]: 1413  LLC: 2048
rand_sets[37]: 1413
Assign rand_sets[38]: 417  LLC: 2048
rand_sets[38]: 417
Assign rand_sets[39]: 472  LLC: 2048
rand_sets[39]: 472
Assign rand_sets[40]: 1340  LLC: 2048
rand_sets[40]: 1340
Assign rand_sets[41]: 852  LLC: 2048
rand_sets[41]: 852
Assign rand_sets[42]: 1365  LLC: 2048
rand_sets[42]: 1365
Assign rand_sets[43]: 47  LLC: 2048
rand_sets[43]: 47
Assign rand_sets[44]: 823  LLC: 2048
rand_sets[44]: 823
Assign rand_sets[45]: 686  LLC: 2048
rand_sets[45]: 686
Assign rand_sets[46]: 1637  LLC: 2048
rand_sets[46]: 1637
Assign rand_sets[47]: 1115  LLC: 2048
rand_sets[47]: 1115
Assign rand_sets[48]: 986  LLC: 2048
rand_sets[48]: 986
Assign rand_sets[49]: 258  LLC: 2048
rand_sets[49]: 258
Assign rand_sets[50]: 633  LLC: 2048
rand_sets[50]: 633
Assign rand_sets[51]: 920  LLC: 2048
rand_sets[51]: 920
Assign rand_sets[52]: 204  LLC: 2048
rand_sets[52]: 204
Assign rand_sets[53]: 227  LLC: 2048
rand_sets[53]: 227
Assign rand_sets[54]: 1818  LLC: 2048
rand_sets[54]: 1818
Assign rand_sets[55]: 886  LLC: 2048
rand_sets[55]: 886
Assign rand_sets[56]: 1422  LLC: 2048
rand_sets[56]: 1422
Assign rand_sets[57]: 607  LLC: 2048
rand_sets[57]: 607
Assign rand_sets[58]: 217  LLC: 2048
rand_sets[58]: 217
Assign rand_sets[59]: 1945  LLC: 2048
rand_sets[59]: 1945
Assign rand_sets[60]: 143  LLC: 2048
rand_sets[60]: 143
Assign rand_sets[61]: 1311  LLC: 2048
rand_sets[61]: 1311
Assign rand_sets[62]: 319  LLC: 2048
rand_sets[62]: 319
Assign rand_sets[63]: 1846  LLC: 2048
rand_sets[63]: 1846
 CLEAN-RRIP-POLICY-1: 2-2-1-3-2-3-0-2- CLEAN-RRIP-POLICY-2: 2-2-1-3-2-3-0-2-
 DIRTY-RRIP-POLICY-1: 1-2-0-3-1-3-0-2- DIRTY-RRIP-POLICY-2: 1-2-0-3-1-3-0-2-
 PSEL width: 10
Heartbeat CPU 0 instructions: 10000001 cycles: 7315979 heartbeat IPC: 1.36687 cumulative IPC: 1.36687 (Simulation time: 0 hr 0 min 14 sec) 
Heartbeat CPU 0 instructions: 20000000 cycles: 14307707 heartbeat IPC: 1.43026 cumulative IPC: 1.39785 (Simulation time: 0 hr 0 min 27 sec) 
Heartbeat CPU 0 instructions: 30000001 cycles: 21020612 heartbeat IPC: 1.48967 cumulative IPC: 1.42717 (Simulation time: 0 hr 0 min 43 sec) 
Heartbeat CPU 0 instructions: 40000000 cycles: 27481392 heartbeat IPC: 1.5478 cumulative IPC: 1.45553 (Simulation time: 0 hr 0 min 58 sec) 
Heartbeat CPU 0 instructions: 50000001 cycles: 33583157 heartbeat IPC: 1.63887 cumulative IPC: 1.48884 (Simulation time: 0 hr 1 min 12 sec) 
Heartbeat CPU 0 instructions: 60000000 cycles: 40064403 heartbeat IPC: 1.54291 cumulative IPC: 1.49759 (Simulation time: 0 hr 1 min 27 sec) 
Heartbeat CPU 0 instructions: 70000000 cycles: 47103436 heartbeat IPC: 1.42065 cumulative IPC: 1.48609 (Simulation time: 0 hr 1 min 42 sec) 
Heartbeat CPU 0 instructions: 80000000 cycles: 54193782 heartbeat IPC: 1.41037 cumulative IPC: 1.47618 (Simulation time: 0 hr 1 min 55 sec) 
Heartbeat CPU 0 instructions: 90000003 cycles: 61198573 heartbeat IPC: 1.42759 cumulative IPC: 1.47062 (Simulation time: 0 hr 2 min 9 sec) 
Heartbeat CPU 0 instructions: 100000000 cycles: 68366151 heartbeat IPC: 1.39517 cumulative IPC: 1.46271 (Simulation time: 0 hr 2 min 23 sec) 

Warmup complete CPU 0 instructions: 100000004 cycles: 68366152 (Simulation time: 0 hr 2 min 23 sec) 

Heartbeat CPU 0 instructions: 110000003 cycles: 95981436 heartbeat IPC: 0.362118 cumulative IPC: 0.362118 (Simulation time: 0 hr 2 min 50 sec) 
Heartbeat CPU 0 instructions: 120000000 cycles: 123429480 heartbeat IPC: 0.364325 cumulative IPC: 0.363218 (Simulation time: 0 hr 3 min 17 sec) 
Heartbeat CPU 0 instructions: 130000000 cycles: 148399079 heartbeat IPC: 0.400487 cumulative IPC: 0.374846 (Simulation time: 0 hr 3 min 43 sec) 
Heartbeat CPU 0 instructions: 140000000 cycles: 177956642 heartbeat IPC: 0.338323 cumulative IPC: 0.364995 (Simulation time: 0 hr 4 min 10 sec) 
Heartbeat CPU 0 instructions: 150000000 cycles: 207833293 heartbeat IPC: 0.33471 cumulative IPC: 0.358507 (Simulation time: 0 hr 4 min 36 sec) 
Heartbeat CPU 0 instructions: 160000000 cycles: 235253814 heartbeat IPC: 0.36469 cumulative IPC: 0.359523 (Simulation time: 0 hr 5 min 2 sec) 
Heartbeat CPU 0 instructions: 170000001 cycles: 263232826 heartbeat IPC: 0.357411 cumulative IPC: 0.35922 (Simulation time: 0 hr 5 min 30 sec) 
Heartbeat CPU 0 instructions: 180000000 cycles: 291661369 heartbeat IPC: 0.351759 cumulative IPC: 0.35827 (Simulation time: 0 hr 5 min 57 sec) 
Heartbeat CPU 0 instructions: 190000002 cycles: 319657097 heartbeat IPC: 0.357197 cumulative IPC: 0.358151 (Simulation time: 0 hr 6 min 24 sec) 
Heartbeat CPU 0 instructions: 200000000 cycles: 348009907 heartbeat IPC: 0.352699 cumulative IPC: 0.357598 (Simulation time: 0 hr 6 min 52 sec) 
Heartbeat CPU 0 instructions: 210000002 cycles: 375855586 heartbeat IPC: 0.359122 cumulative IPC: 0.357736 (Simulation time: 0 hr 7 min 19 sec) 
Heartbeat CPU 0 instructions: 220000000 cycles: 405057222 heartbeat IPC: 0.342447 cumulative IPC: 0.35641 (Simulation time: 0 hr 7 min 44 sec) 
Heartbeat CPU 0 instructions: 230000000 cycles: 432568316 heartbeat IPC: 0.36349 cumulative IPC: 0.356945 (Simulation time: 0 hr 8 min 10 sec) 
Heartbeat CPU 0 instructions: 240000000 cycles: 458488698 heartbeat IPC: 0.385797 cumulative IPC: 0.358862 (Simulation time: 0 hr 8 min 36 sec) 
Heartbeat CPU 0 instructions: 250000000 cycles: 488596809 heartbeat IPC: 0.332136 cumulative IPC: 0.356947 (Simulation time: 0 hr 9 min 4 sec) 
Heartbeat CPU 0 instructions: 260000000 cycles: 515675740 heartbeat IPC: 0.369291 cumulative IPC: 0.357694 (Simulation time: 0 hr 9 min 30 sec) 
Heartbeat CPU 0 instructions: 270000003 cycles: 544072704 heartbeat IPC: 0.35215 cumulative IPC: 0.357363 (Simulation time: 0 hr 9 min 58 sec) 
Heartbeat CPU 0 instructions: 280000000 cycles: 572233917 heartbeat IPC: 0.355098 cumulative IPC: 0.357237 (Simulation time: 0 hr 10 min 26 sec) 
Heartbeat CPU 0 instructions: 290000000 cycles: 601162541 heartbeat IPC: 0.345678 cumulative IPC: 0.356609 (Simulation time: 0 hr 10 min 54 sec) 
Heartbeat CPU 0 instructions: 300000000 cycles: 631201237 heartbeat IPC: 0.332904 cumulative IPC: 0.355344 (Simulation time: 0 hr 11 min 20 sec) 
Heartbeat CPU 0 instructions: 310000001 cycles: 660646952 heartbeat IPC: 0.339608 cumulative IPC: 0.354562 (Simulation time: 0 hr 11 min 47 sec) 
Heartbeat CPU 0 instructions: 320000000 cycles: 688890945 heartbeat IPC: 0.354058 cumulative IPC: 0.354539 (Simulation time: 0 hr 12 min 13 sec) 
Heartbeat CPU 0 instructions: 330000000 cycles: 717540894 heartbeat IPC: 0.349041 cumulative IPC: 0.354296 (Simulation time: 0 hr 12 min 39 sec) 
Heartbeat CPU 0 instructions: 340000000 cycles: 746803885 heartbeat IPC: 0.341729 cumulative IPC: 0.353754 (Simulation time: 0 hr 13 min 6 sec) 
Heartbeat CPU 0 instructions: 350000003 cycles: 773863777 heartbeat IPC: 0.369551 cumulative IPC: 0.35436 (Simulation time: 0 hr 13 min 32 sec) 
Heartbeat CPU 0 instructions: 360000000 cycles: 802008680 heartbeat IPC: 0.355304 cumulative IPC: 0.354396 (Simulation time: 0 hr 13 min 57 sec) 
Heartbeat CPU 0 instructions: 370000000 cycles: 830189433 heartbeat IPC: 0.354852 cumulative IPC: 0.354413 (Simulation time: 0 hr 14 min 22 sec) 
Heartbeat CPU 0 instructions: 380000000 cycles: 858683248 heartbeat IPC: 0.350953 cumulative IPC: 0.354288 (Simulation time: 0 hr 14 min 47 sec) 
Heartbeat CPU 0 instructions: 390000001 cycles: 886288501 heartbeat IPC: 0.36225 cumulative IPC: 0.354557 (Simulation time: 0 hr 15 min 12 sec) 
Heartbeat CPU 0 instructions: 400000000 cycles: 914920412 heartbeat IPC: 0.349261 cumulative IPC: 0.354378 (Simulation time: 0 hr 15 min 38 sec) 
Heartbeat CPU 0 instructions: 410000001 cycles: 942218368 heartbeat IPC: 0.366328 cumulative IPC: 0.354751 (Simulation time: 0 hr 16 min 3 sec) 
Heartbeat CPU 0 instructions: 420000000 cycles: 969532980 heartbeat IPC: 0.366104 cumulative IPC: 0.355095 (Simulation time: 0 hr 16 min 28 sec) 
Heartbeat CPU 0 instructions: 430000002 cycles: 997239871 heartbeat IPC: 0.360921 cumulative IPC: 0.355269 (Simulation time: 0 hr 16 min 53 sec) 
Heartbeat CPU 0 instructions: 440000000 cycles: 1026780171 heartbeat IPC: 0.338521 cumulative IPC: 0.354753 (Simulation time: 0 hr 17 min 18 sec) 
Heartbeat CPU 0 instructions: 450000002 cycles: 1056014303 heartbeat IPC: 0.342066 cumulative IPC: 0.354377 (Simulation time: 0 hr 17 min 43 sec) 
Heartbeat CPU 0 instructions: 460000000 cycles: 1083708806 heartbeat IPC: 0.361082 cumulative IPC: 0.35456 (Simulation time: 0 hr 18 min 8 sec) 
Heartbeat CPU 0 instructions: 470000000 cycles: 1111337026 heartbeat IPC: 0.361949 cumulative IPC: 0.354756 (Simulation time: 0 hr 18 min 33 sec) 
Heartbeat CPU 0 instructions: 480000000 cycles: 1139211466 heartbeat IPC: 0.358752 cumulative IPC: 0.35486 (Simulation time: 0 hr 18 min 58 sec) 
Heartbeat CPU 0 instructions: 490000000 cycles: 1166799244 heartbeat IPC: 0.362479 cumulative IPC: 0.355051 (Simulation time: 0 hr 19 min 23 sec) 
Heartbeat CPU 0 instructions: 500000000 cycles: 1195121595 heartbeat IPC: 0.353078 cumulative IPC: 0.355002 (Simulation time: 0 hr 19 min 49 sec) 
Heartbeat CPU 0 instructions: 510000000 cycles: 1229213827 heartbeat IPC: 0.293322 cumulative IPC: 0.35319 (Simulation time: 0 hr 20 min 17 sec) 
Heartbeat CPU 0 instructions: 520000000 cycles: 1257238011 heartbeat IPC: 0.356835 cumulative IPC: 0.353276 (Simulation time: 0 hr 20 min 43 sec) 
Heartbeat CPU 0 instructions: 530000001 cycles: 1286809411 heartbeat IPC: 0.338165 cumulative IPC: 0.352909 (Simulation time: 0 hr 21 min 10 sec) 
Heartbeat CPU 0 instructions: 540000000 cycles: 1314899951 heartbeat IPC: 0.355992 cumulative IPC: 0.352979 (Simulation time: 0 hr 21 min 36 sec) 
Heartbeat CPU 0 instructions: 550000001 cycles: 1344068496 heartbeat IPC: 0.342835 cumulative IPC: 0.352747 (Simulation time: 0 hr 22 min 3 sec) 
Heartbeat CPU 0 instructions: 560000000 cycles: 1369459341 heartbeat IPC: 0.393843 cumulative IPC: 0.353549 (Simulation time: 0 hr 22 min 29 sec) 
Heartbeat CPU 0 instructions: 570000000 cycles: 1398934766 heartbeat IPC: 0.339266 cumulative IPC: 0.353232 (Simulation time: 0 hr 22 min 55 sec) 
Heartbeat CPU 0 instructions: 580000000 cycles: 1426890645 heartbeat IPC: 0.357707 cumulative IPC: 0.353325 (Simulation time: 0 hr 23 min 22 sec) 
Heartbeat CPU 0 instructions: 590000001 cycles: 1451619031 heartbeat IPC: 0.404394 cumulative IPC: 0.354237 (Simulation time: 0 hr 23 min 46 sec) 
Heartbeat CPU 0 instructions: 600000000 cycles: 1477661488 heartbeat IPC: 0.383988 cumulative IPC: 0.354787 (Simulation time: 0 hr 24 min 12 sec) 
Finished CPU 0 instructions: 500000000 cycles: 1409295358 cumulative IPC: 0.354787 (Simulation time: 0 hr 24 min 12 sec) 

CPU 0 Branch Prediction Accuracy: 86.4311% MPKI: 26.2662
Number of Branches: 96788573 Number of Mispredictions: 13133102
Number of LOAD Instructions: 164682285
Number of LOAD Instructions (ROI): 164682285
Number of STORE Instructions: 78194750
Number of STORE Instructions (ROI): 78194750
Total Destination Memory Operands: 83268534
Total Destination Memory Operands (ROI): 83268534
Total Source Memory Operands: 164712438
Total Source Memory Operands (ROI): 164712438
Number of DEPENDED LOADS: 7056801
Number of DEPENDED LOADS (ROI): 7056801
Number of SQ_ADDED: 83268522
Number of SQ_ADDED (ROI): 83268522
Number of LQ_ADDED: 236720501
Number of LQ_ADDED (ROI): 236720501
Number of Instructions read from trace: 600000066

ChampSim completed all CPUs

Region of Interest Statistics

CPU 0 cumulative IPC: 0.354787 instructions: 500000000 cycles: 1409295358
ITLB TOTAL     ACCESS:  100519159  HIT:  100314713  MISS:     204446
ITLB LOAD      ACCESS:  100519159  HIT:  100314713  MISS:     204446
ITLB RFO       ACCESS:          0  HIT:          0  MISS:          0
ITLB PREFETCH  ACCESS:          0  HIT:          0  MISS:          0
ITLB WRITEBACK ACCESS:          0  HIT:          0  MISS:          0
ITLB PREFETCH  REQUESTED:          0  ISSUED:          0  USEFUL:          0  USELESS:          0
ITLB TOTAL MSHR MERGED:     172424
ITLB LOAD MSHR MERGED:     172424
ITLB RFO MSHR MERGED:          0
ITLB PREFETCH MSHR MERGED:          0
ITLB WRITEBACK MSHR MERGED:          0
ITLB TOTAL ACCESSES:  100691583 HITS:  100314713 MISSES:     376870
ITLB LOAD ACCESSES:  100691583 HITS:  100314713 MISSES:     376870
ITLB RFO ACCESSES:          0 HITS:          0 MISSES:          0
ITLB PREFETCH ACCESSES:          0 HITS:          0 MISSES:          0
ITLB WRITEBACK ACCESSES:          0 HITS:          0 MISSES:          0
ITLB RQ ACCESS:  500000057
ITLB RQ TO_CACHE:  100691583
ITLB RQ MERGED:  399308474
ITLB RQ FORWARD:          0
ITLB WQ ACCESS:          0
ITLB WQ TO_CACHE:          0
ITLB WQ MERGED:          0
ITLB WQ FORWARD:          0
DTLB TOTAL     ACCESS:  165339692  HIT:  164705341  MISS:     634351
DTLB LOAD      ACCESS:  106294399  HIT:  105724489  MISS:     569910
DTLB RFO       ACCESS:   59045293  HIT:   58980852  MISS:      64441
DTLB PREFETCH  ACCESS:          0  HIT:          0  MISS:          0
DTLB WRITEBACK ACCESS:          0  HIT:          0  MISS:          0
DTLB PREFETCH  REQUESTED:          0  ISSUED:          0  USEFUL:          0  USELESS:          0
DTLB TOTAL MSHR MERGED:      99963
DTLB LOAD MSHR MERGED:      59439
DTLB RFO MSHR MERGED:      40524
DTLB PREFETCH MSHR MERGED:          0
DTLB WRITEBACK MSHR MERGED:          0
DTLB TOTAL ACCESSES:  165439655 HITS:  164705341 MISSES:     734314
DTLB LOAD ACCESSES:  106353838 HITS:  105724489 MISSES:     629349
DTLB RFO ACCESSES:   59085817 HITS:   58980852 MISSES:     104965
DTLB PREFETCH ACCESSES:          0 HITS:          0 MISSES:          0
DTLB WRITEBACK ACCESSES:          0 HITS:          0 MISSES:          0
DTLB RQ ACCESS:  200314085
DTLB RQ TO_CACHE:  165439655
DTLB RQ MERGED:   34874430
DTLB RQ FORWARD:          0
DTLB WQ ACCESS:          0
DTLB WQ TO_CACHE:          0
DTLB WQ MERGED:          0
DTLB WQ FORWARD:          0
L1D TOTAL     ACCESS:  281858225  HIT:  273948848  MISS:    7909377
L1D LOAD      ACCESS:  110421852  HIT:  107144403  MISS:    3277449
L1D RFO       ACCESS:   67130859  HIT:   66240787  MISS:     890072
L1D PREFETCH  ACCESS:  104305514  HIT:  100563658  MISS:    3741856
L1D WRITEBACK ACCESS:          0  HIT:          0  MISS:          0
L1D PREFETCH  REQUESTED:  110819934  ISSUED:  109120630  USEFUL:    1662467  USELESS:    2079353
L1D TOTAL MSHR MERGED:    2851432
L1D LOAD MSHR MERGED:     495002
L1D RFO MSHR MERGED:    1854591
L1D PREFETCH MSHR MERGED:     501839
L1D WRITEBACK MSHR MERGED:          0
L1D TOTAL ACCESSES:  284737084 HITS:  273976275 MISSES:   10760809
L1D LOAD ACCESSES:  110821350 HITS:  107145819 MISSES:    3675531
L1D RFO ACCESSES:   68974172 HITS:   66240787 MISSES:    2733385
L1D PREFETCH ACCESSES:  104941562 HITS:  100589669 MISSES:    4351893
L1D WRITEBACK ACCESSES:          0 HITS:          0 MISSES:          0
L1D RQ ACCESS:  130761482
L1D RQ TO_CACHE:  110819937
L1D RQ MERGED:   19940129
L1D RQ FORWARD:          0
L1D WQ ACCESS:   69552603
L1D WQ TO_CACHE:   68974173
L1D WQ MERGED:     578430
L1D WQ FORWARD:      27427
L1I TOTAL     ACCESS:  126566335  HIT:  122327783  MISS:    4238552
L1I LOAD      ACCESS:  126566335  HIT:  122327783  MISS:    4238552
L1I RFO       ACCESS:          0  HIT:          0  MISS:          0
L1I PREFETCH  ACCESS:          0  HIT:          0  MISS:          0
L1I WRITEBACK ACCESS:          0  HIT:          0  MISS:          0
L1I PREFETCH  REQUESTED:          0  ISSUED:          0  USEFUL:          0  USELESS:          0
L1I TOTAL MSHR MERGED:    1834707
L1I LOAD MSHR MERGED:    1834707
L1I RFO MSHR MERGED:          0
L1I PREFETCH MSHR MERGED:          0
L1I WRITEBACK MSHR MERGED:          0
L1I TOTAL ACCESSES:  128401045 HITS:  122327783 MISSES:    6073262
L1I LOAD ACCESSES:  128401045 HITS:  122327783 MISSES:    6073262
L1I RFO ACCESSES:          0 HITS:          0 MISSES:          0
L1I PREFETCH ACCESSES:          0 HITS:          0 MISSES:          0
L1I WRITEBACK ACCESSES:          0 HITS:          0 MISSES:          0
L1I RQ ACCESS:  500000057
L1I RQ TO_CACHE:  128401045
L1I RQ MERGED:  371599012
L1I RQ FORWARD:          0
L1I WQ ACCESS:          0
L1I WQ TO_CACHE:          0
L1I WQ MERGED:          0
L1I WQ FORWARD:          0
L2C TOTAL     ACCESS:   14905505  HIT:   11159130  MISS:    3746375
L2C LOAD      ACCESS:    7418874  HIT:    5098989  MISS:    2319885
L2C RFO       ACCESS:     878697  HIT:     409910  MISS:     468787
L2C PREFETCH  ACCESS:    4568688  HIT:    3628239  MISS:     940449
L2C WRITEBACK ACCESS:    2039246  HIT:    2021992  MISS:      17254
L2C PREFETCH  REQUESTED:     842800  ISSUED:     842800  USEFUL:     203420  USELESS:     736735
L2C TOTAL MSHR MERGED:       6860
L2C LOAD MSHR MERGED:        738
L2C RFO MSHR MERGED:          0
L2C PREFETCH MSHR MERGED:       6122
L2C WRITEBACK MSHR MERGED:          0
L2C TOTAL ACCESSES:   14913246 HITS:   11159580 MISSES:    3753666
L2C LOAD ACCESSES:    7419081 HITS:    5099196 MISSES:    2319885
L2C RFO ACCESSES:     878794 HITS:     410007 MISSES:     468787
L2C PREFETCH ACCESSES:    4576125 HITS:    3628385 MISSES:     947740
L2C WRITEBACK ACCESSES:    2039246 HITS:    2021992 MISSES:      17254
L2C RQ ACCESS:    8297878
L2C RQ TO_CACHE:    8297574
L2C RQ MERGED:          0
L2C RQ FORWARD:          0
L2C WQ ACCESS:    2039246
L2C WQ TO_CACHE:    2039246
L2C WQ MERGED:          0
L2C WQ FORWARD:        450
LLC TOTAL     ACCESS:    4609663  HIT:    4004971  MISS:     604692
LLC LOAD      ACCESS:    2319131  HIT:    2068092  MISS:     251039
LLC RFO       ACCESS:     468776  HIT:     423811  MISS:      44965
LLC PREFETCH  ACCESS:     941505  HIT:     673915  MISS:     267590
LLC WRITEBACK ACCESS:     880251  HIT:     839153  MISS:      41098
LLC PREFETCH  REQUESTED:          0  ISSUED:          0  USEFUL:      13769  USELESS:     254162
LLC TOTAL MSHR MERGED:         98
LLC LOAD MSHR MERGED:         32
LLC RFO MSHR MERGED:          0
LLC PREFETCH MSHR MERGED:         66
LLC WRITEBACK MSHR MERGED:          0
LLC TOTAL ACCESSES:    4609798 HITS:    4005008 MISSES:     604790
LLC LOAD ACCESSES:    2319147 HITS:    2068108 MISSES:     251039
LLC RFO ACCESSES:     468787 HITS:     423822 MISSES:      44965
LLC PREFETCH ACCESSES:     941613 HITS:     673925 MISSES:     267688
LLC WRITEBACK ACCESSES:     880251 HITS:     839153 MISSES:      41098
LLC 0 RQ ACCESS:    2787934
LLC 0 RQ TO_CACHE:    2787907
LLC 0 RQ MERGED:          0
LLC 0 RQ FORWARD:          0
LLC WQ ACCESS:     880251
LLC WQ TO_CACHE:     880251
LLC WQ MERGED:          0
LLC WQ FORWARD:         37
Major fault: 0 Minor fault: 12862
CPU 0 L1D next line prefetcher final stats
CPU 0 L2C PC-based stride prefetcher final stats
All Misses: 724672
All Hits: 4701997
SD Algo Stats - Switches: 0 SRR-Repls: 297384 BRR-Repls: 0

DRAM Statistics
 CHANNEL 0
 RQ ROW_BUFFER_HIT:     116285  ROW_BUFFER_MISS:     446853
 DBUS_CONGESTED:     302906
 WQ ROW_BUFFER_HIT:       9039  ROW_BUFFER_MISS:     138234  FULL:          0

 AVG_CONGESTED_CYCLE: 13
LOADS RETIRED: 136549171
INSTR RETIRED: 500000000
