
*** ChampSim Multicore Out-of-Order Simulator ***

Warmup Instructions: 100000000
Simulation Instructions: 500000000
Number of CPUs: 1
LLC sets: 2048
LLC ways: 16
Clean RRIP Policies: 1013220110132201 Dirty RRIP Policies: 2003222120032221 PSEL Width: 10 Track Set: 4294967295 PSEL Mask: 1 Demote Mask: 2340014223400142DS Algo: 0Window size: 0
Off-chip DRAM Size: 4096 MB Channels: 1 Width: 64-bit Data Rate: 1600 MT/s

CPU 0 runs /mnt/beegfs/iconst01/spec2017/Blender.trace.gz
NOT SORTED
TRACE STRING: /mnt/beegfs/iconst01/spec2017/Blender.trace.gz
SORTED
TRACE STRING: /mnt/beegfs/iconst01/spec2017/Blender.trace.gz
INITIAL
TRACE STRING: /mnt/beegfs/iconst01/spec2017/Blender.trace.gz

champsim_seed used: 700

CPU 0 L1D next line prefetcher
CPU 0 L2C IP-based stride prefetcher
Initialize DRRIP state
Assign rand_sets[0]: 454  LLC: 2048
rand_sets[0]: 454
Assign rand_sets[1]: 1662  LLC: 2048
rand_sets[1]: 1662
Assign rand_sets[2]: 1921  LLC: 2048
rand_sets[2]: 1921
Assign rand_sets[3]: 1131  LLC: 2048
rand_sets[3]: 1131
Assign rand_sets[4]: 331  LLC: 2048
rand_sets[4]: 331
Assign rand_sets[5]: 1531  LLC: 2048
rand_sets[5]: 1531
Assign rand_sets[6]: 482  LLC: 2048
rand_sets[6]: 482
Assign rand_sets[7]: 1275  LLC: 2048
rand_sets[7]: 1275
Assign rand_sets[8]: 1876  LLC: 2048
rand_sets[8]: 1876
Assign rand_sets[9]: 2038  LLC: 2048
rand_sets[9]: 2038
Assign rand_sets[10]: 701  LLC: 2048
rand_sets[10]: 701
Assign rand_sets[11]: 479  LLC: 2048
rand_sets[11]: 479
Assign rand_sets[12]: 892  LLC: 2048
rand_sets[12]: 892
Assign rand_sets[13]: 1820  LLC: 2048
rand_sets[13]: 1820
Assign rand_sets[14]: 1505  LLC: 2048
rand_sets[14]: 1505
Assign rand_sets[15]: 1159  LLC: 2048
rand_sets[15]: 1159
Assign rand_sets[16]: 513  LLC: 2048
rand_sets[16]: 513
Assign rand_sets[17]: 703  LLC: 2048
rand_sets[17]: 703
Assign rand_sets[18]: 561  LLC: 2048
rand_sets[18]: 561
Assign rand_sets[19]: 990  LLC: 2048
rand_sets[19]: 990
Assign rand_sets[20]: 342  LLC: 2048
rand_sets[20]: 342
Assign rand_sets[21]: 882  LLC: 2048
rand_sets[21]: 882
Assign rand_sets[22]: 15  LLC: 2048
rand_sets[22]: 15
Assign rand_sets[23]: 71  LLC: 2048
rand_sets[23]: 71
Assign rand_sets[24]: 1127  LLC: 2048
rand_sets[24]: 1127
Assign rand_sets[25]: 1382  LLC: 2048
rand_sets[25]: 1382
Assign rand_sets[26]: 647  LLC: 2048
rand_sets[26]: 647
Assign rand_sets[27]: 857  LLC: 2048
rand_sets[27]: 857
Assign rand_sets[28]: 1450  LLC: 2048
rand_sets[28]: 1450
Assign rand_sets[29]: 1160  LLC: 2048
rand_sets[29]: 1160
Assign rand_sets[30]: 1852  LLC: 2048
rand_sets[30]: 1852
Assign rand_sets[31]: 1881  LLC: 2048
rand_sets[31]: 1881
Assign rand_sets[32]: 1770  LLC: 2048
rand_sets[32]: 1770
Assign rand_sets[33]: 1622  LLC: 2048
rand_sets[33]: 1622
Assign rand_sets[34]: 275  LLC: 2048
rand_sets[34]: 275
Assign rand_sets[35]: 635  LLC: 2048
rand_sets[35]: 635
Assign rand_sets[36]: 466  LLC: 2048
rand_sets[36]: 466
Assign rand_sets[37]: 1413  LLC: 2048
rand_sets[37]: 1413
Assign rand_sets[38]: 417  LLC: 2048
rand_sets[38]: 417
Assign rand_sets[39]: 472  LLC: 2048
rand_sets[39]: 472
Assign rand_sets[40]: 1340  LLC: 2048
rand_sets[40]: 1340
Assign rand_sets[41]: 852  LLC: 2048
rand_sets[41]: 852
Assign rand_sets[42]: 1365  LLC: 2048
rand_sets[42]: 1365
Assign rand_sets[43]: 47  LLC: 2048
rand_sets[43]: 47
Assign rand_sets[44]: 823  LLC: 2048
rand_sets[44]: 823
Assign rand_sets[45]: 686  LLC: 2048
rand_sets[45]: 686
Assign rand_sets[46]: 1637  LLC: 2048
rand_sets[46]: 1637
Assign rand_sets[47]: 1115  LLC: 2048
rand_sets[47]: 1115
Assign rand_sets[48]: 986  LLC: 2048
rand_sets[48]: 986
Assign rand_sets[49]: 258  LLC: 2048
rand_sets[49]: 258
Assign rand_sets[50]: 633  LLC: 2048
rand_sets[50]: 633
Assign rand_sets[51]: 920  LLC: 2048
rand_sets[51]: 920
Assign rand_sets[52]: 204  LLC: 2048
rand_sets[52]: 204
Assign rand_sets[53]: 227  LLC: 2048
rand_sets[53]: 227
Assign rand_sets[54]: 1818  LLC: 2048
rand_sets[54]: 1818
Assign rand_sets[55]: 886  LLC: 2048
rand_sets[55]: 886
Assign rand_sets[56]: 1422  LLC: 2048
rand_sets[56]: 1422
Assign rand_sets[57]: 607  LLC: 2048
rand_sets[57]: 607
Assign rand_sets[58]: 217  LLC: 2048
rand_sets[58]: 217
Assign rand_sets[59]: 1945  LLC: 2048
rand_sets[59]: 1945
Assign rand_sets[60]: 143  LLC: 2048
rand_sets[60]: 143
Assign rand_sets[61]: 1311  LLC: 2048
rand_sets[61]: 1311
Assign rand_sets[62]: 319  LLC: 2048
rand_sets[62]: 319
Assign rand_sets[63]: 1846  LLC: 2048
rand_sets[63]: 1846
 CLEAN-RRIP-POLICY-1: 1-0-1-3-2-2-0-1- CLEAN-RRIP-POLICY-2: 1-0-1-3-2-2-0-1-
 DIRTY-RRIP-POLICY-1: 2-0-0-3-2-2-2-1- DIRTY-RRIP-POLICY-2: 2-0-0-3-2-2-2-1-
 PSEL width: 10
Heartbeat CPU 0 instructions: 10000002 cycles: 5480930 heartbeat IPC: 1.82451 cumulative IPC: 1.82451 (Simulation time: 0 hr 0 min 12 sec) 
Heartbeat CPU 0 instructions: 20000000 cycles: 10913520 heartbeat IPC: 1.84074 cumulative IPC: 1.83259 (Simulation time: 0 hr 0 min 25 sec) 
Heartbeat CPU 0 instructions: 30000000 cycles: 16447478 heartbeat IPC: 1.80702 cumulative IPC: 1.82399 (Simulation time: 0 hr 0 min 37 sec) 
Heartbeat CPU 0 instructions: 40000000 cycles: 21898481 heartbeat IPC: 1.83452 cumulative IPC: 1.82661 (Simulation time: 0 hr 0 min 50 sec) 
Heartbeat CPU 0 instructions: 50000000 cycles: 27400646 heartbeat IPC: 1.81747 cumulative IPC: 1.82477 (Simulation time: 0 hr 1 min 3 sec) 
Heartbeat CPU 0 instructions: 60000000 cycles: 32779789 heartbeat IPC: 1.85903 cumulative IPC: 1.8304 (Simulation time: 0 hr 1 min 15 sec) 
Heartbeat CPU 0 instructions: 70000001 cycles: 38336425 heartbeat IPC: 1.79965 cumulative IPC: 1.82594 (Simulation time: 0 hr 1 min 28 sec) 
Heartbeat CPU 0 instructions: 80000000 cycles: 43796750 heartbeat IPC: 1.83139 cumulative IPC: 1.82662 (Simulation time: 0 hr 1 min 41 sec) 
Heartbeat CPU 0 instructions: 90000000 cycles: 49243657 heartbeat IPC: 1.8359 cumulative IPC: 1.82765 (Simulation time: 0 hr 1 min 53 sec) 
Heartbeat CPU 0 instructions: 100000000 cycles: 54788977 heartbeat IPC: 1.80332 cumulative IPC: 1.82518 (Simulation time: 0 hr 2 min 6 sec) 

Warmup complete CPU 0 instructions: 100000002 cycles: 54788978 (Simulation time: 0 hr 2 min 6 sec) 

Heartbeat CPU 0 instructions: 110000001 cycles: 69299085 heartbeat IPC: 0.689175 cumulative IPC: 0.689175 (Simulation time: 0 hr 2 min 24 sec) 
Heartbeat CPU 0 instructions: 120000000 cycles: 84473656 heartbeat IPC: 0.658997 cumulative IPC: 0.673748 (Simulation time: 0 hr 2 min 42 sec) 
Heartbeat CPU 0 instructions: 130000000 cycles: 99105621 heartbeat IPC: 0.683435 cumulative IPC: 0.676947 (Simulation time: 0 hr 3 min 0 sec) 
Heartbeat CPU 0 instructions: 140000000 cycles: 113548068 heartbeat IPC: 0.692403 cumulative IPC: 0.680746 (Simulation time: 0 hr 3 min 18 sec) 
Heartbeat CPU 0 instructions: 150000000 cycles: 128382052 heartbeat IPC: 0.674128 cumulative IPC: 0.679412 (Simulation time: 0 hr 3 min 36 sec) 
Heartbeat CPU 0 instructions: 160000000 cycles: 143584251 heartbeat IPC: 0.6578 cumulative IPC: 0.675712 (Simulation time: 0 hr 3 min 55 sec) 
Heartbeat CPU 0 instructions: 170000001 cycles: 158567393 heartbeat IPC: 0.667417 cumulative IPC: 0.674514 (Simulation time: 0 hr 4 min 12 sec) 
Heartbeat CPU 0 instructions: 180000000 cycles: 173641176 heartbeat IPC: 0.663403 cumulative IPC: 0.673105 (Simulation time: 0 hr 4 min 31 sec) 
Heartbeat CPU 0 instructions: 190000002 cycles: 188222890 heartbeat IPC: 0.685791 cumulative IPC: 0.674491 (Simulation time: 0 hr 4 min 49 sec) 
Heartbeat CPU 0 instructions: 200000000 cycles: 202703613 heartbeat IPC: 0.690573 cumulative IPC: 0.676066 (Simulation time: 0 hr 5 min 7 sec) 
Heartbeat CPU 0 instructions: 210000003 cycles: 217417294 heartbeat IPC: 0.67964 cumulative IPC: 0.676389 (Simulation time: 0 hr 5 min 25 sec) 
Heartbeat CPU 0 instructions: 220000000 cycles: 232210995 heartbeat IPC: 0.675963 cumulative IPC: 0.676353 (Simulation time: 0 hr 5 min 44 sec) 
Heartbeat CPU 0 instructions: 230000001 cycles: 247416602 heartbeat IPC: 0.657652 cumulative IPC: 0.674877 (Simulation time: 0 hr 6 min 2 sec) 
Heartbeat CPU 0 instructions: 240000000 cycles: 262434089 heartbeat IPC: 0.66589 cumulative IPC: 0.674227 (Simulation time: 0 hr 6 min 20 sec) 
Heartbeat CPU 0 instructions: 250000003 cycles: 277342479 heartbeat IPC: 0.670763 cumulative IPC: 0.673995 (Simulation time: 0 hr 6 min 38 sec) 
Heartbeat CPU 0 instructions: 260000000 cycles: 292968923 heartbeat IPC: 0.639941 cumulative IPC: 0.671761 (Simulation time: 0 hr 6 min 56 sec) 
Heartbeat CPU 0 instructions: 270000003 cycles: 307684077 heartbeat IPC: 0.679572 cumulative IPC: 0.672215 (Simulation time: 0 hr 7 min 15 sec) 
Heartbeat CPU 0 instructions: 280000000 cycles: 322260342 heartbeat IPC: 0.686047 cumulative IPC: 0.672969 (Simulation time: 0 hr 7 min 33 sec) 
Heartbeat CPU 0 instructions: 290000002 cycles: 336797604 heartbeat IPC: 0.687888 cumulative IPC: 0.673738 (Simulation time: 0 hr 7 min 51 sec) 
Heartbeat CPU 0 instructions: 300000000 cycles: 352331774 heartbeat IPC: 0.643742 cumulative IPC: 0.672172 (Simulation time: 0 hr 8 min 10 sec) 
Heartbeat CPU 0 instructions: 310000000 cycles: 367392938 heartbeat IPC: 0.663959 cumulative IPC: 0.671777 (Simulation time: 0 hr 8 min 28 sec) 
Heartbeat CPU 0 instructions: 320000000 cycles: 382280530 heartbeat IPC: 0.6717 cumulative IPC: 0.671773 (Simulation time: 0 hr 8 min 46 sec) 
Heartbeat CPU 0 instructions: 330000000 cycles: 398211018 heartbeat IPC: 0.627727 cumulative IPC: 0.66973 (Simulation time: 0 hr 9 min 4 sec) 
Heartbeat CPU 0 instructions: 340000000 cycles: 412957639 heartbeat IPC: 0.678121 cumulative IPC: 0.670075 (Simulation time: 0 hr 9 min 22 sec) 
Heartbeat CPU 0 instructions: 350000000 cycles: 427681733 heartbeat IPC: 0.679159 cumulative IPC: 0.670434 (Simulation time: 0 hr 9 min 40 sec) 
Heartbeat CPU 0 instructions: 360000000 cycles: 442444361 heartbeat IPC: 0.677386 cumulative IPC: 0.670699 (Simulation time: 0 hr 9 min 58 sec) 
Heartbeat CPU 0 instructions: 370000002 cycles: 457973173 heartbeat IPC: 0.643964 cumulative IPC: 0.669669 (Simulation time: 0 hr 10 min 17 sec) 
Heartbeat CPU 0 instructions: 380000000 cycles: 472906337 heartbeat IPC: 0.66965 cumulative IPC: 0.669668 (Simulation time: 0 hr 10 min 35 sec) 
Heartbeat CPU 0 instructions: 390000003 cycles: 487960868 heartbeat IPC: 0.664252 cumulative IPC: 0.66948 (Simulation time: 0 hr 10 min 53 sec) 
Heartbeat CPU 0 instructions: 400000000 cycles: 503974650 heartbeat IPC: 0.624462 cumulative IPC: 0.667875 (Simulation time: 0 hr 11 min 12 sec) 
Heartbeat CPU 0 instructions: 410000001 cycles: 519130362 heartbeat IPC: 0.659817 cumulative IPC: 0.667612 (Simulation time: 0 hr 11 min 30 sec) 
Heartbeat CPU 0 instructions: 420000000 cycles: 533984769 heartbeat IPC: 0.673201 cumulative IPC: 0.667785 (Simulation time: 0 hr 11 min 48 sec) 
Heartbeat CPU 0 instructions: 430000000 cycles: 549519511 heartbeat IPC: 0.643718 cumulative IPC: 0.66703 (Simulation time: 0 hr 12 min 6 sec) 
Heartbeat CPU 0 instructions: 440000000 cycles: 564410101 heartbeat IPC: 0.671565 cumulative IPC: 0.667162 (Simulation time: 0 hr 12 min 24 sec) 
Heartbeat CPU 0 instructions: 450000000 cycles: 579487110 heartbeat IPC: 0.663262 cumulative IPC: 0.66705 (Simulation time: 0 hr 12 min 42 sec) 
Heartbeat CPU 0 instructions: 460000000 cycles: 595405424 heartbeat IPC: 0.628207 cumulative IPC: 0.665906 (Simulation time: 0 hr 13 min 0 sec) 
Heartbeat CPU 0 instructions: 470000000 cycles: 610603700 heartbeat IPC: 0.657969 cumulative IPC: 0.665689 (Simulation time: 0 hr 13 min 18 sec) 
Heartbeat CPU 0 instructions: 480000000 cycles: 625587920 heartbeat IPC: 0.667369 cumulative IPC: 0.665734 (Simulation time: 0 hr 13 min 36 sec) 
Heartbeat CPU 0 instructions: 490000002 cycles: 640955524 heartbeat IPC: 0.65072 cumulative IPC: 0.66534 (Simulation time: 0 hr 13 min 54 sec) 
Heartbeat CPU 0 instructions: 500000000 cycles: 655908701 heartbeat IPC: 0.668754 cumulative IPC: 0.665425 (Simulation time: 0 hr 14 min 12 sec) 
Heartbeat CPU 0 instructions: 510000001 cycles: 671113521 heartbeat IPC: 0.657686 cumulative IPC: 0.665234 (Simulation time: 0 hr 14 min 30 sec) 
Heartbeat CPU 0 instructions: 520000000 cycles: 686712796 heartbeat IPC: 0.641055 cumulative IPC: 0.664637 (Simulation time: 0 hr 14 min 48 sec) 
Heartbeat CPU 0 instructions: 530000001 cycles: 702259459 heartbeat IPC: 0.643225 cumulative IPC: 0.664123 (Simulation time: 0 hr 15 min 7 sec) 
Heartbeat CPU 0 instructions: 540000000 cycles: 716952520 heartbeat IPC: 0.680593 cumulative IPC: 0.664488 (Simulation time: 0 hr 15 min 24 sec) 
Heartbeat CPU 0 instructions: 550000001 cycles: 732299971 heartbeat IPC: 0.651574 cumulative IPC: 0.664196 (Simulation time: 0 hr 15 min 43 sec) 
Heartbeat CPU 0 instructions: 560000000 cycles: 747176647 heartbeat IPC: 0.672193 cumulative IPC: 0.664368 (Simulation time: 0 hr 16 min 0 sec) 
Heartbeat CPU 0 instructions: 570000002 cycles: 762440905 heartbeat IPC: 0.655125 cumulative IPC: 0.664168 (Simulation time: 0 hr 16 min 18 sec) 
Heartbeat CPU 0 instructions: 580000000 cycles: 777575468 heartbeat IPC: 0.660739 cumulative IPC: 0.664097 (Simulation time: 0 hr 16 min 36 sec) 
Heartbeat CPU 0 instructions: 590000001 cycles: 792679073 heartbeat IPC: 0.662094 cumulative IPC: 0.664056 (Simulation time: 0 hr 16 min 54 sec) 
Heartbeat CPU 0 instructions: 600000000 cycles: 807427535 heartbeat IPC: 0.678037 cumulative IPC: 0.66433 (Simulation time: 0 hr 17 min 12 sec) 
Finished CPU 0 instructions: 500000000 cycles: 752638565 cumulative IPC: 0.664329 (Simulation time: 0 hr 17 min 12 sec) 

CPU 0 Branch Prediction Accuracy: 93.7783% MPKI: 10.0718
Number of Branches: 80940586 Number of Mispredictions: 5035908
Number of LOAD Instructions: 184238101
Number of LOAD Instructions (ROI): 184238101
Number of STORE Instructions: 33143298
Number of STORE Instructions (ROI): 33143298
Total Destination Memory Operands: 33324321
Total Destination Memory Operands (ROI): 33324321
Total Source Memory Operands: 184238101
Total Source Memory Operands (ROI): 184238101
Number of DEPENDED LOADS: 4461618
Number of DEPENDED LOADS (ROI): 4461618
Number of SQ_ADDED: 33324292
Number of SQ_ADDED (ROI): 33324292
Number of LQ_ADDED: 184870898
Number of LQ_ADDED (ROI): 184870898
Number of Instructions read from trace: 600000256

ChampSim completed all CPUs

Region of Interest Statistics

CPU 0 cumulative IPC: 0.664329 instructions: 500000000 cycles: 752638565
ITLB TOTAL     ACCESS:   77747941  HIT:   77747941  MISS:          0
ITLB LOAD      ACCESS:   77747941  HIT:   77747941  MISS:          0
ITLB RFO       ACCESS:          0  HIT:          0  MISS:          0
ITLB PREFETCH  ACCESS:          0  HIT:          0  MISS:          0
ITLB WRITEBACK ACCESS:          0  HIT:          0  MISS:          0
ITLB PREFETCH  REQUESTED:          0  ISSUED:          0  USEFUL:          0  USELESS:          0
ITLB TOTAL MSHR MERGED:          0
ITLB LOAD MSHR MERGED:          0
ITLB RFO MSHR MERGED:          0
ITLB PREFETCH MSHR MERGED:          0
ITLB WRITEBACK MSHR MERGED:          0
ITLB TOTAL ACCESSES:   77747941 HITS:   77747941 MISSES:          0
ITLB LOAD ACCESSES:   77747941 HITS:   77747941 MISSES:          0
ITLB RFO ACCESSES:          0 HITS:          0 MISSES:          0
ITLB PREFETCH ACCESSES:          0 HITS:          0 MISSES:          0
ITLB WRITEBACK ACCESSES:          0 HITS:          0 MISSES:          0
ITLB RQ ACCESS:  500000245
ITLB RQ TO_CACHE:   77747941
ITLB RQ MERGED:  422252304
ITLB RQ FORWARD:          0
ITLB WQ ACCESS:          0
ITLB WQ TO_CACHE:          0
ITLB WQ MERGED:          0
ITLB WQ FORWARD:          0
DTLB TOTAL     ACCESS:   88438180  HIT:   87301333  MISS:    1136847
DTLB LOAD      ACCESS:   66312275  HIT:   65179668  MISS:    1132607
DTLB RFO       ACCESS:   22125905  HIT:   22121665  MISS:       4240
DTLB PREFETCH  ACCESS:          0  HIT:          0  MISS:          0
DTLB WRITEBACK ACCESS:          0  HIT:          0  MISS:          0
DTLB PREFETCH  REQUESTED:          0  ISSUED:          0  USEFUL:          0  USELESS:          0
DTLB TOTAL MSHR MERGED:     135538
DTLB LOAD MSHR MERGED:     133723
DTLB RFO MSHR MERGED:       1815
DTLB PREFETCH MSHR MERGED:          0
DTLB WRITEBACK MSHR MERGED:          0
DTLB TOTAL ACCESSES:   88573718 HITS:   87301333 MISSES:    1272385
DTLB LOAD ACCESSES:   66445998 HITS:   65179668 MISSES:    1266330
DTLB RFO ACCESSES:   22127720 HITS:   22121665 MISSES:       6055
DTLB PREFETCH ACCESSES:          0 HITS:          0 MISSES:          0
DTLB WRITEBACK ACCESSES:          0 HITS:          0 MISSES:          0
DTLB RQ ACCESS:  177579108
DTLB RQ TO_CACHE:   88573718
DTLB RQ MERGED:   89005390
DTLB RQ FORWARD:          0
DTLB WQ ACCESS:          0
DTLB WQ TO_CACHE:          0
DTLB WQ MERGED:          0
DTLB WQ FORWARD:          0
L1D TOTAL     ACCESS:  142088318  HIT:  136529276  MISS:    5559042
L1D LOAD      ACCESS:   61387474  HIT:   58280744  MISS:    3106730
L1D RFO       ACCESS:   27668450  HIT:   27586654  MISS:      81796
L1D PREFETCH  ACCESS:   53032394  HIT:   50661878  MISS:    2370516
L1D WRITEBACK ACCESS:          0  HIT:          0  MISS:          0
L1D PREFETCH  REQUESTED:   61675470  ISSUED:   60757249  USEFUL:     663637  USELESS:    1706884
L1D TOTAL MSHR MERGED:    1199719
L1D LOAD MSHR MERGED:     389095
L1D RFO MSHR MERGED:     164641
L1D PREFETCH MSHR MERGED:     645983
L1D WRITEBACK MSHR MERGED:          0
L1D TOTAL ACCESSES:  143385651 HITS:  136626890 MISSES:    6758761
L1D LOAD ACCESSES:   61675484 HITS:   58280758 MISSES:    3394726
L1D RFO ACCESSES:   27829288 HITS:   27586654 MISSES:     242634
L1D PREFETCH ACCESSES:   53880879 HITS:   50759478 MISSES:    3121401
L1D WRITEBACK ACCESSES:          0 HITS:          0 MISSES:          0
L1D RQ ACCESS:  149746142
L1D RQ TO_CACHE:   61675470
L1D RQ MERGED:   88070658
L1D RQ FORWARD:          0
L1D WQ ACCESS:   27832966
L1D WQ TO_CACHE:   27829288
L1D WQ MERGED:       3678
L1D WQ FORWARD:      97614
L1I TOTAL     ACCESS:   96225069  HIT:   96065843  MISS:     159226
L1I LOAD      ACCESS:   96225069  HIT:   96065843  MISS:     159226
L1I RFO       ACCESS:          0  HIT:          0  MISS:          0
L1I PREFETCH  ACCESS:          0  HIT:          0  MISS:          0
L1I WRITEBACK ACCESS:          0  HIT:          0  MISS:          0
L1I PREFETCH  REQUESTED:          0  ISSUED:          0  USEFUL:          0  USELESS:          0
L1I TOTAL MSHR MERGED:     130376
L1I LOAD MSHR MERGED:     130376
L1I RFO MSHR MERGED:          0
L1I PREFETCH MSHR MERGED:          0
L1I WRITEBACK MSHR MERGED:          0
L1I TOTAL ACCESSES:   96355445 HITS:   96065843 MISSES:     289602
L1I LOAD ACCESSES:   96355445 HITS:   96065843 MISSES:     289602
L1I RFO ACCESSES:          0 HITS:          0 MISSES:          0
L1I PREFETCH ACCESSES:          0 HITS:          0 MISSES:          0
L1I WRITEBACK ACCESSES:          0 HITS:          0 MISSES:          0
L1I RQ ACCESS:  500000245
L1I RQ TO_CACHE:   96355445
L1I RQ MERGED:  403644800
L1I RQ FORWARD:          0
L1I WQ ACCESS:          0
L1I WQ TO_CACHE:          0
L1I WQ MERGED:          0
L1I WQ FORWARD:          0
L2C TOTAL     ACCESS:    5911011  HIT:    3062386  MISS:    2848625
L2C LOAD      ACCESS:    3164848  HIT:    1583029  MISS:    1581819
L2C RFO       ACCESS:      77917  HIT:      45076  MISS:      32841
L2C PREFETCH  ACCESS:    2524722  HIT:    1296344  MISS:    1228378
L2C WRITEBACK ACCESS:     143524  HIT:     137937  MISS:       5587
L2C PREFETCH  REQUESTED:      52727  ISSUED:      52727  USEFUL:      18697  USELESS:    1209721
L2C TOTAL MSHR MERGED:       2488
L2C LOAD MSHR MERGED:        915
L2C RFO MSHR MERGED:          0
L2C PREFETCH MSHR MERGED:       1573
L2C WRITEBACK MSHR MERGED:          0
L2C TOTAL ACCESSES:    5913592 HITS:    3062471 MISSES:    2851121
L2C LOAD ACCESSES:    3164857 HITS:    1583038 MISSES:    1581819
L2C RFO ACCESSES:      77993 HITS:      45152 MISSES:      32841
L2C PREFETCH ACCESSES:    2527218 HITS:    1296344 MISSES:    1230874
L2C WRITEBACK ACCESSES:     143524 HITS:     137937 MISSES:       5587
L2C RQ ACCESS:    3242850
L2C RQ TO_CACHE:    3242765
L2C RQ MERGED:          0
L2C RQ FORWARD:          0
L2C WQ ACCESS:     143524
L2C WQ TO_CACHE:     143524
L2C WQ MERGED:          0
L2C WQ FORWARD:         85
LLC TOTAL     ACCESS:    2892586  HIT:    1768882  MISS:    1123704
LLC LOAD      ACCESS:    1580904  HIT:    1100202  MISS:     480702
LLC RFO       ACCESS:      32833  HIT:      31541  MISS:       1292
LLC PREFETCH  ACCESS:    1229301  HIT:     594479  MISS:     634822
LLC WRITEBACK ACCESS:      49548  HIT:      42660  MISS:       6888
LLC PREFETCH  REQUESTED:          0  ISSUED:          0  USEFUL:       2679  USELESS:     631631
LLC TOTAL MSHR MERGED:          0
LLC LOAD MSHR MERGED:          0
LLC RFO MSHR MERGED:          0
LLC PREFETCH MSHR MERGED:          0
LLC WRITEBACK MSHR MERGED:          0
LLC TOTAL ACCESSES:    2892594 HITS:    1768890 MISSES:    1123704
LLC LOAD ACCESSES:    1580904 HITS:    1100202 MISSES:     480702
LLC RFO ACCESSES:      32841 HITS:      31549 MISSES:       1292
LLC PREFETCH ACCESSES:    1229301 HITS:     594479 MISSES:     634822
LLC WRITEBACK ACCESSES:      49548 HITS:      42660 MISSES:       6888
LLC 0 RQ ACCESS:    1613745
LLC 0 RQ TO_CACHE:    1613737
LLC 0 RQ MERGED:          0
LLC 0 RQ FORWARD:          0
LLC WQ ACCESS:      49548
LLC WQ TO_CACHE:      49548
LLC WQ MERGED:          0
LLC WQ FORWARD:          8
Major fault: 0 Minor fault: 8460
CPU 0 L1D next line prefetcher final stats
CPU 0 L2C PC-based stride prefetcher final stats
All Misses: 1365463
All Hits: 2063718
SD Algo Stats - Switches: 0 SRR-Repls: 556376 BRR-Repls: 0

DRAM Statistics
 CHANNEL 0
 RQ ROW_BUFFER_HIT:     375836  ROW_BUFFER_MISS:     739641
 DBUS_CONGESTED:     336034
 WQ ROW_BUFFER_HIT:       1597  ROW_BUFFER_MISS:       4723  FULL:          0

 AVG_CONGESTED_CYCLE: 12
LOADS RETIRED: 153532848
INSTR RETIRED: 500000000
