
*** ChampSim Multicore Out-of-Order Simulator ***

Warmup Instructions: 100000000
Simulation Instructions: 500000000
Number of CPUs: 1
LLC sets: 2048
LLC ways: 16
Clean RRIP Policies: 1013220110132201 Dirty RRIP Policies: 2003222120032221 PSEL Width: 10 Track Set: 4294967295 PSEL Mask: 1 Demote Mask: 2340014223400142DS Algo: 0Window size: 0
Off-chip DRAM Size: 4096 MB Channels: 1 Width: 64-bit Data Rate: 1600 MT/s

CPU 0 runs /mnt/beegfs/iconst01/spec2017/cactuBSSN.trace.gz
NOT SORTED
TRACE STRING: /mnt/beegfs/iconst01/spec2017/cactuBSSN.trace.gz
SORTED
TRACE STRING: /mnt/beegfs/iconst01/spec2017/cactuBSSN.trace.gz
INITIAL
TRACE STRING: /mnt/beegfs/iconst01/spec2017/cactuBSSN.trace.gz

champsim_seed used: 838

CPU 0 L1D next line prefetcher
CPU 0 L2C IP-based stride prefetcher
Initialize DRRIP state
Assign rand_sets[0]: 454  LLC: 2048
rand_sets[0]: 454
Assign rand_sets[1]: 1662  LLC: 2048
rand_sets[1]: 1662
Assign rand_sets[2]: 1921  LLC: 2048
rand_sets[2]: 1921
Assign rand_sets[3]: 1131  LLC: 2048
rand_sets[3]: 1131
Assign rand_sets[4]: 331  LLC: 2048
rand_sets[4]: 331
Assign rand_sets[5]: 1531  LLC: 2048
rand_sets[5]: 1531
Assign rand_sets[6]: 482  LLC: 2048
rand_sets[6]: 482
Assign rand_sets[7]: 1275  LLC: 2048
rand_sets[7]: 1275
Assign rand_sets[8]: 1876  LLC: 2048
rand_sets[8]: 1876
Assign rand_sets[9]: 2038  LLC: 2048
rand_sets[9]: 2038
Assign rand_sets[10]: 701  LLC: 2048
rand_sets[10]: 701
Assign rand_sets[11]: 479  LLC: 2048
rand_sets[11]: 479
Assign rand_sets[12]: 892  LLC: 2048
rand_sets[12]: 892
Assign rand_sets[13]: 1820  LLC: 2048
rand_sets[13]: 1820
Assign rand_sets[14]: 1505  LLC: 2048
rand_sets[14]: 1505
Assign rand_sets[15]: 1159  LLC: 2048
rand_sets[15]: 1159
Assign rand_sets[16]: 513  LLC: 2048
rand_sets[16]: 513
Assign rand_sets[17]: 703  LLC: 2048
rand_sets[17]: 703
Assign rand_sets[18]: 561  LLC: 2048
rand_sets[18]: 561
Assign rand_sets[19]: 990  LLC: 2048
rand_sets[19]: 990
Assign rand_sets[20]: 342  LLC: 2048
rand_sets[20]: 342
Assign rand_sets[21]: 882  LLC: 2048
rand_sets[21]: 882
Assign rand_sets[22]: 15  LLC: 2048
rand_sets[22]: 15
Assign rand_sets[23]: 71  LLC: 2048
rand_sets[23]: 71
Assign rand_sets[24]: 1127  LLC: 2048
rand_sets[24]: 1127
Assign rand_sets[25]: 1382  LLC: 2048
rand_sets[25]: 1382
Assign rand_sets[26]: 647  LLC: 2048
rand_sets[26]: 647
Assign rand_sets[27]: 857  LLC: 2048
rand_sets[27]: 857
Assign rand_sets[28]: 1450  LLC: 2048
rand_sets[28]: 1450
Assign rand_sets[29]: 1160  LLC: 2048
rand_sets[29]: 1160
Assign rand_sets[30]: 1852  LLC: 2048
rand_sets[30]: 1852
Assign rand_sets[31]: 1881  LLC: 2048
rand_sets[31]: 1881
Assign rand_sets[32]: 1770  LLC: 2048
rand_sets[32]: 1770
Assign rand_sets[33]: 1622  LLC: 2048
rand_sets[33]: 1622
Assign rand_sets[34]: 275  LLC: 2048
rand_sets[34]: 275
Assign rand_sets[35]: 635  LLC: 2048
rand_sets[35]: 635
Assign rand_sets[36]: 466  LLC: 2048
rand_sets[36]: 466
Assign rand_sets[37]: 1413  LLC: 2048
rand_sets[37]: 1413
Assign rand_sets[38]: 417  LLC: 2048
rand_sets[38]: 417
Assign rand_sets[39]: 472  LLC: 2048
rand_sets[39]: 472
Assign rand_sets[40]: 1340  LLC: 2048
rand_sets[40]: 1340
Assign rand_sets[41]: 852  LLC: 2048
rand_sets[41]: 852
Assign rand_sets[42]: 1365  LLC: 2048
rand_sets[42]: 1365
Assign rand_sets[43]: 47  LLC: 2048
rand_sets[43]: 47
Assign rand_sets[44]: 823  LLC: 2048
rand_sets[44]: 823
Assign rand_sets[45]: 686  LLC: 2048
rand_sets[45]: 686
Assign rand_sets[46]: 1637  LLC: 2048
rand_sets[46]: 1637
Assign rand_sets[47]: 1115  LLC: 2048
rand_sets[47]: 1115
Assign rand_sets[48]: 986  LLC: 2048
rand_sets[48]: 986
Assign rand_sets[49]: 258  LLC: 2048
rand_sets[49]: 258
Assign rand_sets[50]: 633  LLC: 2048
rand_sets[50]: 633
Assign rand_sets[51]: 920  LLC: 2048
rand_sets[51]: 920
Assign rand_sets[52]: 204  LLC: 2048
rand_sets[52]: 204
Assign rand_sets[53]: 227  LLC: 2048
rand_sets[53]: 227
Assign rand_sets[54]: 1818  LLC: 2048
rand_sets[54]: 1818
Assign rand_sets[55]: 886  LLC: 2048
rand_sets[55]: 886
Assign rand_sets[56]: 1422  LLC: 2048
rand_sets[56]: 1422
Assign rand_sets[57]: 607  LLC: 2048
rand_sets[57]: 607
Assign rand_sets[58]: 217  LLC: 2048
rand_sets[58]: 217
Assign rand_sets[59]: 1945  LLC: 2048
rand_sets[59]: 1945
Assign rand_sets[60]: 143  LLC: 2048
rand_sets[60]: 143
Assign rand_sets[61]: 1311  LLC: 2048
rand_sets[61]: 1311
Assign rand_sets[62]: 319  LLC: 2048
rand_sets[62]: 319
Assign rand_sets[63]: 1846  LLC: 2048
rand_sets[63]: 1846
 CLEAN-RRIP-POLICY-1: 1-0-1-3-2-2-0-1- CLEAN-RRIP-POLICY-2: 1-0-1-3-2-2-0-1-
 DIRTY-RRIP-POLICY-1: 2-0-0-3-2-2-2-1- DIRTY-RRIP-POLICY-2: 2-0-0-3-2-2-2-1-
 PSEL width: 10
Heartbeat CPU 0 instructions: 10000000 cycles: 6588007 heartbeat IPC: 1.51791 cumulative IPC: 1.51791 (Simulation time: 0 hr 0 min 25 sec) 
Heartbeat CPU 0 instructions: 20000000 cycles: 13179598 heartbeat IPC: 1.51708 cumulative IPC: 1.5175 (Simulation time: 0 hr 0 min 50 sec) 
Heartbeat CPU 0 instructions: 30000003 cycles: 19772938 heartbeat IPC: 1.51668 cumulative IPC: 1.51723 (Simulation time: 0 hr 1 min 15 sec) 
Heartbeat CPU 0 instructions: 40000000 cycles: 26364693 heartbeat IPC: 1.51705 cumulative IPC: 1.51718 (Simulation time: 0 hr 1 min 40 sec) 
Heartbeat CPU 0 instructions: 50000001 cycles: 32957354 heartbeat IPC: 1.51684 cumulative IPC: 1.51711 (Simulation time: 0 hr 2 min 6 sec) 
Heartbeat CPU 0 instructions: 60000000 cycles: 39556172 heartbeat IPC: 1.51542 cumulative IPC: 1.51683 (Simulation time: 0 hr 2 min 31 sec) 
Heartbeat CPU 0 instructions: 70000003 cycles: 46154526 heartbeat IPC: 1.51553 cumulative IPC: 1.51664 (Simulation time: 0 hr 2 min 57 sec) 
Heartbeat CPU 0 instructions: 80000000 cycles: 52752543 heartbeat IPC: 1.51561 cumulative IPC: 1.51651 (Simulation time: 0 hr 3 min 22 sec) 
Heartbeat CPU 0 instructions: 90000002 cycles: 59348178 heartbeat IPC: 1.51615 cumulative IPC: 1.51647 (Simulation time: 0 hr 3 min 48 sec) 
Heartbeat CPU 0 instructions: 100000000 cycles: 65943182 heartbeat IPC: 1.5163 cumulative IPC: 1.51646 (Simulation time: 0 hr 4 min 13 sec) 

Warmup complete CPU 0 instructions: 100000002 cycles: 65943183 (Simulation time: 0 hr 4 min 13 sec) 

Heartbeat CPU 0 instructions: 110000000 cycles: 79174171 heartbeat IPC: 0.755801 cumulative IPC: 0.755801 (Simulation time: 0 hr 4 min 44 sec) 
Heartbeat CPU 0 instructions: 120000000 cycles: 92368665 heartbeat IPC: 0.757892 cumulative IPC: 0.756845 (Simulation time: 0 hr 5 min 16 sec) 
Heartbeat CPU 0 instructions: 130000001 cycles: 105642135 heartbeat IPC: 0.753383 cumulative IPC: 0.755687 (Simulation time: 0 hr 5 min 47 sec) 
Heartbeat CPU 0 instructions: 140000000 cycles: 118823948 heartbeat IPC: 0.758621 cumulative IPC: 0.756419 (Simulation time: 0 hr 6 min 18 sec) 
Heartbeat CPU 0 instructions: 150000001 cycles: 132010599 heartbeat IPC: 0.758343 cumulative IPC: 0.756803 (Simulation time: 0 hr 6 min 50 sec) 
Heartbeat CPU 0 instructions: 160000000 cycles: 145233316 heartbeat IPC: 0.756274 cumulative IPC: 0.756715 (Simulation time: 0 hr 7 min 21 sec) 
Heartbeat CPU 0 instructions: 170000000 cycles: 158441663 heartbeat IPC: 0.757097 cumulative IPC: 0.756769 (Simulation time: 0 hr 7 min 52 sec) 
Heartbeat CPU 0 instructions: 180000000 cycles: 171634556 heartbeat IPC: 0.757984 cumulative IPC: 0.756921 (Simulation time: 0 hr 8 min 24 sec) 
Heartbeat CPU 0 instructions: 190000000 cycles: 184789004 heartbeat IPC: 0.760199 cumulative IPC: 0.757284 (Simulation time: 0 hr 8 min 55 sec) 
Heartbeat CPU 0 instructions: 200000000 cycles: 198037215 heartbeat IPC: 0.754819 cumulative IPC: 0.757036 (Simulation time: 0 hr 9 min 26 sec) 
Heartbeat CPU 0 instructions: 210000002 cycles: 211244189 heartbeat IPC: 0.757176 cumulative IPC: 0.757049 (Simulation time: 0 hr 9 min 57 sec) 
Heartbeat CPU 0 instructions: 220000000 cycles: 224415265 heartbeat IPC: 0.759239 cumulative IPC: 0.757231 (Simulation time: 0 hr 10 min 29 sec) 
Heartbeat CPU 0 instructions: 230000003 cycles: 237662379 heartbeat IPC: 0.754882 cumulative IPC: 0.75705 (Simulation time: 0 hr 11 min 0 sec) 
Heartbeat CPU 0 instructions: 240000000 cycles: 250844521 heartbeat IPC: 0.758602 cumulative IPC: 0.757161 (Simulation time: 0 hr 11 min 31 sec) 
Heartbeat CPU 0 instructions: 250000001 cycles: 264060301 heartbeat IPC: 0.756671 cumulative IPC: 0.757128 (Simulation time: 0 hr 12 min 2 sec) 
Heartbeat CPU 0 instructions: 260000000 cycles: 277263765 heartbeat IPC: 0.757377 cumulative IPC: 0.757143 (Simulation time: 0 hr 12 min 34 sec) 
Heartbeat CPU 0 instructions: 270000003 cycles: 290491400 heartbeat IPC: 0.755993 cumulative IPC: 0.757076 (Simulation time: 0 hr 13 min 4 sec) 
Heartbeat CPU 0 instructions: 280000000 cycles: 303692855 heartbeat IPC: 0.757492 cumulative IPC: 0.757099 (Simulation time: 0 hr 13 min 35 sec) 
Heartbeat CPU 0 instructions: 290000000 cycles: 316855926 heartbeat IPC: 0.759701 cumulative IPC: 0.757235 (Simulation time: 0 hr 14 min 5 sec) 
Heartbeat CPU 0 instructions: 300000000 cycles: 330097275 heartbeat IPC: 0.75521 cumulative IPC: 0.757134 (Simulation time: 0 hr 14 min 36 sec) 
Heartbeat CPU 0 instructions: 310000001 cycles: 343269016 heartbeat IPC: 0.759201 cumulative IPC: 0.757232 (Simulation time: 0 hr 15 min 7 sec) 
Heartbeat CPU 0 instructions: 320000000 cycles: 356460908 heartbeat IPC: 0.758041 cumulative IPC: 0.757269 (Simulation time: 0 hr 15 min 37 sec) 
Heartbeat CPU 0 instructions: 330000002 cycles: 369654651 heartbeat IPC: 0.757935 cumulative IPC: 0.757298 (Simulation time: 0 hr 16 min 8 sec) 
Heartbeat CPU 0 instructions: 340000000 cycles: 382887183 heartbeat IPC: 0.755713 cumulative IPC: 0.757232 (Simulation time: 0 hr 16 min 38 sec) 
Heartbeat CPU 0 instructions: 350000000 cycles: 396132811 heartbeat IPC: 0.754966 cumulative IPC: 0.757141 (Simulation time: 0 hr 17 min 8 sec) 
Heartbeat CPU 0 instructions: 360000000 cycles: 409347949 heartbeat IPC: 0.756708 cumulative IPC: 0.757124 (Simulation time: 0 hr 17 min 38 sec) 
Heartbeat CPU 0 instructions: 370000002 cycles: 422616261 heartbeat IPC: 0.753676 cumulative IPC: 0.756996 (Simulation time: 0 hr 18 min 8 sec) 
Heartbeat CPU 0 instructions: 380000000 cycles: 435814088 heartbeat IPC: 0.7577 cumulative IPC: 0.757021 (Simulation time: 0 hr 18 min 38 sec) 
Heartbeat CPU 0 instructions: 390000000 cycles: 448984678 heartbeat IPC: 0.759267 cumulative IPC: 0.757098 (Simulation time: 0 hr 19 min 8 sec) 
Heartbeat CPU 0 instructions: 400000000 cycles: 462165445 heartbeat IPC: 0.758681 cumulative IPC: 0.757151 (Simulation time: 0 hr 19 min 38 sec) 
Heartbeat CPU 0 instructions: 410000001 cycles: 475408109 heartbeat IPC: 0.755135 cumulative IPC: 0.757086 (Simulation time: 0 hr 20 min 8 sec) 
Heartbeat CPU 0 instructions: 420000000 cycles: 488582298 heartbeat IPC: 0.75906 cumulative IPC: 0.757147 (Simulation time: 0 hr 20 min 37 sec) 
Heartbeat CPU 0 instructions: 430000001 cycles: 501763856 heartbeat IPC: 0.758636 cumulative IPC: 0.757192 (Simulation time: 0 hr 21 min 7 sec) 
Heartbeat CPU 0 instructions: 440000000 cycles: 514930332 heartbeat IPC: 0.759505 cumulative IPC: 0.75726 (Simulation time: 0 hr 21 min 37 sec) 
Heartbeat CPU 0 instructions: 450000002 cycles: 528219952 heartbeat IPC: 0.752467 cumulative IPC: 0.757122 (Simulation time: 0 hr 22 min 7 sec) 
Heartbeat CPU 0 instructions: 460000000 cycles: 541431466 heartbeat IPC: 0.756915 cumulative IPC: 0.757116 (Simulation time: 0 hr 22 min 37 sec) 
Heartbeat CPU 0 instructions: 470000003 cycles: 554620868 heartbeat IPC: 0.758185 cumulative IPC: 0.757145 (Simulation time: 0 hr 23 min 6 sec) 
Heartbeat CPU 0 instructions: 480000000 cycles: 567854018 heartbeat IPC: 0.755678 cumulative IPC: 0.757107 (Simulation time: 0 hr 23 min 36 sec) 
Heartbeat CPU 0 instructions: 490000000 cycles: 581054023 heartbeat IPC: 0.757575 cumulative IPC: 0.757119 (Simulation time: 0 hr 24 min 6 sec) 
Heartbeat CPU 0 instructions: 500000000 cycles: 594238707 heartbeat IPC: 0.758456 cumulative IPC: 0.757152 (Simulation time: 0 hr 24 min 36 sec) 
Heartbeat CPU 0 instructions: 510000001 cycles: 607403951 heartbeat IPC: 0.759576 cumulative IPC: 0.757211 (Simulation time: 0 hr 25 min 6 sec) 
Heartbeat CPU 0 instructions: 520000000 cycles: 620669391 heartbeat IPC: 0.753838 cumulative IPC: 0.75713 (Simulation time: 0 hr 25 min 35 sec) 
Heartbeat CPU 0 instructions: 530000000 cycles: 633909464 heartbeat IPC: 0.755283 cumulative IPC: 0.757087 (Simulation time: 0 hr 26 min 5 sec) 
Heartbeat CPU 0 instructions: 540000000 cycles: 647126191 heartbeat IPC: 0.756617 cumulative IPC: 0.757077 (Simulation time: 0 hr 26 min 35 sec) 
Heartbeat CPU 0 instructions: 550000002 cycles: 660378680 heartbeat IPC: 0.754575 cumulative IPC: 0.757021 (Simulation time: 0 hr 27 min 5 sec) 
Heartbeat CPU 0 instructions: 560000000 cycles: 673565416 heartbeat IPC: 0.758338 cumulative IPC: 0.757049 (Simulation time: 0 hr 27 min 35 sec) 
Heartbeat CPU 0 instructions: 570000001 cycles: 686759582 heartbeat IPC: 0.757911 cumulative IPC: 0.757068 (Simulation time: 0 hr 28 min 5 sec) 
Heartbeat CPU 0 instructions: 580000000 cycles: 699953064 heartbeat IPC: 0.75795 cumulative IPC: 0.757086 (Simulation time: 0 hr 28 min 34 sec) 
Heartbeat CPU 0 instructions: 590000003 cycles: 713174644 heartbeat IPC: 0.756339 cumulative IPC: 0.757071 (Simulation time: 0 hr 29 min 4 sec) 
Heartbeat CPU 0 instructions: 600000000 cycles: 726428001 heartbeat IPC: 0.754526 cumulative IPC: 0.75702 (Simulation time: 0 hr 29 min 34 sec) 
Finished CPU 0 instructions: 500000000 cycles: 660484828 cumulative IPC: 0.75702 (Simulation time: 0 hr 29 min 34 sec) 

CPU 0 Branch Prediction Accuracy: 99.968% MPKI: 0.002246
Number of Branches: 3513331 Number of Mispredictions: 1123
Number of LOAD Instructions: 287251172
Number of LOAD Instructions (ROI): 287251172
Number of STORE Instructions: 51060820
Number of STORE Instructions (ROI): 51060820
Total Destination Memory Operands: 51166221
Total Destination Memory Operands (ROI): 51166221
Total Source Memory Operands: 287251172
Total Source Memory Operands (ROI): 287251172
Number of DEPENDED LOADS: 9555481
Number of DEPENDED LOADS (ROI): 9555481
Number of SQ_ADDED: 51166208
Number of SQ_ADDED (ROI): 51166208
Number of LQ_ADDED: 290420099
Number of LQ_ADDED (ROI): 290420099
Number of Instructions read from trace: 600000257

ChampSim completed all CPUs

Region of Interest Statistics

CPU 0 cumulative IPC: 0.75702 instructions: 500000000 cycles: 660484828
ITLB TOTAL     ACCESS:  108949697  HIT:  108949697  MISS:          0
ITLB LOAD      ACCESS:  108949697  HIT:  108949697  MISS:          0
ITLB RFO       ACCESS:          0  HIT:          0  MISS:          0
ITLB PREFETCH  ACCESS:          0  HIT:          0  MISS:          0
ITLB WRITEBACK ACCESS:          0  HIT:          0  MISS:          0
ITLB PREFETCH  REQUESTED:          0  ISSUED:          0  USEFUL:          0  USELESS:          0
ITLB TOTAL MSHR MERGED:          0
ITLB LOAD MSHR MERGED:          0
ITLB RFO MSHR MERGED:          0
ITLB PREFETCH MSHR MERGED:          0
ITLB WRITEBACK MSHR MERGED:          0
ITLB TOTAL ACCESSES:  108949697 HITS:  108949697 MISSES:          0
ITLB LOAD ACCESSES:  108949697 HITS:  108949697 MISSES:          0
ITLB RFO ACCESSES:          0 HITS:          0 MISSES:          0
ITLB PREFETCH ACCESSES:          0 HITS:          0 MISSES:          0
ITLB WRITEBACK ACCESSES:          0 HITS:          0 MISSES:          0
ITLB RQ ACCESS:  500000001
ITLB RQ TO_CACHE:  108949697
ITLB RQ MERGED:  391050304
ITLB RQ FORWARD:          0
ITLB WQ ACCESS:          0
ITLB WQ TO_CACHE:          0
ITLB WQ MERGED:          0
ITLB WQ FORWARD:          0
DTLB TOTAL     ACCESS:  171131035  HIT:  161114681  MISS:   10016354
DTLB LOAD      ACCESS:  143471947  HIT:  135595843  MISS:    7876104
DTLB RFO       ACCESS:   27659088  HIT:   25518838  MISS:    2140250
DTLB PREFETCH  ACCESS:          0  HIT:          0  MISS:          0
DTLB WRITEBACK ACCESS:          0  HIT:          0  MISS:          0
DTLB PREFETCH  REQUESTED:          0  ISSUED:          0  USEFUL:          0  USELESS:          0
DTLB TOTAL MSHR MERGED:     360451
DTLB LOAD MSHR MERGED:     360451
DTLB RFO MSHR MERGED:          0
DTLB PREFETCH MSHR MERGED:          0
DTLB WRITEBACK MSHR MERGED:          0
DTLB TOTAL ACCESSES:  171491486 HITS:  161114681 MISSES:   10376805
DTLB LOAD ACCESSES:  143832398 HITS:  135595843 MISSES:    8236555
DTLB RFO ACCESSES:   27659088 HITS:   25518838 MISSES:    2140250
DTLB PREFETCH ACCESSES:          0 HITS:          0 MISSES:          0
DTLB WRITEBACK ACCESSES:          0 HITS:          0 MISSES:          0
DTLB RQ ACCESS:  274072337
DTLB RQ TO_CACHE:  171491486
DTLB RQ MERGED:  102580851
DTLB RQ FORWARD:          0
DTLB WQ ACCESS:          0
DTLB WQ TO_CACHE:          0
DTLB WQ MERGED:          0
DTLB WQ FORWARD:          0
L1D TOTAL     ACCESS:  350962262  HIT:  283762962  MISS:   67199300
L1D LOAD      ACCESS:  175627028  HIT:  142587744  MISS:   33039284
L1D RFO       ACCESS:   42020322  HIT:   39214881  MISS:    2805441
L1D PREFETCH  ACCESS:  133314912  HIT:  101960337  MISS:   31354575
L1D WRITEBACK ACCESS:          0  HIT:          0  MISS:          0
L1D PREFETCH  REQUESTED:  176231145  ISSUED:  175292900  USEFUL:    2180712  USELESS:   29173865
L1D TOTAL MSHR MERGED:    1482868
L1D LOAD MSHR MERGED:     704080
L1D RFO MSHR MERGED:     348815
L1D PREFETCH MSHR MERGED:     429973
L1D WRITEBACK MSHR MERGED:          0
L1D TOTAL ACCESSES:  352557272 HITS:  283875104 MISSES:   68682168
L1D LOAD ACCESSES:  176237369 HITS:  142593968 MISSES:   33643401
L1D RFO ACCESSES:   42368456 HITS:   39214881 MISSES:    3153575
L1D PREFETCH ACCESSES:  133951447 HITS:  102066255 MISSES:   31885192
L1D WRITEBACK ACCESSES:          0 HITS:          0 MISSES:          0
L1D RQ ACCESS:  231433864
L1D RQ TO_CACHE:  176231145
L1D RQ MERGED:   55196495
L1D RQ FORWARD:          0
L1D WQ ACCESS:   42638475
L1D WQ TO_CACHE:   42368456
L1D WQ MERGED:     270019
L1D WQ FORWARD:     112142
L1I TOTAL     ACCESS:  109342994  HIT:   77827290  MISS:   31515704
L1I LOAD      ACCESS:  109342994  HIT:   77827290  MISS:   31515704
L1I RFO       ACCESS:          0  HIT:          0  MISS:          0
L1I PREFETCH  ACCESS:          0  HIT:          0  MISS:          0
L1I WRITEBACK ACCESS:          0  HIT:          0  MISS:          0
L1I PREFETCH  REQUESTED:          0  ISSUED:          0  USEFUL:          0  USELESS:          0
L1I TOTAL MSHR MERGED:   30750784
L1I LOAD MSHR MERGED:   30750784
L1I RFO MSHR MERGED:          0
L1I PREFETCH MSHR MERGED:          0
L1I WRITEBACK MSHR MERGED:          0
L1I TOTAL ACCESSES:  140093780 HITS:   77827290 MISSES:   62266490
L1I LOAD ACCESSES:  140093780 HITS:   77827290 MISSES:   62266490
L1I RFO ACCESSES:          0 HITS:          0 MISSES:          0
L1I PREFETCH ACCESSES:          0 HITS:          0 MISSES:          0
L1I WRITEBACK ACCESSES:          0 HITS:          0 MISSES:          0
L1I RQ ACCESS:  500000003
L1I RQ TO_CACHE:  140093780
L1I RQ MERGED:  359906223
L1I RQ FORWARD:          0
L1I WQ ACCESS:          0
L1I WQ TO_CACHE:          0
L1I WQ MERGED:          0
L1I WQ FORWARD:          0
L2C TOTAL     ACCESS:  113704941  HIT:  110705596  MISS:    2999345
L2C LOAD      ACCESS:   64453149  HIT:   63893679  MISS:     559470
L2C RFO       ACCESS:    2802857  HIT:    2193783  MISS:     609074
L2C PREFETCH  ACCESS:   43287967  HIT:   41463406  MISS:    1824561
L2C WRITEBACK ACCESS:    3160968  HIT:    3154728  MISS:       6240
L2C PREFETCH  REQUESTED:   15134505  ISSUED:   14619953  USEFUL:    1699989  USELESS:     124579
L2C TOTAL MSHR MERGED:      12575
L2C LOAD MSHR MERGED:          0
L2C RFO MSHR MERGED:          0
L2C PREFETCH MSHR MERGED:      12575
L2C WRITEBACK MSHR MERGED:          0
L2C TOTAL ACCESSES:  113901942 HITS:  110711487 MISSES:    3190455
L2C LOAD ACCESSES:   64455026 HITS:   63895555 MISSES:     559471
L2C RFO ACCESSES:    2804760 HITS:    2195686 MISSES:     609074
L2C PREFETCH ACCESSES:   43481188 HITS:   41465518 MISSES:    2015670
L2C WRITEBACK ACCESSES:    3160968 HITS:    3154728 MISSES:       6240
L2C RQ ACCESS:   67259787
L2C RQ TO_CACHE:   67256008
L2C RQ MERGED:          0
L2C RQ FORWARD:          0
L2C WQ ACCESS:    3160968
L2C WQ TO_CACHE:    3160968
L2C WQ MERGED:          0
L2C WQ FORWARD:       5891
LLC TOTAL     ACCESS:    3703238  HIT:    1927712  MISS:    1775526
LLC LOAD      ACCESS:     559441  HIT:     498553  MISS:      60888
LLC RFO       ACCESS:     527327  HIT:     238499  MISS:     288828
LLC PREFETCH  ACCESS:    1998416  HIT:     692307  MISS:    1306109
LLC WRITEBACK ACCESS:     618054  HIT:     498353  MISS:     119701
LLC PREFETCH  REQUESTED:          0  ISSUED:          0  USEFUL:      44381  USELESS:    1253382
LLC TOTAL MSHR MERGED:       4020
LLC LOAD MSHR MERGED:          0
LLC RFO MSHR MERGED:          0
LLC PREFETCH MSHR MERGED:       4020
LLC WRITEBACK MSHR MERGED:          0
LLC TOTAL ACCESSES:    3789121 HITS:    2009575 MISSES:    1779546
LLC LOAD ACCESSES:     559470 HITS:     498582 MISSES:      60888
LLC RFO ACCESSES:     609074 HITS:     320246 MISSES:     288828
LLC PREFETCH ACCESSES:    2002523 HITS:     692394 MISSES:    1310129
LLC WRITEBACK ACCESSES:     618054 HITS:     498353 MISSES:     119701
LLC 0 RQ ACCESS:    1168545
LLC 0 RQ TO_CACHE:    1086769
LLC 0 RQ MERGED:          0
LLC 0 RQ FORWARD:          0
LLC WQ ACCESS:     618054
LLC WQ TO_CACHE:     618054
LLC WQ MERGED:          0
LLC WQ FORWARD:      81863
Major fault: 0 Minor fault: 12800
CPU 0 L1D next line prefetcher final stats
CPU 0 L2C PC-based stride prefetcher final stats
All Misses: 2146229
All Hits: 2407977
SD Algo Stats - Switches: 0 SRR-Repls: 77498 BRR-Repls: 0

DRAM Statistics
 CHANNEL 0
 RQ ROW_BUFFER_HIT:     812451  ROW_BUFFER_MISS:     842684
 DBUS_CONGESTED:     899687
 WQ ROW_BUFFER_HIT:      44584  ROW_BUFFER_MISS:     276277  FULL:          0

 AVG_CONGESTED_CYCLE: 13
LOADS RETIRED: 239375970
INSTR RETIRED: 500000000
