
*** ChampSim Multicore Out-of-Order Simulator ***

Warmup Instructions: 100000000
Simulation Instructions: 500000000
Number of CPUs: 1
LLC sets: 2048
LLC ways: 16
Clean RRIP Policies: 1013220110132201 Dirty RRIP Policies: 2003222120032221 PSEL Width: 10 Track Set: 4294967295 PSEL Mask: 1 Demote Mask: 2340014223400142DS Algo: 0Window size: 0
Off-chip DRAM Size: 4096 MB Channels: 1 Width: 64-bit Data Rate: 1600 MT/s

CPU 0 runs /mnt/beegfs/iconst01/spec2017/Parest.trace.gz
NOT SORTED
TRACE STRING: /mnt/beegfs/iconst01/spec2017/Parest.trace.gz
SORTED
TRACE STRING: /mnt/beegfs/iconst01/spec2017/Parest.trace.gz
INITIAL
TRACE STRING: /mnt/beegfs/iconst01/spec2017/Parest.trace.gz

champsim_seed used: 623

CPU 0 L1D next line prefetcher
CPU 0 L2C IP-based stride prefetcher
Initialize DRRIP state
Assign rand_sets[0]: 454  LLC: 2048
rand_sets[0]: 454
Assign rand_sets[1]: 1662  LLC: 2048
rand_sets[1]: 1662
Assign rand_sets[2]: 1921  LLC: 2048
rand_sets[2]: 1921
Assign rand_sets[3]: 1131  LLC: 2048
rand_sets[3]: 1131
Assign rand_sets[4]: 331  LLC: 2048
rand_sets[4]: 331
Assign rand_sets[5]: 1531  LLC: 2048
rand_sets[5]: 1531
Assign rand_sets[6]: 482  LLC: 2048
rand_sets[6]: 482
Assign rand_sets[7]: 1275  LLC: 2048
rand_sets[7]: 1275
Assign rand_sets[8]: 1876  LLC: 2048
rand_sets[8]: 1876
Assign rand_sets[9]: 2038  LLC: 2048
rand_sets[9]: 2038
Assign rand_sets[10]: 701  LLC: 2048
rand_sets[10]: 701
Assign rand_sets[11]: 479  LLC: 2048
rand_sets[11]: 479
Assign rand_sets[12]: 892  LLC: 2048
rand_sets[12]: 892
Assign rand_sets[13]: 1820  LLC: 2048
rand_sets[13]: 1820
Assign rand_sets[14]: 1505  LLC: 2048
rand_sets[14]: 1505
Assign rand_sets[15]: 1159  LLC: 2048
rand_sets[15]: 1159
Assign rand_sets[16]: 513  LLC: 2048
rand_sets[16]: 513
Assign rand_sets[17]: 703  LLC: 2048
rand_sets[17]: 703
Assign rand_sets[18]: 561  LLC: 2048
rand_sets[18]: 561
Assign rand_sets[19]: 990  LLC: 2048
rand_sets[19]: 990
Assign rand_sets[20]: 342  LLC: 2048
rand_sets[20]: 342
Assign rand_sets[21]: 882  LLC: 2048
rand_sets[21]: 882
Assign rand_sets[22]: 15  LLC: 2048
rand_sets[22]: 15
Assign rand_sets[23]: 71  LLC: 2048
rand_sets[23]: 71
Assign rand_sets[24]: 1127  LLC: 2048
rand_sets[24]: 1127
Assign rand_sets[25]: 1382  LLC: 2048
rand_sets[25]: 1382
Assign rand_sets[26]: 647  LLC: 2048
rand_sets[26]: 647
Assign rand_sets[27]: 857  LLC: 2048
rand_sets[27]: 857
Assign rand_sets[28]: 1450  LLC: 2048
rand_sets[28]: 1450
Assign rand_sets[29]: 1160  LLC: 2048
rand_sets[29]: 1160
Assign rand_sets[30]: 1852  LLC: 2048
rand_sets[30]: 1852
Assign rand_sets[31]: 1881  LLC: 2048
rand_sets[31]: 1881
Assign rand_sets[32]: 1770  LLC: 2048
rand_sets[32]: 1770
Assign rand_sets[33]: 1622  LLC: 2048
rand_sets[33]: 1622
Assign rand_sets[34]: 275  LLC: 2048
rand_sets[34]: 275
Assign rand_sets[35]: 635  LLC: 2048
rand_sets[35]: 635
Assign rand_sets[36]: 466  LLC: 2048
rand_sets[36]: 466
Assign rand_sets[37]: 1413  LLC: 2048
rand_sets[37]: 1413
Assign rand_sets[38]: 417  LLC: 2048
rand_sets[38]: 417
Assign rand_sets[39]: 472  LLC: 2048
rand_sets[39]: 472
Assign rand_sets[40]: 1340  LLC: 2048
rand_sets[40]: 1340
Assign rand_sets[41]: 852  LLC: 2048
rand_sets[41]: 852
Assign rand_sets[42]: 1365  LLC: 2048
rand_sets[42]: 1365
Assign rand_sets[43]: 47  LLC: 2048
rand_sets[43]: 47
Assign rand_sets[44]: 823  LLC: 2048
rand_sets[44]: 823
Assign rand_sets[45]: 686  LLC: 2048
rand_sets[45]: 686
Assign rand_sets[46]: 1637  LLC: 2048
rand_sets[46]: 1637
Assign rand_sets[47]: 1115  LLC: 2048
rand_sets[47]: 1115
Assign rand_sets[48]: 986  LLC: 2048
rand_sets[48]: 986
Assign rand_sets[49]: 258  LLC: 2048
rand_sets[49]: 258
Assign rand_sets[50]: 633  LLC: 2048
rand_sets[50]: 633
Assign rand_sets[51]: 920  LLC: 2048
rand_sets[51]: 920
Assign rand_sets[52]: 204  LLC: 2048
rand_sets[52]: 204
Assign rand_sets[53]: 227  LLC: 2048
rand_sets[53]: 227
Assign rand_sets[54]: 1818  LLC: 2048
rand_sets[54]: 1818
Assign rand_sets[55]: 886  LLC: 2048
rand_sets[55]: 886
Assign rand_sets[56]: 1422  LLC: 2048
rand_sets[56]: 1422
Assign rand_sets[57]: 607  LLC: 2048
rand_sets[57]: 607
Assign rand_sets[58]: 217  LLC: 2048
rand_sets[58]: 217
Assign rand_sets[59]: 1945  LLC: 2048
rand_sets[59]: 1945
Assign rand_sets[60]: 143  LLC: 2048
rand_sets[60]: 143
Assign rand_sets[61]: 1311  LLC: 2048
rand_sets[61]: 1311
Assign rand_sets[62]: 319  LLC: 2048
rand_sets[62]: 319
Assign rand_sets[63]: 1846  LLC: 2048
rand_sets[63]: 1846
 CLEAN-RRIP-POLICY-1: 1-0-1-3-2-2-0-1- CLEAN-RRIP-POLICY-2: 1-0-1-3-2-2-0-1-
 DIRTY-RRIP-POLICY-1: 2-0-0-3-2-2-2-1- DIRTY-RRIP-POLICY-2: 2-0-0-3-2-2-2-1-
 PSEL width: 10
Heartbeat CPU 0 instructions: 10000001 cycles: 4387236 heartbeat IPC: 2.27934 cumulative IPC: 2.27934 (Simulation time: 0 hr 0 min 15 sec) 
Heartbeat CPU 0 instructions: 20000000 cycles: 8781478 heartbeat IPC: 2.27571 cumulative IPC: 2.27752 (Simulation time: 0 hr 0 min 30 sec) 
Heartbeat CPU 0 instructions: 30000003 cycles: 13213609 heartbeat IPC: 2.25625 cumulative IPC: 2.27039 (Simulation time: 0 hr 0 min 45 sec) 
Heartbeat CPU 0 instructions: 40000000 cycles: 17644323 heartbeat IPC: 2.25697 cumulative IPC: 2.26702 (Simulation time: 0 hr 0 min 59 sec) 
Heartbeat CPU 0 instructions: 50000000 cycles: 22052807 heartbeat IPC: 2.26835 cumulative IPC: 2.26729 (Simulation time: 0 hr 1 min 14 sec) 
Heartbeat CPU 0 instructions: 60000000 cycles: 26458761 heartbeat IPC: 2.26966 cumulative IPC: 2.26768 (Simulation time: 0 hr 1 min 28 sec) 
Heartbeat CPU 0 instructions: 70000000 cycles: 30859830 heartbeat IPC: 2.27218 cumulative IPC: 2.26832 (Simulation time: 0 hr 1 min 43 sec) 
Heartbeat CPU 0 instructions: 80000000 cycles: 35255580 heartbeat IPC: 2.27492 cumulative IPC: 2.26914 (Simulation time: 0 hr 1 min 58 sec) 
Heartbeat CPU 0 instructions: 90000000 cycles: 39650031 heartbeat IPC: 2.2756 cumulative IPC: 2.26986 (Simulation time: 0 hr 2 min 13 sec) 
Heartbeat CPU 0 instructions: 100000000 cycles: 44047582 heartbeat IPC: 2.27399 cumulative IPC: 2.27027 (Simulation time: 0 hr 2 min 29 sec) 

Warmup complete CPU 0 instructions: 100000002 cycles: 44047592 (Simulation time: 0 hr 2 min 29 sec) 

Heartbeat CPU 0 instructions: 110000000 cycles: 54429677 heartbeat IPC: 0.963197 cumulative IPC: 0.963197 (Simulation time: 0 hr 2 min 48 sec) 
Heartbeat CPU 0 instructions: 120000000 cycles: 64021957 heartbeat IPC: 1.04251 cumulative IPC: 1.00128 (Simulation time: 0 hr 3 min 7 sec) 
Heartbeat CPU 0 instructions: 130000000 cycles: 73544725 heartbeat IPC: 1.05011 cumulative IPC: 1.01705 (Simulation time: 0 hr 3 min 26 sec) 
Heartbeat CPU 0 instructions: 140000000 cycles: 83320664 heartbeat IPC: 1.02292 cumulative IPC: 1.01851 (Simulation time: 0 hr 3 min 46 sec) 
Heartbeat CPU 0 instructions: 150000000 cycles: 94197592 heartbeat IPC: 0.919377 cumulative IPC: 0.997009 (Simulation time: 0 hr 4 min 5 sec) 
Heartbeat CPU 0 instructions: 160000000 cycles: 104215976 heartbeat IPC: 0.998165 cumulative IPC: 0.997201 (Simulation time: 0 hr 4 min 24 sec) 
Heartbeat CPU 0 instructions: 170000003 cycles: 114164401 heartbeat IPC: 1.00518 cumulative IPC: 0.998334 (Simulation time: 0 hr 4 min 43 sec) 
Heartbeat CPU 0 instructions: 180000000 cycles: 124109897 heartbeat IPC: 1.00548 cumulative IPC: 0.999222 (Simulation time: 0 hr 5 min 2 sec) 
Heartbeat CPU 0 instructions: 190000002 cycles: 134202364 heartbeat IPC: 0.990838 cumulative IPC: 0.998283 (Simulation time: 0 hr 5 min 22 sec) 
Heartbeat CPU 0 instructions: 200000000 cycles: 143908555 heartbeat IPC: 1.03027 cumulative IPC: 1.00139 (Simulation time: 0 hr 5 min 41 sec) 
Heartbeat CPU 0 instructions: 210000000 cycles: 153895647 heartbeat IPC: 1.00129 cumulative IPC: 1.00138 (Simulation time: 0 hr 6 min 0 sec) 
Heartbeat CPU 0 instructions: 220000000 cycles: 163441857 heartbeat IPC: 1.04754 cumulative IPC: 1.00507 (Simulation time: 0 hr 6 min 19 sec) 
Heartbeat CPU 0 instructions: 230000001 cycles: 175826116 heartbeat IPC: 0.807477 cumulative IPC: 0.986504 (Simulation time: 0 hr 6 min 41 sec) 
Heartbeat CPU 0 instructions: 240000000 cycles: 186655658 heartbeat IPC: 0.9234 cumulative IPC: 0.981712 (Simulation time: 0 hr 7 min 0 sec) 
Heartbeat CPU 0 instructions: 250000002 cycles: 196671436 heartbeat IPC: 0.998425 cumulative IPC: 0.982808 (Simulation time: 0 hr 7 min 19 sec) 
Heartbeat CPU 0 instructions: 260000000 cycles: 206495546 heartbeat IPC: 1.0179 cumulative IPC: 0.984931 (Simulation time: 0 hr 7 min 38 sec) 
Heartbeat CPU 0 instructions: 270000001 cycles: 216253422 heartbeat IPC: 1.02481 cumulative IPC: 0.987191 (Simulation time: 0 hr 7 min 57 sec) 
Heartbeat CPU 0 instructions: 280000000 cycles: 226267726 heartbeat IPC: 0.998572 cumulative IPC: 0.987816 (Simulation time: 0 hr 8 min 17 sec) 
Heartbeat CPU 0 instructions: 290000002 cycles: 235824909 heartbeat IPC: 1.04633 cumulative IPC: 0.990732 (Simulation time: 0 hr 8 min 36 sec) 
Heartbeat CPU 0 instructions: 300000000 cycles: 245708101 heartbeat IPC: 1.01182 cumulative IPC: 0.991766 (Simulation time: 0 hr 8 min 55 sec) 
Heartbeat CPU 0 instructions: 310000000 cycles: 255212626 heartbeat IPC: 1.05213 cumulative IPC: 0.994483 (Simulation time: 0 hr 9 min 14 sec) 
Heartbeat CPU 0 instructions: 320000000 cycles: 264756427 heartbeat IPC: 1.0478 cumulative IPC: 0.996788 (Simulation time: 0 hr 9 min 33 sec) 
Heartbeat CPU 0 instructions: 330000003 cycles: 274392666 heartbeat IPC: 1.03775 cumulative IPC: 0.998502 (Simulation time: 0 hr 9 min 52 sec) 
Heartbeat CPU 0 instructions: 340000000 cycles: 284516803 heartbeat IPC: 0.987738 cumulative IPC: 0.998049 (Simulation time: 0 hr 10 min 12 sec) 
Heartbeat CPU 0 instructions: 350000000 cycles: 294677200 heartbeat IPC: 0.984214 cumulative IPC: 0.997488 (Simulation time: 0 hr 10 min 31 sec) 
Heartbeat CPU 0 instructions: 360000000 cycles: 304496565 heartbeat IPC: 1.0184 cumulative IPC: 0.998276 (Simulation time: 0 hr 10 min 50 sec) 
Heartbeat CPU 0 instructions: 370000000 cycles: 314214365 heartbeat IPC: 1.02904 cumulative IPC: 0.999383 (Simulation time: 0 hr 11 min 9 sec) 
Heartbeat CPU 0 instructions: 380000000 cycles: 323925504 heartbeat IPC: 1.02975 cumulative IPC: 1.00044 (Simulation time: 0 hr 11 min 28 sec) 
Heartbeat CPU 0 instructions: 390000002 cycles: 333522646 heartbeat IPC: 1.04198 cumulative IPC: 1.00181 (Simulation time: 0 hr 11 min 47 sec) 
Heartbeat CPU 0 instructions: 400000000 cycles: 343388125 heartbeat IPC: 1.01364 cumulative IPC: 1.0022 (Simulation time: 0 hr 12 min 6 sec) 
Heartbeat CPU 0 instructions: 410000000 cycles: 352862783 heartbeat IPC: 1.05545 cumulative IPC: 1.00384 (Simulation time: 0 hr 12 min 25 sec) 
Heartbeat CPU 0 instructions: 420000000 cycles: 364047759 heartbeat IPC: 0.894056 cumulative IPC: 0.999999 (Simulation time: 0 hr 12 min 45 sec) 
Heartbeat CPU 0 instructions: 430000000 cycles: 375262263 heartbeat IPC: 0.891702 cumulative IPC: 0.996333 (Simulation time: 0 hr 13 min 4 sec) 
Heartbeat CPU 0 instructions: 440000000 cycles: 385331718 heartbeat IPC: 0.993102 cumulative IPC: 0.996237 (Simulation time: 0 hr 13 min 23 sec) 
Heartbeat CPU 0 instructions: 450000000 cycles: 395345688 heartbeat IPC: 0.998605 cumulative IPC: 0.996305 (Simulation time: 0 hr 13 min 42 sec) 
Heartbeat CPU 0 instructions: 460000000 cycles: 405369169 heartbeat IPC: 0.997657 cumulative IPC: 0.996342 (Simulation time: 0 hr 14 min 1 sec) 
Heartbeat CPU 0 instructions: 470000001 cycles: 415452035 heartbeat IPC: 0.991782 cumulative IPC: 0.996219 (Simulation time: 0 hr 14 min 19 sec) 
Heartbeat CPU 0 instructions: 480000000 cycles: 425143246 heartbeat IPC: 1.03186 cumulative IPC: 0.997125 (Simulation time: 0 hr 14 min 38 sec) 
Heartbeat CPU 0 instructions: 490000002 cycles: 435166759 heartbeat IPC: 0.997654 cumulative IPC: 0.997139 (Simulation time: 0 hr 14 min 57 sec) 
Heartbeat CPU 0 instructions: 500000000 cycles: 444921942 heartbeat IPC: 1.0251 cumulative IPC: 0.997819 (Simulation time: 0 hr 15 min 16 sec) 
Heartbeat CPU 0 instructions: 510000000 cycles: 454495781 heartbeat IPC: 1.04451 cumulative IPC: 0.998908 (Simulation time: 0 hr 15 min 35 sec) 
Heartbeat CPU 0 instructions: 520000000 cycles: 464215919 heartbeat IPC: 1.02879 cumulative IPC: 0.999599 (Simulation time: 0 hr 15 min 54 sec) 
Heartbeat CPU 0 instructions: 530000001 cycles: 474579878 heartbeat IPC: 0.964882 cumulative IPC: 0.998764 (Simulation time: 0 hr 16 min 13 sec) 
Heartbeat CPU 0 instructions: 540000000 cycles: 484904136 heartbeat IPC: 0.968593 cumulative IPC: 0.998057 (Simulation time: 0 hr 16 min 31 sec) 
Heartbeat CPU 0 instructions: 550000003 cycles: 494921165 heartbeat IPC: 0.9983 cumulative IPC: 0.998062 (Simulation time: 0 hr 16 min 50 sec) 
Heartbeat CPU 0 instructions: 560000000 cycles: 504814622 heartbeat IPC: 1.01077 cumulative IPC: 0.998335 (Simulation time: 0 hr 17 min 8 sec) 
Heartbeat CPU 0 instructions: 570000002 cycles: 514690714 heartbeat IPC: 1.01255 cumulative IPC: 0.998634 (Simulation time: 0 hr 17 min 26 sec) 
Heartbeat CPU 0 instructions: 580000000 cycles: 524446838 heartbeat IPC: 1.025 cumulative IPC: 0.999169 (Simulation time: 0 hr 17 min 45 sec) 
Heartbeat CPU 0 instructions: 590000001 cycles: 534434005 heartbeat IPC: 1.00129 cumulative IPC: 0.999212 (Simulation time: 0 hr 18 min 3 sec) 
Heartbeat CPU 0 instructions: 600000000 cycles: 544131199 heartbeat IPC: 1.03123 cumulative IPC: 0.999833 (Simulation time: 0 hr 18 min 22 sec) 
Finished CPU 0 instructions: 500000000 cycles: 500083621 cumulative IPC: 0.999833 (Simulation time: 0 hr 18 min 22 sec) 

CPU 0 Branch Prediction Accuracy: 97.8526% MPKI: 2.66709
Number of Branches: 62099103 Number of Mispredictions: 1333545
Number of LOAD Instructions: 210576465
Number of LOAD Instructions (ROI): 210576465
Number of STORE Instructions: 16915507
Number of STORE Instructions (ROI): 16915507
Total Destination Memory Operands: 16918869
Total Destination Memory Operands (ROI): 16918869
Total Source Memory Operands: 210576465
Total Source Memory Operands (ROI): 210576465
Number of DEPENDED LOADS: 343345
Number of DEPENDED LOADS (ROI): 343345
Number of SQ_ADDED: 16918826
Number of SQ_ADDED (ROI): 16918826
Number of LQ_ADDED: 210608878
Number of LQ_ADDED (ROI): 210608878
Number of Instructions read from trace: 600000257

ChampSim completed all CPUs

Region of Interest Statistics

CPU 0 cumulative IPC: 0.999833 instructions: 500000000 cycles: 500083621
ITLB TOTAL     ACCESS:   76266837  HIT:   76266799  MISS:         38
ITLB LOAD      ACCESS:   76266837  HIT:   76266799  MISS:         38
ITLB RFO       ACCESS:          0  HIT:          0  MISS:          0
ITLB PREFETCH  ACCESS:          0  HIT:          0  MISS:          0
ITLB WRITEBACK ACCESS:          0  HIT:          0  MISS:          0
ITLB PREFETCH  REQUESTED:          0  ISSUED:          0  USEFUL:          0  USELESS:          0
ITLB TOTAL MSHR MERGED:         37
ITLB LOAD MSHR MERGED:         37
ITLB RFO MSHR MERGED:          0
ITLB PREFETCH MSHR MERGED:          0
ITLB WRITEBACK MSHR MERGED:          0
ITLB TOTAL ACCESSES:   76266874 HITS:   76266799 MISSES:         75
ITLB LOAD ACCESSES:   76266874 HITS:   76266799 MISSES:         75
ITLB RFO ACCESSES:          0 HITS:          0 MISSES:          0
ITLB PREFETCH ACCESSES:          0 HITS:          0 MISSES:          0
ITLB WRITEBACK ACCESSES:          0 HITS:          0 MISSES:          0
ITLB RQ ACCESS:  500000188
ITLB RQ TO_CACHE:   76266875
ITLB RQ MERGED:  423733313
ITLB RQ FORWARD:          0
ITLB WQ ACCESS:          0
ITLB WQ TO_CACHE:          0
ITLB WQ MERGED:          0
ITLB WQ FORWARD:          0
DTLB TOTAL     ACCESS:  136874256  HIT:  136671462  MISS:     202794
DTLB LOAD      ACCESS:  128812162  HIT:  128612089  MISS:     200073
DTLB RFO       ACCESS:    8062094  HIT:    8059373  MISS:       2721
DTLB PREFETCH  ACCESS:          0  HIT:          0  MISS:          0
DTLB WRITEBACK ACCESS:          0  HIT:          0  MISS:          0
DTLB PREFETCH  REQUESTED:          0  ISSUED:          0  USEFUL:          0  USELESS:          0
DTLB TOTAL MSHR MERGED:     447117
DTLB LOAD MSHR MERGED:     443367
DTLB RFO MSHR MERGED:       3750
DTLB PREFETCH MSHR MERGED:          0
DTLB WRITEBACK MSHR MERGED:          0
DTLB TOTAL ACCESSES:  137321373 HITS:  136671462 MISSES:     649911
DTLB LOAD ACCESSES:  129255529 HITS:  128612089 MISSES:     643440
DTLB RFO ACCESSES:    8065844 HITS:    8059373 MISSES:       6471
DTLB PREFETCH ACCESSES:          0 HITS:          0 MISSES:          0
DTLB WRITEBACK ACCESSES:          0 HITS:          0 MISSES:          0
DTLB RQ ACCESS:  189421216
DTLB RQ TO_CACHE:  137321373
DTLB RQ MERGED:   52099843
DTLB RQ FORWARD:          0
DTLB WQ ACCESS:          0
DTLB WQ TO_CACHE:          0
DTLB WQ MERGED:          0
DTLB WQ FORWARD:          0
L1D TOTAL     ACCESS:  125479298  HIT:  107922440  MISS:   17556858
L1D LOAD      ACCESS:   72334946  HIT:   62065533  MISS:   10269413
L1D RFO       ACCESS:   14015036  HIT:   13862196  MISS:     152840
L1D PREFETCH  ACCESS:   39129316  HIT:   31994711  MISS:    7134605
L1D WRITEBACK ACCESS:          0  HIT:          0  MISS:          0
L1D PREFETCH  REQUESTED:   85580853  ISSUED:   84258842  USEFUL:    5875316  USELESS:    1259300
L1D TOTAL MSHR MERGED:   31528867
L1D LOAD MSHR MERGED:   18413781
L1D RFO MSHR MERGED:     265727
L1D PREFETCH MSHR MERGED:   12849359
L1D WRITEBACK MSHR MERGED:          0
L1D TOTAL ACCESSES:  157008674 HITS:  107922950 MISSES:   49085724
L1D LOAD ACCESSES:   85580867 HITS:   62065547 MISSES:   23515320
L1D RFO ACCESSES:   14280736 HITS:   13862196 MISSES:     418540
L1D PREFETCH ACCESSES:   57147071 HITS:   31995207 MISSES:   25151864
L1D WRITEBACK ACCESSES:          0 HITS:          0 MISSES:          0
L1D RQ ACCESS:  175132194
L1D RQ TO_CACHE:   85580853
L1D RQ MERGED:   89551327
L1D RQ FORWARD:          0
L1D WQ ACCESS:   14289037
L1D WQ TO_CACHE:   14280736
L1D WQ MERGED:       8301
L1D WQ FORWARD:        510
L1I TOTAL     ACCESS:   93288731  HIT:   93286935  MISS:       1796
L1I LOAD      ACCESS:   93288731  HIT:   93286935  MISS:       1796
L1I RFO       ACCESS:          0  HIT:          0  MISS:          0
L1I PREFETCH  ACCESS:          0  HIT:          0  MISS:          0
L1I WRITEBACK ACCESS:          0  HIT:          0  MISS:          0
L1I PREFETCH  REQUESTED:          0  ISSUED:          0  USEFUL:          0  USELESS:          0
L1I TOTAL MSHR MERGED:       2320
L1I LOAD MSHR MERGED:       2320
L1I RFO MSHR MERGED:          0
L1I PREFETCH MSHR MERGED:          0
L1I WRITEBACK MSHR MERGED:          0
L1I TOTAL ACCESSES:   93291051 HITS:   93286935 MISSES:       4116
L1I LOAD ACCESSES:   93291051 HITS:   93286935 MISSES:       4116
L1I RFO ACCESSES:          0 HITS:          0 MISSES:          0
L1I PREFETCH ACCESSES:          0 HITS:          0 MISSES:          0
L1I WRITEBACK ACCESSES:          0 HITS:          0 MISSES:          0
L1I RQ ACCESS:  500000187
L1I RQ TO_CACHE:   93291051
L1I RQ MERGED:  406709136
L1I RQ FORWARD:          0
L1I WQ ACCESS:          0
L1I WQ TO_CACHE:          0
L1I WQ MERGED:          0
L1I WQ FORWARD:          0
L2C TOTAL     ACCESS:   20893881  HIT:    8664527  MISS:   12229354
L2C LOAD      ACCESS:    5103309  HIT:    2139741  MISS:    2963568
L2C RFO       ACCESS:     152813  HIT:       6506  MISS:     146307
L2C PREFETCH  ACCESS:   13865004  HIT:    4745634  MISS:    9119370
L2C WRITEBACK ACCESS:    1772755  HIT:    1772646  MISS:        109
L2C PREFETCH  REQUESTED:    1800635  ISSUED:    1800635  USEFUL:    1069318  USELESS:    8051665
L2C TOTAL MSHR MERGED:      97480
L2C LOAD MSHR MERGED:      22329
L2C RFO MSHR MERGED:          0
L2C PREFETCH MSHR MERGED:      75151
L2C WRITEBACK MSHR MERGED:          0
L2C TOTAL ACCESSES:   21014910 HITS:    8664568 MISSES:   12350342
L2C LOAD ACCESSES:    5103335 HITS:    2139767 MISSES:    2963568
L2C RFO ACCESSES:     152813 HITS:       6506 MISSES:     146307
L2C PREFETCH ACCESSES:   13986007 HITS:    4745649 MISSES:    9240358
L2C WRITEBACK ACCESSES:    1772755 HITS:    1772646 MISSES:        109
L2C RQ ACCESS:    5256148
L2C RQ TO_CACHE:    5256122
L2C RQ MERGED:          0
L2C RQ FORWARD:          0
L2C WQ ACCESS:    1772755
L2C WQ TO_CACHE:    1772755
L2C WQ MERGED:          0
L2C WQ FORWARD:         41
LLC TOTAL     ACCESS:   12532872  HIT:    6508015  MISS:    6024857
LLC LOAD      ACCESS:    2941218  HIT:    2433272  MISS:     507946
LLC RFO       ACCESS:     146307  HIT:      61356  MISS:      84951
LLC PREFETCH  ACCESS:    9159365  HIT:    3808031  MISS:    5351334
LLC WRITEBACK ACCESS:     285982  HIT:     205356  MISS:      80626
LLC PREFETCH  REQUESTED:          0  ISSUED:          0  USEFUL:      16734  USELESS:    5334326
LLC TOTAL MSHR MERGED:       1916
LLC LOAD MSHR MERGED:        440
LLC RFO MSHR MERGED:          0
LLC PREFETCH MSHR MERGED:       1476
LLC WRITEBACK MSHR MERGED:          0
LLC TOTAL ACCESSES:   12534822 HITS:    6508049 MISSES:    6026773
LLC LOAD ACCESSES:    2941239 HITS:    2433293 MISSES:     507946
LLC RFO ACCESSES:     146307 HITS:      61356 MISSES:      84951
LLC PREFETCH ACCESSES:    9161294 HITS:    3808044 MISSES:    5353250
LLC WRITEBACK ACCESSES:     285982 HITS:     205356 MISSES:      80626
LLC 0 RQ ACCESS:    3087546
LLC 0 RQ TO_CACHE:    3087525
LLC 0 RQ MERGED:          0
LLC 0 RQ FORWARD:          0
LLC WQ ACCESS:     285982
LLC WQ TO_CACHE:     285982
LLC WQ MERGED:          0
LLC WQ FORWARD:         34
Major fault: 0 Minor fault: 6524
CPU 0 L1D next line prefetcher final stats
CPU 0 L2C PC-based stride prefetcher final stats
All Misses: 7815570
All Hits: 7242313
SD Algo Stats - Switches: 0 SRR-Repls: 535139 BRR-Repls: 0

DRAM Statistics
 CHANNEL 0
 RQ ROW_BUFFER_HIT:    5067852  ROW_BUFFER_MISS:     866666
 DBUS_CONGESTED:    2027096
 WQ ROW_BUFFER_HIT:      17989  ROW_BUFFER_MISS:     114593  FULL:          0

 AVG_CONGESTED_CYCLE: 11
LOADS RETIRED: 175418235
INSTR RETIRED: 500000000
