
*** ChampSim Multicore Out-of-Order Simulator ***

Warmup Instructions: 100000000
Simulation Instructions: 500000000
Number of CPUs: 1
LLC sets: 2048
LLC ways: 16
Clean RRIP Policies: 1112121311121213 Dirty RRIP Policies: 1112121311121213 PSEL Width: 10 Track Set: 4294967295 PSEL Mask: 1 Demote Mask: 1303020113030201DS Algo: 0Window size: 0
Off-chip DRAM Size: 4096 MB Channels: 1 Width: 64-bit Data Rate: 1600 MT/s

CPU 0 runs /mnt/beegfs/iconst01/spec2017/Gcc.trace.gz
NOT SORTED
TRACE STRING: /mnt/beegfs/iconst01/spec2017/Gcc.trace.gz
SORTED
TRACE STRING: /mnt/beegfs/iconst01/spec2017/Gcc.trace.gz
INITIAL
TRACE STRING: /mnt/beegfs/iconst01/spec2017/Gcc.trace.gz

champsim_seed used: 269

CPU 0 L1D next line prefetcher
CPU 0 L2C IP-based stride prefetcher
Initialize DRRIP state
Assign rand_sets[0]: 454  LLC: 2048
rand_sets[0]: 454
Assign rand_sets[1]: 1662  LLC: 2048
rand_sets[1]: 1662
Assign rand_sets[2]: 1921  LLC: 2048
rand_sets[2]: 1921
Assign rand_sets[3]: 1131  LLC: 2048
rand_sets[3]: 1131
Assign rand_sets[4]: 331  LLC: 2048
rand_sets[4]: 331
Assign rand_sets[5]: 1531  LLC: 2048
rand_sets[5]: 1531
Assign rand_sets[6]: 482  LLC: 2048
rand_sets[6]: 482
Assign rand_sets[7]: 1275  LLC: 2048
rand_sets[7]: 1275
Assign rand_sets[8]: 1876  LLC: 2048
rand_sets[8]: 1876
Assign rand_sets[9]: 2038  LLC: 2048
rand_sets[9]: 2038
Assign rand_sets[10]: 701  LLC: 2048
rand_sets[10]: 701
Assign rand_sets[11]: 479  LLC: 2048
rand_sets[11]: 479
Assign rand_sets[12]: 892  LLC: 2048
rand_sets[12]: 892
Assign rand_sets[13]: 1820  LLC: 2048
rand_sets[13]: 1820
Assign rand_sets[14]: 1505  LLC: 2048
rand_sets[14]: 1505
Assign rand_sets[15]: 1159  LLC: 2048
rand_sets[15]: 1159
Assign rand_sets[16]: 513  LLC: 2048
rand_sets[16]: 513
Assign rand_sets[17]: 703  LLC: 2048
rand_sets[17]: 703
Assign rand_sets[18]: 561  LLC: 2048
rand_sets[18]: 561
Assign rand_sets[19]: 990  LLC: 2048
rand_sets[19]: 990
Assign rand_sets[20]: 342  LLC: 2048
rand_sets[20]: 342
Assign rand_sets[21]: 882  LLC: 2048
rand_sets[21]: 882
Assign rand_sets[22]: 15  LLC: 2048
rand_sets[22]: 15
Assign rand_sets[23]: 71  LLC: 2048
rand_sets[23]: 71
Assign rand_sets[24]: 1127  LLC: 2048
rand_sets[24]: 1127
Assign rand_sets[25]: 1382  LLC: 2048
rand_sets[25]: 1382
Assign rand_sets[26]: 647  LLC: 2048
rand_sets[26]: 647
Assign rand_sets[27]: 857  LLC: 2048
rand_sets[27]: 857
Assign rand_sets[28]: 1450  LLC: 2048
rand_sets[28]: 1450
Assign rand_sets[29]: 1160  LLC: 2048
rand_sets[29]: 1160
Assign rand_sets[30]: 1852  LLC: 2048
rand_sets[30]: 1852
Assign rand_sets[31]: 1881  LLC: 2048
rand_sets[31]: 1881
Assign rand_sets[32]: 1770  LLC: 2048
rand_sets[32]: 1770
Assign rand_sets[33]: 1622  LLC: 2048
rand_sets[33]: 1622
Assign rand_sets[34]: 275  LLC: 2048
rand_sets[34]: 275
Assign rand_sets[35]: 635  LLC: 2048
rand_sets[35]: 635
Assign rand_sets[36]: 466  LLC: 2048
rand_sets[36]: 466
Assign rand_sets[37]: 1413  LLC: 2048
rand_sets[37]: 1413
Assign rand_sets[38]: 417  LLC: 2048
rand_sets[38]: 417
Assign rand_sets[39]: 472  LLC: 2048
rand_sets[39]: 472
Assign rand_sets[40]: 1340  LLC: 2048
rand_sets[40]: 1340
Assign rand_sets[41]: 852  LLC: 2048
rand_sets[41]: 852
Assign rand_sets[42]: 1365  LLC: 2048
rand_sets[42]: 1365
Assign rand_sets[43]: 47  LLC: 2048
rand_sets[43]: 47
Assign rand_sets[44]: 823  LLC: 2048
rand_sets[44]: 823
Assign rand_sets[45]: 686  LLC: 2048
rand_sets[45]: 686
Assign rand_sets[46]: 1637  LLC: 2048
rand_sets[46]: 1637
Assign rand_sets[47]: 1115  LLC: 2048
rand_sets[47]: 1115
Assign rand_sets[48]: 986  LLC: 2048
rand_sets[48]: 986
Assign rand_sets[49]: 258  LLC: 2048
rand_sets[49]: 258
Assign rand_sets[50]: 633  LLC: 2048
rand_sets[50]: 633
Assign rand_sets[51]: 920  LLC: 2048
rand_sets[51]: 920
Assign rand_sets[52]: 204  LLC: 2048
rand_sets[52]: 204
Assign rand_sets[53]: 227  LLC: 2048
rand_sets[53]: 227
Assign rand_sets[54]: 1818  LLC: 2048
rand_sets[54]: 1818
Assign rand_sets[55]: 886  LLC: 2048
rand_sets[55]: 886
Assign rand_sets[56]: 1422  LLC: 2048
rand_sets[56]: 1422
Assign rand_sets[57]: 607  LLC: 2048
rand_sets[57]: 607
Assign rand_sets[58]: 217  LLC: 2048
rand_sets[58]: 217
Assign rand_sets[59]: 1945  LLC: 2048
rand_sets[59]: 1945
Assign rand_sets[60]: 143  LLC: 2048
rand_sets[60]: 143
Assign rand_sets[61]: 1311  LLC: 2048
rand_sets[61]: 1311
Assign rand_sets[62]: 319  LLC: 2048
rand_sets[62]: 319
Assign rand_sets[63]: 1846  LLC: 2048
rand_sets[63]: 1846
 CLEAN-RRIP-POLICY-1: 1-1-1-2-1-2-1-3- CLEAN-RRIP-POLICY-2: 1-1-1-2-1-2-1-3-
 DIRTY-RRIP-POLICY-1: 1-1-1-2-1-2-1-3- DIRTY-RRIP-POLICY-2: 1-1-1-2-1-2-1-3-
 PSEL width: 10
Heartbeat CPU 0 instructions: 10000001 cycles: 7320815 heartbeat IPC: 1.36597 cumulative IPC: 1.36597 (Simulation time: 0 hr 0 min 16 sec) 
Heartbeat CPU 0 instructions: 20000000 cycles: 14325307 heartbeat IPC: 1.42766 cumulative IPC: 1.39613 (Simulation time: 0 hr 0 min 31 sec) 
Heartbeat CPU 0 instructions: 30000001 cycles: 21041674 heartbeat IPC: 1.4889 cumulative IPC: 1.42574 (Simulation time: 0 hr 0 min 48 sec) 
Heartbeat CPU 0 instructions: 40000000 cycles: 27503449 heartbeat IPC: 1.54756 cumulative IPC: 1.45436 (Simulation time: 0 hr 1 min 6 sec) 
Heartbeat CPU 0 instructions: 50000001 cycles: 33606217 heartbeat IPC: 1.6386 cumulative IPC: 1.48782 (Simulation time: 0 hr 1 min 22 sec) 
Heartbeat CPU 0 instructions: 60000000 cycles: 40088334 heartbeat IPC: 1.54271 cumulative IPC: 1.49669 (Simulation time: 0 hr 1 min 39 sec) 
Heartbeat CPU 0 instructions: 70000000 cycles: 47131250 heartbeat IPC: 1.41987 cumulative IPC: 1.48521 (Simulation time: 0 hr 1 min 55 sec) 
Heartbeat CPU 0 instructions: 80000000 cycles: 54226385 heartbeat IPC: 1.40942 cumulative IPC: 1.4753 (Simulation time: 0 hr 2 min 11 sec) 
Heartbeat CPU 0 instructions: 90000003 cycles: 61236400 heartbeat IPC: 1.42653 cumulative IPC: 1.46971 (Simulation time: 0 hr 2 min 26 sec) 
Heartbeat CPU 0 instructions: 100000000 cycles: 68409173 heartbeat IPC: 1.39416 cumulative IPC: 1.46179 (Simulation time: 0 hr 2 min 42 sec) 

Warmup complete CPU 0 instructions: 100000004 cycles: 68409174 (Simulation time: 0 hr 2 min 42 sec) 

Heartbeat CPU 0 instructions: 110000003 cycles: 96855622 heartbeat IPC: 0.351538 cumulative IPC: 0.351538 (Simulation time: 0 hr 3 min 13 sec) 
Heartbeat CPU 0 instructions: 120000000 cycles: 124542085 heartbeat IPC: 0.361187 cumulative IPC: 0.356297 (Simulation time: 0 hr 3 min 45 sec) 
Heartbeat CPU 0 instructions: 130000000 cycles: 149742627 heartbeat IPC: 0.396817 cumulative IPC: 0.368852 (Simulation time: 0 hr 4 min 16 sec) 
Heartbeat CPU 0 instructions: 140000000 cycles: 180695308 heartbeat IPC: 0.323074 cumulative IPC: 0.356233 (Simulation time: 0 hr 4 min 47 sec) 
Heartbeat CPU 0 instructions: 150000000 cycles: 211471842 heartbeat IPC: 0.324923 cumulative IPC: 0.349497 (Simulation time: 0 hr 5 min 18 sec) 
Heartbeat CPU 0 instructions: 160000000 cycles: 239164459 heartbeat IPC: 0.361107 cumulative IPC: 0.35138 (Simulation time: 0 hr 5 min 48 sec) 
Heartbeat CPU 0 instructions: 170000001 cycles: 267544028 heartbeat IPC: 0.352366 cumulative IPC: 0.351521 (Simulation time: 0 hr 6 min 20 sec) 
Heartbeat CPU 0 instructions: 180000000 cycles: 296393754 heartbeat IPC: 0.346624 cumulative IPC: 0.350901 (Simulation time: 0 hr 6 min 52 sec) 
Heartbeat CPU 0 instructions: 190000002 cycles: 324884818 heartbeat IPC: 0.350987 cumulative IPC: 0.350911 (Simulation time: 0 hr 7 min 23 sec) 
Heartbeat CPU 0 instructions: 200000000 cycles: 353684460 heartbeat IPC: 0.347226 cumulative IPC: 0.350539 (Simulation time: 0 hr 7 min 55 sec) 
Heartbeat CPU 0 instructions: 210000002 cycles: 381977614 heartbeat IPC: 0.353442 cumulative IPC: 0.350801 (Simulation time: 0 hr 8 min 26 sec) 
Heartbeat CPU 0 instructions: 220000000 cycles: 412374696 heartbeat IPC: 0.328979 cumulative IPC: 0.348872 (Simulation time: 0 hr 8 min 56 sec) 
Heartbeat CPU 0 instructions: 230000000 cycles: 440472470 heartbeat IPC: 0.3559 cumulative IPC: 0.349403 (Simulation time: 0 hr 9 min 26 sec) 
Heartbeat CPU 0 instructions: 240000000 cycles: 466748030 heartbeat IPC: 0.380582 cumulative IPC: 0.35146 (Simulation time: 0 hr 9 min 56 sec) 
Heartbeat CPU 0 instructions: 250000000 cycles: 497102559 heartbeat IPC: 0.32944 cumulative IPC: 0.3499 (Simulation time: 0 hr 10 min 28 sec) 
Heartbeat CPU 0 instructions: 260000000 cycles: 524321256 heartbeat IPC: 0.367395 cumulative IPC: 0.350945 (Simulation time: 0 hr 10 min 58 sec) 
Heartbeat CPU 0 instructions: 270000003 cycles: 552986919 heartbeat IPC: 0.34885 cumulative IPC: 0.350821 (Simulation time: 0 hr 11 min 30 sec) 
Heartbeat CPU 0 instructions: 280000000 cycles: 581486684 heartbeat IPC: 0.35088 cumulative IPC: 0.350824 (Simulation time: 0 hr 12 min 2 sec) 
Heartbeat CPU 0 instructions: 290000000 cycles: 610643276 heartbeat IPC: 0.342976 cumulative IPC: 0.350402 (Simulation time: 0 hr 12 min 35 sec) 
Heartbeat CPU 0 instructions: 300000000 cycles: 641490148 heartbeat IPC: 0.324182 cumulative IPC: 0.348991 (Simulation time: 0 hr 13 min 5 sec) 
Heartbeat CPU 0 instructions: 310000001 cycles: 671531659 heartbeat IPC: 0.332873 cumulative IPC: 0.348188 (Simulation time: 0 hr 13 min 36 sec) 
Heartbeat CPU 0 instructions: 320000000 cycles: 700518067 heartbeat IPC: 0.344989 cumulative IPC: 0.348041 (Simulation time: 0 hr 14 min 7 sec) 
Heartbeat CPU 0 instructions: 330000000 cycles: 729683049 heartbeat IPC: 0.342877 cumulative IPC: 0.347814 (Simulation time: 0 hr 14 min 38 sec) 
Heartbeat CPU 0 instructions: 340000000 cycles: 759570026 heartbeat IPC: 0.334594 cumulative IPC: 0.347242 (Simulation time: 0 hr 15 min 9 sec) 
Heartbeat CPU 0 instructions: 350000003 cycles: 786976877 heartbeat IPC: 0.364872 cumulative IPC: 0.347914 (Simulation time: 0 hr 15 min 39 sec) 
Heartbeat CPU 0 instructions: 360000000 cycles: 817181307 heartbeat IPC: 0.331077 cumulative IPC: 0.347235 (Simulation time: 0 hr 16 min 9 sec) 
Heartbeat CPU 0 instructions: 370000000 cycles: 847455012 heartbeat IPC: 0.33032 cumulative IPC: 0.346578 (Simulation time: 0 hr 16 min 40 sec) 
Heartbeat CPU 0 instructions: 380000000 cycles: 878073688 heartbeat IPC: 0.326598 cumulative IPC: 0.345822 (Simulation time: 0 hr 17 min 10 sec) 
Heartbeat CPU 0 instructions: 390000001 cycles: 907830538 heartbeat IPC: 0.336057 cumulative IPC: 0.345476 (Simulation time: 0 hr 17 min 40 sec) 
Heartbeat CPU 0 instructions: 400000000 cycles: 938485641 heartbeat IPC: 0.32621 cumulative IPC: 0.344797 (Simulation time: 0 hr 18 min 11 sec) 
Heartbeat CPU 0 instructions: 410000001 cycles: 967944032 heartbeat IPC: 0.339462 cumulative IPC: 0.344623 (Simulation time: 0 hr 18 min 40 sec) 
Heartbeat CPU 0 instructions: 420000000 cycles: 997415482 heartbeat IPC: 0.339311 cumulative IPC: 0.344454 (Simulation time: 0 hr 19 min 10 sec) 
Heartbeat CPU 0 instructions: 430000002 cycles: 1027316032 heartbeat IPC: 0.334442 cumulative IPC: 0.344142 (Simulation time: 0 hr 19 min 40 sec) 
Heartbeat CPU 0 instructions: 440000000 cycles: 1058552071 heartbeat IPC: 0.320143 cumulative IPC: 0.343385 (Simulation time: 0 hr 20 min 9 sec) 
Heartbeat CPU 0 instructions: 450000002 cycles: 1089565084 heartbeat IPC: 0.322445 cumulative IPC: 0.342749 (Simulation time: 0 hr 20 min 39 sec) 
Heartbeat CPU 0 instructions: 460000000 cycles: 1119353021 heartbeat IPC: 0.335706 cumulative IPC: 0.342549 (Simulation time: 0 hr 21 min 8 sec) 
Heartbeat CPU 0 instructions: 470000000 cycles: 1148828726 heartbeat IPC: 0.339262 cumulative IPC: 0.34246 (Simulation time: 0 hr 21 min 36 sec) 
Heartbeat CPU 0 instructions: 480000000 cycles: 1178548322 heartbeat IPC: 0.336478 cumulative IPC: 0.342299 (Simulation time: 0 hr 22 min 5 sec) 
Heartbeat CPU 0 instructions: 490000000 cycles: 1207985942 heartbeat IPC: 0.339701 cumulative IPC: 0.342232 (Simulation time: 0 hr 22 min 33 sec) 
Heartbeat CPU 0 instructions: 500000000 cycles: 1237930698 heartbeat IPC: 0.333948 cumulative IPC: 0.34202 (Simulation time: 0 hr 23 min 2 sec) 
Heartbeat CPU 0 instructions: 510000000 cycles: 1272928462 heartbeat IPC: 0.285733 cumulative IPC: 0.340385 (Simulation time: 0 hr 23 min 34 sec) 
Heartbeat CPU 0 instructions: 520000000 cycles: 1301737851 heartbeat IPC: 0.347109 cumulative IPC: 0.340542 (Simulation time: 0 hr 24 min 3 sec) 
Heartbeat CPU 0 instructions: 530000001 cycles: 1333097351 heartbeat IPC: 0.318883 cumulative IPC: 0.340005 (Simulation time: 0 hr 24 min 32 sec) 
Heartbeat CPU 0 instructions: 540000000 cycles: 1362479850 heartbeat IPC: 0.340339 cumulative IPC: 0.340012 (Simulation time: 0 hr 25 min 2 sec) 
Heartbeat CPU 0 instructions: 550000001 cycles: 1392120001 heartbeat IPC: 0.33738 cumulative IPC: 0.339953 (Simulation time: 0 hr 25 min 32 sec) 
Heartbeat CPU 0 instructions: 560000000 cycles: 1417834366 heartbeat IPC: 0.388888 cumulative IPC: 0.340886 (Simulation time: 0 hr 26 min 1 sec) 
Heartbeat CPU 0 instructions: 570000000 cycles: 1448451712 heartbeat IPC: 0.326612 cumulative IPC: 0.340569 (Simulation time: 0 hr 26 min 30 sec) 
Heartbeat CPU 0 instructions: 580000000 cycles: 1477191551 heartbeat IPC: 0.347949 cumulative IPC: 0.34072 (Simulation time: 0 hr 27 min 0 sec) 
Heartbeat CPU 0 instructions: 590000001 cycles: 1502269397 heartbeat IPC: 0.398758 cumulative IPC: 0.341735 (Simulation time: 0 hr 27 min 27 sec) 
Heartbeat CPU 0 instructions: 600000000 cycles: 1528853552 heartbeat IPC: 0.376164 cumulative IPC: 0.342362 (Simulation time: 0 hr 27 min 55 sec) 
Finished CPU 0 instructions: 500000000 cycles: 1460444400 cumulative IPC: 0.342362 (Simulation time: 0 hr 27 min 55 sec) 

CPU 0 Branch Prediction Accuracy: 86.4311% MPKI: 26.2662
Number of Branches: 96788573 Number of Mispredictions: 13133102
Number of LOAD Instructions: 164682285
Number of LOAD Instructions (ROI): 164682285
Number of STORE Instructions: 78194750
Number of STORE Instructions (ROI): 78194750
Total Destination Memory Operands: 83268534
Total Destination Memory Operands (ROI): 83268534
Total Source Memory Operands: 164712438
Total Source Memory Operands (ROI): 164712438
Number of DEPENDED LOADS: 7052402
Number of DEPENDED LOADS (ROI): 7052402
Number of SQ_ADDED: 83268522
Number of SQ_ADDED (ROI): 83268522
Number of LQ_ADDED: 236389180
Number of LQ_ADDED (ROI): 236389180
Number of Instructions read from trace: 600000066

ChampSim completed all CPUs

Region of Interest Statistics

CPU 0 cumulative IPC: 0.342362 instructions: 500000000 cycles: 1460444400
ITLB TOTAL     ACCESS:  100529732  HIT:  100325286  MISS:     204446
ITLB LOAD      ACCESS:  100529732  HIT:  100325286  MISS:     204446
ITLB RFO       ACCESS:          0  HIT:          0  MISS:          0
ITLB PREFETCH  ACCESS:          0  HIT:          0  MISS:          0
ITLB WRITEBACK ACCESS:          0  HIT:          0  MISS:          0
ITLB PREFETCH  REQUESTED:          0  ISSUED:          0  USEFUL:          0  USELESS:          0
ITLB TOTAL MSHR MERGED:     172425
ITLB LOAD MSHR MERGED:     172425
ITLB RFO MSHR MERGED:          0
ITLB PREFETCH MSHR MERGED:          0
ITLB WRITEBACK MSHR MERGED:          0
ITLB TOTAL ACCESSES:  100702157 HITS:  100325286 MISSES:     376871
ITLB LOAD ACCESSES:  100702157 HITS:  100325286 MISSES:     376871
ITLB RFO ACCESSES:          0 HITS:          0 MISSES:          0
ITLB PREFETCH ACCESSES:          0 HITS:          0 MISSES:          0
ITLB WRITEBACK ACCESSES:          0 HITS:          0 MISSES:          0
ITLB RQ ACCESS:  500000057
ITLB RQ TO_CACHE:  100702157
ITLB RQ MERGED:  399297900
ITLB RQ FORWARD:          0
ITLB WQ ACCESS:          0
ITLB WQ TO_CACHE:          0
ITLB WQ MERGED:          0
ITLB WQ FORWARD:          0
DTLB TOTAL     ACCESS:  165355991  HIT:  164721640  MISS:     634351
DTLB LOAD      ACCESS:  106305636  HIT:  105735663  MISS:     569973
DTLB RFO       ACCESS:   59050355  HIT:   58985977  MISS:      64378
DTLB PREFETCH  ACCESS:          0  HIT:          0  MISS:          0
DTLB WRITEBACK ACCESS:          0  HIT:          0  MISS:          0
DTLB PREFETCH  REQUESTED:          0  ISSUED:          0  USEFUL:          0  USELESS:          0
DTLB TOTAL MSHR MERGED:      99528
DTLB LOAD MSHR MERGED:      59195
DTLB RFO MSHR MERGED:      40333
DTLB PREFETCH MSHR MERGED:          0
DTLB WRITEBACK MSHR MERGED:          0
DTLB TOTAL ACCESSES:  165455519 HITS:  164721640 MISSES:     733879
DTLB LOAD ACCESSES:  106364831 HITS:  105735663 MISSES:     629168
DTLB RFO ACCESSES:   59090688 HITS:   58985977 MISSES:     104711
DTLB PREFETCH ACCESSES:          0 HITS:          0 MISSES:          0
DTLB WRITEBACK ACCESSES:          0 HITS:          0 MISSES:          0
DTLB RQ ACCESS:  200318490
DTLB RQ TO_CACHE:  165455519
DTLB RQ MERGED:   34862971
DTLB RQ FORWARD:          0
DTLB WQ ACCESS:          0
DTLB WQ TO_CACHE:          0
DTLB WQ MERGED:          0
DTLB WQ FORWARD:          0
L1D TOTAL     ACCESS:  281942390  HIT:  274032912  MISS:    7909478
L1D LOAD      ACCESS:  110450783  HIT:  107178309  MISS:    3272474
L1D RFO       ACCESS:   67139800  HIT:   66250066  MISS:     889734
L1D PREFETCH  ACCESS:  104351807  HIT:  100604537  MISS:    3747270
L1D WRITEBACK ACCESS:          0  HIT:          0  MISS:          0
L1D PREFETCH  REQUESTED:  110834131  ISSUED:  109134559  USEFUL:    1667802  USELESS:    2079432
L1D TOTAL MSHR MERGED:    2801077
L1D LOAD MSHR MERGED:     475670
L1D RFO MSHR MERGED:    1845590
L1D PREFETCH MSHR MERGED:     479817
L1D WRITEBACK MSHR MERGED:          0
L1D TOTAL ACCESSES:  284770858 HITS:  274060303 MISSES:   10710555
L1D LOAD ACCESSES:  110835529 HITS:  107179707 MISSES:    3655822
L1D RFO ACCESSES:   68974412 HITS:   66250066 MISSES:    2724346
L1D PREFETCH ACCESSES:  104960917 HITS:  100630530 MISSES:    4330387
L1D WRITEBACK ACCESSES:          0 HITS:          0 MISSES:          0
L1D RQ ACCESS:  130765887
L1D RQ TO_CACHE:  110834134
L1D RQ MERGED:   19930355
L1D RQ FORWARD:          0
L1D WQ ACCESS:   69552603
L1D WQ TO_CACHE:   68974413
L1D WQ MERGED:     578190
L1D WQ FORWARD:      27391
L1I TOTAL     ACCESS:  126573404  HIT:  122334875  MISS:    4238529
L1I LOAD      ACCESS:  126573404  HIT:  122334875  MISS:    4238529
L1I RFO       ACCESS:          0  HIT:          0  MISS:          0
L1I PREFETCH  ACCESS:          0  HIT:          0  MISS:          0
L1I WRITEBACK ACCESS:          0  HIT:          0  MISS:          0
L1I PREFETCH  REQUESTED:          0  ISSUED:          0  USEFUL:          0  USELESS:          0
L1I TOTAL MSHR MERGED:    1838560
L1I LOAD MSHR MERGED:    1838560
L1I RFO MSHR MERGED:          0
L1I PREFETCH MSHR MERGED:          0
L1I WRITEBACK MSHR MERGED:          0
L1I TOTAL ACCESSES:  128411967 HITS:  122334875 MISSES:    6077092
L1I LOAD ACCESSES:  128411967 HITS:  122334875 MISSES:    6077092
L1I RFO ACCESSES:          0 HITS:          0 MISSES:          0
L1I PREFETCH ACCESSES:          0 HITS:          0 MISSES:          0
L1I WRITEBACK ACCESSES:          0 HITS:          0 MISSES:          0
L1I RQ ACCESS:  500000057
L1I RQ TO_CACHE:  128411967
L1I RQ MERGED:  371588090
L1I RQ FORWARD:          0
L1I WQ ACCESS:          0
L1I WQ TO_CACHE:          0
L1I WQ MERGED:          0
L1I WQ FORWARD:          0
L2C TOTAL     ACCESS:   14906565  HIT:   11160090  MISS:    3746475
L2C LOAD      ACCESS:    7418477  HIT:    5098992  MISS:    2319485
L2C RFO       ACCESS:     878660  HIT:     409938  MISS:     468722
L2C PREFETCH  ACCESS:    4570161  HIT:    3629152  MISS:     941009
L2C WRITEBACK ACCESS:    2039267  HIT:    2022008  MISS:      17259
L2C PREFETCH  REQUESTED:     842820  ISSUED:     842820  USEFUL:     203721  USELESS:     736994
L2C TOTAL MSHR MERGED:       5917
L2C LOAD MSHR MERGED:        538
L2C RFO MSHR MERGED:          0
L2C PREFETCH MSHR MERGED:       5379
L2C WRITEBACK MSHR MERGED:          0
L2C TOTAL ACCESSES:   14913339 HITS:   11160533 MISSES:    3752806
L2C LOAD ACCESSES:    7418681 HITS:    5099196 MISSES:    2319485
L2C RFO ACCESSES:     878756 HITS:     410034 MISSES:     468722
L2C PREFETCH ACCESSES:    4576635 HITS:    3629295 MISSES:     947340
L2C WRITEBACK ACCESSES:    2039267 HITS:    2022008 MISSES:      17259
L2C RQ ACCESS:    8297440
L2C RQ TO_CACHE:    8297140
L2C RQ MERGED:          0
L2C RQ FORWARD:          0
L2C WQ ACCESS:    2039267
L2C WQ TO_CACHE:    2039267
L2C WQ MERGED:          0
L2C WQ FORWARD:        443
LLC TOTAL     ACCESS:    4609793  HIT:    3523717  MISS:    1086076
LLC LOAD      ACCESS:    2318933  HIT:    1519623  MISS:     799310
LLC RFO       ACCESS:     468711  HIT:     429602  MISS:      39109
LLC PREFETCH  ACCESS:     941857  HIT:     737221  MISS:     204636
LLC WRITEBACK ACCESS:     880292  HIT:     837271  MISS:      43021
LLC PREFETCH  REQUESTED:          0  ISSUED:          0  USEFUL:      24169  USELESS:     181816
LLC TOTAL MSHR MERGED:         87
LLC LOAD MSHR MERGED:         23
LLC RFO MSHR MERGED:          0
LLC PREFETCH MSHR MERGED:         64
LLC WRITEBACK MSHR MERGED:          0
LLC TOTAL ACCESSES:    4609917 HITS:    3523754 MISSES:    1086163
LLC LOAD ACCESSES:    2318947 HITS:    1519637 MISSES:     799310
LLC RFO ACCESSES:     468722 HITS:     429613 MISSES:      39109
LLC PREFETCH ACCESSES:     941956 HITS:     737233 MISSES:     204723
LLC WRITEBACK ACCESSES:     880292 HITS:     837271 MISSES:      43021
LLC 0 RQ ACCESS:    2787669
LLC 0 RQ TO_CACHE:    2787644
LLC 0 RQ MERGED:          0
LLC 0 RQ FORWARD:          0
LLC WQ ACCESS:     880292
LLC WQ TO_CACHE:     880292
LLC WQ MERGED:          0
LLC WQ FORWARD:         37
Major fault: 0 Minor fault: 12862
CPU 0 L1D next line prefetcher final stats
CPU 0 L2C PC-based stride prefetcher final stats
All Misses: 1287861
All Hits: 4138935
SD Algo Stats - Switches: 0 SRR-Repls: 927137 BRR-Repls: 0

DRAM Statistics
 CHANNEL 0
 RQ ROW_BUFFER_HIT:     338488  ROW_BUFFER_MISS:     703904
 DBUS_CONGESTED:     371528
 WQ ROW_BUFFER_HIT:       5218  ROW_BUFFER_MISS:     131651  FULL:          0

 AVG_CONGESTED_CYCLE: 13
LOADS RETIRED: 136549171
INSTR RETIRED: 500000000
