
*** ChampSim Multicore Out-of-Order Simulator ***

Warmup Instructions: 100000000
Simulation Instructions: 500000000
Number of CPUs: 1
LLC sets: 2048
LLC ways: 16
Clean RRIP Policies: 1213222012132220 Dirty RRIP Policies: 2213022022130220 PSEL Width: 10 Track Set: 4294967295 PSEL Mask: 1 Demote Mask: 1340414013404140DS Algo: 0Window size: 0
Off-chip DRAM Size: 4096 MB Channels: 1 Width: 64-bit Data Rate: 1600 MT/s

CPU 0 runs /mnt/beegfs/iconst01/spec2017/cactuBSSN.trace.gz
NOT SORTED
TRACE STRING: /mnt/beegfs/iconst01/spec2017/cactuBSSN.trace.gz
SORTED
TRACE STRING: /mnt/beegfs/iconst01/spec2017/cactuBSSN.trace.gz
INITIAL
TRACE STRING: /mnt/beegfs/iconst01/spec2017/cactuBSSN.trace.gz

champsim_seed used: 838

CPU 0 L1D next line prefetcher
CPU 0 L2C IP-based stride prefetcher
Initialize DRRIP state
Assign rand_sets[0]: 454  LLC: 2048
rand_sets[0]: 454
Assign rand_sets[1]: 1662  LLC: 2048
rand_sets[1]: 1662
Assign rand_sets[2]: 1921  LLC: 2048
rand_sets[2]: 1921
Assign rand_sets[3]: 1131  LLC: 2048
rand_sets[3]: 1131
Assign rand_sets[4]: 331  LLC: 2048
rand_sets[4]: 331
Assign rand_sets[5]: 1531  LLC: 2048
rand_sets[5]: 1531
Assign rand_sets[6]: 482  LLC: 2048
rand_sets[6]: 482
Assign rand_sets[7]: 1275  LLC: 2048
rand_sets[7]: 1275
Assign rand_sets[8]: 1876  LLC: 2048
rand_sets[8]: 1876
Assign rand_sets[9]: 2038  LLC: 2048
rand_sets[9]: 2038
Assign rand_sets[10]: 701  LLC: 2048
rand_sets[10]: 701
Assign rand_sets[11]: 479  LLC: 2048
rand_sets[11]: 479
Assign rand_sets[12]: 892  LLC: 2048
rand_sets[12]: 892
Assign rand_sets[13]: 1820  LLC: 2048
rand_sets[13]: 1820
Assign rand_sets[14]: 1505  LLC: 2048
rand_sets[14]: 1505
Assign rand_sets[15]: 1159  LLC: 2048
rand_sets[15]: 1159
Assign rand_sets[16]: 513  LLC: 2048
rand_sets[16]: 513
Assign rand_sets[17]: 703  LLC: 2048
rand_sets[17]: 703
Assign rand_sets[18]: 561  LLC: 2048
rand_sets[18]: 561
Assign rand_sets[19]: 990  LLC: 2048
rand_sets[19]: 990
Assign rand_sets[20]: 342  LLC: 2048
rand_sets[20]: 342
Assign rand_sets[21]: 882  LLC: 2048
rand_sets[21]: 882
Assign rand_sets[22]: 15  LLC: 2048
rand_sets[22]: 15
Assign rand_sets[23]: 71  LLC: 2048
rand_sets[23]: 71
Assign rand_sets[24]: 1127  LLC: 2048
rand_sets[24]: 1127
Assign rand_sets[25]: 1382  LLC: 2048
rand_sets[25]: 1382
Assign rand_sets[26]: 647  LLC: 2048
rand_sets[26]: 647
Assign rand_sets[27]: 857  LLC: 2048
rand_sets[27]: 857
Assign rand_sets[28]: 1450  LLC: 2048
rand_sets[28]: 1450
Assign rand_sets[29]: 1160  LLC: 2048
rand_sets[29]: 1160
Assign rand_sets[30]: 1852  LLC: 2048
rand_sets[30]: 1852
Assign rand_sets[31]: 1881  LLC: 2048
rand_sets[31]: 1881
Assign rand_sets[32]: 1770  LLC: 2048
rand_sets[32]: 1770
Assign rand_sets[33]: 1622  LLC: 2048
rand_sets[33]: 1622
Assign rand_sets[34]: 275  LLC: 2048
rand_sets[34]: 275
Assign rand_sets[35]: 635  LLC: 2048
rand_sets[35]: 635
Assign rand_sets[36]: 466  LLC: 2048
rand_sets[36]: 466
Assign rand_sets[37]: 1413  LLC: 2048
rand_sets[37]: 1413
Assign rand_sets[38]: 417  LLC: 2048
rand_sets[38]: 417
Assign rand_sets[39]: 472  LLC: 2048
rand_sets[39]: 472
Assign rand_sets[40]: 1340  LLC: 2048
rand_sets[40]: 1340
Assign rand_sets[41]: 852  LLC: 2048
rand_sets[41]: 852
Assign rand_sets[42]: 1365  LLC: 2048
rand_sets[42]: 1365
Assign rand_sets[43]: 47  LLC: 2048
rand_sets[43]: 47
Assign rand_sets[44]: 823  LLC: 2048
rand_sets[44]: 823
Assign rand_sets[45]: 686  LLC: 2048
rand_sets[45]: 686
Assign rand_sets[46]: 1637  LLC: 2048
rand_sets[46]: 1637
Assign rand_sets[47]: 1115  LLC: 2048
rand_sets[47]: 1115
Assign rand_sets[48]: 986  LLC: 2048
rand_sets[48]: 986
Assign rand_sets[49]: 258  LLC: 2048
rand_sets[49]: 258
Assign rand_sets[50]: 633  LLC: 2048
rand_sets[50]: 633
Assign rand_sets[51]: 920  LLC: 2048
rand_sets[51]: 920
Assign rand_sets[52]: 204  LLC: 2048
rand_sets[52]: 204
Assign rand_sets[53]: 227  LLC: 2048
rand_sets[53]: 227
Assign rand_sets[54]: 1818  LLC: 2048
rand_sets[54]: 1818
Assign rand_sets[55]: 886  LLC: 2048
rand_sets[55]: 886
Assign rand_sets[56]: 1422  LLC: 2048
rand_sets[56]: 1422
Assign rand_sets[57]: 607  LLC: 2048
rand_sets[57]: 607
Assign rand_sets[58]: 217  LLC: 2048
rand_sets[58]: 217
Assign rand_sets[59]: 1945  LLC: 2048
rand_sets[59]: 1945
Assign rand_sets[60]: 143  LLC: 2048
rand_sets[60]: 143
Assign rand_sets[61]: 1311  LLC: 2048
rand_sets[61]: 1311
Assign rand_sets[62]: 319  LLC: 2048
rand_sets[62]: 319
Assign rand_sets[63]: 1846  LLC: 2048
rand_sets[63]: 1846
 CLEAN-RRIP-POLICY-1: 1-2-1-3-2-2-2-0- CLEAN-RRIP-POLICY-2: 1-2-1-3-2-2-2-0-
 DIRTY-RRIP-POLICY-1: 2-2-1-3-0-2-2-0- DIRTY-RRIP-POLICY-2: 2-2-1-3-0-2-2-0-
 PSEL width: 10
Heartbeat CPU 0 instructions: 10000000 cycles: 6588007 heartbeat IPC: 1.51791 cumulative IPC: 1.51791 (Simulation time: 0 hr 0 min 24 sec) 
Heartbeat CPU 0 instructions: 20000000 cycles: 13179648 heartbeat IPC: 1.51707 cumulative IPC: 1.51749 (Simulation time: 0 hr 0 min 47 sec) 
Heartbeat CPU 0 instructions: 30000003 cycles: 19773053 heartbeat IPC: 1.51667 cumulative IPC: 1.51722 (Simulation time: 0 hr 1 min 11 sec) 
Heartbeat CPU 0 instructions: 40000000 cycles: 26364840 heartbeat IPC: 1.51704 cumulative IPC: 1.51717 (Simulation time: 0 hr 1 min 35 sec) 
Heartbeat CPU 0 instructions: 50000001 cycles: 32957518 heartbeat IPC: 1.51683 cumulative IPC: 1.5171 (Simulation time: 0 hr 1 min 59 sec) 
Heartbeat CPU 0 instructions: 60000000 cycles: 39556289 heartbeat IPC: 1.51543 cumulative IPC: 1.51683 (Simulation time: 0 hr 2 min 22 sec) 
Heartbeat CPU 0 instructions: 70000003 cycles: 46154667 heartbeat IPC: 1.51552 cumulative IPC: 1.51664 (Simulation time: 0 hr 2 min 46 sec) 
Heartbeat CPU 0 instructions: 80000000 cycles: 52752723 heartbeat IPC: 1.5156 cumulative IPC: 1.51651 (Simulation time: 0 hr 3 min 10 sec) 
Heartbeat CPU 0 instructions: 90000002 cycles: 59348374 heartbeat IPC: 1.51615 cumulative IPC: 1.51647 (Simulation time: 0 hr 3 min 33 sec) 
Heartbeat CPU 0 instructions: 100000000 cycles: 65943438 heartbeat IPC: 1.51629 cumulative IPC: 1.51645 (Simulation time: 0 hr 3 min 57 sec) 

Warmup complete CPU 0 instructions: 100000002 cycles: 65943439 (Simulation time: 0 hr 3 min 57 sec) 

Heartbeat CPU 0 instructions: 110000000 cycles: 79201781 heartbeat IPC: 0.754242 cumulative IPC: 0.754242 (Simulation time: 0 hr 4 min 26 sec) 
Heartbeat CPU 0 instructions: 120000000 cycles: 92409109 heartbeat IPC: 0.757155 cumulative IPC: 0.755696 (Simulation time: 0 hr 4 min 55 sec) 
Heartbeat CPU 0 instructions: 130000001 cycles: 105690545 heartbeat IPC: 0.752931 cumulative IPC: 0.754772 (Simulation time: 0 hr 5 min 24 sec) 
Heartbeat CPU 0 instructions: 140000000 cycles: 118885561 heartbeat IPC: 0.757862 cumulative IPC: 0.755542 (Simulation time: 0 hr 5 min 53 sec) 
Heartbeat CPU 0 instructions: 150000001 cycles: 132081817 heartbeat IPC: 0.757791 cumulative IPC: 0.755991 (Simulation time: 0 hr 6 min 22 sec) 
Heartbeat CPU 0 instructions: 160000000 cycles: 145306251 heartbeat IPC: 0.756176 cumulative IPC: 0.756022 (Simulation time: 0 hr 6 min 51 sec) 
Heartbeat CPU 0 instructions: 170000000 cycles: 158524089 heartbeat IPC: 0.756553 cumulative IPC: 0.756097 (Simulation time: 0 hr 7 min 20 sec) 
Heartbeat CPU 0 instructions: 180000000 cycles: 171727095 heartbeat IPC: 0.757403 cumulative IPC: 0.75626 (Simulation time: 0 hr 7 min 50 sec) 
Heartbeat CPU 0 instructions: 190000000 cycles: 184896886 heartbeat IPC: 0.759313 cumulative IPC: 0.756598 (Simulation time: 0 hr 8 min 19 sec) 
Heartbeat CPU 0 instructions: 200000000 cycles: 198151171 heartbeat IPC: 0.754473 cumulative IPC: 0.756385 (Simulation time: 0 hr 8 min 48 sec) 
Heartbeat CPU 0 instructions: 210000002 cycles: 211367950 heartbeat IPC: 0.756614 cumulative IPC: 0.756406 (Simulation time: 0 hr 9 min 17 sec) 
Heartbeat CPU 0 instructions: 220000000 cycles: 224551636 heartbeat IPC: 0.758513 cumulative IPC: 0.756581 (Simulation time: 0 hr 9 min 46 sec) 
Heartbeat CPU 0 instructions: 230000003 cycles: 237798886 heartbeat IPC: 0.754874 cumulative IPC: 0.75645 (Simulation time: 0 hr 10 min 15 sec) 
Heartbeat CPU 0 instructions: 240000000 cycles: 250994655 heartbeat IPC: 0.757818 cumulative IPC: 0.756547 (Simulation time: 0 hr 10 min 44 sec) 
Heartbeat CPU 0 instructions: 250000001 cycles: 264222615 heartbeat IPC: 0.755975 cumulative IPC: 0.756509 (Simulation time: 0 hr 11 min 13 sec) 
Heartbeat CPU 0 instructions: 260000000 cycles: 277435078 heartbeat IPC: 0.756861 cumulative IPC: 0.756531 (Simulation time: 0 hr 11 min 42 sec) 
Heartbeat CPU 0 instructions: 270000003 cycles: 290672143 heartbeat IPC: 0.755455 cumulative IPC: 0.756468 (Simulation time: 0 hr 12 min 10 sec) 
Heartbeat CPU 0 instructions: 280000000 cycles: 303881970 heartbeat IPC: 0.757012 cumulative IPC: 0.756498 (Simulation time: 0 hr 12 min 39 sec) 
Heartbeat CPU 0 instructions: 290000000 cycles: 317065471 heartbeat IPC: 0.758524 cumulative IPC: 0.756604 (Simulation time: 0 hr 13 min 8 sec) 
Heartbeat CPU 0 instructions: 300000000 cycles: 330316338 heartbeat IPC: 0.754668 cumulative IPC: 0.756507 (Simulation time: 0 hr 13 min 37 sec) 
Heartbeat CPU 0 instructions: 310000001 cycles: 343491819 heartbeat IPC: 0.758986 cumulative IPC: 0.756625 (Simulation time: 0 hr 14 min 6 sec) 
Heartbeat CPU 0 instructions: 320000000 cycles: 356686489 heartbeat IPC: 0.757882 cumulative IPC: 0.756682 (Simulation time: 0 hr 14 min 35 sec) 
Heartbeat CPU 0 instructions: 330000002 cycles: 369890615 heartbeat IPC: 0.757339 cumulative IPC: 0.75671 (Simulation time: 0 hr 15 min 4 sec) 
Heartbeat CPU 0 instructions: 340000000 cycles: 383140239 heartbeat IPC: 0.754738 cumulative IPC: 0.756628 (Simulation time: 0 hr 15 min 33 sec) 
Heartbeat CPU 0 instructions: 350000000 cycles: 396405317 heartbeat IPC: 0.753859 cumulative IPC: 0.756517 (Simulation time: 0 hr 16 min 2 sec) 
Heartbeat CPU 0 instructions: 360000000 cycles: 409630433 heartbeat IPC: 0.756137 cumulative IPC: 0.756502 (Simulation time: 0 hr 16 min 31 sec) 
Heartbeat CPU 0 instructions: 370000002 cycles: 422908418 heartbeat IPC: 0.753126 cumulative IPC: 0.756377 (Simulation time: 0 hr 17 min 0 sec) 
Heartbeat CPU 0 instructions: 380000000 cycles: 436117608 heartbeat IPC: 0.757049 cumulative IPC: 0.756401 (Simulation time: 0 hr 17 min 29 sec) 
Heartbeat CPU 0 instructions: 390000000 cycles: 449305013 heartbeat IPC: 0.758299 cumulative IPC: 0.756466 (Simulation time: 0 hr 17 min 57 sec) 
Heartbeat CPU 0 instructions: 400000000 cycles: 462504960 heartbeat IPC: 0.757579 cumulative IPC: 0.756503 (Simulation time: 0 hr 18 min 26 sec) 
Heartbeat CPU 0 instructions: 410000001 cycles: 475754171 heartbeat IPC: 0.754762 cumulative IPC: 0.756447 (Simulation time: 0 hr 18 min 55 sec) 
Heartbeat CPU 0 instructions: 420000000 cycles: 488932740 heartbeat IPC: 0.758808 cumulative IPC: 0.75652 (Simulation time: 0 hr 19 min 24 sec) 
Heartbeat CPU 0 instructions: 430000001 cycles: 502123083 heartbeat IPC: 0.75813 cumulative IPC: 0.756569 (Simulation time: 0 hr 19 min 53 sec) 
Heartbeat CPU 0 instructions: 440000000 cycles: 515300480 heartbeat IPC: 0.758875 cumulative IPC: 0.756637 (Simulation time: 0 hr 20 min 22 sec) 
Heartbeat CPU 0 instructions: 450000002 cycles: 528616213 heartbeat IPC: 0.750991 cumulative IPC: 0.756474 (Simulation time: 0 hr 20 min 51 sec) 
Heartbeat CPU 0 instructions: 460000000 cycles: 541831664 heartbeat IPC: 0.75669 cumulative IPC: 0.75648 (Simulation time: 0 hr 21 min 20 sec) 
Heartbeat CPU 0 instructions: 470000003 cycles: 555034426 heartbeat IPC: 0.757418 cumulative IPC: 0.756505 (Simulation time: 0 hr 21 min 48 sec) 
Heartbeat CPU 0 instructions: 480000000 cycles: 568280115 heartbeat IPC: 0.754962 cumulative IPC: 0.756465 (Simulation time: 0 hr 22 min 17 sec) 
Heartbeat CPU 0 instructions: 490000000 cycles: 581502284 heartbeat IPC: 0.756306 cumulative IPC: 0.756461 (Simulation time: 0 hr 22 min 46 sec) 
Heartbeat CPU 0 instructions: 500000000 cycles: 594699222 heartbeat IPC: 0.757752 cumulative IPC: 0.756493 (Simulation time: 0 hr 23 min 15 sec) 
Heartbeat CPU 0 instructions: 510000001 cycles: 607884732 heartbeat IPC: 0.758408 cumulative IPC: 0.75654 (Simulation time: 0 hr 23 min 44 sec) 
Heartbeat CPU 0 instructions: 520000000 cycles: 621157578 heartbeat IPC: 0.753418 cumulative IPC: 0.756465 (Simulation time: 0 hr 24 min 13 sec) 
Heartbeat CPU 0 instructions: 530000000 cycles: 634399089 heartbeat IPC: 0.755201 cumulative IPC: 0.756435 (Simulation time: 0 hr 24 min 42 sec) 
Heartbeat CPU 0 instructions: 540000000 cycles: 647631885 heartbeat IPC: 0.755698 cumulative IPC: 0.756419 (Simulation time: 0 hr 25 min 10 sec) 
Heartbeat CPU 0 instructions: 550000002 cycles: 660887945 heartbeat IPC: 0.754372 cumulative IPC: 0.756373 (Simulation time: 0 hr 25 min 39 sec) 
Heartbeat CPU 0 instructions: 560000000 cycles: 674085137 heartbeat IPC: 0.757737 cumulative IPC: 0.756403 (Simulation time: 0 hr 26 min 8 sec) 
Heartbeat CPU 0 instructions: 570000001 cycles: 687294388 heartbeat IPC: 0.757045 cumulative IPC: 0.756416 (Simulation time: 0 hr 26 min 37 sec) 
Heartbeat CPU 0 instructions: 580000000 cycles: 700510544 heartbeat IPC: 0.75665 cumulative IPC: 0.756421 (Simulation time: 0 hr 27 min 6 sec) 
Heartbeat CPU 0 instructions: 590000003 cycles: 713741387 heartbeat IPC: 0.75581 cumulative IPC: 0.756409 (Simulation time: 0 hr 27 min 35 sec) 
Heartbeat CPU 0 instructions: 600000000 cycles: 727010825 heartbeat IPC: 0.753611 cumulative IPC: 0.756353 (Simulation time: 0 hr 28 min 3 sec) 
Finished CPU 0 instructions: 500000000 cycles: 661067396 cumulative IPC: 0.756353 (Simulation time: 0 hr 28 min 3 sec) 

CPU 0 Branch Prediction Accuracy: 99.968% MPKI: 0.002246
Number of Branches: 3513331 Number of Mispredictions: 1123
Number of LOAD Instructions: 287251172
Number of LOAD Instructions (ROI): 287251172
Number of STORE Instructions: 51060820
Number of STORE Instructions (ROI): 51060820
Total Destination Memory Operands: 51166221
Total Destination Memory Operands (ROI): 51166221
Total Source Memory Operands: 287251172
Total Source Memory Operands (ROI): 287251172
Number of DEPENDED LOADS: 9554503
Number of DEPENDED LOADS (ROI): 9554503
Number of SQ_ADDED: 51166208
Number of SQ_ADDED (ROI): 51166208
Number of LQ_ADDED: 290423436
Number of LQ_ADDED (ROI): 290423436
Number of Instructions read from trace: 600000257

ChampSim completed all CPUs

Region of Interest Statistics

CPU 0 cumulative IPC: 0.756353 instructions: 500000000 cycles: 661067396
ITLB TOTAL     ACCESS:  108963765  HIT:  108963765  MISS:          0
ITLB LOAD      ACCESS:  108963765  HIT:  108963765  MISS:          0
ITLB RFO       ACCESS:          0  HIT:          0  MISS:          0
ITLB PREFETCH  ACCESS:          0  HIT:          0  MISS:          0
ITLB WRITEBACK ACCESS:          0  HIT:          0  MISS:          0
ITLB PREFETCH  REQUESTED:          0  ISSUED:          0  USEFUL:          0  USELESS:          0
ITLB TOTAL MSHR MERGED:          0
ITLB LOAD MSHR MERGED:          0
ITLB RFO MSHR MERGED:          0
ITLB PREFETCH MSHR MERGED:          0
ITLB WRITEBACK MSHR MERGED:          0
ITLB TOTAL ACCESSES:  108963765 HITS:  108963765 MISSES:          0
ITLB LOAD ACCESSES:  108963765 HITS:  108963765 MISSES:          0
ITLB RFO ACCESSES:          0 HITS:          0 MISSES:          0
ITLB PREFETCH ACCESSES:          0 HITS:          0 MISSES:          0
ITLB WRITEBACK ACCESSES:          0 HITS:          0 MISSES:          0
ITLB RQ ACCESS:  500000001
ITLB RQ TO_CACHE:  108963765
ITLB RQ MERGED:  391036236
ITLB RQ FORWARD:          0
ITLB WQ ACCESS:          0
ITLB WQ TO_CACHE:          0
ITLB WQ MERGED:          0
ITLB WQ FORWARD:          0
DTLB TOTAL     ACCESS:  171132834  HIT:  161116515  MISS:   10016319
DTLB LOAD      ACCESS:  143472818  HIT:  135596749  MISS:    7876069
DTLB RFO       ACCESS:   27660016  HIT:   25519766  MISS:    2140250
DTLB PREFETCH  ACCESS:          0  HIT:          0  MISS:          0
DTLB WRITEBACK ACCESS:          0  HIT:          0  MISS:          0
DTLB PREFETCH  REQUESTED:          0  ISSUED:          0  USEFUL:          0  USELESS:          0
DTLB TOTAL MSHR MERGED:     360418
DTLB LOAD MSHR MERGED:     360418
DTLB RFO MSHR MERGED:          0
DTLB PREFETCH MSHR MERGED:          0
DTLB WRITEBACK MSHR MERGED:          0
DTLB TOTAL ACCESSES:  171493252 HITS:  161116515 MISSES:   10376737
DTLB LOAD ACCESSES:  143833236 HITS:  135596749 MISSES:    8236487
DTLB RFO ACCESSES:   27660016 HITS:   25519766 MISSES:    2140250
DTLB PREFETCH ACCESSES:          0 HITS:          0 MISSES:          0
DTLB WRITEBACK ACCESSES:          0 HITS:          0 MISSES:          0
DTLB RQ ACCESS:  274073317
DTLB RQ TO_CACHE:  171493252
DTLB RQ MERGED:  102580065
DTLB RQ FORWARD:          0
DTLB WQ ACCESS:          0
DTLB WQ TO_CACHE:          0
DTLB WQ MERGED:          0
DTLB WQ FORWARD:          0
L1D TOTAL     ACCESS:  350973772  HIT:  283771526  MISS:   67202246
L1D LOAD      ACCESS:  175625263  HIT:  142584330  MISS:   33040933
L1D RFO       ACCESS:   42020557  HIT:   39215204  MISS:    2805353
L1D PREFETCH  ACCESS:  133327952  HIT:  101971992  MISS:   31355960
L1D WRITEBACK ACCESS:          0  HIT:          0  MISS:          0
L1D PREFETCH  REQUESTED:  176230022  ISSUED:  175291882  USEFUL:    2180827  USELESS:   29175135
L1D TOTAL MSHR MERGED:    1483479
L1D LOAD MSHR MERGED:     704697
L1D RFO MSHR MERGED:     348580
L1D PREFETCH MSHR MERGED:     430202
L1D WRITEBACK MSHR MERGED:          0
L1D TOTAL ACCESSES:  352569011 HITS:  283883286 MISSES:   68685725
L1D LOAD ACCESSES:  176235962 HITS:  142590270 MISSES:   33645692
L1D RFO ACCESSES:   42368483 HITS:   39215204 MISSES:    3153279
L1D PREFETCH ACCESSES:  133964566 HITS:  102077812 MISSES:   31886754
L1D WRITEBACK ACCESSES:          0 HITS:          0 MISSES:          0
L1D RQ ACCESS:  231434844
L1D RQ TO_CACHE:  176230022
L1D RQ MERGED:   55198882
L1D RQ FORWARD:          0
L1D WQ ACCESS:   42638475
L1D WQ TO_CACHE:   42368483
L1D WQ MERGED:     269992
L1D WQ FORWARD:     111760
L1I TOTAL     ACCESS:  109354182  HIT:   77838478  MISS:   31515704
L1I LOAD      ACCESS:  109354182  HIT:   77838478  MISS:   31515704
L1I RFO       ACCESS:          0  HIT:          0  MISS:          0
L1I PREFETCH  ACCESS:          0  HIT:          0  MISS:          0
L1I WRITEBACK ACCESS:          0  HIT:          0  MISS:          0
L1I PREFETCH  REQUESTED:          0  ISSUED:          0  USEFUL:          0  USELESS:          0
L1I TOTAL MSHR MERGED:   30753113
L1I LOAD MSHR MERGED:   30753113
L1I RFO MSHR MERGED:          0
L1I PREFETCH MSHR MERGED:          0
L1I WRITEBACK MSHR MERGED:          0
L1I TOTAL ACCESSES:  140107297 HITS:   77838478 MISSES:   62268819
L1I LOAD ACCESSES:  140107297 HITS:   77838478 MISSES:   62268819
L1I RFO ACCESSES:          0 HITS:          0 MISSES:          0
L1I PREFETCH ACCESSES:          0 HITS:          0 MISSES:          0
L1I WRITEBACK ACCESSES:          0 HITS:          0 MISSES:          0
L1I RQ ACCESS:  500000003
L1I RQ TO_CACHE:  140107297
L1I RQ MERGED:  359892706
L1I RQ FORWARD:          0
L1I WQ ACCESS:          0
L1I WQ TO_CACHE:          0
L1I WQ MERGED:          0
L1I WQ FORWARD:          0
L2C TOTAL     ACCESS:  113710816  HIT:  110714524  MISS:    2996292
L2C LOAD      ACCESS:   64454845  HIT:   63897844  MISS:     557001
L2C RFO       ACCESS:    2802813  HIT:    2194610  MISS:     608203
L2C PREFETCH  ACCESS:   43292224  HIT:   41467390  MISS:    1824834
L2C WRITEBACK ACCESS:    3160934  HIT:    3154680  MISS:       6254
L2C PREFETCH  REQUESTED:   15134710  ISSUED:   14620250  USEFUL:    1700238  USELESS:     124604
L2C TOTAL MSHR MERGED:      12473
L2C LOAD MSHR MERGED:          0
L2C RFO MSHR MERGED:          0
L2C PREFETCH MSHR MERGED:      12473
L2C WRITEBACK MSHR MERGED:          0
L2C TOTAL ACCESSES:  113903290 HITS:  110720376 MISSES:    3182914
L2C LOAD ACCESSES:   64456700 HITS:   63899698 MISSES:     557002
L2C RFO ACCESSES:    2804699 HITS:    2196496 MISSES:     608203
L2C PREFETCH ACCESSES:   43480957 HITS:   41469502 MISSES:    2011455
L2C WRITEBACK ACCESSES:    3160934 HITS:    3154680 MISSES:       6254
L2C RQ ACCESS:   67261400
L2C RQ TO_CACHE:   67257660
L2C RQ MERGED:          0
L2C RQ FORWARD:          0
L2C WQ ACCESS:    3160934
L2C WQ TO_CACHE:    3160934
L2C WQ MERGED:          0
L2C WQ FORWARD:       5852
LLC TOTAL     ACCESS:    3695190  HIT:    1940947  MISS:    1754243
LLC LOAD      ACCESS:     556969  HIT:     484057  MISS:      72912
LLC RFO       ACCESS:     526702  HIT:     237811  MISS:     288891
LLC PREFETCH  ACCESS:    1994351  HIT:     703396  MISS:    1290955
LLC WRITEBACK ACCESS:     617168  HIT:     515683  MISS:     101485
LLC PREFETCH  REQUESTED:          0  ISSUED:          0  USEFUL:      44647  USELESS:    1237367
LLC TOTAL MSHR MERGED:       3964
LLC LOAD MSHR MERGED:          0
LLC RFO MSHR MERGED:          0
LLC PREFETCH MSHR MERGED:       3964
LLC WRITEBACK MSHR MERGED:          0
LLC TOTAL ACCESSES:    3780771 HITS:    2022564 MISSES:    1758207
LLC LOAD ACCESSES:     557001 HITS:     484089 MISSES:      72912
LLC RFO ACCESSES:     608203 HITS:     319312 MISSES:     288891
LLC PREFETCH ACCESSES:    1998399 HITS:     703480 MISSES:    1294919
LLC WRITEBACK ACCESSES:     617168 HITS:     515683 MISSES:     101485
LLC 0 RQ ACCESS:    1165205
LLC 0 RQ TO_CACHE:    1083672
LLC 0 RQ MERGED:          0
LLC 0 RQ FORWARD:          0
LLC WQ ACCESS:     617168
LLC WQ TO_CACHE:     617168
LLC WQ MERGED:          0
LLC WQ FORWARD:      81617
Major fault: 0 Minor fault: 12800
CPU 0 L1D next line prefetcher final stats
CPU 0 L2C PC-based stride prefetcher final stats
All Misses: 2122994
All Hits: 2423124
SD Algo Stats - Switches: 1 SRR-Repls: 77993 BRR-Repls: 14043

DRAM Statistics
 CHANNEL 0
 RQ ROW_BUFFER_HIT:     808769  ROW_BUFFER_MISS:     843219
 DBUS_CONGESTED:     873564
 WQ ROW_BUFFER_HIT:      43898  ROW_BUFFER_MISS:     258509  FULL:          0

 AVG_CONGESTED_CYCLE: 13
LOADS RETIRED: 239375970
INSTR RETIRED: 500000000
