
*** ChampSim Multicore Out-of-Order Simulator ***

Warmup Instructions: 100000000
Simulation Instructions: 500000000
Number of CPUs: 1
LLC sets: 2048
LLC ways: 16
Clean RRIP Policies: 1213222012132220 Dirty RRIP Policies: 2213022022130220 PSEL Width: 10 Track Set: 4294967295 PSEL Mask: 1 Demote Mask: 1340414013404140DS Algo: 0Window size: 0
Off-chip DRAM Size: 4096 MB Channels: 1 Width: 64-bit Data Rate: 1600 MT/s

CPU 0 runs /mnt/beegfs/iconst01/spec2017/Roms.trace.gz
NOT SORTED
TRACE STRING: /mnt/beegfs/iconst01/spec2017/Roms.trace.gz
SORTED
TRACE STRING: /mnt/beegfs/iconst01/spec2017/Roms.trace.gz
INITIAL
TRACE STRING: /mnt/beegfs/iconst01/spec2017/Roms.trace.gz

champsim_seed used: 417

CPU 0 L1D next line prefetcher
CPU 0 L2C IP-based stride prefetcher
Initialize DRRIP state
Assign rand_sets[0]: 454  LLC: 2048
rand_sets[0]: 454
Assign rand_sets[1]: 1662  LLC: 2048
rand_sets[1]: 1662
Assign rand_sets[2]: 1921  LLC: 2048
rand_sets[2]: 1921
Assign rand_sets[3]: 1131  LLC: 2048
rand_sets[3]: 1131
Assign rand_sets[4]: 331  LLC: 2048
rand_sets[4]: 331
Assign rand_sets[5]: 1531  LLC: 2048
rand_sets[5]: 1531
Assign rand_sets[6]: 482  LLC: 2048
rand_sets[6]: 482
Assign rand_sets[7]: 1275  LLC: 2048
rand_sets[7]: 1275
Assign rand_sets[8]: 1876  LLC: 2048
rand_sets[8]: 1876
Assign rand_sets[9]: 2038  LLC: 2048
rand_sets[9]: 2038
Assign rand_sets[10]: 701  LLC: 2048
rand_sets[10]: 701
Assign rand_sets[11]: 479  LLC: 2048
rand_sets[11]: 479
Assign rand_sets[12]: 892  LLC: 2048
rand_sets[12]: 892
Assign rand_sets[13]: 1820  LLC: 2048
rand_sets[13]: 1820
Assign rand_sets[14]: 1505  LLC: 2048
rand_sets[14]: 1505
Assign rand_sets[15]: 1159  LLC: 2048
rand_sets[15]: 1159
Assign rand_sets[16]: 513  LLC: 2048
rand_sets[16]: 513
Assign rand_sets[17]: 703  LLC: 2048
rand_sets[17]: 703
Assign rand_sets[18]: 561  LLC: 2048
rand_sets[18]: 561
Assign rand_sets[19]: 990  LLC: 2048
rand_sets[19]: 990
Assign rand_sets[20]: 342  LLC: 2048
rand_sets[20]: 342
Assign rand_sets[21]: 882  LLC: 2048
rand_sets[21]: 882
Assign rand_sets[22]: 15  LLC: 2048
rand_sets[22]: 15
Assign rand_sets[23]: 71  LLC: 2048
rand_sets[23]: 71
Assign rand_sets[24]: 1127  LLC: 2048
rand_sets[24]: 1127
Assign rand_sets[25]: 1382  LLC: 2048
rand_sets[25]: 1382
Assign rand_sets[26]: 647  LLC: 2048
rand_sets[26]: 647
Assign rand_sets[27]: 857  LLC: 2048
rand_sets[27]: 857
Assign rand_sets[28]: 1450  LLC: 2048
rand_sets[28]: 1450
Assign rand_sets[29]: 1160  LLC: 2048
rand_sets[29]: 1160
Assign rand_sets[30]: 1852  LLC: 2048
rand_sets[30]: 1852
Assign rand_sets[31]: 1881  LLC: 2048
rand_sets[31]: 1881
Assign rand_sets[32]: 1770  LLC: 2048
rand_sets[32]: 1770
Assign rand_sets[33]: 1622  LLC: 2048
rand_sets[33]: 1622
Assign rand_sets[34]: 275  LLC: 2048
rand_sets[34]: 275
Assign rand_sets[35]: 635  LLC: 2048
rand_sets[35]: 635
Assign rand_sets[36]: 466  LLC: 2048
rand_sets[36]: 466
Assign rand_sets[37]: 1413  LLC: 2048
rand_sets[37]: 1413
Assign rand_sets[38]: 417  LLC: 2048
rand_sets[38]: 417
Assign rand_sets[39]: 472  LLC: 2048
rand_sets[39]: 472
Assign rand_sets[40]: 1340  LLC: 2048
rand_sets[40]: 1340
Assign rand_sets[41]: 852  LLC: 2048
rand_sets[41]: 852
Assign rand_sets[42]: 1365  LLC: 2048
rand_sets[42]: 1365
Assign rand_sets[43]: 47  LLC: 2048
rand_sets[43]: 47
Assign rand_sets[44]: 823  LLC: 2048
rand_sets[44]: 823
Assign rand_sets[45]: 686  LLC: 2048
rand_sets[45]: 686
Assign rand_sets[46]: 1637  LLC: 2048
rand_sets[46]: 1637
Assign rand_sets[47]: 1115  LLC: 2048
rand_sets[47]: 1115
Assign rand_sets[48]: 986  LLC: 2048
rand_sets[48]: 986
Assign rand_sets[49]: 258  LLC: 2048
rand_sets[49]: 258
Assign rand_sets[50]: 633  LLC: 2048
rand_sets[50]: 633
Assign rand_sets[51]: 920  LLC: 2048
rand_sets[51]: 920
Assign rand_sets[52]: 204  LLC: 2048
rand_sets[52]: 204
Assign rand_sets[53]: 227  LLC: 2048
rand_sets[53]: 227
Assign rand_sets[54]: 1818  LLC: 2048
rand_sets[54]: 1818
Assign rand_sets[55]: 886  LLC: 2048
rand_sets[55]: 886
Assign rand_sets[56]: 1422  LLC: 2048
rand_sets[56]: 1422
Assign rand_sets[57]: 607  LLC: 2048
rand_sets[57]: 607
Assign rand_sets[58]: 217  LLC: 2048
rand_sets[58]: 217
Assign rand_sets[59]: 1945  LLC: 2048
rand_sets[59]: 1945
Assign rand_sets[60]: 143  LLC: 2048
rand_sets[60]: 143
Assign rand_sets[61]: 1311  LLC: 2048
rand_sets[61]: 1311
Assign rand_sets[62]: 319  LLC: 2048
rand_sets[62]: 319
Assign rand_sets[63]: 1846  LLC: 2048
rand_sets[63]: 1846
 CLEAN-RRIP-POLICY-1: 1-2-1-3-2-2-2-0- CLEAN-RRIP-POLICY-2: 1-2-1-3-2-2-2-0-
 DIRTY-RRIP-POLICY-1: 2-2-1-3-0-2-2-0- DIRTY-RRIP-POLICY-2: 2-2-1-3-0-2-2-0-
 PSEL width: 10
Heartbeat CPU 0 instructions: 10000000 cycles: 4688066 heartbeat IPC: 2.13308 cumulative IPC: 2.13308 (Simulation time: 0 hr 0 min 17 sec) 
Heartbeat CPU 0 instructions: 20000000 cycles: 9325334 heartbeat IPC: 2.15644 cumulative IPC: 2.1447 (Simulation time: 0 hr 0 min 33 sec) 
Heartbeat CPU 0 instructions: 30000003 cycles: 14019723 heartbeat IPC: 2.1302 cumulative IPC: 2.13984 (Simulation time: 0 hr 0 min 50 sec) 
Heartbeat CPU 0 instructions: 40000000 cycles: 18670156 heartbeat IPC: 2.15034 cumulative IPC: 2.14246 (Simulation time: 0 hr 1 min 7 sec) 
Heartbeat CPU 0 instructions: 50000003 cycles: 23323572 heartbeat IPC: 2.14896 cumulative IPC: 2.14375 (Simulation time: 0 hr 1 min 23 sec) 
Heartbeat CPU 0 instructions: 60000000 cycles: 27976220 heartbeat IPC: 2.14931 cumulative IPC: 2.14468 (Simulation time: 0 hr 1 min 39 sec) 
Heartbeat CPU 0 instructions: 70000002 cycles: 32367426 heartbeat IPC: 2.27728 cumulative IPC: 2.16267 (Simulation time: 0 hr 1 min 54 sec) 
Heartbeat CPU 0 instructions: 80000000 cycles: 36304206 heartbeat IPC: 2.54015 cumulative IPC: 2.2036 (Simulation time: 0 hr 2 min 5 sec) 
Heartbeat CPU 0 instructions: 90000000 cycles: 40249570 heartbeat IPC: 2.53462 cumulative IPC: 2.23605 (Simulation time: 0 hr 2 min 17 sec) 
Heartbeat CPU 0 instructions: 100000000 cycles: 44212061 heartbeat IPC: 2.52366 cumulative IPC: 2.26183 (Simulation time: 0 hr 2 min 29 sec) 

Warmup complete CPU 0 instructions: 100000002 cycles: 44212062 (Simulation time: 0 hr 2 min 29 sec) 

Heartbeat CPU 0 instructions: 110000001 cycles: 53703641 heartbeat IPC: 1.05357 cumulative IPC: 1.05357 (Simulation time: 0 hr 2 min 47 sec) 
Heartbeat CPU 0 instructions: 120000000 cycles: 62901564 heartbeat IPC: 1.0872 cumulative IPC: 1.07012 (Simulation time: 0 hr 3 min 6 sec) 
Heartbeat CPU 0 instructions: 130000002 cycles: 72081078 heartbeat IPC: 1.08938 cumulative IPC: 1.07646 (Simulation time: 0 hr 3 min 25 sec) 
Heartbeat CPU 0 instructions: 140000000 cycles: 81165701 heartbeat IPC: 1.10076 cumulative IPC: 1.08244 (Simulation time: 0 hr 3 min 43 sec) 
Heartbeat CPU 0 instructions: 150000003 cycles: 90359194 heartbeat IPC: 1.08773 cumulative IPC: 1.08349 (Simulation time: 0 hr 4 min 2 sec) 
Heartbeat CPU 0 instructions: 160000000 cycles: 101082944 heartbeat IPC: 0.932509 cumulative IPC: 1.05502 (Simulation time: 0 hr 4 min 23 sec) 
Heartbeat CPU 0 instructions: 170000000 cycles: 113696455 heartbeat IPC: 0.792801 cumulative IPC: 1.00742 (Simulation time: 0 hr 4 min 46 sec) 
Heartbeat CPU 0 instructions: 180000000 cycles: 126238254 heartbeat IPC: 0.797334 cumulative IPC: 0.975298 (Simulation time: 0 hr 5 min 9 sec) 
Heartbeat CPU 0 instructions: 190000000 cycles: 139017949 heartbeat IPC: 0.782491 cumulative IPC: 0.949308 (Simulation time: 0 hr 5 min 32 sec) 
Heartbeat CPU 0 instructions: 200000000 cycles: 152866066 heartbeat IPC: 0.72212 cumulative IPC: 0.920353 (Simulation time: 0 hr 5 min 55 sec) 
Heartbeat CPU 0 instructions: 210000001 cycles: 166796919 heartbeat IPC: 0.717831 cumulative IPC: 0.897338 (Simulation time: 0 hr 6 min 19 sec) 
Heartbeat CPU 0 instructions: 220000000 cycles: 180564473 heartbeat IPC: 0.726345 cumulative IPC: 0.880072 (Simulation time: 0 hr 6 min 42 sec) 
Heartbeat CPU 0 instructions: 230000000 cycles: 194141405 heartbeat IPC: 0.736543 cumulative IPC: 0.867075 (Simulation time: 0 hr 7 min 6 sec) 
Heartbeat CPU 0 instructions: 240000000 cycles: 207790023 heartbeat IPC: 0.732675 cumulative IPC: 0.855861 (Simulation time: 0 hr 7 min 30 sec) 
Heartbeat CPU 0 instructions: 250000003 cycles: 218951781 heartbeat IPC: 0.895916 cumulative IPC: 0.85842 (Simulation time: 0 hr 7 min 52 sec) 
Heartbeat CPU 0 instructions: 260000000 cycles: 226927899 heartbeat IPC: 1.25374 cumulative IPC: 0.875677 (Simulation time: 0 hr 8 min 11 sec) 
Heartbeat CPU 0 instructions: 270000003 cycles: 235519508 heartbeat IPC: 1.16393 cumulative IPC: 0.888622 (Simulation time: 0 hr 8 min 30 sec) 
Heartbeat CPU 0 instructions: 280000000 cycles: 245201666 heartbeat IPC: 1.03283 cumulative IPC: 0.895569 (Simulation time: 0 hr 8 min 51 sec) 
Heartbeat CPU 0 instructions: 290000000 cycles: 254499157 heartbeat IPC: 1.07556 cumulative IPC: 0.903527 (Simulation time: 0 hr 9 min 11 sec) 
Heartbeat CPU 0 instructions: 300000000 cycles: 263690378 heartbeat IPC: 1.08799 cumulative IPC: 0.911252 (Simulation time: 0 hr 9 min 32 sec) 
Heartbeat CPU 0 instructions: 310000000 cycles: 272881054 heartbeat IPC: 1.08806 cumulative IPC: 0.918358 (Simulation time: 0 hr 9 min 53 sec) 
Heartbeat CPU 0 instructions: 320000000 cycles: 281998714 heartbeat IPC: 1.09677 cumulative IPC: 0.925199 (Simulation time: 0 hr 10 min 14 sec) 
Heartbeat CPU 0 instructions: 330000002 cycles: 291042487 heartbeat IPC: 1.10573 cumulative IPC: 0.931814 (Simulation time: 0 hr 10 min 35 sec) 
Heartbeat CPU 0 instructions: 340000000 cycles: 301472788 heartbeat IPC: 0.958745 cumulative IPC: 0.932906 (Simulation time: 0 hr 10 min 57 sec) 
Heartbeat CPU 0 instructions: 350000001 cycles: 310514286 heartbeat IPC: 1.10601 cumulative IPC: 0.938783 (Simulation time: 0 hr 11 min 17 sec) 
Heartbeat CPU 0 instructions: 360000000 cycles: 319512648 heartbeat IPC: 1.11131 cumulative IPC: 0.944422 (Simulation time: 0 hr 11 min 38 sec) 
Heartbeat CPU 0 instructions: 370000000 cycles: 328463979 heartbeat IPC: 1.11715 cumulative IPC: 0.949862 (Simulation time: 0 hr 11 min 58 sec) 
Heartbeat CPU 0 instructions: 380000000 cycles: 337313501 heartbeat IPC: 1.13 cumulative IPC: 0.955301 (Simulation time: 0 hr 12 min 18 sec) 
Heartbeat CPU 0 instructions: 390000001 cycles: 345957365 heartbeat IPC: 1.15689 cumulative IPC: 0.961075 (Simulation time: 0 hr 12 min 38 sec) 
Heartbeat CPU 0 instructions: 400000000 cycles: 354663916 heartbeat IPC: 1.14856 cumulative IPC: 0.966333 (Simulation time: 0 hr 12 min 58 sec) 
Heartbeat CPU 0 instructions: 410000003 cycles: 363283051 heartbeat IPC: 1.16021 cumulative IPC: 0.971571 (Simulation time: 0 hr 13 min 18 sec) 
Heartbeat CPU 0 instructions: 420000000 cycles: 371958083 heartbeat IPC: 1.15273 cumulative IPC: 0.976366 (Simulation time: 0 hr 13 min 38 sec) 
Heartbeat CPU 0 instructions: 430000001 cycles: 380525841 heartbeat IPC: 1.16717 cumulative IPC: 0.981227 (Simulation time: 0 hr 13 min 58 sec) 
Heartbeat CPU 0 instructions: 440000000 cycles: 389045217 heartbeat IPC: 1.17379 cumulative IPC: 0.985984 (Simulation time: 0 hr 14 min 18 sec) 
Heartbeat CPU 0 instructions: 450000001 cycles: 398962181 heartbeat IPC: 1.00837 cumulative IPC: 0.98661 (Simulation time: 0 hr 14 min 39 sec) 
Heartbeat CPU 0 instructions: 460000000 cycles: 407489308 heartbeat IPC: 1.17273 cumulative IPC: 0.990979 (Simulation time: 0 hr 14 min 59 sec) 
Heartbeat CPU 0 instructions: 470000003 cycles: 415871003 heartbeat IPC: 1.19308 cumulative IPC: 0.995536 (Simulation time: 0 hr 15 min 19 sec) 
Heartbeat CPU 0 instructions: 480000000 cycles: 424271720 heartbeat IPC: 1.19037 cumulative IPC: 0.999843 (Simulation time: 0 hr 15 min 39 sec) 
Heartbeat CPU 0 instructions: 490000000 cycles: 432653100 heartbeat IPC: 1.19312 cumulative IPC: 1.00401 (Simulation time: 0 hr 15 min 59 sec) 
Heartbeat CPU 0 instructions: 500000000 cycles: 441041174 heartbeat IPC: 1.19217 cumulative IPC: 1.00799 (Simulation time: 0 hr 16 min 18 sec) 
Heartbeat CPU 0 instructions: 510000001 cycles: 449400689 heartbeat IPC: 1.19624 cumulative IPC: 1.01187 (Simulation time: 0 hr 16 min 38 sec) 
Heartbeat CPU 0 instructions: 520000000 cycles: 457780181 heartbeat IPC: 1.19339 cumulative IPC: 1.01555 (Simulation time: 0 hr 16 min 58 sec) 
Heartbeat CPU 0 instructions: 530000001 cycles: 466150555 heartbeat IPC: 1.19469 cumulative IPC: 1.01911 (Simulation time: 0 hr 17 min 18 sec) 
Heartbeat CPU 0 instructions: 540000000 cycles: 474705938 heartbeat IPC: 1.16885 cumulative IPC: 1.02208 (Simulation time: 0 hr 17 min 38 sec) 
Heartbeat CPU 0 instructions: 550000000 cycles: 483318209 heartbeat IPC: 1.16113 cumulative IPC: 1.02481 (Simulation time: 0 hr 17 min 58 sec) 
Heartbeat CPU 0 instructions: 560000000 cycles: 491705284 heartbeat IPC: 1.19231 cumulative IPC: 1.02795 (Simulation time: 0 hr 18 min 17 sec) 
Heartbeat CPU 0 instructions: 570000000 cycles: 503765280 heartbeat IPC: 0.829188 cumulative IPC: 1.02273 (Simulation time: 0 hr 18 min 39 sec) 
Heartbeat CPU 0 instructions: 580000000 cycles: 515757518 heartbeat IPC: 0.833873 cumulative IPC: 1.01793 (Simulation time: 0 hr 19 min 1 sec) 
Heartbeat CPU 0 instructions: 590000001 cycles: 527993874 heartbeat IPC: 0.817237 cumulative IPC: 1.01285 (Simulation time: 0 hr 19 min 23 sec) 
Heartbeat CPU 0 instructions: 600000000 cycles: 540032470 heartbeat IPC: 0.830662 cumulative IPC: 1.00843 (Simulation time: 0 hr 19 min 45 sec) 
Finished CPU 0 instructions: 500000001 cycles: 495820421 cumulative IPC: 1.00843 (Simulation time: 0 hr 19 min 45 sec) 

CPU 0 Branch Prediction Accuracy: 99.7422% MPKI: 0.173296
Number of Branches: 33608403 Number of Mispredictions: 86648
Number of LOAD Instructions: 180215231
Number of LOAD Instructions (ROI): 180215231
Number of STORE Instructions: 36067263
Number of STORE Instructions (ROI): 36067263
Total Destination Memory Operands: 38428915
Total Destination Memory Operands (ROI): 38428915
Total Source Memory Operands: 180215231
Total Source Memory Operands (ROI): 180215231
Number of DEPENDED LOADS: 3041661
Number of DEPENDED LOADS (ROI): 3041661
Number of SQ_ADDED: 38428892
Number of SQ_ADDED (ROI): 38428892
Number of LQ_ADDED: 207942364
Number of LQ_ADDED (ROI): 207942364
Number of Instructions read from trace: 600000257

ChampSim completed all CPUs

Region of Interest Statistics

CPU 0 cumulative IPC: 1.00843 instructions: 500000001 cycles: 495820421
ITLB TOTAL     ACCESS:   92044464  HIT:   92044445  MISS:         19
ITLB LOAD      ACCESS:   92044464  HIT:   92044445  MISS:         19
ITLB RFO       ACCESS:          0  HIT:          0  MISS:          0
ITLB PREFETCH  ACCESS:          0  HIT:          0  MISS:          0
ITLB WRITEBACK ACCESS:          0  HIT:          0  MISS:          0
ITLB PREFETCH  REQUESTED:          0  ISSUED:          0  USEFUL:          0  USELESS:          0
ITLB TOTAL MSHR MERGED:         40
ITLB LOAD MSHR MERGED:         40
ITLB RFO MSHR MERGED:          0
ITLB PREFETCH MSHR MERGED:          0
ITLB WRITEBACK MSHR MERGED:          0
ITLB TOTAL ACCESSES:   92044504 HITS:   92044445 MISSES:         59
ITLB LOAD ACCESSES:   92044504 HITS:   92044445 MISSES:         59
ITLB RFO ACCESSES:          0 HITS:          0 MISSES:          0
ITLB PREFETCH ACCESSES:          0 HITS:          0 MISSES:          0
ITLB WRITEBACK ACCESSES:          0 HITS:          0 MISSES:          0
ITLB RQ ACCESS:  500000003
ITLB RQ TO_CACHE:   92044504
ITLB RQ MERGED:  407955499
ITLB RQ FORWARD:          0
ITLB WQ ACCESS:          0
ITLB WQ TO_CACHE:          0
ITLB WQ MERGED:          0
ITLB WQ FORWARD:          0
DTLB TOTAL     ACCESS:  141968911  HIT:  141602450  MISS:     366461
DTLB LOAD      ACCESS:  119356428  HIT:  119042843  MISS:     313585
DTLB RFO       ACCESS:   22612483  HIT:   22559607  MISS:      52876
DTLB PREFETCH  ACCESS:          0  HIT:          0  MISS:          0
DTLB WRITEBACK ACCESS:          0  HIT:          0  MISS:          0
DTLB PREFETCH  REQUESTED:          0  ISSUED:          0  USEFUL:          0  USELESS:          0
DTLB TOTAL MSHR MERGED:     288200
DTLB LOAD MSHR MERGED:     239370
DTLB RFO MSHR MERGED:      48830
DTLB PREFETCH MSHR MERGED:          0
DTLB WRITEBACK MSHR MERGED:          0
DTLB TOTAL ACCESSES:  142257111 HITS:  141602450 MISSES:     654661
DTLB LOAD ACCESSES:  119595798 HITS:  119042843 MISSES:     552955
DTLB RFO ACCESSES:   22661313 HITS:   22559607 MISSES:     101706
DTLB PREFETCH ACCESSES:          0 HITS:          0 MISSES:          0
DTLB WRITEBACK ACCESSES:          0 HITS:          0 MISSES:          0
DTLB RQ ACCESS:  184791316
DTLB RQ TO_CACHE:  142257111
DTLB RQ MERGED:   42534205
DTLB RQ FORWARD:          0
DTLB WQ ACCESS:          0
DTLB WQ TO_CACHE:          0
DTLB WQ MERGED:          0
DTLB WQ FORWARD:          0
L1D TOTAL     ACCESS:  187383513  HIT:  173939168  MISS:   13444345
L1D LOAD      ACCESS:  111625999  HIT:  108162618  MISS:    3463381
L1D RFO       ACCESS:   17764924  HIT:   14983173  MISS:    2781751
L1D PREFETCH  ACCESS:   57992590  HIT:   50793377  MISS:    7199213
L1D WRITEBACK ACCESS:          0  HIT:          0  MISS:          0
L1D PREFETCH  REQUESTED:  116476213  ISSUED:  115115596  USEFUL:    6989776  USELESS:     209438
L1D TOTAL MSHR MERGED:   34601466
L1D LOAD MSHR MERGED:    7758074
L1D RFO MSHR MERGED:   10487677
L1D PREFETCH MSHR MERGED:   16355715
L1D WRITEBACK MSHR MERGED:          0
L1D TOTAL ACCESSES:  221985596 HITS:  173939783 MISSES:   48045813
L1D LOAD ACCESSES:  116476438 HITS:  108162843 MISSES:    8313595
L1D RFO ACCESSES:   28252540 HITS:   14983173 MISSES:   13269367
L1D PREFETCH ACCESSES:   77256618 HITS:   50793767 MISSES:   26462851
L1D WRITEBACK ACCESSES:          0 HITS:          0 MISSES:          0
L1D RQ ACCESS:  156535250
L1D RQ TO_CACHE:  116476216
L1D RQ MERGED:   40058809
L1D RQ FORWARD:          0
L1D WQ ACCESS:   28256066
L1D WQ TO_CACHE:   28252540
L1D WQ MERGED:       3526
L1D WQ FORWARD:        615
L1I TOTAL     ACCESS:  116028209  HIT:  116027261  MISS:        948
L1I LOAD      ACCESS:  116028209  HIT:  116027261  MISS:        948
L1I RFO       ACCESS:          0  HIT:          0  MISS:          0
L1I PREFETCH  ACCESS:          0  HIT:          0  MISS:          0
L1I WRITEBACK ACCESS:          0  HIT:          0  MISS:          0
L1I PREFETCH  REQUESTED:          0  ISSUED:          0  USEFUL:          0  USELESS:          0
L1I TOTAL MSHR MERGED:       1602
L1I LOAD MSHR MERGED:       1602
L1I RFO MSHR MERGED:          0
L1I PREFETCH MSHR MERGED:          0
L1I WRITEBACK MSHR MERGED:          0
L1I TOTAL ACCESSES:  116029811 HITS:  116027261 MISSES:       2550
L1I LOAD ACCESSES:  116029811 HITS:  116027261 MISSES:       2550
L1I RFO ACCESSES:          0 HITS:          0 MISSES:          0
L1I PREFETCH ACCESSES:          0 HITS:          0 MISSES:          0
L1I WRITEBACK ACCESSES:          0 HITS:          0 MISSES:          0
L1I RQ ACCESS:  500000007
L1I RQ TO_CACHE:  116029811
L1I RQ MERGED:  383970196
L1I RQ FORWARD:          0
L1I WQ ACCESS:          0
L1I WQ TO_CACHE:          0
L1I WQ MERGED:          0
L1I WQ FORWARD:          0
L2C TOTAL     ACCESS:   16689539  HIT:    4844890  MISS:   11844649
L2C LOAD      ACCESS:     556442  HIT:      95096  MISS:     461346
L2C RFO       ACCESS:    2781690  HIT:     266563  MISS:    2515127
L2C PREFETCH  ACCESS:   10130773  HIT:    1264876  MISS:    8865897
L2C WRITEBACK ACCESS:    3220634  HIT:    3218355  MISS:       2279
L2C PREFETCH  REQUESTED:      25854  ISSUED:      25854  USEFUL:      92529  USELESS:    8771455
L2C TOTAL MSHR MERGED:        614
L2C LOAD MSHR MERGED:         17
L2C RFO MSHR MERGED:          0
L2C PREFETCH MSHR MERGED:        597
L2C WRITEBACK MSHR MERGED:          0
L2C TOTAL ACCESSES:   16690367 HITS:    4844936 MISSES:   11845431
L2C LOAD ACCESSES:     556469 HITS:      95123 MISSES:     461346
L2C RFO ACCESSES:    2781690 HITS:     266563 MISSES:    2515127
L2C PREFETCH ACCESSES:   10131574 HITS:    1264895 MISSES:    8866679
L2C WRITEBACK ACCESSES:    3220634 HITS:    3218355 MISSES:       2279
L2C RQ ACCESS:    3338159
L2C RQ TO_CACHE:    3338132
L2C RQ MERGED:          0
L2C RQ FORWARD:          0
L2C WQ ACCESS:    3220634
L2C WQ TO_CACHE:    3220634
L2C WQ MERGED:          0
L2C WQ FORWARD:         46
LLC TOTAL     ACCESS:   14742984  HIT:    6373115  MISS:    8369869
LLC LOAD      ACCESS:     461326  HIT:     239454  MISS:     221872
LLC RFO       ACCESS:    2515101  HIT:    1455880  MISS:    1059221
LLC PREFETCH  ACCESS:    8866023  HIT:    2649821  MISS:    6216202
LLC WRITEBACK ACCESS:    2900534  HIT:    2027960  MISS:     872574
LLC PREFETCH  REQUESTED:          0  ISSUED:          0  USEFUL:       5405  USELESS:    6211671
LLC TOTAL MSHR MERGED:          4
LLC LOAD MSHR MERGED:          0
LLC RFO MSHR MERGED:          0
LLC PREFETCH MSHR MERGED:          4
LLC WRITEBACK MSHR MERGED:          0
LLC TOTAL ACCESSES:   14743063 HITS:    6373188 MISSES:    8369875
LLC LOAD ACCESSES:     461329 HITS:     239457 MISSES:     221872
LLC RFO ACCESSES:    2515127 HITS:    1455906 MISSES:    1059221
LLC PREFETCH ACCESSES:    8866073 HITS:    2649865 MISSES:    6216208
LLC WRITEBACK ACCESSES:    2900534 HITS:    2027960 MISSES:     872574
LLC 0 RQ ACCESS:    2976456
LLC 0 RQ TO_CACHE:    2976427
LLC 0 RQ MERGED:          0
LLC 0 RQ FORWARD:          0
LLC WQ ACCESS:    2900534
LLC WQ TO_CACHE:    2900534
LLC WQ MERGED:          0
LLC WQ FORWARD:         73
Major fault: 0 Minor fault: 57518
CPU 0 L1D next line prefetcher final stats
CPU 0 L2C PC-based stride prefetcher final stats
All Misses: 9076391
All Hits: 7162774
SD Algo Stats - Switches: 0 SRR-Repls: 230455 BRR-Repls: 0

DRAM Statistics
 CHANNEL 0
 RQ ROW_BUFFER_HIT:    3835497  ROW_BUFFER_MISS:    3655537
 DBUS_CONGESTED:    3761062
 WQ ROW_BUFFER_HIT:     180695  ROW_BUFFER_MISS:    1171636  FULL:          0

 AVG_CONGESTED_CYCLE: 12
LOADS RETIRED: 157818985
INSTR RETIRED: 500000000
