
*** ChampSim Multicore Out-of-Order Simulator ***

Warmup Instructions: 100000000
Simulation Instructions: 500000000
Number of CPUs: 1
LLC sets: 2048
LLC ways: 16
Clean RRIP Policies: 1013020110130201 Dirty RRIP Policies: 1013220110132201 PSEL Width: 10 Track Set: 4294967295 PSEL Mask: 1 Demote Mask: 3300210433002104DS Algo: 0Window size: 0
Off-chip DRAM Size: 4096 MB Channels: 1 Width: 64-bit Data Rate: 1600 MT/s

CPU 0 runs /mnt/beegfs/iconst01/spec2017/Gcc.trace.gz
NOT SORTED
TRACE STRING: /mnt/beegfs/iconst01/spec2017/Gcc.trace.gz
SORTED
TRACE STRING: /mnt/beegfs/iconst01/spec2017/Gcc.trace.gz
INITIAL
TRACE STRING: /mnt/beegfs/iconst01/spec2017/Gcc.trace.gz

champsim_seed used: 269

CPU 0 L1D next line prefetcher
CPU 0 L2C IP-based stride prefetcher
Initialize DRRIP state
Assign rand_sets[0]: 454  LLC: 2048
rand_sets[0]: 454
Assign rand_sets[1]: 1662  LLC: 2048
rand_sets[1]: 1662
Assign rand_sets[2]: 1921  LLC: 2048
rand_sets[2]: 1921
Assign rand_sets[3]: 1131  LLC: 2048
rand_sets[3]: 1131
Assign rand_sets[4]: 331  LLC: 2048
rand_sets[4]: 331
Assign rand_sets[5]: 1531  LLC: 2048
rand_sets[5]: 1531
Assign rand_sets[6]: 482  LLC: 2048
rand_sets[6]: 482
Assign rand_sets[7]: 1275  LLC: 2048
rand_sets[7]: 1275
Assign rand_sets[8]: 1876  LLC: 2048
rand_sets[8]: 1876
Assign rand_sets[9]: 2038  LLC: 2048
rand_sets[9]: 2038
Assign rand_sets[10]: 701  LLC: 2048
rand_sets[10]: 701
Assign rand_sets[11]: 479  LLC: 2048
rand_sets[11]: 479
Assign rand_sets[12]: 892  LLC: 2048
rand_sets[12]: 892
Assign rand_sets[13]: 1820  LLC: 2048
rand_sets[13]: 1820
Assign rand_sets[14]: 1505  LLC: 2048
rand_sets[14]: 1505
Assign rand_sets[15]: 1159  LLC: 2048
rand_sets[15]: 1159
Assign rand_sets[16]: 513  LLC: 2048
rand_sets[16]: 513
Assign rand_sets[17]: 703  LLC: 2048
rand_sets[17]: 703
Assign rand_sets[18]: 561  LLC: 2048
rand_sets[18]: 561
Assign rand_sets[19]: 990  LLC: 2048
rand_sets[19]: 990
Assign rand_sets[20]: 342  LLC: 2048
rand_sets[20]: 342
Assign rand_sets[21]: 882  LLC: 2048
rand_sets[21]: 882
Assign rand_sets[22]: 15  LLC: 2048
rand_sets[22]: 15
Assign rand_sets[23]: 71  LLC: 2048
rand_sets[23]: 71
Assign rand_sets[24]: 1127  LLC: 2048
rand_sets[24]: 1127
Assign rand_sets[25]: 1382  LLC: 2048
rand_sets[25]: 1382
Assign rand_sets[26]: 647  LLC: 2048
rand_sets[26]: 647
Assign rand_sets[27]: 857  LLC: 2048
rand_sets[27]: 857
Assign rand_sets[28]: 1450  LLC: 2048
rand_sets[28]: 1450
Assign rand_sets[29]: 1160  LLC: 2048
rand_sets[29]: 1160
Assign rand_sets[30]: 1852  LLC: 2048
rand_sets[30]: 1852
Assign rand_sets[31]: 1881  LLC: 2048
rand_sets[31]: 1881
Assign rand_sets[32]: 1770  LLC: 2048
rand_sets[32]: 1770
Assign rand_sets[33]: 1622  LLC: 2048
rand_sets[33]: 1622
Assign rand_sets[34]: 275  LLC: 2048
rand_sets[34]: 275
Assign rand_sets[35]: 635  LLC: 2048
rand_sets[35]: 635
Assign rand_sets[36]: 466  LLC: 2048
rand_sets[36]: 466
Assign rand_sets[37]: 1413  LLC: 2048
rand_sets[37]: 1413
Assign rand_sets[38]: 417  LLC: 2048
rand_sets[38]: 417
Assign rand_sets[39]: 472  LLC: 2048
rand_sets[39]: 472
Assign rand_sets[40]: 1340  LLC: 2048
rand_sets[40]: 1340
Assign rand_sets[41]: 852  LLC: 2048
rand_sets[41]: 852
Assign rand_sets[42]: 1365  LLC: 2048
rand_sets[42]: 1365
Assign rand_sets[43]: 47  LLC: 2048
rand_sets[43]: 47
Assign rand_sets[44]: 823  LLC: 2048
rand_sets[44]: 823
Assign rand_sets[45]: 686  LLC: 2048
rand_sets[45]: 686
Assign rand_sets[46]: 1637  LLC: 2048
rand_sets[46]: 1637
Assign rand_sets[47]: 1115  LLC: 2048
rand_sets[47]: 1115
Assign rand_sets[48]: 986  LLC: 2048
rand_sets[48]: 986
Assign rand_sets[49]: 258  LLC: 2048
rand_sets[49]: 258
Assign rand_sets[50]: 633  LLC: 2048
rand_sets[50]: 633
Assign rand_sets[51]: 920  LLC: 2048
rand_sets[51]: 920
Assign rand_sets[52]: 204  LLC: 2048
rand_sets[52]: 204
Assign rand_sets[53]: 227  LLC: 2048
rand_sets[53]: 227
Assign rand_sets[54]: 1818  LLC: 2048
rand_sets[54]: 1818
Assign rand_sets[55]: 886  LLC: 2048
rand_sets[55]: 886
Assign rand_sets[56]: 1422  LLC: 2048
rand_sets[56]: 1422
Assign rand_sets[57]: 607  LLC: 2048
rand_sets[57]: 607
Assign rand_sets[58]: 217  LLC: 2048
rand_sets[58]: 217
Assign rand_sets[59]: 1945  LLC: 2048
rand_sets[59]: 1945
Assign rand_sets[60]: 143  LLC: 2048
rand_sets[60]: 143
Assign rand_sets[61]: 1311  LLC: 2048
rand_sets[61]: 1311
Assign rand_sets[62]: 319  LLC: 2048
rand_sets[62]: 319
Assign rand_sets[63]: 1846  LLC: 2048
rand_sets[63]: 1846
 CLEAN-RRIP-POLICY-1: 1-0-1-3-0-2-0-1- CLEAN-RRIP-POLICY-2: 1-0-1-3-0-2-0-1-
 DIRTY-RRIP-POLICY-1: 1-0-1-3-2-2-0-1- DIRTY-RRIP-POLICY-2: 1-0-1-3-2-2-0-1-
 PSEL width: 10
Heartbeat CPU 0 instructions: 10000001 cycles: 7315981 heartbeat IPC: 1.36687 cumulative IPC: 1.36687 (Simulation time: 0 hr 0 min 29 sec) 
Heartbeat CPU 0 instructions: 20000000 cycles: 14307475 heartbeat IPC: 1.43031 cumulative IPC: 1.39787 (Simulation time: 0 hr 0 min 58 sec) 
Heartbeat CPU 0 instructions: 30000001 cycles: 21020360 heartbeat IPC: 1.48967 cumulative IPC: 1.42719 (Simulation time: 0 hr 1 min 25 sec) 
Heartbeat CPU 0 instructions: 40000000 cycles: 27481139 heartbeat IPC: 1.5478 cumulative IPC: 1.45554 (Simulation time: 0 hr 1 min 55 sec) 
Heartbeat CPU 0 instructions: 50000001 cycles: 33582846 heartbeat IPC: 1.63889 cumulative IPC: 1.48886 (Simulation time: 0 hr 2 min 24 sec) 
Heartbeat CPU 0 instructions: 60000000 cycles: 40064014 heartbeat IPC: 1.54293 cumulative IPC: 1.4976 (Simulation time: 0 hr 2 min 55 sec) 
Heartbeat CPU 0 instructions: 70000000 cycles: 47102212 heartbeat IPC: 1.42082 cumulative IPC: 1.48613 (Simulation time: 0 hr 3 min 23 sec) 
Heartbeat CPU 0 instructions: 80000000 cycles: 54191704 heartbeat IPC: 1.41054 cumulative IPC: 1.47624 (Simulation time: 0 hr 3 min 51 sec) 
Heartbeat CPU 0 instructions: 90000003 cycles: 61195914 heartbeat IPC: 1.42771 cumulative IPC: 1.47069 (Simulation time: 0 hr 4 min 18 sec) 
Heartbeat CPU 0 instructions: 100000000 cycles: 68362961 heartbeat IPC: 1.39527 cumulative IPC: 1.46278 (Simulation time: 0 hr 4 min 46 sec) 

Warmup complete CPU 0 instructions: 100000004 cycles: 68362962 (Simulation time: 0 hr 4 min 46 sec) 

Heartbeat CPU 0 instructions: 110000003 cycles: 95980721 heartbeat IPC: 0.362086 cumulative IPC: 0.362086 (Simulation time: 0 hr 5 min 41 sec) 
Heartbeat CPU 0 instructions: 120000000 cycles: 123417439 heartbeat IPC: 0.364475 cumulative IPC: 0.363276 (Simulation time: 0 hr 6 min 36 sec) 
Heartbeat CPU 0 instructions: 130000000 cycles: 148378557 heartbeat IPC: 0.400623 cumulative IPC: 0.374927 (Simulation time: 0 hr 7 min 30 sec) 
Heartbeat CPU 0 instructions: 140000000 cycles: 177780974 heartbeat IPC: 0.340108 cumulative IPC: 0.36557 (Simulation time: 0 hr 8 min 24 sec) 
Heartbeat CPU 0 instructions: 150000000 cycles: 207594706 heartbeat IPC: 0.335416 cumulative IPC: 0.359113 (Simulation time: 0 hr 9 min 19 sec) 
Heartbeat CPU 0 instructions: 160000000 cycles: 234985073 heartbeat IPC: 0.365092 cumulative IPC: 0.360096 (Simulation time: 0 hr 10 min 11 sec) 
Heartbeat CPU 0 instructions: 170000001 cycles: 262976603 heartbeat IPC: 0.357251 cumulative IPC: 0.359687 (Simulation time: 0 hr 11 min 9 sec) 
Heartbeat CPU 0 instructions: 180000000 cycles: 291389586 heartbeat IPC: 0.351952 cumulative IPC: 0.358702 (Simulation time: 0 hr 12 min 4 sec) 
Heartbeat CPU 0 instructions: 190000002 cycles: 319352016 heartbeat IPC: 0.357623 cumulative IPC: 0.358581 (Simulation time: 0 hr 12 min 59 sec) 
Heartbeat CPU 0 instructions: 200000000 cycles: 347654971 heartbeat IPC: 0.35332 cumulative IPC: 0.358048 (Simulation time: 0 hr 13 min 55 sec) 
Heartbeat CPU 0 instructions: 210000002 cycles: 375451200 heartbeat IPC: 0.359761 cumulative IPC: 0.358203 (Simulation time: 0 hr 14 min 54 sec) 
Heartbeat CPU 0 instructions: 220000000 cycles: 404511989 heartbeat IPC: 0.344106 cumulative IPC: 0.356984 (Simulation time: 0 hr 15 min 50 sec) 
Heartbeat CPU 0 instructions: 230000000 cycles: 432006555 heartbeat IPC: 0.363708 cumulative IPC: 0.357493 (Simulation time: 0 hr 16 min 47 sec) 
Heartbeat CPU 0 instructions: 240000000 cycles: 457918504 heartbeat IPC: 0.385922 cumulative IPC: 0.359384 (Simulation time: 0 hr 17 min 41 sec) 
Heartbeat CPU 0 instructions: 250000000 cycles: 488023234 heartbeat IPC: 0.332174 cumulative IPC: 0.357432 (Simulation time: 0 hr 18 min 42 sec) 
Heartbeat CPU 0 instructions: 260000000 cycles: 515099656 heartbeat IPC: 0.369325 cumulative IPC: 0.358153 (Simulation time: 0 hr 19 min 39 sec) 
Heartbeat CPU 0 instructions: 270000003 cycles: 543482772 heartbeat IPC: 0.352322 cumulative IPC: 0.357804 (Simulation time: 0 hr 20 min 35 sec) 
Heartbeat CPU 0 instructions: 280000000 cycles: 571617447 heartbeat IPC: 0.355433 cumulative IPC: 0.357672 (Simulation time: 0 hr 21 min 34 sec) 
Heartbeat CPU 0 instructions: 290000000 cycles: 600454200 heartbeat IPC: 0.34678 cumulative IPC: 0.357082 (Simulation time: 0 hr 22 min 33 sec) 
Heartbeat CPU 0 instructions: 300000000 cycles: 630260825 heartbeat IPC: 0.335496 cumulative IPC: 0.355937 (Simulation time: 0 hr 23 min 30 sec) 
Heartbeat CPU 0 instructions: 310000001 cycles: 659594568 heartbeat IPC: 0.340904 cumulative IPC: 0.355191 (Simulation time: 0 hr 24 min 27 sec) 
Heartbeat CPU 0 instructions: 320000000 cycles: 687737709 heartbeat IPC: 0.355326 cumulative IPC: 0.355197 (Simulation time: 0 hr 25 min 22 sec) 
Heartbeat CPU 0 instructions: 330000000 cycles: 716320221 heartbeat IPC: 0.349864 cumulative IPC: 0.354962 (Simulation time: 0 hr 26 min 19 sec) 
Heartbeat CPU 0 instructions: 340000000 cycles: 745542261 heartbeat IPC: 0.342207 cumulative IPC: 0.354411 (Simulation time: 0 hr 27 min 16 sec) 
Heartbeat CPU 0 instructions: 350000003 cycles: 772533102 heartbeat IPC: 0.370496 cumulative IPC: 0.355028 (Simulation time: 0 hr 28 min 12 sec) 
Heartbeat CPU 0 instructions: 360000000 cycles: 800597062 heartbeat IPC: 0.356329 cumulative IPC: 0.355078 (Simulation time: 0 hr 29 min 6 sec) 
Heartbeat CPU 0 instructions: 370000000 cycles: 828767656 heartbeat IPC: 0.35498 cumulative IPC: 0.355074 (Simulation time: 0 hr 30 min 0 sec) 
Heartbeat CPU 0 instructions: 380000000 cycles: 857268477 heartbeat IPC: 0.350867 cumulative IPC: 0.354922 (Simulation time: 0 hr 30 min 54 sec) 
Heartbeat CPU 0 instructions: 390000001 cycles: 884871195 heartbeat IPC: 0.362283 cumulative IPC: 0.355171 (Simulation time: 0 hr 31 min 48 sec) 
Heartbeat CPU 0 instructions: 400000000 cycles: 913494705 heartbeat IPC: 0.349363 cumulative IPC: 0.354974 (Simulation time: 0 hr 32 min 44 sec) 
Heartbeat CPU 0 instructions: 410000001 cycles: 940793856 heartbeat IPC: 0.366312 cumulative IPC: 0.355329 (Simulation time: 0 hr 33 min 37 sec) 
Heartbeat CPU 0 instructions: 420000000 cycles: 968108174 heartbeat IPC: 0.366108 cumulative IPC: 0.355656 (Simulation time: 0 hr 34 min 31 sec) 
Heartbeat CPU 0 instructions: 430000002 cycles: 995785633 heartbeat IPC: 0.361305 cumulative IPC: 0.355825 (Simulation time: 0 hr 35 min 24 sec) 
Heartbeat CPU 0 instructions: 440000000 cycles: 1025264051 heartbeat IPC: 0.339231 cumulative IPC: 0.355314 (Simulation time: 0 hr 36 min 18 sec) 
Heartbeat CPU 0 instructions: 450000002 cycles: 1054483796 heartbeat IPC: 0.342234 cumulative IPC: 0.354926 (Simulation time: 0 hr 37 min 12 sec) 
Heartbeat CPU 0 instructions: 460000000 cycles: 1082166132 heartbeat IPC: 0.361241 cumulative IPC: 0.355099 (Simulation time: 0 hr 38 min 6 sec) 
Heartbeat CPU 0 instructions: 470000000 cycles: 1109790963 heartbeat IPC: 0.361993 cumulative IPC: 0.355281 (Simulation time: 0 hr 39 min 0 sec) 
Heartbeat CPU 0 instructions: 480000000 cycles: 1137667813 heartbeat IPC: 0.358721 cumulative IPC: 0.355371 (Simulation time: 0 hr 39 min 50 sec) 
Heartbeat CPU 0 instructions: 490000000 cycles: 1165256904 heartbeat IPC: 0.362462 cumulative IPC: 0.355549 (Simulation time: 0 hr 40 min 46 sec) 
Heartbeat CPU 0 instructions: 500000000 cycles: 1193527374 heartbeat IPC: 0.353726 cumulative IPC: 0.355504 (Simulation time: 0 hr 41 min 44 sec) 
Heartbeat CPU 0 instructions: 510000000 cycles: 1228680067 heartbeat IPC: 0.284473 cumulative IPC: 0.353352 (Simulation time: 0 hr 42 min 49 sec) 
Heartbeat CPU 0 instructions: 520000000 cycles: 1256614889 heartbeat IPC: 0.357976 cumulative IPC: 0.35346 (Simulation time: 0 hr 43 min 47 sec) 
Heartbeat CPU 0 instructions: 530000001 cycles: 1285892100 heartbeat IPC: 0.341563 cumulative IPC: 0.353174 (Simulation time: 0 hr 44 min 47 sec) 
Heartbeat CPU 0 instructions: 540000000 cycles: 1313883691 heartbeat IPC: 0.35725 cumulative IPC: 0.353266 (Simulation time: 0 hr 45 min 46 sec) 
Heartbeat CPU 0 instructions: 550000001 cycles: 1343060336 heartbeat IPC: 0.34274 cumulative IPC: 0.353025 (Simulation time: 0 hr 46 min 49 sec) 
Heartbeat CPU 0 instructions: 560000000 cycles: 1368415517 heartbeat IPC: 0.394397 cumulative IPC: 0.353832 (Simulation time: 0 hr 47 min 46 sec) 
Heartbeat CPU 0 instructions: 570000000 cycles: 1397830327 heartbeat IPC: 0.339965 cumulative IPC: 0.353525 (Simulation time: 0 hr 48 min 47 sec) 
Heartbeat CPU 0 instructions: 580000000 cycles: 1425725558 heartbeat IPC: 0.358484 cumulative IPC: 0.353627 (Simulation time: 0 hr 49 min 46 sec) 
Heartbeat CPU 0 instructions: 590000001 cycles: 1450455085 heartbeat IPC: 0.404375 cumulative IPC: 0.354535 (Simulation time: 0 hr 50 min 43 sec) 
Heartbeat CPU 0 instructions: 600000000 cycles: 1476510400 heartbeat IPC: 0.383799 cumulative IPC: 0.355076 (Simulation time: 0 hr 51 min 39 sec) 
Finished CPU 0 instructions: 500000000 cycles: 1408147460 cumulative IPC: 0.355076 (Simulation time: 0 hr 51 min 39 sec) 

CPU 0 Branch Prediction Accuracy: 86.4311% MPKI: 26.2662
Number of Branches: 96788573 Number of Mispredictions: 13133102
Number of LOAD Instructions: 164682285
Number of LOAD Instructions (ROI): 164682285
Number of STORE Instructions: 78194750
Number of STORE Instructions (ROI): 78194750
Total Destination Memory Operands: 83268534
Total Destination Memory Operands (ROI): 83268534
Total Source Memory Operands: 164712438
Total Source Memory Operands (ROI): 164712438
Number of DEPENDED LOADS: 7059745
Number of DEPENDED LOADS (ROI): 7059745
Number of SQ_ADDED: 83268522
Number of SQ_ADDED (ROI): 83268522
Number of LQ_ADDED: 236694302
Number of LQ_ADDED (ROI): 236694302
Number of Instructions read from trace: 600000066

ChampSim completed all CPUs

Region of Interest Statistics

CPU 0 cumulative IPC: 0.355076 instructions: 500000000 cycles: 1408147460
ITLB TOTAL     ACCESS:  100512119  HIT:  100307673  MISS:     204446
ITLB LOAD      ACCESS:  100512119  HIT:  100307673  MISS:     204446
ITLB RFO       ACCESS:          0  HIT:          0  MISS:          0
ITLB PREFETCH  ACCESS:          0  HIT:          0  MISS:          0
ITLB WRITEBACK ACCESS:          0  HIT:          0  MISS:          0
ITLB PREFETCH  REQUESTED:          0  ISSUED:          0  USEFUL:          0  USELESS:          0
ITLB TOTAL MSHR MERGED:     172424
ITLB LOAD MSHR MERGED:     172424
ITLB RFO MSHR MERGED:          0
ITLB PREFETCH MSHR MERGED:          0
ITLB WRITEBACK MSHR MERGED:          0
ITLB TOTAL ACCESSES:  100684543 HITS:  100307673 MISSES:     376870
ITLB LOAD ACCESSES:  100684543 HITS:  100307673 MISSES:     376870
ITLB RFO ACCESSES:          0 HITS:          0 MISSES:          0
ITLB PREFETCH ACCESSES:          0 HITS:          0 MISSES:          0
ITLB WRITEBACK ACCESSES:          0 HITS:          0 MISSES:          0
ITLB RQ ACCESS:  500000057
ITLB RQ TO_CACHE:  100684543
ITLB RQ MERGED:  399315514
ITLB RQ FORWARD:          0
ITLB WQ ACCESS:          0
ITLB WQ TO_CACHE:          0
ITLB WQ MERGED:          0
ITLB WQ FORWARD:          0
DTLB TOTAL     ACCESS:  165336235  HIT:  164701886  MISS:     634349
DTLB LOAD      ACCESS:  106292000  HIT:  105722025  MISS:     569975
DTLB RFO       ACCESS:   59044235  HIT:   58979861  MISS:      64374
DTLB PREFETCH  ACCESS:          0  HIT:          0  MISS:          0
DTLB WRITEBACK ACCESS:          0  HIT:          0  MISS:          0
DTLB PREFETCH  REQUESTED:          0  ISSUED:          0  USEFUL:          0  USELESS:          0
DTLB TOTAL MSHR MERGED:     100005
DTLB LOAD MSHR MERGED:      59473
DTLB RFO MSHR MERGED:      40532
DTLB PREFETCH MSHR MERGED:          0
DTLB WRITEBACK MSHR MERGED:          0
DTLB TOTAL ACCESSES:  165436240 HITS:  164701886 MISSES:     734354
DTLB LOAD ACCESSES:  106351473 HITS:  105722025 MISSES:     629448
DTLB RFO ACCESSES:   59084767 HITS:   58979861 MISSES:     104906
DTLB PREFETCH ACCESSES:          0 HITS:          0 MISSES:          0
DTLB WRITEBACK ACCESSES:          0 HITS:          0 MISSES:          0
DTLB RQ ACCESS:  200311144
DTLB RQ TO_CACHE:  165436240
DTLB RQ MERGED:   34874904
DTLB RQ FORWARD:          0
DTLB WQ ACCESS:          0
DTLB WQ TO_CACHE:          0
DTLB WQ MERGED:          0
DTLB WQ FORWARD:          0
L1D TOTAL     ACCESS:  281826901  HIT:  273917587  MISS:    7909314
L1D LOAD      ACCESS:  110416461  HIT:  107138569  MISS:    3277892
L1D RFO       ACCESS:   67114873  HIT:   66224189  MISS:     890684
L1D PREFETCH  ACCESS:  104295567  HIT:  100554829  MISS:    3740738
L1D WRITEBACK ACCESS:          0  HIT:          0  MISS:          0
L1D PREFETCH  REQUESTED:  110816405  ISSUED:  109117109  USEFUL:    1661482  USELESS:    2079220
L1D TOTAL MSHR MERGED:    2875965
L1D LOAD MSHR MERGED:     497293
L1D RFO MSHR MERGED:    1871170
L1D PREFETCH MSHR MERGED:     507502
L1D WRITEBACK MSHR MERGED:          0
L1D TOTAL ACCESSES:  284730304 HITS:  273945025 MISSES:   10785279
L1D LOAD ACCESSES:  110817845 HITS:  107140009 MISSES:    3677836
L1D RFO ACCESSES:   68974154 HITS:   66224189 MISSES:    2749965
L1D PREFETCH ACCESSES:  104938305 HITS:  100580827 MISSES:    4357478
L1D WRITEBACK ACCESSES:          0 HITS:          0 MISSES:          0
L1D RQ ACCESS:  130758541
L1D RQ TO_CACHE:  110816408
L1D RQ MERGED:   19940693
L1D RQ FORWARD:          0
L1D WQ ACCESS:   69552603
L1D WQ TO_CACHE:   68974155
L1D WQ MERGED:     578448
L1D WQ FORWARD:      27438
L1I TOTAL     ACCESS:  126559819  HIT:  122321265  MISS:    4238554
L1I LOAD      ACCESS:  126559819  HIT:  122321265  MISS:    4238554
L1I RFO       ACCESS:          0  HIT:          0  MISS:          0
L1I PREFETCH  ACCESS:          0  HIT:          0  MISS:          0
L1I WRITEBACK ACCESS:          0  HIT:          0  MISS:          0
L1I PREFETCH  REQUESTED:          0  ISSUED:          0  USEFUL:          0  USELESS:          0
L1I TOTAL MSHR MERGED:    1834507
L1I LOAD MSHR MERGED:    1834507
L1I RFO MSHR MERGED:          0
L1I PREFETCH MSHR MERGED:          0
L1I WRITEBACK MSHR MERGED:          0
L1I TOTAL ACCESSES:  128394329 HITS:  122321265 MISSES:    6073064
L1I LOAD ACCESSES:  128394329 HITS:  122321265 MISSES:    6073064
L1I RFO ACCESSES:          0 HITS:          0 MISSES:          0
L1I PREFETCH ACCESSES:          0 HITS:          0 MISSES:          0
L1I WRITEBACK ACCESSES:          0 HITS:          0 MISSES:          0
L1I RQ ACCESS:  500000057
L1I RQ TO_CACHE:  128394329
L1I RQ MERGED:  371605728
L1I RQ FORWARD:          0
L1I WQ ACCESS:          0
L1I WQ TO_CACHE:          0
L1I WQ MERGED:          0
L1I WQ FORWARD:          0
L2C TOTAL     ACCESS:   14905143  HIT:   11158660  MISS:    3746483
L2C LOAD      ACCESS:    7418889  HIT:    5098891  MISS:    2319998
L2C RFO       ACCESS:     878698  HIT:     409901  MISS:     468797
L2C PREFETCH  ACCESS:    4568321  HIT:    3627888  MISS:     940433
L2C WRITEBACK ACCESS:    2039235  HIT:    2021980  MISS:      17255
L2C PREFETCH  REQUESTED:     842733  ISSUED:     842733  USEFUL:     203383  USELESS:     736756
L2C TOTAL MSHR MERGED:       7132
L2C LOAD MSHR MERGED:        796
L2C RFO MSHR MERGED:          0
L2C PREFETCH MSHR MERGED:       6336
L2C WRITEBACK MSHR MERGED:          0
L2C TOTAL ACCESSES:   14913133 HITS:   11159108 MISSES:    3754025
L2C LOAD ACCESSES:    7419097 HITS:    5099099 MISSES:    2319998
L2C RFO ACCESSES:     878795 HITS:     409998 MISSES:     468797
L2C PREFETCH ACCESSES:    4576006 HITS:    3628031 MISSES:     947975
L2C WRITEBACK ACCESSES:    2039235 HITS:    2021980 MISSES:      17255
L2C RQ ACCESS:    8297895
L2C RQ TO_CACHE:    8297590
L2C RQ MERGED:          0
L2C RQ FORWARD:          0
L2C WQ ACCESS:    2039235
L2C WQ TO_CACHE:    2039235
L2C WQ MERGED:          0
L2C WQ FORWARD:        448
LLC TOTAL     ACCESS:    4609788  HIT:    3967339  MISS:     642449
LLC LOAD      ACCESS:    2319189  HIT:    2091338  MISS:     227851
LLC RFO       ACCESS:     468787  HIT:     399475  MISS:      69312
LLC PREFETCH  ACCESS:     941526  HIT:     649226  MISS:     292300
LLC WRITEBACK ACCESS:     880286  HIT:     827300  MISS:      52986
LLC PREFETCH  REQUESTED:          0  ISSUED:          0  USEFUL:      15299  USELESS:     277517
LLC TOTAL MSHR MERGED:         95
LLC LOAD MSHR MERGED:         35
LLC RFO MSHR MERGED:          0
LLC PREFETCH MSHR MERGED:         60
LLC WRITEBACK MSHR MERGED:          0
LLC TOTAL ACCESSES:    4609917 HITS:    3967373 MISSES:     642544
LLC LOAD ACCESSES:    2319202 HITS:    2091351 MISSES:     227851
LLC RFO ACCESSES:     468797 HITS:     399485 MISSES:      69312
LLC PREFETCH ACCESSES:     941632 HITS:     649237 MISSES:     292395
LLC WRITEBACK ACCESSES:     880286 HITS:     827300 MISSES:      52986
LLC 0 RQ ACCESS:    2787999
LLC 0 RQ TO_CACHE:    2787976
LLC 0 RQ MERGED:          0
LLC 0 RQ FORWARD:          0
LLC WQ ACCESS:     880286
LLC WQ TO_CACHE:     880286
LLC WQ MERGED:          0
LLC WQ FORWARD:         34
Major fault: 0 Minor fault: 12862
CPU 0 L1D next line prefetcher final stats
CPU 0 L2C PC-based stride prefetcher final stats
All Misses: 759000
All Hits: 4667794
SD Algo Stats - Switches: 0 SRR-Repls: 267777 BRR-Repls: 0

DRAM Statistics
 CHANNEL 0
 RQ ROW_BUFFER_HIT:     113374  ROW_BUFFER_MISS:     475134
 DBUS_CONGESTED:     372861
 WQ ROW_BUFFER_HIT:      16631  ROW_BUFFER_MISS:     193877  FULL:          0

 AVG_CONGESTED_CYCLE: 13
LOADS RETIRED: 136549171
INSTR RETIRED: 500000000
