
*** ChampSim Multicore Out-of-Order Simulator ***

Warmup Instructions: 100000000
Simulation Instructions: 500000000
Number of CPUs: 1
LLC sets: 2048
LLC ways: 16
Clean RRIP Policies: 323002303230023 Dirty RRIP Policies: 2323202323232023 PSEL Width: 10 Track Set: 4294967295 PSEL Mask: 1 Demote Mask: 2313142123131421DS Algo: 0Window size: 0
Off-chip DRAM Size: 4096 MB Channels: 1 Width: 64-bit Data Rate: 1600 MT/s

CPU 0 runs /mnt/beegfs/iconst01/spec2017/Gcc.trace.gz
NOT SORTED
TRACE STRING: /mnt/beegfs/iconst01/spec2017/Gcc.trace.gz
SORTED
TRACE STRING: /mnt/beegfs/iconst01/spec2017/Gcc.trace.gz
INITIAL
TRACE STRING: /mnt/beegfs/iconst01/spec2017/Gcc.trace.gz

champsim_seed used: 269

CPU 0 L1D next line prefetcher
CPU 0 L2C IP-based stride prefetcher
Initialize DRRIP state
Assign rand_sets[0]: 454  LLC: 2048
rand_sets[0]: 454
Assign rand_sets[1]: 1662  LLC: 2048
rand_sets[1]: 1662
Assign rand_sets[2]: 1921  LLC: 2048
rand_sets[2]: 1921
Assign rand_sets[3]: 1131  LLC: 2048
rand_sets[3]: 1131
Assign rand_sets[4]: 331  LLC: 2048
rand_sets[4]: 331
Assign rand_sets[5]: 1531  LLC: 2048
rand_sets[5]: 1531
Assign rand_sets[6]: 482  LLC: 2048
rand_sets[6]: 482
Assign rand_sets[7]: 1275  LLC: 2048
rand_sets[7]: 1275
Assign rand_sets[8]: 1876  LLC: 2048
rand_sets[8]: 1876
Assign rand_sets[9]: 2038  LLC: 2048
rand_sets[9]: 2038
Assign rand_sets[10]: 701  LLC: 2048
rand_sets[10]: 701
Assign rand_sets[11]: 479  LLC: 2048
rand_sets[11]: 479
Assign rand_sets[12]: 892  LLC: 2048
rand_sets[12]: 892
Assign rand_sets[13]: 1820  LLC: 2048
rand_sets[13]: 1820
Assign rand_sets[14]: 1505  LLC: 2048
rand_sets[14]: 1505
Assign rand_sets[15]: 1159  LLC: 2048
rand_sets[15]: 1159
Assign rand_sets[16]: 513  LLC: 2048
rand_sets[16]: 513
Assign rand_sets[17]: 703  LLC: 2048
rand_sets[17]: 703
Assign rand_sets[18]: 561  LLC: 2048
rand_sets[18]: 561
Assign rand_sets[19]: 990  LLC: 2048
rand_sets[19]: 990
Assign rand_sets[20]: 342  LLC: 2048
rand_sets[20]: 342
Assign rand_sets[21]: 882  LLC: 2048
rand_sets[21]: 882
Assign rand_sets[22]: 15  LLC: 2048
rand_sets[22]: 15
Assign rand_sets[23]: 71  LLC: 2048
rand_sets[23]: 71
Assign rand_sets[24]: 1127  LLC: 2048
rand_sets[24]: 1127
Assign rand_sets[25]: 1382  LLC: 2048
rand_sets[25]: 1382
Assign rand_sets[26]: 647  LLC: 2048
rand_sets[26]: 647
Assign rand_sets[27]: 857  LLC: 2048
rand_sets[27]: 857
Assign rand_sets[28]: 1450  LLC: 2048
rand_sets[28]: 1450
Assign rand_sets[29]: 1160  LLC: 2048
rand_sets[29]: 1160
Assign rand_sets[30]: 1852  LLC: 2048
rand_sets[30]: 1852
Assign rand_sets[31]: 1881  LLC: 2048
rand_sets[31]: 1881
Assign rand_sets[32]: 1770  LLC: 2048
rand_sets[32]: 1770
Assign rand_sets[33]: 1622  LLC: 2048
rand_sets[33]: 1622
Assign rand_sets[34]: 275  LLC: 2048
rand_sets[34]: 275
Assign rand_sets[35]: 635  LLC: 2048
rand_sets[35]: 635
Assign rand_sets[36]: 466  LLC: 2048
rand_sets[36]: 466
Assign rand_sets[37]: 1413  LLC: 2048
rand_sets[37]: 1413
Assign rand_sets[38]: 417  LLC: 2048
rand_sets[38]: 417
Assign rand_sets[39]: 472  LLC: 2048
rand_sets[39]: 472
Assign rand_sets[40]: 1340  LLC: 2048
rand_sets[40]: 1340
Assign rand_sets[41]: 852  LLC: 2048
rand_sets[41]: 852
Assign rand_sets[42]: 1365  LLC: 2048
rand_sets[42]: 1365
Assign rand_sets[43]: 47  LLC: 2048
rand_sets[43]: 47
Assign rand_sets[44]: 823  LLC: 2048
rand_sets[44]: 823
Assign rand_sets[45]: 686  LLC: 2048
rand_sets[45]: 686
Assign rand_sets[46]: 1637  LLC: 2048
rand_sets[46]: 1637
Assign rand_sets[47]: 1115  LLC: 2048
rand_sets[47]: 1115
Assign rand_sets[48]: 986  LLC: 2048
rand_sets[48]: 986
Assign rand_sets[49]: 258  LLC: 2048
rand_sets[49]: 258
Assign rand_sets[50]: 633  LLC: 2048
rand_sets[50]: 633
Assign rand_sets[51]: 920  LLC: 2048
rand_sets[51]: 920
Assign rand_sets[52]: 204  LLC: 2048
rand_sets[52]: 204
Assign rand_sets[53]: 227  LLC: 2048
rand_sets[53]: 227
Assign rand_sets[54]: 1818  LLC: 2048
rand_sets[54]: 1818
Assign rand_sets[55]: 886  LLC: 2048
rand_sets[55]: 886
Assign rand_sets[56]: 1422  LLC: 2048
rand_sets[56]: 1422
Assign rand_sets[57]: 607  LLC: 2048
rand_sets[57]: 607
Assign rand_sets[58]: 217  LLC: 2048
rand_sets[58]: 217
Assign rand_sets[59]: 1945  LLC: 2048
rand_sets[59]: 1945
Assign rand_sets[60]: 143  LLC: 2048
rand_sets[60]: 143
Assign rand_sets[61]: 1311  LLC: 2048
rand_sets[61]: 1311
Assign rand_sets[62]: 319  LLC: 2048
rand_sets[62]: 319
Assign rand_sets[63]: 1846  LLC: 2048
rand_sets[63]: 1846
 CLEAN-RRIP-POLICY-1: 0-3-2-3-0-0-2-3- CLEAN-RRIP-POLICY-2: 0-3-2-3-0-0-2-3-
 DIRTY-RRIP-POLICY-1: 2-3-2-3-2-0-2-3- DIRTY-RRIP-POLICY-2: 2-3-2-3-2-0-2-3-
 PSEL width: 10
Heartbeat CPU 0 instructions: 10000001 cycles: 7321625 heartbeat IPC: 1.36582 cumulative IPC: 1.36582 (Simulation time: 0 hr 0 min 15 sec) 
Heartbeat CPU 0 instructions: 20000000 cycles: 14328006 heartbeat IPC: 1.42727 cumulative IPC: 1.39587 (Simulation time: 0 hr 0 min 30 sec) 
Heartbeat CPU 0 instructions: 30000001 cycles: 21045401 heartbeat IPC: 1.48867 cumulative IPC: 1.42549 (Simulation time: 0 hr 0 min 46 sec) 
Heartbeat CPU 0 instructions: 40000000 cycles: 27507828 heartbeat IPC: 1.54741 cumulative IPC: 1.45413 (Simulation time: 0 hr 1 min 2 sec) 
Heartbeat CPU 0 instructions: 50000001 cycles: 33610823 heartbeat IPC: 1.63854 cumulative IPC: 1.48762 (Simulation time: 0 hr 1 min 17 sec) 
Heartbeat CPU 0 instructions: 60000000 cycles: 40093265 heartbeat IPC: 1.54263 cumulative IPC: 1.49651 (Simulation time: 0 hr 1 min 33 sec) 
Heartbeat CPU 0 instructions: 70000000 cycles: 47136821 heartbeat IPC: 1.41974 cumulative IPC: 1.48504 (Simulation time: 0 hr 1 min 48 sec) 
Heartbeat CPU 0 instructions: 80000000 cycles: 54232858 heartbeat IPC: 1.40924 cumulative IPC: 1.47512 (Simulation time: 0 hr 2 min 3 sec) 
Heartbeat CPU 0 instructions: 90000003 cycles: 61243809 heartbeat IPC: 1.42634 cumulative IPC: 1.46954 (Simulation time: 0 hr 2 min 17 sec) 
Heartbeat CPU 0 instructions: 100000000 cycles: 68417689 heartbeat IPC: 1.39395 cumulative IPC: 1.46161 (Simulation time: 0 hr 2 min 32 sec) 

Warmup complete CPU 0 instructions: 100000004 cycles: 68417690 (Simulation time: 0 hr 2 min 32 sec) 

Heartbeat CPU 0 instructions: 110000003 cycles: 97178378 heartbeat IPC: 0.347697 cumulative IPC: 0.347697 (Simulation time: 0 hr 3 min 1 sec) 
Heartbeat CPU 0 instructions: 120000000 cycles: 125180318 heartbeat IPC: 0.357118 cumulative IPC: 0.352344 (Simulation time: 0 hr 3 min 30 sec) 
Heartbeat CPU 0 instructions: 130000000 cycles: 150624130 heartbeat IPC: 0.393023 cumulative IPC: 0.364935 (Simulation time: 0 hr 3 min 59 sec) 
Heartbeat CPU 0 instructions: 140000000 cycles: 182125425 heartbeat IPC: 0.317447 cumulative IPC: 0.351779 (Simulation time: 0 hr 4 min 28 sec) 
Heartbeat CPU 0 instructions: 150000000 cycles: 213446230 heartbeat IPC: 0.319277 cumulative IPC: 0.34476 (Simulation time: 0 hr 4 min 57 sec) 
Heartbeat CPU 0 instructions: 160000000 cycles: 241453600 heartbeat IPC: 0.357049 cumulative IPC: 0.346749 (Simulation time: 0 hr 5 min 26 sec) 
Heartbeat CPU 0 instructions: 170000001 cycles: 270186229 heartbeat IPC: 0.348036 cumulative IPC: 0.346932 (Simulation time: 0 hr 5 min 56 sec) 
Heartbeat CPU 0 instructions: 180000000 cycles: 299391717 heartbeat IPC: 0.342401 cumulative IPC: 0.346359 (Simulation time: 0 hr 6 min 26 sec) 
Heartbeat CPU 0 instructions: 190000002 cycles: 328240901 heartbeat IPC: 0.34663 cumulative IPC: 0.346389 (Simulation time: 0 hr 6 min 55 sec) 
Heartbeat CPU 0 instructions: 200000000 cycles: 357418078 heartbeat IPC: 0.342734 cumulative IPC: 0.34602 (Simulation time: 0 hr 7 min 25 sec) 
Heartbeat CPU 0 instructions: 210000002 cycles: 386116070 heartbeat IPC: 0.348457 cumulative IPC: 0.34624 (Simulation time: 0 hr 7 min 54 sec) 
Heartbeat CPU 0 instructions: 220000000 cycles: 417137594 heartbeat IPC: 0.322357 cumulative IPC: 0.344116 (Simulation time: 0 hr 8 min 23 sec) 
Heartbeat CPU 0 instructions: 230000000 cycles: 445791470 heartbeat IPC: 0.348993 cumulative IPC: 0.344486 (Simulation time: 0 hr 8 min 51 sec) 
Heartbeat CPU 0 instructions: 240000000 cycles: 472756150 heartbeat IPC: 0.370856 cumulative IPC: 0.346245 (Simulation time: 0 hr 9 min 19 sec) 
Heartbeat CPU 0 instructions: 250000000 cycles: 503570002 heartbeat IPC: 0.324529 cumulative IPC: 0.344707 (Simulation time: 0 hr 9 min 50 sec) 
Heartbeat CPU 0 instructions: 260000000 cycles: 531212845 heartbeat IPC: 0.361757 cumulative IPC: 0.345725 (Simulation time: 0 hr 10 min 18 sec) 
Heartbeat CPU 0 instructions: 270000003 cycles: 560366721 heartbeat IPC: 0.343008 cumulative IPC: 0.345564 (Simulation time: 0 hr 10 min 49 sec) 
Heartbeat CPU 0 instructions: 280000000 cycles: 589266253 heartbeat IPC: 0.346026 cumulative IPC: 0.34559 (Simulation time: 0 hr 11 min 19 sec) 
Heartbeat CPU 0 instructions: 290000000 cycles: 618892597 heartbeat IPC: 0.337537 cumulative IPC: 0.345157 (Simulation time: 0 hr 11 min 49 sec) 
Heartbeat CPU 0 instructions: 300000000 cycles: 650414353 heartbeat IPC: 0.317241 cumulative IPC: 0.343645 (Simulation time: 0 hr 12 min 18 sec) 
Heartbeat CPU 0 instructions: 310000001 cycles: 681044082 heartbeat IPC: 0.32648 cumulative IPC: 0.342786 (Simulation time: 0 hr 12 min 47 sec) 
Heartbeat CPU 0 instructions: 320000000 cycles: 710664725 heartbeat IPC: 0.337602 cumulative IPC: 0.342547 (Simulation time: 0 hr 13 min 16 sec) 
Heartbeat CPU 0 instructions: 330000000 cycles: 740323848 heartbeat IPC: 0.337164 cumulative IPC: 0.34231 (Simulation time: 0 hr 13 min 45 sec) 
Heartbeat CPU 0 instructions: 340000000 cycles: 770810375 heartbeat IPC: 0.328014 cumulative IPC: 0.341689 (Simulation time: 0 hr 14 min 15 sec) 
Heartbeat CPU 0 instructions: 350000003 cycles: 798575169 heartbeat IPC: 0.360168 cumulative IPC: 0.342392 (Simulation time: 0 hr 14 min 43 sec) 
Heartbeat CPU 0 instructions: 360000000 cycles: 829855082 heartbeat IPC: 0.319694 cumulative IPC: 0.341459 (Simulation time: 0 hr 15 min 12 sec) 
Heartbeat CPU 0 instructions: 370000000 cycles: 861312937 heartbeat IPC: 0.317886 cumulative IPC: 0.340524 (Simulation time: 0 hr 15 min 41 sec) 
Heartbeat CPU 0 instructions: 380000000 cycles: 893256456 heartbeat IPC: 0.313053 cumulative IPC: 0.33946 (Simulation time: 0 hr 16 min 10 sec) 
Heartbeat CPU 0 instructions: 390000001 cycles: 924231166 heartbeat IPC: 0.322844 cumulative IPC: 0.338859 (Simulation time: 0 hr 16 min 38 sec) 
Heartbeat CPU 0 instructions: 400000000 cycles: 956069095 heartbeat IPC: 0.314091 cumulative IPC: 0.33797 (Simulation time: 0 hr 17 min 7 sec) 
Heartbeat CPU 0 instructions: 410000001 cycles: 986742635 heartbeat IPC: 0.326014 cumulative IPC: 0.337571 (Simulation time: 0 hr 17 min 36 sec) 
Heartbeat CPU 0 instructions: 420000000 cycles: 1017491324 heartbeat IPC: 0.325217 cumulative IPC: 0.337171 (Simulation time: 0 hr 18 min 5 sec) 
Heartbeat CPU 0 instructions: 430000002 cycles: 1048622524 heartbeat IPC: 0.321221 cumulative IPC: 0.336664 (Simulation time: 0 hr 18 min 33 sec) 
Heartbeat CPU 0 instructions: 440000000 cycles: 1080869831 heartbeat IPC: 0.310103 cumulative IPC: 0.335818 (Simulation time: 0 hr 19 min 2 sec) 
Heartbeat CPU 0 instructions: 450000002 cycles: 1113018806 heartbeat IPC: 0.311052 cumulative IPC: 0.335056 (Simulation time: 0 hr 19 min 30 sec) 
Heartbeat CPU 0 instructions: 460000000 cycles: 1144025032 heartbeat IPC: 0.322516 cumulative IPC: 0.334695 (Simulation time: 0 hr 19 min 59 sec) 
Heartbeat CPU 0 instructions: 470000000 cycles: 1174589961 heartbeat IPC: 0.327172 cumulative IPC: 0.334487 (Simulation time: 0 hr 20 min 27 sec) 
Heartbeat CPU 0 instructions: 480000000 cycles: 1205371856 heartbeat IPC: 0.324866 cumulative IPC: 0.334226 (Simulation time: 0 hr 20 min 55 sec) 
Heartbeat CPU 0 instructions: 490000000 cycles: 1235941022 heartbeat IPC: 0.327127 cumulative IPC: 0.33404 (Simulation time: 0 hr 21 min 23 sec) 
Heartbeat CPU 0 instructions: 500000000 cycles: 1266920912 heartbeat IPC: 0.32279 cumulative IPC: 0.33375 (Simulation time: 0 hr 21 min 51 sec) 
Heartbeat CPU 0 instructions: 510000000 cycles: 1302655892 heartbeat IPC: 0.279838 cumulative IPC: 0.332189 (Simulation time: 0 hr 22 min 22 sec) 
Heartbeat CPU 0 instructions: 520000000 cycles: 1331111654 heartbeat IPC: 0.351423 cumulative IPC: 0.332622 (Simulation time: 0 hr 22 min 50 sec) 
Heartbeat CPU 0 instructions: 530000001 cycles: 1362043376 heartbeat IPC: 0.323293 cumulative IPC: 0.332399 (Simulation time: 0 hr 23 min 19 sec) 
Heartbeat CPU 0 instructions: 540000000 cycles: 1391454818 heartbeat IPC: 0.340004 cumulative IPC: 0.332568 (Simulation time: 0 hr 23 min 47 sec) 
Heartbeat CPU 0 instructions: 550000001 cycles: 1421180197 heartbeat IPC: 0.336413 cumulative IPC: 0.332653 (Simulation time: 0 hr 24 min 17 sec) 
Heartbeat CPU 0 instructions: 560000000 cycles: 1447126482 heartbeat IPC: 0.385412 cumulative IPC: 0.333646 (Simulation time: 0 hr 24 min 45 sec) 
Heartbeat CPU 0 instructions: 570000000 cycles: 1477945547 heartbeat IPC: 0.324474 cumulative IPC: 0.333445 (Simulation time: 0 hr 25 min 14 sec) 
Heartbeat CPU 0 instructions: 580000000 cycles: 1507200459 heartbeat IPC: 0.341823 cumulative IPC: 0.333615 (Simulation time: 0 hr 25 min 43 sec) 
Heartbeat CPU 0 instructions: 590000001 cycles: 1532945526 heartbeat IPC: 0.388424 cumulative IPC: 0.334579 (Simulation time: 0 hr 26 min 10 sec) 
Heartbeat CPU 0 instructions: 600000000 cycles: 1561017803 heartbeat IPC: 0.356223 cumulative IPC: 0.334986 (Simulation time: 0 hr 26 min 38 sec) 
Finished CPU 0 instructions: 500000000 cycles: 1492600135 cumulative IPC: 0.334986 (Simulation time: 0 hr 26 min 38 sec) 

CPU 0 Branch Prediction Accuracy: 86.4311% MPKI: 26.2662
Number of Branches: 96788573 Number of Mispredictions: 13133102
Number of LOAD Instructions: 164682285
Number of LOAD Instructions (ROI): 164682285
Number of STORE Instructions: 78194750
Number of STORE Instructions (ROI): 78194750
Total Destination Memory Operands: 83268534
Total Destination Memory Operands (ROI): 83268534
Total Source Memory Operands: 164712438
Total Source Memory Operands (ROI): 164712438
Number of DEPENDED LOADS: 7059338
Number of DEPENDED LOADS (ROI): 7059338
Number of SQ_ADDED: 83268522
Number of SQ_ADDED (ROI): 83268522
Number of LQ_ADDED: 236791364
Number of LQ_ADDED (ROI): 236791364
Number of Instructions read from trace: 600000066

ChampSim completed all CPUs

Region of Interest Statistics

CPU 0 cumulative IPC: 0.334986 instructions: 500000000 cycles: 1492600135
ITLB TOTAL     ACCESS:  100530645  HIT:  100326199  MISS:     204446
ITLB LOAD      ACCESS:  100530645  HIT:  100326199  MISS:     204446
ITLB RFO       ACCESS:          0  HIT:          0  MISS:          0
ITLB PREFETCH  ACCESS:          0  HIT:          0  MISS:          0
ITLB WRITEBACK ACCESS:          0  HIT:          0  MISS:          0
ITLB PREFETCH  REQUESTED:          0  ISSUED:          0  USEFUL:          0  USELESS:          0
ITLB TOTAL MSHR MERGED:     172424
ITLB LOAD MSHR MERGED:     172424
ITLB RFO MSHR MERGED:          0
ITLB PREFETCH MSHR MERGED:          0
ITLB WRITEBACK MSHR MERGED:          0
ITLB TOTAL ACCESSES:  100703069 HITS:  100326199 MISSES:     376870
ITLB LOAD ACCESSES:  100703069 HITS:  100326199 MISSES:     376870
ITLB RFO ACCESSES:          0 HITS:          0 MISSES:          0
ITLB PREFETCH ACCESSES:          0 HITS:          0 MISSES:          0
ITLB WRITEBACK ACCESSES:          0 HITS:          0 MISSES:          0
ITLB RQ ACCESS:  500000057
ITLB RQ TO_CACHE:  100703069
ITLB RQ MERGED:  399296988
ITLB RQ FORWARD:          0
ITLB WQ ACCESS:          0
ITLB WQ TO_CACHE:          0
ITLB WQ MERGED:          0
ITLB WQ FORWARD:          0
DTLB TOTAL     ACCESS:  165355393  HIT:  164721043  MISS:     634350
DTLB LOAD      ACCESS:  106302281  HIT:  105732257  MISS:     570024
DTLB RFO       ACCESS:   59053112  HIT:   58988786  MISS:      64326
DTLB PREFETCH  ACCESS:          0  HIT:          0  MISS:          0
DTLB WRITEBACK ACCESS:          0  HIT:          0  MISS:          0
DTLB PREFETCH  REQUESTED:          0  ISSUED:          0  USEFUL:          0  USELESS:          0
DTLB TOTAL MSHR MERGED:      99606
DTLB LOAD MSHR MERGED:      59314
DTLB RFO MSHR MERGED:      40292
DTLB PREFETCH MSHR MERGED:          0
DTLB WRITEBACK MSHR MERGED:          0
DTLB TOTAL ACCESSES:  165454999 HITS:  164721043 MISSES:     733956
DTLB LOAD ACCESSES:  106361595 HITS:  105732257 MISSES:     629338
DTLB RFO ACCESSES:   59093404 HITS:   58988786 MISSES:     104618
DTLB PREFETCH ACCESSES:          0 HITS:          0 MISSES:          0
DTLB WRITEBACK ACCESSES:          0 HITS:          0 MISSES:          0
DTLB RQ ACCESS:  200311569
DTLB RQ TO_CACHE:  165454999
DTLB RQ MERGED:   34856570
DTLB RQ FORWARD:          0
DTLB WQ ACCESS:          0
DTLB WQ TO_CACHE:          0
DTLB WQ MERGED:          0
DTLB WQ FORWARD:          0
L1D TOTAL     ACCESS:  281864409  HIT:  273955052  MISS:    7909357
L1D LOAD      ACCESS:  110430523  HIT:  107149011  MISS:    3281512
L1D RFO       ACCESS:   67135808  HIT:   66245589  MISS:     890219
L1D PREFETCH  ACCESS:  104298078  HIT:  100560452  MISS:    3737626
L1D WRITEBACK ACCESS:          0  HIT:          0  MISS:          0
L1D PREFETCH  REQUESTED:  110834657  ISSUED:  109135296  USEFUL:    1658189  USELESS:    2079401
L1D TOTAL MSHR MERGED:    2882930
L1D LOAD MSHR MERGED:     505661
L1D RFO MSHR MERGED:    1849094
L1D PREFETCH MSHR MERGED:     528175
L1D WRITEBACK MSHR MERGED:          0
L1D TOTAL ACCESSES:  284774830 HITS:  273982543 MISSES:   10792287
L1D LOAD ACCESSES:  110836132 HITS:  107150486 MISSES:    3685646
L1D RFO ACCESSES:   68973409 HITS:   66245589 MISSES:    2727820
L1D PREFETCH ACCESSES:  104965289 HITS:  100586468 MISSES:    4378821
L1D WRITEBACK ACCESSES:          0 HITS:          0 MISSES:          0
L1D RQ ACCESS:  130758966
L1D RQ TO_CACHE:  110834660
L1D RQ MERGED:   19922831
L1D RQ FORWARD:          0
L1D WQ ACCESS:   69552603
L1D WQ TO_CACHE:   68973410
L1D WQ MERGED:     579193
L1D WQ FORWARD:      27491
L1I TOTAL     ACCESS:  126572571  HIT:  122334055  MISS:    4238516
L1I LOAD      ACCESS:  126572571  HIT:  122334055  MISS:    4238516
L1I RFO       ACCESS:          0  HIT:          0  MISS:          0
L1I PREFETCH  ACCESS:          0  HIT:          0  MISS:          0
L1I WRITEBACK ACCESS:          0  HIT:          0  MISS:          0
L1I PREFETCH  REQUESTED:          0  ISSUED:          0  USEFUL:          0  USELESS:          0
L1I TOTAL MSHR MERGED:    1840275
L1I LOAD MSHR MERGED:    1840275
L1I RFO MSHR MERGED:          0
L1I PREFETCH MSHR MERGED:          0
L1I WRITEBACK MSHR MERGED:          0
L1I TOTAL ACCESSES:  128412849 HITS:  122334055 MISSES:    6078794
L1I LOAD ACCESSES:  128412849 HITS:  122334055 MISSES:    6078794
L1I RFO ACCESSES:          0 HITS:          0 MISSES:          0
L1I PREFETCH ACCESSES:          0 HITS:          0 MISSES:          0
L1I WRITEBACK ACCESSES:          0 HITS:          0 MISSES:          0
L1I RQ ACCESS:  500000057
L1I RQ TO_CACHE:  128412849
L1I RQ MERGED:  371587208
L1I RQ FORWARD:          0
L1I WQ ACCESS:          0
L1I WQ TO_CACHE:          0
L1I WQ MERGED:          0
L1I WQ FORWARD:          0
L2C TOTAL     ACCESS:   14904965  HIT:   11158529  MISS:    3746436
L2C LOAD      ACCESS:    7418293  HIT:    5098453  MISS:    2319840
L2C RFO       ACCESS:     878632  HIT:     409962  MISS:     468670
L2C PREFETCH  ACCESS:    4568801  HIT:    3628139  MISS:     940662
L2C WRITEBACK ACCESS:    2039239  HIT:    2021975  MISS:      17264
L2C PREFETCH  REQUESTED:     842589  ISSUED:     842589  USEFUL:     203390  USELESS:     736976
L2C TOTAL MSHR MERGED:       7150
L2C LOAD MSHR MERGED:        838
L2C RFO MSHR MERGED:          0
L2C PREFETCH MSHR MERGED:       6312
L2C WRITEBACK MSHR MERGED:          0
L2C TOTAL ACCESSES:   14913055 HITS:   11158973 MISSES:    3754082
L2C LOAD ACCESSES:    7418501 HITS:    5098661 MISSES:    2319840
L2C RFO ACCESSES:     878726 HITS:     410056 MISSES:     468670
L2C PREFETCH ACCESSES:    4576589 HITS:    3628281 MISSES:     948308
L2C WRITEBACK ACCESSES:    2039239 HITS:    2021975 MISSES:      17264
L2C RQ ACCESS:    8297230
L2C RQ TO_CACHE:    8296928
L2C RQ MERGED:          0
L2C RQ FORWARD:          0
L2C WQ ACCESS:    2039239
L2C WQ TO_CACHE:    2039239
L2C WQ MERGED:          0
L2C WQ FORWARD:        444
LLC TOTAL     ACCESS:    4609801  HIT:    2947941  MISS:    1661860
LLC LOAD      ACCESS:    2318989  HIT:    1255677  MISS:    1063312
LLC RFO       ACCESS:     468664  HIT:     407980  MISS:      60684
LLC PREFETCH  ACCESS:     941864  HIT:     527653  MISS:     414211
LLC WRITEBACK ACCESS:     880284  HIT:     756631  MISS:     123653
LLC PREFETCH  REQUESTED:          0  ISSUED:          0  USEFUL:      11206  USELESS:     402417
LLC TOTAL MSHR MERGED:        117
LLC LOAD MSHR MERGED:         38
LLC RFO MSHR MERGED:          0
LLC PREFETCH MSHR MERGED:         79
LLC WRITEBACK MSHR MERGED:          0
LLC TOTAL ACCESSES:    4609948 HITS:    2947971 MISSES:    1661977
LLC LOAD ACCESSES:    2319002 HITS:    1255690 MISSES:    1063312
LLC RFO ACCESSES:     468670 HITS:     407986 MISSES:      60684
LLC PREFETCH ACCESSES:     941992 HITS:     527664 MISSES:     414328
LLC WRITEBACK ACCESSES:     880284 HITS:     756631 MISSES:     123653
LLC 0 RQ ACCESS:    2787672
LLC 0 RQ TO_CACHE:    2787653
LLC 0 RQ MERGED:          0
LLC 0 RQ FORWARD:          0
LLC WQ ACCESS:     880284
LLC WQ TO_CACHE:     880284
LLC WQ MERGED:          0
LLC WQ FORWARD:         30
Major fault: 0 Minor fault: 12862
CPU 0 L1D next line prefetcher final stats
CPU 0 L2C PC-based stride prefetcher final stats
All Misses: 1915734
All Hits: 3511073
SD Algo Stats - Switches: 0 SRR-Repls: 1198961 BRR-Repls: 0

DRAM Statistics
 CHANNEL 0
 RQ ROW_BUFFER_HIT:     447740  ROW_BUFFER_MISS:    1085233
 DBUS_CONGESTED:     577564
 WQ ROW_BUFFER_HIT:      15090  ROW_BUFFER_MISS:     206123  FULL:          0

 AVG_CONGESTED_CYCLE: 13
LOADS RETIRED: 136549171
INSTR RETIRED: 500000000
