
*** ChampSim Multicore Out-of-Order Simulator ***

Warmup Instructions: 100000000
Simulation Instructions: 500000000
Number of CPUs: 1
LLC sets: 2048
LLC ways: 16
Clean RRIP Policies: 2203230222032302 Dirty RRIP Policies: 1203130212031302 PSEL Width: 10 Track Set: 4294967295 PSEL Mask: 1 Demote Mask: 4040100040401000DS Algo: 0Window size: 0
Off-chip DRAM Size: 4096 MB Channels: 1 Width: 64-bit Data Rate: 1600 MT/s

CPU 0 runs /mnt/beegfs/iconst01/spec2017/Gcc.trace.gz
NOT SORTED
TRACE STRING: /mnt/beegfs/iconst01/spec2017/Gcc.trace.gz
SORTED
TRACE STRING: /mnt/beegfs/iconst01/spec2017/Gcc.trace.gz
INITIAL
TRACE STRING: /mnt/beegfs/iconst01/spec2017/Gcc.trace.gz

champsim_seed used: 269

CPU 0 L1D next line prefetcher
CPU 0 L2C IP-based stride prefetcher
Initialize DRRIP state
Assign rand_sets[0]: 454  LLC: 2048
rand_sets[0]: 454
Assign rand_sets[1]: 1662  LLC: 2048
rand_sets[1]: 1662
Assign rand_sets[2]: 1921  LLC: 2048
rand_sets[2]: 1921
Assign rand_sets[3]: 1131  LLC: 2048
rand_sets[3]: 1131
Assign rand_sets[4]: 331  LLC: 2048
rand_sets[4]: 331
Assign rand_sets[5]: 1531  LLC: 2048
rand_sets[5]: 1531
Assign rand_sets[6]: 482  LLC: 2048
rand_sets[6]: 482
Assign rand_sets[7]: 1275  LLC: 2048
rand_sets[7]: 1275
Assign rand_sets[8]: 1876  LLC: 2048
rand_sets[8]: 1876
Assign rand_sets[9]: 2038  LLC: 2048
rand_sets[9]: 2038
Assign rand_sets[10]: 701  LLC: 2048
rand_sets[10]: 701
Assign rand_sets[11]: 479  LLC: 2048
rand_sets[11]: 479
Assign rand_sets[12]: 892  LLC: 2048
rand_sets[12]: 892
Assign rand_sets[13]: 1820  LLC: 2048
rand_sets[13]: 1820
Assign rand_sets[14]: 1505  LLC: 2048
rand_sets[14]: 1505
Assign rand_sets[15]: 1159  LLC: 2048
rand_sets[15]: 1159
Assign rand_sets[16]: 513  LLC: 2048
rand_sets[16]: 513
Assign rand_sets[17]: 703  LLC: 2048
rand_sets[17]: 703
Assign rand_sets[18]: 561  LLC: 2048
rand_sets[18]: 561
Assign rand_sets[19]: 990  LLC: 2048
rand_sets[19]: 990
Assign rand_sets[20]: 342  LLC: 2048
rand_sets[20]: 342
Assign rand_sets[21]: 882  LLC: 2048
rand_sets[21]: 882
Assign rand_sets[22]: 15  LLC: 2048
rand_sets[22]: 15
Assign rand_sets[23]: 71  LLC: 2048
rand_sets[23]: 71
Assign rand_sets[24]: 1127  LLC: 2048
rand_sets[24]: 1127
Assign rand_sets[25]: 1382  LLC: 2048
rand_sets[25]: 1382
Assign rand_sets[26]: 647  LLC: 2048
rand_sets[26]: 647
Assign rand_sets[27]: 857  LLC: 2048
rand_sets[27]: 857
Assign rand_sets[28]: 1450  LLC: 2048
rand_sets[28]: 1450
Assign rand_sets[29]: 1160  LLC: 2048
rand_sets[29]: 1160
Assign rand_sets[30]: 1852  LLC: 2048
rand_sets[30]: 1852
Assign rand_sets[31]: 1881  LLC: 2048
rand_sets[31]: 1881
Assign rand_sets[32]: 1770  LLC: 2048
rand_sets[32]: 1770
Assign rand_sets[33]: 1622  LLC: 2048
rand_sets[33]: 1622
Assign rand_sets[34]: 275  LLC: 2048
rand_sets[34]: 275
Assign rand_sets[35]: 635  LLC: 2048
rand_sets[35]: 635
Assign rand_sets[36]: 466  LLC: 2048
rand_sets[36]: 466
Assign rand_sets[37]: 1413  LLC: 2048
rand_sets[37]: 1413
Assign rand_sets[38]: 417  LLC: 2048
rand_sets[38]: 417
Assign rand_sets[39]: 472  LLC: 2048
rand_sets[39]: 472
Assign rand_sets[40]: 1340  LLC: 2048
rand_sets[40]: 1340
Assign rand_sets[41]: 852  LLC: 2048
rand_sets[41]: 852
Assign rand_sets[42]: 1365  LLC: 2048
rand_sets[42]: 1365
Assign rand_sets[43]: 47  LLC: 2048
rand_sets[43]: 47
Assign rand_sets[44]: 823  LLC: 2048
rand_sets[44]: 823
Assign rand_sets[45]: 686  LLC: 2048
rand_sets[45]: 686
Assign rand_sets[46]: 1637  LLC: 2048
rand_sets[46]: 1637
Assign rand_sets[47]: 1115  LLC: 2048
rand_sets[47]: 1115
Assign rand_sets[48]: 986  LLC: 2048
rand_sets[48]: 986
Assign rand_sets[49]: 258  LLC: 2048
rand_sets[49]: 258
Assign rand_sets[50]: 633  LLC: 2048
rand_sets[50]: 633
Assign rand_sets[51]: 920  LLC: 2048
rand_sets[51]: 920
Assign rand_sets[52]: 204  LLC: 2048
rand_sets[52]: 204
Assign rand_sets[53]: 227  LLC: 2048
rand_sets[53]: 227
Assign rand_sets[54]: 1818  LLC: 2048
rand_sets[54]: 1818
Assign rand_sets[55]: 886  LLC: 2048
rand_sets[55]: 886
Assign rand_sets[56]: 1422  LLC: 2048
rand_sets[56]: 1422
Assign rand_sets[57]: 607  LLC: 2048
rand_sets[57]: 607
Assign rand_sets[58]: 217  LLC: 2048
rand_sets[58]: 217
Assign rand_sets[59]: 1945  LLC: 2048
rand_sets[59]: 1945
Assign rand_sets[60]: 143  LLC: 2048
rand_sets[60]: 143
Assign rand_sets[61]: 1311  LLC: 2048
rand_sets[61]: 1311
Assign rand_sets[62]: 319  LLC: 2048
rand_sets[62]: 319
Assign rand_sets[63]: 1846  LLC: 2048
rand_sets[63]: 1846
 CLEAN-RRIP-POLICY-1: 2-2-0-3-2-3-0-2- CLEAN-RRIP-POLICY-2: 2-2-0-3-2-3-0-2-
 DIRTY-RRIP-POLICY-1: 1-2-0-3-1-3-0-2- DIRTY-RRIP-POLICY-2: 1-2-0-3-1-3-0-2-
 PSEL width: 10
Heartbeat CPU 0 instructions: 10000001 cycles: 7315979 heartbeat IPC: 1.36687 cumulative IPC: 1.36687 (Simulation time: 0 hr 0 min 14 sec) 
Heartbeat CPU 0 instructions: 20000000 cycles: 14307723 heartbeat IPC: 1.43026 cumulative IPC: 1.39785 (Simulation time: 0 hr 0 min 27 sec) 
Heartbeat CPU 0 instructions: 30000001 cycles: 21020675 heartbeat IPC: 1.48966 cumulative IPC: 1.42717 (Simulation time: 0 hr 0 min 42 sec) 
Heartbeat CPU 0 instructions: 40000000 cycles: 27481473 heartbeat IPC: 1.5478 cumulative IPC: 1.45553 (Simulation time: 0 hr 0 min 57 sec) 
Heartbeat CPU 0 instructions: 50000001 cycles: 33583280 heartbeat IPC: 1.63886 cumulative IPC: 1.48884 (Simulation time: 0 hr 1 min 11 sec) 
Heartbeat CPU 0 instructions: 60000000 cycles: 40064547 heartbeat IPC: 1.54291 cumulative IPC: 1.49758 (Simulation time: 0 hr 1 min 26 sec) 
Heartbeat CPU 0 instructions: 70000000 cycles: 47103898 heartbeat IPC: 1.42059 cumulative IPC: 1.48608 (Simulation time: 0 hr 1 min 39 sec) 
Heartbeat CPU 0 instructions: 80000000 cycles: 54194415 heartbeat IPC: 1.41033 cumulative IPC: 1.47617 (Simulation time: 0 hr 1 min 53 sec) 
Heartbeat CPU 0 instructions: 90000003 cycles: 61199323 heartbeat IPC: 1.42757 cumulative IPC: 1.4706 (Simulation time: 0 hr 2 min 6 sec) 
Heartbeat CPU 0 instructions: 100000000 cycles: 68367033 heartbeat IPC: 1.39515 cumulative IPC: 1.46269 (Simulation time: 0 hr 2 min 20 sec) 

Warmup complete CPU 0 instructions: 100000004 cycles: 68367034 (Simulation time: 0 hr 2 min 20 sec) 

Heartbeat CPU 0 instructions: 110000003 cycles: 96004443 heartbeat IPC: 0.361829 cumulative IPC: 0.361828 (Simulation time: 0 hr 2 min 45 sec) 
Heartbeat CPU 0 instructions: 120000000 cycles: 123461898 heartbeat IPC: 0.3642 cumulative IPC: 0.36301 (Simulation time: 0 hr 3 min 11 sec) 
Heartbeat CPU 0 instructions: 130000000 cycles: 148445508 heartbeat IPC: 0.400262 cumulative IPC: 0.374632 (Simulation time: 0 hr 3 min 37 sec) 
Heartbeat CPU 0 instructions: 140000000 cycles: 178061225 heartbeat IPC: 0.337659 cumulative IPC: 0.36465 (Simulation time: 0 hr 4 min 2 sec) 
Heartbeat CPU 0 instructions: 150000000 cycles: 207960470 heartbeat IPC: 0.334457 cumulative IPC: 0.358183 (Simulation time: 0 hr 4 min 28 sec) 
Heartbeat CPU 0 instructions: 160000000 cycles: 235392280 heartbeat IPC: 0.36454 cumulative IPC: 0.359227 (Simulation time: 0 hr 4 min 52 sec) 
Heartbeat CPU 0 instructions: 170000001 cycles: 263381020 heartbeat IPC: 0.357287 cumulative IPC: 0.358949 (Simulation time: 0 hr 5 min 19 sec) 
Heartbeat CPU 0 instructions: 180000000 cycles: 291829061 heartbeat IPC: 0.351518 cumulative IPC: 0.358003 (Simulation time: 0 hr 5 min 45 sec) 
Heartbeat CPU 0 instructions: 190000002 cycles: 319858319 heartbeat IPC: 0.35677 cumulative IPC: 0.357865 (Simulation time: 0 hr 6 min 11 sec) 
Heartbeat CPU 0 instructions: 200000000 cycles: 348220314 heartbeat IPC: 0.352584 cumulative IPC: 0.35733 (Simulation time: 0 hr 6 min 37 sec) 
Heartbeat CPU 0 instructions: 210000002 cycles: 376092038 heartbeat IPC: 0.358787 cumulative IPC: 0.357462 (Simulation time: 0 hr 7 min 2 sec) 
Heartbeat CPU 0 instructions: 220000000 cycles: 405326846 heartbeat IPC: 0.342058 cumulative IPC: 0.356126 (Simulation time: 0 hr 7 min 27 sec) 
Heartbeat CPU 0 instructions: 230000000 cycles: 432855134 heartbeat IPC: 0.363263 cumulative IPC: 0.356665 (Simulation time: 0 hr 7 min 52 sec) 
Heartbeat CPU 0 instructions: 240000000 cycles: 458784582 heartbeat IPC: 0.385662 cumulative IPC: 0.35859 (Simulation time: 0 hr 8 min 16 sec) 
Heartbeat CPU 0 instructions: 250000000 cycles: 488899977 heartbeat IPC: 0.332056 cumulative IPC: 0.35669 (Simulation time: 0 hr 8 min 43 sec) 
Heartbeat CPU 0 instructions: 260000000 cycles: 515977435 heartbeat IPC: 0.369311 cumulative IPC: 0.357454 (Simulation time: 0 hr 9 min 8 sec) 
Heartbeat CPU 0 instructions: 270000003 cycles: 544382150 heartbeat IPC: 0.352054 cumulative IPC: 0.357132 (Simulation time: 0 hr 9 min 35 sec) 
Heartbeat CPU 0 instructions: 280000000 cycles: 572564529 heartbeat IPC: 0.354832 cumulative IPC: 0.357003 (Simulation time: 0 hr 10 min 1 sec) 
Heartbeat CPU 0 instructions: 290000000 cycles: 601501832 heartbeat IPC: 0.345575 cumulative IPC: 0.356383 (Simulation time: 0 hr 10 min 28 sec) 
Heartbeat CPU 0 instructions: 300000000 cycles: 631568712 heartbeat IPC: 0.332592 cumulative IPC: 0.355113 (Simulation time: 0 hr 10 min 53 sec) 
Heartbeat CPU 0 instructions: 310000001 cycles: 661029965 heartbeat IPC: 0.339429 cumulative IPC: 0.354333 (Simulation time: 0 hr 11 min 19 sec) 
Heartbeat CPU 0 instructions: 320000000 cycles: 689280319 heartbeat IPC: 0.353978 cumulative IPC: 0.354317 (Simulation time: 0 hr 11 min 44 sec) 
Heartbeat CPU 0 instructions: 330000000 cycles: 717942339 heartbeat IPC: 0.348894 cumulative IPC: 0.354077 (Simulation time: 0 hr 12 min 9 sec) 
Heartbeat CPU 0 instructions: 340000000 cycles: 747220910 heartbeat IPC: 0.341547 cumulative IPC: 0.353537 (Simulation time: 0 hr 12 min 34 sec) 
Heartbeat CPU 0 instructions: 350000003 cycles: 774299267 heartbeat IPC: 0.369299 cumulative IPC: 0.354142 (Simulation time: 0 hr 12 min 59 sec) 
Heartbeat CPU 0 instructions: 360000000 cycles: 802466461 heartbeat IPC: 0.355023 cumulative IPC: 0.354175 (Simulation time: 0 hr 13 min 23 sec) 
Heartbeat CPU 0 instructions: 370000000 cycles: 830650395 heartbeat IPC: 0.354812 cumulative IPC: 0.354199 (Simulation time: 0 hr 13 min 47 sec) 
Heartbeat CPU 0 instructions: 380000000 cycles: 859149028 heartbeat IPC: 0.350894 cumulative IPC: 0.35408 (Simulation time: 0 hr 14 min 11 sec) 
Heartbeat CPU 0 instructions: 390000001 cycles: 886749910 heartbeat IPC: 0.362307 cumulative IPC: 0.354357 (Simulation time: 0 hr 14 min 35 sec) 
Heartbeat CPU 0 instructions: 400000000 cycles: 915384856 heartbeat IPC: 0.349224 cumulative IPC: 0.354184 (Simulation time: 0 hr 14 min 59 sec) 
Heartbeat CPU 0 instructions: 410000001 cycles: 942682614 heartbeat IPC: 0.36633 cumulative IPC: 0.354563 (Simulation time: 0 hr 15 min 23 sec) 
Heartbeat CPU 0 instructions: 420000000 cycles: 969993873 heartbeat IPC: 0.366149 cumulative IPC: 0.354914 (Simulation time: 0 hr 15 min 47 sec) 
Heartbeat CPU 0 instructions: 430000002 cycles: 997700316 heartbeat IPC: 0.360927 cumulative IPC: 0.355093 (Simulation time: 0 hr 16 min 11 sec) 
Heartbeat CPU 0 instructions: 440000000 cycles: 1027264431 heartbeat IPC: 0.338248 cumulative IPC: 0.354574 (Simulation time: 0 hr 16 min 35 sec) 
Heartbeat CPU 0 instructions: 450000002 cycles: 1056514400 heartbeat IPC: 0.341881 cumulative IPC: 0.354198 (Simulation time: 0 hr 16 min 59 sec) 
Heartbeat CPU 0 instructions: 460000000 cycles: 1084210143 heartbeat IPC: 0.361066 cumulative IPC: 0.354385 (Simulation time: 0 hr 17 min 24 sec) 
Heartbeat CPU 0 instructions: 470000000 cycles: 1111840992 heartbeat IPC: 0.361914 cumulative IPC: 0.354585 (Simulation time: 0 hr 17 min 47 sec) 
Heartbeat CPU 0 instructions: 480000000 cycles: 1139717494 heartbeat IPC: 0.358725 cumulative IPC: 0.354693 (Simulation time: 0 hr 18 min 11 sec) 
Heartbeat CPU 0 instructions: 490000000 cycles: 1167302368 heartbeat IPC: 0.362518 cumulative IPC: 0.354889 (Simulation time: 0 hr 18 min 35 sec) 
Heartbeat CPU 0 instructions: 500000000 cycles: 1195618015 heartbeat IPC: 0.353162 cumulative IPC: 0.354846 (Simulation time: 0 hr 19 min 0 sec) 
Heartbeat CPU 0 instructions: 510000000 cycles: 1229737007 heartbeat IPC: 0.293092 cumulative IPC: 0.353031 (Simulation time: 0 hr 19 min 27 sec) 
Heartbeat CPU 0 instructions: 520000000 cycles: 1257770710 heartbeat IPC: 0.356714 cumulative IPC: 0.353118 (Simulation time: 0 hr 19 min 52 sec) 
Heartbeat CPU 0 instructions: 530000001 cycles: 1287392153 heartbeat IPC: 0.337593 cumulative IPC: 0.352741 (Simulation time: 0 hr 20 min 17 sec) 
Heartbeat CPU 0 instructions: 540000000 cycles: 1315483977 heartbeat IPC: 0.355975 cumulative IPC: 0.352814 (Simulation time: 0 hr 20 min 42 sec) 
Heartbeat CPU 0 instructions: 550000001 cycles: 1344660185 heartbeat IPC: 0.342745 cumulative IPC: 0.352584 (Simulation time: 0 hr 21 min 9 sec) 
Heartbeat CPU 0 instructions: 560000000 cycles: 1370057905 heartbeat IPC: 0.393736 cumulative IPC: 0.353387 (Simulation time: 0 hr 21 min 33 sec) 
Heartbeat CPU 0 instructions: 570000000 cycles: 1399561799 heartbeat IPC: 0.338938 cumulative IPC: 0.353066 (Simulation time: 0 hr 21 min 59 sec) 
Heartbeat CPU 0 instructions: 580000000 cycles: 1427530762 heartbeat IPC: 0.357539 cumulative IPC: 0.353158 (Simulation time: 0 hr 22 min 24 sec) 
Heartbeat CPU 0 instructions: 590000001 cycles: 1452268081 heartbeat IPC: 0.404248 cumulative IPC: 0.354072 (Simulation time: 0 hr 22 min 48 sec) 
Heartbeat CPU 0 instructions: 600000000 cycles: 1478321427 heartbeat IPC: 0.383828 cumulative IPC: 0.354621 (Simulation time: 0 hr 23 min 12 sec) 
Finished CPU 0 instructions: 500000000 cycles: 1409954415 cumulative IPC: 0.354621 (Simulation time: 0 hr 23 min 12 sec) 

CPU 0 Branch Prediction Accuracy: 86.4311% MPKI: 26.2662
Number of Branches: 96788573 Number of Mispredictions: 13133102
Number of LOAD Instructions: 164682285
Number of LOAD Instructions (ROI): 164682285
Number of STORE Instructions: 78194750
Number of STORE Instructions (ROI): 78194750
Total Destination Memory Operands: 83268534
Total Destination Memory Operands (ROI): 83268534
Total Source Memory Operands: 164712438
Total Source Memory Operands (ROI): 164712438
Number of DEPENDED LOADS: 7057116
Number of DEPENDED LOADS (ROI): 7057116
Number of SQ_ADDED: 83268522
Number of SQ_ADDED (ROI): 83268522
Number of LQ_ADDED: 236719207
Number of LQ_ADDED (ROI): 236719207
Number of Instructions read from trace: 600000066

ChampSim completed all CPUs

Region of Interest Statistics

CPU 0 cumulative IPC: 0.354621 instructions: 500000000 cycles: 1409954415
ITLB TOTAL     ACCESS:  100518252  HIT:  100313806  MISS:     204446
ITLB LOAD      ACCESS:  100518252  HIT:  100313806  MISS:     204446
ITLB RFO       ACCESS:          0  HIT:          0  MISS:          0
ITLB PREFETCH  ACCESS:          0  HIT:          0  MISS:          0
ITLB WRITEBACK ACCESS:          0  HIT:          0  MISS:          0
ITLB PREFETCH  REQUESTED:          0  ISSUED:          0  USEFUL:          0  USELESS:          0
ITLB TOTAL MSHR MERGED:     172424
ITLB LOAD MSHR MERGED:     172424
ITLB RFO MSHR MERGED:          0
ITLB PREFETCH MSHR MERGED:          0
ITLB WRITEBACK MSHR MERGED:          0
ITLB TOTAL ACCESSES:  100690676 HITS:  100313806 MISSES:     376870
ITLB LOAD ACCESSES:  100690676 HITS:  100313806 MISSES:     376870
ITLB RFO ACCESSES:          0 HITS:          0 MISSES:          0
ITLB PREFETCH ACCESSES:          0 HITS:          0 MISSES:          0
ITLB WRITEBACK ACCESSES:          0 HITS:          0 MISSES:          0
ITLB RQ ACCESS:  500000057
ITLB RQ TO_CACHE:  100690676
ITLB RQ MERGED:  399309381
ITLB RQ FORWARD:          0
ITLB WQ ACCESS:          0
ITLB WQ TO_CACHE:          0
ITLB WQ MERGED:          0
ITLB WQ FORWARD:          0
DTLB TOTAL     ACCESS:  165339540  HIT:  164705186  MISS:     634354
DTLB LOAD      ACCESS:  106294302  HIT:  105724383  MISS:     569919
DTLB RFO       ACCESS:   59045238  HIT:   58980803  MISS:      64435
DTLB PREFETCH  ACCESS:          0  HIT:          0  MISS:          0
DTLB WRITEBACK ACCESS:          0  HIT:          0  MISS:          0
DTLB PREFETCH  REQUESTED:          0  ISSUED:          0  USEFUL:          0  USELESS:          0
DTLB TOTAL MSHR MERGED:     100032
DTLB LOAD MSHR MERGED:      59463
DTLB RFO MSHR MERGED:      40569
DTLB PREFETCH MSHR MERGED:          0
DTLB WRITEBACK MSHR MERGED:          0
DTLB TOTAL ACCESSES:  165439572 HITS:  164705186 MISSES:     734386
DTLB LOAD ACCESSES:  106353765 HITS:  105724383 MISSES:     629382
DTLB RFO ACCESSES:   59085807 HITS:   58980803 MISSES:     105004
DTLB PREFETCH ACCESSES:          0 HITS:          0 MISSES:          0
DTLB WRITEBACK ACCESSES:          0 HITS:          0 MISSES:          0
DTLB RQ ACCESS:  200313763
DTLB RQ TO_CACHE:  165439572
DTLB RQ MERGED:   34874191
DTLB RQ FORWARD:          0
DTLB WQ ACCESS:          0
DTLB WQ TO_CACHE:          0
DTLB WQ MERGED:          0
DTLB WQ FORWARD:          0
L1D TOTAL     ACCESS:  281862471  HIT:  273953098  MISS:    7909373
L1D LOAD      ACCESS:  110423473  HIT:  107146672  MISS:    3276801
L1D RFO       ACCESS:   67130668  HIT:   66240593  MISS:     890075
L1D PREFETCH  ACCESS:  104308330  HIT:  100565833  MISS:    3742497
L1D WRITEBACK ACCESS:          0  HIT:          0  MISS:          0
L1D PREFETCH  REQUESTED:  110819636  ISSUED:  109120339  USEFUL:    1663118  USELESS:    2079343
L1D TOTAL MSHR MERGED:    2846713
L1D LOAD MSHR MERGED:     492442
L1D RFO MSHR MERGED:    1854760
L1D PREFETCH MSHR MERGED:     499511
L1D WRITEBACK MSHR MERGED:          0
L1D TOTAL ACCESSES:  284736597 HITS:  273980511 MISSES:   10756086
L1D LOAD ACCESSES:  110821052 HITS:  107148088 MISSES:    3672964
L1D RFO ACCESSES:   68974147 HITS:   66240593 MISSES:    2733554
L1D PREFETCH ACCESSES:  104941398 HITS:  100591830 MISSES:    4349568
L1D WRITEBACK ACCESSES:          0 HITS:          0 MISSES:          0
L1D RQ ACCESS:  130761160
L1D RQ TO_CACHE:  110819639
L1D RQ MERGED:   19940105
L1D RQ FORWARD:          0
L1D WQ ACCESS:   69552603
L1D WQ TO_CACHE:   68974148
L1D WQ MERGED:     578455
L1D WQ FORWARD:      27413
L1I TOTAL     ACCESS:  126565433  HIT:  122326879  MISS:    4238554
L1I LOAD      ACCESS:  126565433  HIT:  122326879  MISS:    4238554
L1I RFO       ACCESS:          0  HIT:          0  MISS:          0
L1I PREFETCH  ACCESS:          0  HIT:          0  MISS:          0
L1I WRITEBACK ACCESS:          0  HIT:          0  MISS:          0
L1I PREFETCH  REQUESTED:          0  ISSUED:          0  USEFUL:          0  USELESS:          0
L1I TOTAL MSHR MERGED:    1834753
L1I LOAD MSHR MERGED:    1834753
L1I RFO MSHR MERGED:          0
L1I PREFETCH MSHR MERGED:          0
L1I WRITEBACK MSHR MERGED:          0
L1I TOTAL ACCESSES:  128400189 HITS:  122326879 MISSES:    6073310
L1I LOAD ACCESSES:  128400189 HITS:  122326879 MISSES:    6073310
L1I RFO ACCESSES:          0 HITS:          0 MISSES:          0
L1I PREFETCH ACCESSES:          0 HITS:          0 MISSES:          0
L1I WRITEBACK ACCESSES:          0 HITS:          0 MISSES:          0
L1I RQ ACCESS:  500000057
L1I RQ TO_CACHE:  128400189
L1I RQ MERGED:  371599868
L1I RQ FORWARD:          0
L1I WQ ACCESS:          0
L1I WQ TO_CACHE:          0
L1I WQ MERGED:          0
L1I WQ FORWARD:          0
L2C TOTAL     ACCESS:   14905518  HIT:   11158998  MISS:    3746520
L2C LOAD      ACCESS:    7418867  HIT:    5098892  MISS:    2319975
L2C RFO       ACCESS:     878696  HIT:     409896  MISS:     468800
L2C PREFETCH  ACCESS:    4568703  HIT:    3628214  MISS:     940489
L2C WRITEBACK ACCESS:    2039252  HIT:    2021996  MISS:      17256
L2C PREFETCH  REQUESTED:     842775  ISSUED:     842775  USEFUL:     203410  USELESS:     736785
L2C TOTAL MSHR MERGED:       6805
L2C LOAD MSHR MERGED:        746
L2C RFO MSHR MERGED:          0
L2C PREFETCH MSHR MERGED:       6059
L2C WRITEBACK MSHR MERGED:          0
L2C TOTAL ACCESSES:   14913218 HITS:   11159450 MISSES:    3753768
L2C LOAD ACCESSES:    7419076 HITS:    5099101 MISSES:    2319975
L2C RFO ACCESSES:     878794 HITS:     409994 MISSES:     468800
L2C PREFETCH ACCESSES:    4576096 HITS:    3628359 MISSES:     947737
L2C WRITEBACK ACCESSES:    2039252 HITS:    2021996 MISSES:      17256
L2C RQ ACCESS:    8297873
L2C RQ TO_CACHE:    8297566
L2C RQ MERGED:          0
L2C RQ FORWARD:          0
L2C WQ ACCESS:    2039252
L2C WQ TO_CACHE:    2039252
L2C WQ MERGED:          0
L2C WQ FORWARD:        452
LLC TOTAL     ACCESS:    4609872  HIT:    4006680  MISS:     603192
LLC LOAD      ACCESS:    2319213  HIT:    2060393  MISS:     258820
LLC RFO       ACCESS:     468790  HIT:     423368  MISS:      45422
LLC PREFETCH  ACCESS:     941557  HIT:     683939  MISS:     257618
LLC WRITEBACK ACCESS:     880312  HIT:     838980  MISS:      41332
LLC PREFETCH  REQUESTED:          0  ISSUED:          0  USEFUL:      13817  USELESS:     244025
LLC TOTAL MSHR MERGED:        102
LLC LOAD MSHR MERGED:         32
LLC RFO MSHR MERGED:          0
LLC PREFETCH MSHR MERGED:         70
LLC WRITEBACK MSHR MERGED:          0
LLC TOTAL ACCESSES:    4610012 HITS:    4006718 MISSES:     603294
LLC LOAD ACCESSES:    2319229 HITS:    2060409 MISSES:     258820
LLC RFO ACCESSES:     468800 HITS:     423378 MISSES:      45422
LLC PREFETCH ACCESSES:     941671 HITS:     683951 MISSES:     257720
LLC WRITEBACK ACCESSES:     880312 HITS:     838980 MISSES:      41332
LLC 0 RQ ACCESS:    2788029
LLC 0 RQ TO_CACHE:    2788003
LLC 0 RQ MERGED:          0
LLC 0 RQ FORWARD:          0
LLC WQ ACCESS:     880312
LLC WQ TO_CACHE:     880312
LLC WQ MERGED:          0
LLC WQ FORWARD:         38
Major fault: 0 Minor fault: 12862
CPU 0 L1D next line prefetcher final stats
CPU 0 L2C PC-based stride prefetcher final stats
All Misses: 724161
All Hits: 4702717
SD Algo Stats - Switches: 0 SRR-Repls: 306852 BRR-Repls: 0

DRAM Statistics
 CHANNEL 0
 RQ ROW_BUFFER_HIT:     117497  ROW_BUFFER_MISS:     443909
 DBUS_CONGESTED:     303880
 WQ ROW_BUFFER_HIT:       9561  ROW_BUFFER_MISS:     138784  FULL:          0

 AVG_CONGESTED_CYCLE: 13
LOADS RETIRED: 136549171
INSTR RETIRED: 500000000
