
*** ChampSim Multicore Out-of-Order Simulator ***

Warmup Instructions: 100000000
Simulation Instructions: 500000000
Number of CPUs: 1
LLC sets: 2048
LLC ways: 16
Clean RRIP Policies: 2203230222032302 Dirty RRIP Policies: 1203130212031302 PSEL Width: 10 Track Set: 4294967295 PSEL Mask: 1 Demote Mask: 4040100040401000DS Algo: 0Window size: 0
Off-chip DRAM Size: 4096 MB Channels: 1 Width: 64-bit Data Rate: 1600 MT/s

CPU 0 runs /mnt/beegfs/iconst01/spec2017/Mcf.trace.gz
NOT SORTED
TRACE STRING: /mnt/beegfs/iconst01/spec2017/Mcf.trace.gz
SORTED
TRACE STRING: /mnt/beegfs/iconst01/spec2017/Mcf.trace.gz
INITIAL
TRACE STRING: /mnt/beegfs/iconst01/spec2017/Mcf.trace.gz

champsim_seed used: 278

CPU 0 L1D next line prefetcher
CPU 0 L2C IP-based stride prefetcher
Initialize DRRIP state
Assign rand_sets[0]: 454  LLC: 2048
rand_sets[0]: 454
Assign rand_sets[1]: 1662  LLC: 2048
rand_sets[1]: 1662
Assign rand_sets[2]: 1921  LLC: 2048
rand_sets[2]: 1921
Assign rand_sets[3]: 1131  LLC: 2048
rand_sets[3]: 1131
Assign rand_sets[4]: 331  LLC: 2048
rand_sets[4]: 331
Assign rand_sets[5]: 1531  LLC: 2048
rand_sets[5]: 1531
Assign rand_sets[6]: 482  LLC: 2048
rand_sets[6]: 482
Assign rand_sets[7]: 1275  LLC: 2048
rand_sets[7]: 1275
Assign rand_sets[8]: 1876  LLC: 2048
rand_sets[8]: 1876
Assign rand_sets[9]: 2038  LLC: 2048
rand_sets[9]: 2038
Assign rand_sets[10]: 701  LLC: 2048
rand_sets[10]: 701
Assign rand_sets[11]: 479  LLC: 2048
rand_sets[11]: 479
Assign rand_sets[12]: 892  LLC: 2048
rand_sets[12]: 892
Assign rand_sets[13]: 1820  LLC: 2048
rand_sets[13]: 1820
Assign rand_sets[14]: 1505  LLC: 2048
rand_sets[14]: 1505
Assign rand_sets[15]: 1159  LLC: 2048
rand_sets[15]: 1159
Assign rand_sets[16]: 513  LLC: 2048
rand_sets[16]: 513
Assign rand_sets[17]: 703  LLC: 2048
rand_sets[17]: 703
Assign rand_sets[18]: 561  LLC: 2048
rand_sets[18]: 561
Assign rand_sets[19]: 990  LLC: 2048
rand_sets[19]: 990
Assign rand_sets[20]: 342  LLC: 2048
rand_sets[20]: 342
Assign rand_sets[21]: 882  LLC: 2048
rand_sets[21]: 882
Assign rand_sets[22]: 15  LLC: 2048
rand_sets[22]: 15
Assign rand_sets[23]: 71  LLC: 2048
rand_sets[23]: 71
Assign rand_sets[24]: 1127  LLC: 2048
rand_sets[24]: 1127
Assign rand_sets[25]: 1382  LLC: 2048
rand_sets[25]: 1382
Assign rand_sets[26]: 647  LLC: 2048
rand_sets[26]: 647
Assign rand_sets[27]: 857  LLC: 2048
rand_sets[27]: 857
Assign rand_sets[28]: 1450  LLC: 2048
rand_sets[28]: 1450
Assign rand_sets[29]: 1160  LLC: 2048
rand_sets[29]: 1160
Assign rand_sets[30]: 1852  LLC: 2048
rand_sets[30]: 1852
Assign rand_sets[31]: 1881  LLC: 2048
rand_sets[31]: 1881
Assign rand_sets[32]: 1770  LLC: 2048
rand_sets[32]: 1770
Assign rand_sets[33]: 1622  LLC: 2048
rand_sets[33]: 1622
Assign rand_sets[34]: 275  LLC: 2048
rand_sets[34]: 275
Assign rand_sets[35]: 635  LLC: 2048
rand_sets[35]: 635
Assign rand_sets[36]: 466  LLC: 2048
rand_sets[36]: 466
Assign rand_sets[37]: 1413  LLC: 2048
rand_sets[37]: 1413
Assign rand_sets[38]: 417  LLC: 2048
rand_sets[38]: 417
Assign rand_sets[39]: 472  LLC: 2048
rand_sets[39]: 472
Assign rand_sets[40]: 1340  LLC: 2048
rand_sets[40]: 1340
Assign rand_sets[41]: 852  LLC: 2048
rand_sets[41]: 852
Assign rand_sets[42]: 1365  LLC: 2048
rand_sets[42]: 1365
Assign rand_sets[43]: 47  LLC: 2048
rand_sets[43]: 47
Assign rand_sets[44]: 823  LLC: 2048
rand_sets[44]: 823
Assign rand_sets[45]: 686  LLC: 2048
rand_sets[45]: 686
Assign rand_sets[46]: 1637  LLC: 2048
rand_sets[46]: 1637
Assign rand_sets[47]: 1115  LLC: 2048
rand_sets[47]: 1115
Assign rand_sets[48]: 986  LLC: 2048
rand_sets[48]: 986
Assign rand_sets[49]: 258  LLC: 2048
rand_sets[49]: 258
Assign rand_sets[50]: 633  LLC: 2048
rand_sets[50]: 633
Assign rand_sets[51]: 920  LLC: 2048
rand_sets[51]: 920
Assign rand_sets[52]: 204  LLC: 2048
rand_sets[52]: 204
Assign rand_sets[53]: 227  LLC: 2048
rand_sets[53]: 227
Assign rand_sets[54]: 1818  LLC: 2048
rand_sets[54]: 1818
Assign rand_sets[55]: 886  LLC: 2048
rand_sets[55]: 886
Assign rand_sets[56]: 1422  LLC: 2048
rand_sets[56]: 1422
Assign rand_sets[57]: 607  LLC: 2048
rand_sets[57]: 607
Assign rand_sets[58]: 217  LLC: 2048
rand_sets[58]: 217
Assign rand_sets[59]: 1945  LLC: 2048
rand_sets[59]: 1945
Assign rand_sets[60]: 143  LLC: 2048
rand_sets[60]: 143
Assign rand_sets[61]: 1311  LLC: 2048
rand_sets[61]: 1311
Assign rand_sets[62]: 319  LLC: 2048
rand_sets[62]: 319
Assign rand_sets[63]: 1846  LLC: 2048
rand_sets[63]: 1846
 CLEAN-RRIP-POLICY-1: 2-2-0-3-2-3-0-2- CLEAN-RRIP-POLICY-2: 2-2-0-3-2-3-0-2-
 DIRTY-RRIP-POLICY-1: 1-2-0-3-1-3-0-2- DIRTY-RRIP-POLICY-2: 1-2-0-3-1-3-0-2-
 PSEL width: 10
Heartbeat CPU 0 instructions: 10000002 cycles: 6248292 heartbeat IPC: 1.60044 cumulative IPC: 1.60044 (Simulation time: 0 hr 0 min 13 sec) 
Heartbeat CPU 0 instructions: 20000000 cycles: 12468667 heartbeat IPC: 1.60762 cumulative IPC: 1.60402 (Simulation time: 0 hr 0 min 25 sec) 
Heartbeat CPU 0 instructions: 30000000 cycles: 18678669 heartbeat IPC: 1.61031 cumulative IPC: 1.60611 (Simulation time: 0 hr 0 min 37 sec) 
Heartbeat CPU 0 instructions: 40000000 cycles: 24889074 heartbeat IPC: 1.6102 cumulative IPC: 1.60713 (Simulation time: 0 hr 0 min 49 sec) 
Heartbeat CPU 0 instructions: 50000003 cycles: 31101287 heartbeat IPC: 1.60973 cumulative IPC: 1.60765 (Simulation time: 0 hr 1 min 2 sec) 
Heartbeat CPU 0 instructions: 60000000 cycles: 37297330 heartbeat IPC: 1.61393 cumulative IPC: 1.60869 (Simulation time: 0 hr 1 min 14 sec) 
Heartbeat CPU 0 instructions: 70000003 cycles: 43515616 heartbeat IPC: 1.60816 cumulative IPC: 1.60862 (Simulation time: 0 hr 1 min 26 sec) 
Heartbeat CPU 0 instructions: 80000000 cycles: 49745969 heartbeat IPC: 1.60504 cumulative IPC: 1.60817 (Simulation time: 0 hr 1 min 39 sec) 
Heartbeat CPU 0 instructions: 90000000 cycles: 55974773 heartbeat IPC: 1.60544 cumulative IPC: 1.60787 (Simulation time: 0 hr 1 min 51 sec) 
Heartbeat CPU 0 instructions: 100000000 cycles: 62193640 heartbeat IPC: 1.60801 cumulative IPC: 1.60788 (Simulation time: 0 hr 2 min 3 sec) 

Warmup complete CPU 0 instructions: 100000001 cycles: 62193641 (Simulation time: 0 hr 2 min 3 sec) 

Heartbeat CPU 0 instructions: 110000000 cycles: 86686793 heartbeat IPC: 0.408277 cumulative IPC: 0.408277 (Simulation time: 0 hr 2 min 26 sec) 
Heartbeat CPU 0 instructions: 120000000 cycles: 111318440 heartbeat IPC: 0.405982 cumulative IPC: 0.407126 (Simulation time: 0 hr 2 min 49 sec) 
Heartbeat CPU 0 instructions: 130000000 cycles: 136021311 heartbeat IPC: 0.404811 cumulative IPC: 0.406352 (Simulation time: 0 hr 3 min 12 sec) 
Heartbeat CPU 0 instructions: 140000000 cycles: 160675039 heartbeat IPC: 0.405618 cumulative IPC: 0.406168 (Simulation time: 0 hr 3 min 35 sec) 
Heartbeat CPU 0 instructions: 150000003 cycles: 185233208 heartbeat IPC: 0.407197 cumulative IPC: 0.406373 (Simulation time: 0 hr 3 min 58 sec) 
Heartbeat CPU 0 instructions: 160000000 cycles: 210053209 heartbeat IPC: 0.402901 cumulative IPC: 0.40579 (Simulation time: 0 hr 4 min 21 sec) 
Heartbeat CPU 0 instructions: 170000001 cycles: 234737104 heartbeat IPC: 0.405122 cumulative IPC: 0.405695 (Simulation time: 0 hr 4 min 44 sec) 
Heartbeat CPU 0 instructions: 180000000 cycles: 259419648 heartbeat IPC: 0.405145 cumulative IPC: 0.405626 (Simulation time: 0 hr 5 min 7 sec) 
Heartbeat CPU 0 instructions: 190000003 cycles: 284060466 heartbeat IPC: 0.405831 cumulative IPC: 0.405649 (Simulation time: 0 hr 5 min 30 sec) 
Heartbeat CPU 0 instructions: 200000000 cycles: 308750522 heartbeat IPC: 0.405021 cumulative IPC: 0.405586 (Simulation time: 0 hr 5 min 53 sec) 
Heartbeat CPU 0 instructions: 210000003 cycles: 333500785 heartbeat IPC: 0.404036 cumulative IPC: 0.405445 (Simulation time: 0 hr 6 min 16 sec) 
Heartbeat CPU 0 instructions: 220000000 cycles: 358433279 heartbeat IPC: 0.401083 cumulative IPC: 0.405077 (Simulation time: 0 hr 6 min 40 sec) 
Heartbeat CPU 0 instructions: 230000002 cycles: 383018980 heartbeat IPC: 0.406741 cumulative IPC: 0.405205 (Simulation time: 0 hr 7 min 3 sec) 
Heartbeat CPU 0 instructions: 240000000 cycles: 407900087 heartbeat IPC: 0.401911 cumulative IPC: 0.404968 (Simulation time: 0 hr 7 min 26 sec) 
Heartbeat CPU 0 instructions: 250000000 cycles: 432602921 heartbeat IPC: 0.404812 cumulative IPC: 0.404957 (Simulation time: 0 hr 7 min 49 sec) 
Heartbeat CPU 0 instructions: 260000000 cycles: 457274583 heartbeat IPC: 0.405323 cumulative IPC: 0.40498 (Simulation time: 0 hr 8 min 12 sec) 
Heartbeat CPU 0 instructions: 270000001 cycles: 482018573 heartbeat IPC: 0.404139 cumulative IPC: 0.404931 (Simulation time: 0 hr 8 min 35 sec) 
Heartbeat CPU 0 instructions: 280000000 cycles: 506702027 heartbeat IPC: 0.40513 cumulative IPC: 0.404942 (Simulation time: 0 hr 8 min 58 sec) 
Heartbeat CPU 0 instructions: 290000001 cycles: 531463465 heartbeat IPC: 0.403854 cumulative IPC: 0.404884 (Simulation time: 0 hr 9 min 21 sec) 
Heartbeat CPU 0 instructions: 300000000 cycles: 556394747 heartbeat IPC: 0.401102 cumulative IPC: 0.404694 (Simulation time: 0 hr 9 min 45 sec) 
Heartbeat CPU 0 instructions: 310000003 cycles: 580969045 heartbeat IPC: 0.406929 cumulative IPC: 0.404799 (Simulation time: 0 hr 10 min 8 sec) 
Heartbeat CPU 0 instructions: 320000000 cycles: 605891663 heartbeat IPC: 0.401242 cumulative IPC: 0.404636 (Simulation time: 0 hr 10 min 31 sec) 
Heartbeat CPU 0 instructions: 330000003 cycles: 630570202 heartbeat IPC: 0.40521 cumulative IPC: 0.404661 (Simulation time: 0 hr 10 min 54 sec) 
Heartbeat CPU 0 instructions: 340000000 cycles: 655536812 heartbeat IPC: 0.400535 cumulative IPC: 0.404488 (Simulation time: 0 hr 11 min 18 sec) 
Heartbeat CPU 0 instructions: 350000002 cycles: 680475519 heartbeat IPC: 0.400983 cumulative IPC: 0.404346 (Simulation time: 0 hr 11 min 41 sec) 
Heartbeat CPU 0 instructions: 360000000 cycles: 705553116 heartbeat IPC: 0.398762 cumulative IPC: 0.404129 (Simulation time: 0 hr 12 min 4 sec) 
Heartbeat CPU 0 instructions: 370000000 cycles: 730395407 heartbeat IPC: 0.402539 cumulative IPC: 0.40407 (Simulation time: 0 hr 12 min 27 sec) 
Heartbeat CPU 0 instructions: 380000000 cycles: 755061609 heartbeat IPC: 0.405413 cumulative IPC: 0.404117 (Simulation time: 0 hr 12 min 50 sec) 
Heartbeat CPU 0 instructions: 390000002 cycles: 779739021 heartbeat IPC: 0.405229 cumulative IPC: 0.404156 (Simulation time: 0 hr 13 min 13 sec) 
Heartbeat CPU 0 instructions: 400000000 cycles: 804595471 heartbeat IPC: 0.40231 cumulative IPC: 0.404094 (Simulation time: 0 hr 13 min 37 sec) 
Heartbeat CPU 0 instructions: 410000002 cycles: 829349405 heartbeat IPC: 0.403976 cumulative IPC: 0.40409 (Simulation time: 0 hr 14 min 0 sec) 
Heartbeat CPU 0 instructions: 420000000 cycles: 853906117 heartbeat IPC: 0.407221 cumulative IPC: 0.404187 (Simulation time: 0 hr 14 min 23 sec) 
Heartbeat CPU 0 instructions: 430000000 cycles: 878677190 heartbeat IPC: 0.403697 cumulative IPC: 0.404172 (Simulation time: 0 hr 14 min 46 sec) 
Heartbeat CPU 0 instructions: 440000000 cycles: 903157000 heartbeat IPC: 0.4085 cumulative IPC: 0.404298 (Simulation time: 0 hr 15 min 9 sec) 
Heartbeat CPU 0 instructions: 450000000 cycles: 928041867 heartbeat IPC: 0.401851 cumulative IPC: 0.404228 (Simulation time: 0 hr 15 min 34 sec) 
Heartbeat CPU 0 instructions: 460000000 cycles: 952804375 heartbeat IPC: 0.403836 cumulative IPC: 0.404217 (Simulation time: 0 hr 15 min 58 sec) 
Heartbeat CPU 0 instructions: 470000001 cycles: 977372861 heartbeat IPC: 0.407026 cumulative IPC: 0.404292 (Simulation time: 0 hr 16 min 22 sec) 
Heartbeat CPU 0 instructions: 480000000 cycles: 1002095933 heartbeat IPC: 0.40448 cumulative IPC: 0.404297 (Simulation time: 0 hr 16 min 46 sec) 
Heartbeat CPU 0 instructions: 490000000 cycles: 1026929887 heartbeat IPC: 0.402674 cumulative IPC: 0.404256 (Simulation time: 0 hr 17 min 11 sec) 
Heartbeat CPU 0 instructions: 500000000 cycles: 1052072544 heartbeat IPC: 0.39773 cumulative IPC: 0.40409 (Simulation time: 0 hr 17 min 35 sec) 
Heartbeat CPU 0 instructions: 510000003 cycles: 1077081146 heartbeat IPC: 0.399863 cumulative IPC: 0.403986 (Simulation time: 0 hr 17 min 59 sec) 
Heartbeat CPU 0 instructions: 520000000 cycles: 1102242347 heartbeat IPC: 0.397437 cumulative IPC: 0.403827 (Simulation time: 0 hr 18 min 23 sec) 
Heartbeat CPU 0 instructions: 530000003 cycles: 1127424472 heartbeat IPC: 0.397107 cumulative IPC: 0.403668 (Simulation time: 0 hr 18 min 47 sec) 
Heartbeat CPU 0 instructions: 540000000 cycles: 1152531261 heartbeat IPC: 0.398299 cumulative IPC: 0.403545 (Simulation time: 0 hr 19 min 11 sec) 
Heartbeat CPU 0 instructions: 550000000 cycles: 1177640186 heartbeat IPC: 0.398265 cumulative IPC: 0.403426 (Simulation time: 0 hr 19 min 36 sec) 
Heartbeat CPU 0 instructions: 560000000 cycles: 1203063842 heartbeat IPC: 0.393334 cumulative IPC: 0.403201 (Simulation time: 0 hr 20 min 0 sec) 
Heartbeat CPU 0 instructions: 570000001 cycles: 1228408258 heartbeat IPC: 0.394564 cumulative IPC: 0.403013 (Simulation time: 0 hr 20 min 24 sec) 
Heartbeat CPU 0 instructions: 580000000 cycles: 1253758951 heartbeat IPC: 0.394466 cumulative IPC: 0.402831 (Simulation time: 0 hr 20 min 48 sec) 
Heartbeat CPU 0 instructions: 590000000 cycles: 1279248562 heartbeat IPC: 0.392317 cumulative IPC: 0.402611 (Simulation time: 0 hr 21 min 13 sec) 
Heartbeat CPU 0 instructions: 600000000 cycles: 1304813182 heartbeat IPC: 0.391166 cumulative IPC: 0.402376 (Simulation time: 0 hr 21 min 37 sec) 
Finished CPU 0 instructions: 500000003 cycles: 1242619554 cumulative IPC: 0.402376 (Simulation time: 0 hr 21 min 37 sec) 

CPU 0 Branch Prediction Accuracy: 91.1342% MPKI: 18.7968
Number of Branches: 106006945 Number of Mispredictions: 9398408
Number of LOAD Instructions: 207894007
Number of LOAD Instructions (ROI): 207894007
Number of STORE Instructions: 54285997
Number of STORE Instructions (ROI): 54285997
Total Destination Memory Operands: 57463404
Total Destination Memory Operands (ROI): 57463404
Total Source Memory Operands: 207894007
Total Source Memory Operands (ROI): 207894007
Number of DEPENDED LOADS: 18099410
Number of DEPENDED LOADS (ROI): 18099410
Number of SQ_ADDED: 57463404
Number of SQ_ADDED (ROI): 57463404
Number of LQ_ADDED: 209234763
Number of LQ_ADDED (ROI): 209234763
Number of Instructions read from trace: 600000039

ChampSim completed all CPUs

Region of Interest Statistics

CPU 0 cumulative IPC: 0.402376 instructions: 500000003 cycles: 1242619554
ITLB TOTAL     ACCESS:   96423209  HIT:   96423209  MISS:          0
ITLB LOAD      ACCESS:   96423209  HIT:   96423209  MISS:          0
ITLB RFO       ACCESS:          0  HIT:          0  MISS:          0
ITLB PREFETCH  ACCESS:          0  HIT:          0  MISS:          0
ITLB WRITEBACK ACCESS:          0  HIT:          0  MISS:          0
ITLB PREFETCH  REQUESTED:          0  ISSUED:          0  USEFUL:          0  USELESS:          0
ITLB TOTAL MSHR MERGED:          0
ITLB LOAD MSHR MERGED:          0
ITLB RFO MSHR MERGED:          0
ITLB PREFETCH MSHR MERGED:          0
ITLB WRITEBACK MSHR MERGED:          0
ITLB TOTAL ACCESSES:   96423209 HITS:   96423209 MISSES:          0
ITLB LOAD ACCESSES:   96423209 HITS:   96423209 MISSES:          0
ITLB RFO ACCESSES:          0 HITS:          0 MISSES:          0
ITLB PREFETCH ACCESSES:          0 HITS:          0 MISSES:          0
ITLB WRITEBACK ACCESSES:          0 HITS:          0 MISSES:          0
ITLB RQ ACCESS:  499999980
ITLB RQ TO_CACHE:   96423209
ITLB RQ MERGED:  403576771
ITLB RQ FORWARD:          0
ITLB WQ ACCESS:          0
ITLB WQ TO_CACHE:          0
ITLB WQ MERGED:          0
ITLB WQ FORWARD:          0
DTLB TOTAL     ACCESS:  155176826  HIT:  150264651  MISS:    4912175
DTLB LOAD      ACCESS:  117727025  HIT:  113336515  MISS:    4390510
DTLB RFO       ACCESS:   37449801  HIT:   36928136  MISS:     521665
DTLB PREFETCH  ACCESS:          0  HIT:          0  MISS:          0
DTLB WRITEBACK ACCESS:          0  HIT:          0  MISS:          0
DTLB PREFETCH  REQUESTED:          0  ISSUED:          0  USEFUL:          0  USELESS:          0
DTLB TOTAL MSHR MERGED:     453825
DTLB LOAD MSHR MERGED:     162385
DTLB RFO MSHR MERGED:     291440
DTLB PREFETCH MSHR MERGED:          0
DTLB WRITEBACK MSHR MERGED:          0
DTLB TOTAL ACCESSES:  155630651 HITS:  150264651 MISSES:    5366000
DTLB LOAD ACCESSES:  117889410 HITS:  113336515 MISSES:    4552895
DTLB RFO ACCESSES:   37741241 HITS:   36928136 MISSES:     813105
DTLB PREFETCH ACCESSES:          0 HITS:          0 MISSES:          0
DTLB WRITEBACK ACCESSES:          0 HITS:          0 MISSES:          0
DTLB RQ ACCESS:  205983338
DTLB RQ TO_CACHE:  155630651
DTLB RQ MERGED:   50352687
DTLB RQ FORWARD:          0
DTLB WQ ACCESS:          0
DTLB WQ TO_CACHE:          0
DTLB WQ MERGED:          0
DTLB WQ FORWARD:          0
L1D TOTAL     ACCESS:  277185985  HIT:  242363289  MISS:   34822696
L1D LOAD      ACCESS:  125418111  HIT:  107788186  MISS:   17629925
L1D RFO       ACCESS:   41139016  HIT:   38827189  MISS:    2311827
L1D PREFETCH  ACCESS:  110628858  HIT:   95747914  MISS:   14880944
L1D WRITEBACK ACCESS:          0  HIT:          0  MISS:          0
L1D PREFETCH  REQUESTED:  126279924  ISSUED:  124760667  USEFUL:    2714759  USELESS:   12166211
L1D TOTAL MSHR MERGED:    8510187
L1D LOAD MSHR MERGED:    1558081
L1D RFO MSHR MERGED:    3766659
L1D PREFETCH MSHR MERGED:    3185447
L1D WRITEBACK MSHR MERGED:          0
L1D TOTAL ACCESSES:  285783465 HITS:  242450580 MISSES:   43332885
L1D LOAD ACCESSES:  126279947 HITS:  107788209 MISSES:   18491738
L1D RFO ACCESSES:   44905178 HITS:   38827189 MISSES:    6077989
L1D PREFETCH ACCESSES:  114598340 HITS:   95835182 MISSES:   18763158
L1D WRITEBACK ACCESSES:          0 HITS:          0 MISSES:          0
L1D RQ ACCESS:  158436457
L1D RQ TO_CACHE:  126279924
L1D RQ MERGED:   32156510
L1D RQ FORWARD:          0
L1D WQ ACCESS:   47546882
L1D WQ TO_CACHE:   44905178
L1D WQ MERGED:    2641704
L1D WQ FORWARD:      87291
L1I TOTAL     ACCESS:  132833114  HIT:  132833114  MISS:          0
L1I LOAD      ACCESS:  132833114  HIT:  132833114  MISS:          0
L1I RFO       ACCESS:          0  HIT:          0  MISS:          0
L1I PREFETCH  ACCESS:          0  HIT:          0  MISS:          0
L1I WRITEBACK ACCESS:          0  HIT:          0  MISS:          0
L1I PREFETCH  REQUESTED:          0  ISSUED:          0  USEFUL:          0  USELESS:          0
L1I TOTAL MSHR MERGED:          0
L1I LOAD MSHR MERGED:          0
L1I RFO MSHR MERGED:          0
L1I PREFETCH MSHR MERGED:          0
L1I WRITEBACK MSHR MERGED:          0
L1I TOTAL ACCESSES:  132833114 HITS:  132833114 MISSES:          0
L1I LOAD ACCESSES:  132833114 HITS:  132833114 MISSES:          0
L1I RFO ACCESSES:          0 HITS:          0 MISSES:          0
L1I PREFETCH ACCESSES:          0 HITS:          0 MISSES:          0
L1I WRITEBACK ACCESSES:          0 HITS:          0 MISSES:          0
L1I RQ ACCESS:  499999980
L1I RQ TO_CACHE:  132833114
L1I RQ MERGED:  367166866
L1I RQ FORWARD:          0
L1I WQ ACCESS:          0
L1I WQ TO_CACHE:          0
L1I WQ MERGED:          0
L1I WQ FORWARD:          0
L2C TOTAL     ACCESS:   39593232  HIT:   20623664  MISS:   18969568
L2C LOAD      ACCESS:   16933594  HIT:    8567803  MISS:    8365791
L2C RFO       ACCESS:    2311283  HIT:     630820  MISS:    1680463
L2C PREFETCH  ACCESS:   17125926  HIT:    8206364  MISS:    8919562
L2C WRITEBACK ACCESS:    3222429  HIT:    3218677  MISS:       3752
L2C PREFETCH  REQUESTED:    2841086  ISSUED:    2841086  USEFUL:    1307192  USELESS:    7612106
L2C TOTAL MSHR MERGED:     514833
L2C LOAD MSHR MERGED:      79308
L2C RFO MSHR MERGED:          0
L2C PREFETCH MSHR MERGED:     435525
L2C WRITEBACK MSHR MERGED:          0
L2C TOTAL ACCESSES:   40196258 HITS:   20623824 MISSES:   19572434
L2C LOAD ACCESSES:   16933657 HITS:    8567866 MISSES:    8365791
L2C RFO ACCESSES:    2311330 HITS:     630867 MISSES:    1680463
L2C PREFETCH ACCESSES:   17728842 HITS:    8206414 MISSES:    9522428
L2C WRITEBACK ACCESSES:    3222429 HITS:    3218677 MISSES:       3752
L2C RQ ACCESS:   19244987
L2C RQ TO_CACHE:   19244877
L2C RQ MERGED:          0
L2C RQ FORWARD:          0
L2C WQ ACCESS:    3222429
L2C WQ TO_CACHE:    3222429
L2C WQ MERGED:          0
L2C WQ FORWARD:        160
LLC TOTAL     ACCESS:   21186429  HIT:   14735359  MISS:    6451070
LLC LOAD      ACCESS:    8286459  HIT:    5777061  MISS:    2509398
LLC RFO       ACCESS:    1680392  HIT:    1678167  MISS:       2225
LLC PREFETCH  ACCESS:    9043906  HIT:    5106328  MISS:    3937578
LLC WRITEBACK ACCESS:    2175672  HIT:    2173803  MISS:       1869
LLC PREFETCH  REQUESTED:          0  ISSUED:          0  USEFUL:     213769  USELESS:    3726851
LLC TOTAL MSHR MERGED:      36198
LLC LOAD MSHR MERGED:      10933
LLC RFO MSHR MERGED:          0
LLC PREFETCH MSHR MERGED:      25265
LLC WRITEBACK MSHR MERGED:          0
LLC TOTAL ACCESSES:   21222751 HITS:   14735481 MISSES:    6487270
LLC LOAD ACCESSES:    8286483 HITS:    5777085 MISSES:    2509398
LLC RFO ACCESSES:    1680463 HITS:    1678238 MISSES:       2225
LLC PREFETCH ACCESSES:    9080133 HITS:    5106355 MISSES:    3973778
LLC WRITEBACK ACCESSES:    2175672 HITS:    2173803 MISSES:       1869
LLC 0 RQ ACCESS:    9966946
LLC 0 RQ TO_CACHE:    9966851
LLC 0 RQ MERGED:          0
LLC 0 RQ FORWARD:          0
LLC WQ ACCESS:    2175673
LLC WQ TO_CACHE:    2175673
LLC WQ MERGED:          0
LLC WQ FORWARD:        122
Major fault: 0 Minor fault: 56391
CPU 0 L1D next line prefetcher final stats
CPU 0 L2C PC-based stride prefetcher final stats
All Misses: 7648686
All Hits: 16914587
SD Algo Stats - Switches: 0 SRR-Repls: 2629608 BRR-Repls: 0

DRAM Statistics
 CHANNEL 0
 RQ ROW_BUFFER_HIT:    4574194  ROW_BUFFER_MISS:    1871852
 DBUS_CONGESTED:    3059974
 WQ ROW_BUFFER_HIT:        325  ROW_BUFFER_MISS:      11949  FULL:          0

 AVG_CONGESTED_CYCLE: 13
LOADS RETIRED: 173631671
INSTR RETIRED: 500000000
