
*** ChampSim Multicore Out-of-Order Simulator ***

Warmup Instructions: 100000000
Simulation Instructions: 500000000
Number of CPUs: 1
LLC sets: 2048
LLC ways: 16
Clean RRIP Policies: 2203230222032302 Dirty RRIP Policies: 1203130212031302 PSEL Width: 10 Track Set: 4294967295 PSEL Mask: 1 Demote Mask: 4040100040401000DS Algo: 0Window size: 0
Off-chip DRAM Size: 4096 MB Channels: 1 Width: 64-bit Data Rate: 1600 MT/s

CPU 0 runs /mnt/beegfs/iconst01/spec2017/Roms.trace.gz
NOT SORTED
TRACE STRING: /mnt/beegfs/iconst01/spec2017/Roms.trace.gz
SORTED
TRACE STRING: /mnt/beegfs/iconst01/spec2017/Roms.trace.gz
INITIAL
TRACE STRING: /mnt/beegfs/iconst01/spec2017/Roms.trace.gz

champsim_seed used: 417

CPU 0 L1D next line prefetcher
CPU 0 L2C IP-based stride prefetcher
Initialize DRRIP state
Assign rand_sets[0]: 454  LLC: 2048
rand_sets[0]: 454
Assign rand_sets[1]: 1662  LLC: 2048
rand_sets[1]: 1662
Assign rand_sets[2]: 1921  LLC: 2048
rand_sets[2]: 1921
Assign rand_sets[3]: 1131  LLC: 2048
rand_sets[3]: 1131
Assign rand_sets[4]: 331  LLC: 2048
rand_sets[4]: 331
Assign rand_sets[5]: 1531  LLC: 2048
rand_sets[5]: 1531
Assign rand_sets[6]: 482  LLC: 2048
rand_sets[6]: 482
Assign rand_sets[7]: 1275  LLC: 2048
rand_sets[7]: 1275
Assign rand_sets[8]: 1876  LLC: 2048
rand_sets[8]: 1876
Assign rand_sets[9]: 2038  LLC: 2048
rand_sets[9]: 2038
Assign rand_sets[10]: 701  LLC: 2048
rand_sets[10]: 701
Assign rand_sets[11]: 479  LLC: 2048
rand_sets[11]: 479
Assign rand_sets[12]: 892  LLC: 2048
rand_sets[12]: 892
Assign rand_sets[13]: 1820  LLC: 2048
rand_sets[13]: 1820
Assign rand_sets[14]: 1505  LLC: 2048
rand_sets[14]: 1505
Assign rand_sets[15]: 1159  LLC: 2048
rand_sets[15]: 1159
Assign rand_sets[16]: 513  LLC: 2048
rand_sets[16]: 513
Assign rand_sets[17]: 703  LLC: 2048
rand_sets[17]: 703
Assign rand_sets[18]: 561  LLC: 2048
rand_sets[18]: 561
Assign rand_sets[19]: 990  LLC: 2048
rand_sets[19]: 990
Assign rand_sets[20]: 342  LLC: 2048
rand_sets[20]: 342
Assign rand_sets[21]: 882  LLC: 2048
rand_sets[21]: 882
Assign rand_sets[22]: 15  LLC: 2048
rand_sets[22]: 15
Assign rand_sets[23]: 71  LLC: 2048
rand_sets[23]: 71
Assign rand_sets[24]: 1127  LLC: 2048
rand_sets[24]: 1127
Assign rand_sets[25]: 1382  LLC: 2048
rand_sets[25]: 1382
Assign rand_sets[26]: 647  LLC: 2048
rand_sets[26]: 647
Assign rand_sets[27]: 857  LLC: 2048
rand_sets[27]: 857
Assign rand_sets[28]: 1450  LLC: 2048
rand_sets[28]: 1450
Assign rand_sets[29]: 1160  LLC: 2048
rand_sets[29]: 1160
Assign rand_sets[30]: 1852  LLC: 2048
rand_sets[30]: 1852
Assign rand_sets[31]: 1881  LLC: 2048
rand_sets[31]: 1881
Assign rand_sets[32]: 1770  LLC: 2048
rand_sets[32]: 1770
Assign rand_sets[33]: 1622  LLC: 2048
rand_sets[33]: 1622
Assign rand_sets[34]: 275  LLC: 2048
rand_sets[34]: 275
Assign rand_sets[35]: 635  LLC: 2048
rand_sets[35]: 635
Assign rand_sets[36]: 466  LLC: 2048
rand_sets[36]: 466
Assign rand_sets[37]: 1413  LLC: 2048
rand_sets[37]: 1413
Assign rand_sets[38]: 417  LLC: 2048
rand_sets[38]: 417
Assign rand_sets[39]: 472  LLC: 2048
rand_sets[39]: 472
Assign rand_sets[40]: 1340  LLC: 2048
rand_sets[40]: 1340
Assign rand_sets[41]: 852  LLC: 2048
rand_sets[41]: 852
Assign rand_sets[42]: 1365  LLC: 2048
rand_sets[42]: 1365
Assign rand_sets[43]: 47  LLC: 2048
rand_sets[43]: 47
Assign rand_sets[44]: 823  LLC: 2048
rand_sets[44]: 823
Assign rand_sets[45]: 686  LLC: 2048
rand_sets[45]: 686
Assign rand_sets[46]: 1637  LLC: 2048
rand_sets[46]: 1637
Assign rand_sets[47]: 1115  LLC: 2048
rand_sets[47]: 1115
Assign rand_sets[48]: 986  LLC: 2048
rand_sets[48]: 986
Assign rand_sets[49]: 258  LLC: 2048
rand_sets[49]: 258
Assign rand_sets[50]: 633  LLC: 2048
rand_sets[50]: 633
Assign rand_sets[51]: 920  LLC: 2048
rand_sets[51]: 920
Assign rand_sets[52]: 204  LLC: 2048
rand_sets[52]: 204
Assign rand_sets[53]: 227  LLC: 2048
rand_sets[53]: 227
Assign rand_sets[54]: 1818  LLC: 2048
rand_sets[54]: 1818
Assign rand_sets[55]: 886  LLC: 2048
rand_sets[55]: 886
Assign rand_sets[56]: 1422  LLC: 2048
rand_sets[56]: 1422
Assign rand_sets[57]: 607  LLC: 2048
rand_sets[57]: 607
Assign rand_sets[58]: 217  LLC: 2048
rand_sets[58]: 217
Assign rand_sets[59]: 1945  LLC: 2048
rand_sets[59]: 1945
Assign rand_sets[60]: 143  LLC: 2048
rand_sets[60]: 143
Assign rand_sets[61]: 1311  LLC: 2048
rand_sets[61]: 1311
Assign rand_sets[62]: 319  LLC: 2048
rand_sets[62]: 319
Assign rand_sets[63]: 1846  LLC: 2048
rand_sets[63]: 1846
 CLEAN-RRIP-POLICY-1: 2-2-0-3-2-3-0-2- CLEAN-RRIP-POLICY-2: 2-2-0-3-2-3-0-2-
 DIRTY-RRIP-POLICY-1: 1-2-0-3-1-3-0-2- DIRTY-RRIP-POLICY-2: 1-2-0-3-1-3-0-2-
 PSEL width: 10
Heartbeat CPU 0 instructions: 10000000 cycles: 4688066 heartbeat IPC: 2.13308 cumulative IPC: 2.13308 (Simulation time: 0 hr 0 min 17 sec) 
Heartbeat CPU 0 instructions: 20000000 cycles: 9325334 heartbeat IPC: 2.15644 cumulative IPC: 2.1447 (Simulation time: 0 hr 0 min 34 sec) 
Heartbeat CPU 0 instructions: 30000003 cycles: 14019722 heartbeat IPC: 2.1302 cumulative IPC: 2.13984 (Simulation time: 0 hr 0 min 51 sec) 
Heartbeat CPU 0 instructions: 40000000 cycles: 18670140 heartbeat IPC: 2.15034 cumulative IPC: 2.14246 (Simulation time: 0 hr 1 min 8 sec) 
Heartbeat CPU 0 instructions: 50000003 cycles: 23323497 heartbeat IPC: 2.14899 cumulative IPC: 2.14376 (Simulation time: 0 hr 1 min 24 sec) 
Heartbeat CPU 0 instructions: 60000000 cycles: 27976128 heartbeat IPC: 2.14932 cumulative IPC: 2.14469 (Simulation time: 0 hr 1 min 41 sec) 
Heartbeat CPU 0 instructions: 70000002 cycles: 32367263 heartbeat IPC: 2.27732 cumulative IPC: 2.16268 (Simulation time: 0 hr 1 min 55 sec) 
Heartbeat CPU 0 instructions: 80000000 cycles: 36304044 heartbeat IPC: 2.54015 cumulative IPC: 2.20361 (Simulation time: 0 hr 2 min 7 sec) 
Heartbeat CPU 0 instructions: 90000000 cycles: 40249282 heartbeat IPC: 2.5347 cumulative IPC: 2.23606 (Simulation time: 0 hr 2 min 18 sec) 
Heartbeat CPU 0 instructions: 100000000 cycles: 44211553 heartbeat IPC: 2.52381 cumulative IPC: 2.26185 (Simulation time: 0 hr 2 min 30 sec) 

Warmup complete CPU 0 instructions: 100000002 cycles: 44211554 (Simulation time: 0 hr 2 min 30 sec) 

Heartbeat CPU 0 instructions: 110000000 cycles: 52785256 heartbeat IPC: 1.16636 cumulative IPC: 1.16636 (Simulation time: 0 hr 2 min 48 sec) 
Heartbeat CPU 0 instructions: 120000000 cycles: 61405995 heartbeat IPC: 1.15999 cumulative IPC: 1.16317 (Simulation time: 0 hr 3 min 7 sec) 
Heartbeat CPU 0 instructions: 130000002 cycles: 70075346 heartbeat IPC: 1.15349 cumulative IPC: 1.15992 (Simulation time: 0 hr 3 min 25 sec) 
Heartbeat CPU 0 instructions: 140000000 cycles: 78619830 heartbeat IPC: 1.17035 cumulative IPC: 1.16251 (Simulation time: 0 hr 3 min 43 sec) 
Heartbeat CPU 0 instructions: 150000003 cycles: 87317283 heartbeat IPC: 1.14976 cumulative IPC: 1.15994 (Simulation time: 0 hr 4 min 2 sec) 
Heartbeat CPU 0 instructions: 160000000 cycles: 97586954 heartbeat IPC: 0.973741 cumulative IPC: 1.12411 (Simulation time: 0 hr 4 min 22 sec) 
Heartbeat CPU 0 instructions: 170000000 cycles: 110057354 heartbeat IPC: 0.801899 cumulative IPC: 1.06309 (Simulation time: 0 hr 4 min 45 sec) 
Heartbeat CPU 0 instructions: 180000000 cycles: 122522871 heartbeat IPC: 0.802213 cumulative IPC: 1.02156 (Simulation time: 0 hr 5 min 8 sec) 
Heartbeat CPU 0 instructions: 190000000 cycles: 135235735 heartbeat IPC: 0.786605 cumulative IPC: 0.988748 (Simulation time: 0 hr 5 min 31 sec) 
Heartbeat CPU 0 instructions: 200000000 cycles: 149075883 heartbeat IPC: 0.722536 cumulative IPC: 0.953613 (Simulation time: 0 hr 5 min 54 sec) 
Heartbeat CPU 0 instructions: 210000001 cycles: 162981289 heartbeat IPC: 0.719145 cumulative IPC: 0.926162 (Simulation time: 0 hr 6 min 17 sec) 
Heartbeat CPU 0 instructions: 220000000 cycles: 176704658 heartbeat IPC: 0.728684 cumulative IPC: 0.905707 (Simulation time: 0 hr 6 min 41 sec) 
Heartbeat CPU 0 instructions: 230000000 cycles: 190226716 heartbeat IPC: 0.739532 cumulative IPC: 0.890319 (Simulation time: 0 hr 7 min 5 sec) 
Heartbeat CPU 0 instructions: 240000000 cycles: 203827902 heartbeat IPC: 0.73523 cumulative IPC: 0.877103 (Simulation time: 0 hr 7 min 29 sec) 
Heartbeat CPU 0 instructions: 250000003 cycles: 214900778 heartbeat IPC: 0.903108 cumulative IPC: 0.87879 (Simulation time: 0 hr 7 min 51 sec) 
Heartbeat CPU 0 instructions: 260000000 cycles: 222737074 heartbeat IPC: 1.27611 cumulative IPC: 0.89623 (Simulation time: 0 hr 8 min 10 sec) 
Heartbeat CPU 0 instructions: 270000003 cycles: 231029120 heartbeat IPC: 1.20598 cumulative IPC: 0.909979 (Simulation time: 0 hr 8 min 29 sec) 
Heartbeat CPU 0 instructions: 280000000 cycles: 239471031 heartbeat IPC: 1.18457 cumulative IPC: 0.92185 (Simulation time: 0 hr 8 min 49 sec) 
Heartbeat CPU 0 instructions: 290000000 cycles: 248074804 heartbeat IPC: 1.16228 cumulative IPC: 0.931997 (Simulation time: 0 hr 9 min 9 sec) 
Heartbeat CPU 0 instructions: 300000000 cycles: 256697280 heartbeat IPC: 1.15976 cumulative IPC: 0.94124 (Simulation time: 0 hr 9 min 29 sec) 
Heartbeat CPU 0 instructions: 310000000 cycles: 265383064 heartbeat IPC: 1.15131 cumulative IPC: 0.949489 (Simulation time: 0 hr 9 min 50 sec) 
Heartbeat CPU 0 instructions: 320000000 cycles: 274118432 heartbeat IPC: 1.14477 cumulative IPC: 0.956909 (Simulation time: 0 hr 10 min 11 sec) 
Heartbeat CPU 0 instructions: 330000002 cycles: 282815422 heartbeat IPC: 1.14982 cumulative IPC: 0.963941 (Simulation time: 0 hr 10 min 32 sec) 
Heartbeat CPU 0 instructions: 340000000 cycles: 292736240 heartbeat IPC: 1.00798 cumulative IPC: 0.965699 (Simulation time: 0 hr 10 min 54 sec) 
Heartbeat CPU 0 instructions: 350000001 cycles: 301092297 heartbeat IPC: 1.19674 cumulative IPC: 0.973214 (Simulation time: 0 hr 11 min 14 sec) 
Heartbeat CPU 0 instructions: 360000000 cycles: 309470076 heartbeat IPC: 1.19363 cumulative IPC: 0.980176 (Simulation time: 0 hr 11 min 34 sec) 
Heartbeat CPU 0 instructions: 370000001 cycles: 317860348 heartbeat IPC: 1.19186 cumulative IPC: 0.986666 (Simulation time: 0 hr 11 min 54 sec) 
Heartbeat CPU 0 instructions: 380000000 cycles: 326219396 heartbeat IPC: 1.19631 cumulative IPC: 0.99288 (Simulation time: 0 hr 12 min 14 sec) 
Heartbeat CPU 0 instructions: 390000001 cycles: 334410931 heartbeat IPC: 1.22077 cumulative IPC: 0.999313 (Simulation time: 0 hr 12 min 34 sec) 
Heartbeat CPU 0 instructions: 400000000 cycles: 342687549 heartbeat IPC: 1.20822 cumulative IPC: 1.00511 (Simulation time: 0 hr 12 min 54 sec) 
Heartbeat CPU 0 instructions: 410000003 cycles: 350877059 heartbeat IPC: 1.22107 cumulative IPC: 1.01087 (Simulation time: 0 hr 13 min 13 sec) 
Heartbeat CPU 0 instructions: 420000000 cycles: 359166399 heartbeat IPC: 1.20637 cumulative IPC: 1.01602 (Simulation time: 0 hr 13 min 33 sec) 
Heartbeat CPU 0 instructions: 430000001 cycles: 367374949 heartbeat IPC: 1.21824 cumulative IPC: 1.02116 (Simulation time: 0 hr 13 min 53 sec) 
Heartbeat CPU 0 instructions: 440000000 cycles: 375543944 heartbeat IPC: 1.22414 cumulative IPC: 1.02616 (Simulation time: 0 hr 14 min 13 sec) 
Heartbeat CPU 0 instructions: 450000001 cycles: 384969555 heartbeat IPC: 1.06094 cumulative IPC: 1.02712 (Simulation time: 0 hr 14 min 34 sec) 
Heartbeat CPU 0 instructions: 460000000 cycles: 393186125 heartbeat IPC: 1.21705 cumulative IPC: 1.03159 (Simulation time: 0 hr 14 min 54 sec) 
Heartbeat CPU 0 instructions: 470000003 cycles: 401278279 heartbeat IPC: 1.23577 cumulative IPC: 1.03622 (Simulation time: 0 hr 15 min 14 sec) 
Heartbeat CPU 0 instructions: 480000000 cycles: 409399110 heartbeat IPC: 1.2314 cumulative IPC: 1.04056 (Simulation time: 0 hr 15 min 33 sec) 
Heartbeat CPU 0 instructions: 490000000 cycles: 417499906 heartbeat IPC: 1.23445 cumulative IPC: 1.04477 (Simulation time: 0 hr 15 min 53 sec) 
Heartbeat CPU 0 instructions: 500000000 cycles: 425608329 heartbeat IPC: 1.23329 cumulative IPC: 1.04878 (Simulation time: 0 hr 16 min 13 sec) 
Heartbeat CPU 0 instructions: 510000001 cycles: 433675491 heartbeat IPC: 1.23959 cumulative IPC: 1.05273 (Simulation time: 0 hr 16 min 32 sec) 
Heartbeat CPU 0 instructions: 520000000 cycles: 441785563 heartbeat IPC: 1.23303 cumulative IPC: 1.05641 (Simulation time: 0 hr 16 min 52 sec) 
Heartbeat CPU 0 instructions: 530000001 cycles: 449890457 heartbeat IPC: 1.23382 cumulative IPC: 1.05995 (Simulation time: 0 hr 17 min 12 sec) 
Heartbeat CPU 0 instructions: 540000000 cycles: 458151617 heartbeat IPC: 1.21048 cumulative IPC: 1.06296 (Simulation time: 0 hr 17 min 31 sec) 
Heartbeat CPU 0 instructions: 550000000 cycles: 466479397 heartbeat IPC: 1.2008 cumulative IPC: 1.06567 (Simulation time: 0 hr 17 min 51 sec) 
Heartbeat CPU 0 instructions: 560000000 cycles: 474573049 heartbeat IPC: 1.23554 cumulative IPC: 1.06887 (Simulation time: 0 hr 18 min 11 sec) 
Heartbeat CPU 0 instructions: 570000001 cycles: 485659009 heartbeat IPC: 0.902042 cumulative IPC: 1.06468 (Simulation time: 0 hr 18 min 33 sec) 
Heartbeat CPU 0 instructions: 580000000 cycles: 496452622 heartbeat IPC: 0.926474 cumulative IPC: 1.06138 (Simulation time: 0 hr 18 min 54 sec) 
Heartbeat CPU 0 instructions: 590000001 cycles: 507516759 heartbeat IPC: 0.903821 cumulative IPC: 1.05762 (Simulation time: 0 hr 19 min 15 sec) 
Heartbeat CPU 0 instructions: 600000000 cycles: 518296619 heartbeat IPC: 0.927656 cumulative IPC: 1.05466 (Simulation time: 0 hr 19 min 36 sec) 
Finished CPU 0 instructions: 500000001 cycles: 474085078 cumulative IPC: 1.05466 (Simulation time: 0 hr 19 min 36 sec) 

CPU 0 Branch Prediction Accuracy: 99.7422% MPKI: 0.173296
Number of Branches: 33608403 Number of Mispredictions: 86648
Number of LOAD Instructions: 180215231
Number of LOAD Instructions (ROI): 180215231
Number of STORE Instructions: 36067263
Number of STORE Instructions (ROI): 36067263
Total Destination Memory Operands: 38428915
Total Destination Memory Operands (ROI): 38428915
Total Source Memory Operands: 180215231
Total Source Memory Operands (ROI): 180215231
Number of DEPENDED LOADS: 3041372
Number of DEPENDED LOADS (ROI): 3041372
Number of SQ_ADDED: 38428892
Number of SQ_ADDED (ROI): 38428892
Number of LQ_ADDED: 207666733
Number of LQ_ADDED (ROI): 207666733
Number of Instructions read from trace: 600000257

ChampSim completed all CPUs

Region of Interest Statistics

CPU 0 cumulative IPC: 1.05466 instructions: 500000001 cycles: 474085078
ITLB TOTAL     ACCESS:   91785147  HIT:   91785128  MISS:         19
ITLB LOAD      ACCESS:   91785147  HIT:   91785128  MISS:         19
ITLB RFO       ACCESS:          0  HIT:          0  MISS:          0
ITLB PREFETCH  ACCESS:          0  HIT:          0  MISS:          0
ITLB WRITEBACK ACCESS:          0  HIT:          0  MISS:          0
ITLB PREFETCH  REQUESTED:          0  ISSUED:          0  USEFUL:          0  USELESS:          0
ITLB TOTAL MSHR MERGED:         40
ITLB LOAD MSHR MERGED:         40
ITLB RFO MSHR MERGED:          0
ITLB PREFETCH MSHR MERGED:          0
ITLB WRITEBACK MSHR MERGED:          0
ITLB TOTAL ACCESSES:   91785187 HITS:   91785128 MISSES:         59
ITLB LOAD ACCESSES:   91785187 HITS:   91785128 MISSES:         59
ITLB RFO ACCESSES:          0 HITS:          0 MISSES:          0
ITLB PREFETCH ACCESSES:          0 HITS:          0 MISSES:          0
ITLB WRITEBACK ACCESSES:          0 HITS:          0 MISSES:          0
ITLB RQ ACCESS:  500000003
ITLB RQ TO_CACHE:   91785187
ITLB RQ MERGED:  408214816
ITLB RQ FORWARD:          0
ITLB WQ ACCESS:          0
ITLB WQ TO_CACHE:          0
ITLB WQ MERGED:          0
ITLB WQ FORWARD:          0
DTLB TOTAL     ACCESS:  142068384  HIT:  141701922  MISS:     366462
DTLB LOAD      ACCESS:  119427194  HIT:  119113608  MISS:     313586
DTLB RFO       ACCESS:   22641190  HIT:   22588314  MISS:      52876
DTLB PREFETCH  ACCESS:          0  HIT:          0  MISS:          0
DTLB WRITEBACK ACCESS:          0  HIT:          0  MISS:          0
DTLB PREFETCH  REQUESTED:          0  ISSUED:          0  USEFUL:          0  USELESS:          0
DTLB TOTAL MSHR MERGED:     288643
DTLB LOAD MSHR MERGED:     240749
DTLB RFO MSHR MERGED:      47894
DTLB PREFETCH MSHR MERGED:          0
DTLB WRITEBACK MSHR MERGED:          0
DTLB TOTAL ACCESSES:  142357027 HITS:  141701922 MISSES:     655105
DTLB LOAD ACCESSES:  119667943 HITS:  119113608 MISSES:     554335
DTLB RFO ACCESSES:   22689084 HITS:   22588314 MISSES:     100770
DTLB PREFETCH ACCESSES:          0 HITS:          0 MISSES:          0
DTLB WRITEBACK ACCESSES:          0 HITS:          0 MISSES:          0
DTLB RQ ACCESS:  184791605
DTLB RQ TO_CACHE:  142357027
DTLB RQ MERGED:   42434578
DTLB RQ FORWARD:          0
DTLB WQ ACCESS:          0
DTLB WQ TO_CACHE:          0
DTLB WQ MERGED:          0
DTLB WQ FORWARD:          0
L1D TOTAL     ACCESS:  190461033  HIT:  177008592  MISS:   13452441
L1D LOAD      ACCESS:  111991446  HIT:  108759422  MISS:    3232024
L1D RFO       ACCESS:   19086745  HIT:   16305005  MISS:    2781740
L1D PREFETCH  ACCESS:   59382842  HIT:   51944165  MISS:    7438677
L1D WRITEBACK ACCESS:          0  HIT:          0  MISS:          0
L1D PREFETCH  REQUESTED:  116525791  ISSUED:  115165121  USEFUL:    7228907  USELESS:     209770
L1D TOTAL MSHR MERGED:   31215277
L1D LOAD MSHR MERGED:    7210031
L1D RFO MSHR MERGED:    9166021
L1D PREFETCH MSHR MERGED:   14839225
L1D WRITEBACK MSHR MERGED:          0
L1D TOTAL ACCESSES:  221676710 HITS:  177008991 MISSES:   44667719
L1D LOAD ACCESSES:  116525811 HITS:  108759442 MISSES:    7766369
L1D RFO ACCESSES:   28252721 HITS:   16305005 MISSES:   11947716
L1D PREFETCH ACCESSES:   76898178 HITS:   51944544 MISSES:   24953634
L1D WRITEBACK ACCESSES:          0 HITS:          0 MISSES:          0
L1D RQ ACCESS:  156535539
L1D RQ TO_CACHE:  116525794
L1D RQ MERGED:   40009725
L1D RQ FORWARD:          0
L1D WQ ACCESS:   28256066
L1D WQ TO_CACHE:   28252721
L1D WQ MERGED:       3345
L1D WQ FORWARD:        399
L1I TOTAL     ACCESS:  115774234  HIT:  115773286  MISS:        948
L1I LOAD      ACCESS:  115774234  HIT:  115773286  MISS:        948
L1I RFO       ACCESS:          0  HIT:          0  MISS:          0
L1I PREFETCH  ACCESS:          0  HIT:          0  MISS:          0
L1I WRITEBACK ACCESS:          0  HIT:          0  MISS:          0
L1I PREFETCH  REQUESTED:          0  ISSUED:          0  USEFUL:          0  USELESS:          0
L1I TOTAL MSHR MERGED:       1566
L1I LOAD MSHR MERGED:       1566
L1I RFO MSHR MERGED:          0
L1I PREFETCH MSHR MERGED:          0
L1I WRITEBACK MSHR MERGED:          0
L1I TOTAL ACCESSES:  115775800 HITS:  115773286 MISSES:       2514
L1I LOAD ACCESSES:  115775800 HITS:  115773286 MISSES:       2514
L1I RFO ACCESSES:          0 HITS:          0 MISSES:          0
L1I PREFETCH ACCESSES:          0 HITS:          0 MISSES:          0
L1I WRITEBACK ACCESSES:          0 HITS:          0 MISSES:          0
L1I RQ ACCESS:  500000007
L1I RQ TO_CACHE:  115775800
L1I RQ MERGED:  384224207
L1I RQ FORWARD:          0
L1I WQ ACCESS:          0
L1I WQ TO_CACHE:          0
L1I WQ MERGED:          0
L1I WQ FORWARD:          0
L2C TOTAL     ACCESS:   16698151  HIT:    4853714  MISS:   11844437
L2C LOAD      ACCESS:     557255  HIT:      95574  MISS:     461681
L2C RFO       ACCESS:    2781695  HIT:     266671  MISS:    2515024
L2C PREFETCH  ACCESS:   10138562  HIT:    1273121  MISS:    8865441
L2C WRITEBACK ACCESS:    3220639  HIT:    3218348  MISS:       2291
L2C PREFETCH  REQUESTED:      26167  ISSUED:      26167  USEFUL:      92992  USELESS:    8770504
L2C TOTAL MSHR MERGED:        496
L2C LOAD MSHR MERGED:          6
L2C RFO MSHR MERGED:          0
L2C PREFETCH MSHR MERGED:        490
L2C WRITEBACK MSHR MERGED:          0
L2C TOTAL ACCESSES:   16698787 HITS:    4853765 MISSES:   11845022
L2C LOAD ACCESSES:     557286 HITS:      95605 MISSES:     461681
L2C RFO ACCESSES:    2781695 HITS:     266671 MISSES:    2515024
L2C PREFETCH ACCESSES:   10139167 HITS:    1273141 MISSES:    8866026
L2C WRITEBACK ACCESSES:    3220639 HITS:    3218348 MISSES:       2291
L2C RQ ACCESS:    3338981
L2C RQ TO_CACHE:    3338950
L2C RQ MERGED:          0
L2C RQ FORWARD:          0
L2C WQ ACCESS:    3220639
L2C WQ TO_CACHE:    3220639
L2C WQ MERGED:          0
L2C WQ FORWARD:         51
LLC TOTAL     ACCESS:   14742452  HIT:    7717950  MISS:    7024502
LLC LOAD      ACCESS:     461672  HIT:     233670  MISS:     228002
LLC RFO       ACCESS:    2515002  HIT:    1907612  MISS:     607390
LLC PREFETCH  ACCESS:    8865481  HIT:    3351754  MISS:    5513727
LLC WRITEBACK ACCESS:    2900297  HIT:    2224914  MISS:     675383
LLC PREFETCH  REQUESTED:          0  ISSUED:          0  USEFUL:       3832  USELESS:    5517957
LLC TOTAL MSHR MERGED:          1
LLC LOAD MSHR MERGED:          0
LLC RFO MSHR MERGED:          0
LLC PREFETCH MSHR MERGED:          1
LLC WRITEBACK MSHR MERGED:          0
LLC TOTAL ACCESSES:   14742526 HITS:    7718022 MISSES:    7024504
LLC LOAD ACCESSES:     461675 HITS:     233673 MISSES:     228002
LLC RFO ACCESSES:    2515024 HITS:    1907634 MISSES:     607390
LLC PREFETCH ACCESSES:    8865530 HITS:    3351801 MISSES:    5513729
LLC WRITEBACK ACCESSES:    2900297 HITS:    2224914 MISSES:     675383
LLC 0 RQ ACCESS:    2976699
LLC 0 RQ TO_CACHE:    2976674
LLC 0 RQ MERGED:          0
LLC 0 RQ FORWARD:          0
LLC WQ ACCESS:    2900297
LLC WQ TO_CACHE:    2900297
LLC WQ MERGED:          0
LLC WQ FORWARD:         72
Major fault: 0 Minor fault: 57518
CPU 0 L1D next line prefetcher final stats
CPU 0 L2C PC-based stride prefetcher final stats
All Misses: 7617595
All Hits: 8621038
SD Algo Stats - Switches: 0 SRR-Repls: 234404 BRR-Repls: 0

DRAM Statistics
 CHANNEL 0
 RQ ROW_BUFFER_HIT:    3632799  ROW_BUFFER_MISS:    2713753
 DBUS_CONGESTED:    2857441
 WQ ROW_BUFFER_HIT:      90279  ROW_BUFFER_MISS:     784361  FULL:          0

 AVG_CONGESTED_CYCLE: 12
LOADS RETIRED: 157818985
INSTR RETIRED: 500000000
