
*** ChampSim Multicore Out-of-Order Simulator ***

Warmup Instructions: 100000000
Simulation Instructions: 500000000
Number of CPUs: 1
LLC sets: 2048
LLC ways: 16
Clean RRIP Policies: 2213232222132322 Dirty RRIP Policies: 1203130212031302 PSEL Width: 10 Track Set: 4294967295 PSEL Mask: 1 Demote Mask: 1040100010401000DS Algo: 0Window size: 0
Off-chip DRAM Size: 4096 MB Channels: 1 Width: 64-bit Data Rate: 1600 MT/s

CPU 0 runs /mnt/beegfs/iconst01/spec2017/Cam4.trace.gz
NOT SORTED
TRACE STRING: /mnt/beegfs/iconst01/spec2017/Cam4.trace.gz
SORTED
TRACE STRING: /mnt/beegfs/iconst01/spec2017/Cam4.trace.gz
INITIAL
TRACE STRING: /mnt/beegfs/iconst01/spec2017/Cam4.trace.gz

champsim_seed used: 325

CPU 0 L1D next line prefetcher
CPU 0 L2C IP-based stride prefetcher
Initialize DRRIP state
Assign rand_sets[0]: 454  LLC: 2048
rand_sets[0]: 454
Assign rand_sets[1]: 1662  LLC: 2048
rand_sets[1]: 1662
Assign rand_sets[2]: 1921  LLC: 2048
rand_sets[2]: 1921
Assign rand_sets[3]: 1131  LLC: 2048
rand_sets[3]: 1131
Assign rand_sets[4]: 331  LLC: 2048
rand_sets[4]: 331
Assign rand_sets[5]: 1531  LLC: 2048
rand_sets[5]: 1531
Assign rand_sets[6]: 482  LLC: 2048
rand_sets[6]: 482
Assign rand_sets[7]: 1275  LLC: 2048
rand_sets[7]: 1275
Assign rand_sets[8]: 1876  LLC: 2048
rand_sets[8]: 1876
Assign rand_sets[9]: 2038  LLC: 2048
rand_sets[9]: 2038
Assign rand_sets[10]: 701  LLC: 2048
rand_sets[10]: 701
Assign rand_sets[11]: 479  LLC: 2048
rand_sets[11]: 479
Assign rand_sets[12]: 892  LLC: 2048
rand_sets[12]: 892
Assign rand_sets[13]: 1820  LLC: 2048
rand_sets[13]: 1820
Assign rand_sets[14]: 1505  LLC: 2048
rand_sets[14]: 1505
Assign rand_sets[15]: 1159  LLC: 2048
rand_sets[15]: 1159
Assign rand_sets[16]: 513  LLC: 2048
rand_sets[16]: 513
Assign rand_sets[17]: 703  LLC: 2048
rand_sets[17]: 703
Assign rand_sets[18]: 561  LLC: 2048
rand_sets[18]: 561
Assign rand_sets[19]: 990  LLC: 2048
rand_sets[19]: 990
Assign rand_sets[20]: 342  LLC: 2048
rand_sets[20]: 342
Assign rand_sets[21]: 882  LLC: 2048
rand_sets[21]: 882
Assign rand_sets[22]: 15  LLC: 2048
rand_sets[22]: 15
Assign rand_sets[23]: 71  LLC: 2048
rand_sets[23]: 71
Assign rand_sets[24]: 1127  LLC: 2048
rand_sets[24]: 1127
Assign rand_sets[25]: 1382  LLC: 2048
rand_sets[25]: 1382
Assign rand_sets[26]: 647  LLC: 2048
rand_sets[26]: 647
Assign rand_sets[27]: 857  LLC: 2048
rand_sets[27]: 857
Assign rand_sets[28]: 1450  LLC: 2048
rand_sets[28]: 1450
Assign rand_sets[29]: 1160  LLC: 2048
rand_sets[29]: 1160
Assign rand_sets[30]: 1852  LLC: 2048
rand_sets[30]: 1852
Assign rand_sets[31]: 1881  LLC: 2048
rand_sets[31]: 1881
Assign rand_sets[32]: 1770  LLC: 2048
rand_sets[32]: 1770
Assign rand_sets[33]: 1622  LLC: 2048
rand_sets[33]: 1622
Assign rand_sets[34]: 275  LLC: 2048
rand_sets[34]: 275
Assign rand_sets[35]: 635  LLC: 2048
rand_sets[35]: 635
Assign rand_sets[36]: 466  LLC: 2048
rand_sets[36]: 466
Assign rand_sets[37]: 1413  LLC: 2048
rand_sets[37]: 1413
Assign rand_sets[38]: 417  LLC: 2048
rand_sets[38]: 417
Assign rand_sets[39]: 472  LLC: 2048
rand_sets[39]: 472
Assign rand_sets[40]: 1340  LLC: 2048
rand_sets[40]: 1340
Assign rand_sets[41]: 852  LLC: 2048
rand_sets[41]: 852
Assign rand_sets[42]: 1365  LLC: 2048
rand_sets[42]: 1365
Assign rand_sets[43]: 47  LLC: 2048
rand_sets[43]: 47
Assign rand_sets[44]: 823  LLC: 2048
rand_sets[44]: 823
Assign rand_sets[45]: 686  LLC: 2048
rand_sets[45]: 686
Assign rand_sets[46]: 1637  LLC: 2048
rand_sets[46]: 1637
Assign rand_sets[47]: 1115  LLC: 2048
rand_sets[47]: 1115
Assign rand_sets[48]: 986  LLC: 2048
rand_sets[48]: 986
Assign rand_sets[49]: 258  LLC: 2048
rand_sets[49]: 258
Assign rand_sets[50]: 633  LLC: 2048
rand_sets[50]: 633
Assign rand_sets[51]: 920  LLC: 2048
rand_sets[51]: 920
Assign rand_sets[52]: 204  LLC: 2048
rand_sets[52]: 204
Assign rand_sets[53]: 227  LLC: 2048
rand_sets[53]: 227
Assign rand_sets[54]: 1818  LLC: 2048
rand_sets[54]: 1818
Assign rand_sets[55]: 886  LLC: 2048
rand_sets[55]: 886
Assign rand_sets[56]: 1422  LLC: 2048
rand_sets[56]: 1422
Assign rand_sets[57]: 607  LLC: 2048
rand_sets[57]: 607
Assign rand_sets[58]: 217  LLC: 2048
rand_sets[58]: 217
Assign rand_sets[59]: 1945  LLC: 2048
rand_sets[59]: 1945
Assign rand_sets[60]: 143  LLC: 2048
rand_sets[60]: 143
Assign rand_sets[61]: 1311  LLC: 2048
rand_sets[61]: 1311
Assign rand_sets[62]: 319  LLC: 2048
rand_sets[62]: 319
Assign rand_sets[63]: 1846  LLC: 2048
rand_sets[63]: 1846
 CLEAN-RRIP-POLICY-1: 2-2-1-3-2-3-2-2- CLEAN-RRIP-POLICY-2: 2-2-1-3-2-3-2-2-
 DIRTY-RRIP-POLICY-1: 1-2-0-3-1-3-0-2- DIRTY-RRIP-POLICY-2: 1-2-0-3-1-3-0-2-
 PSEL width: 10
Heartbeat CPU 0 instructions: 10000000 cycles: 4859184 heartbeat IPC: 2.05796 cumulative IPC: 2.05796 (Simulation time: 0 hr 0 min 16 sec) 
Heartbeat CPU 0 instructions: 20000000 cycles: 9790786 heartbeat IPC: 2.02774 cumulative IPC: 2.04274 (Simulation time: 0 hr 0 min 33 sec) 
Heartbeat CPU 0 instructions: 30000001 cycles: 14563050 heartbeat IPC: 2.09544 cumulative IPC: 2.06001 (Simulation time: 0 hr 0 min 48 sec) 
Heartbeat CPU 0 instructions: 40000000 cycles: 19400065 heartbeat IPC: 2.06739 cumulative IPC: 2.06185 (Simulation time: 0 hr 1 min 5 sec) 
Heartbeat CPU 0 instructions: 50000000 cycles: 24256646 heartbeat IPC: 2.05906 cumulative IPC: 2.06129 (Simulation time: 0 hr 1 min 22 sec) 
Heartbeat CPU 0 instructions: 60000000 cycles: 29182172 heartbeat IPC: 2.03024 cumulative IPC: 2.05605 (Simulation time: 0 hr 1 min 39 sec) 
Heartbeat CPU 0 instructions: 70000001 cycles: 33957410 heartbeat IPC: 2.09414 cumulative IPC: 2.06141 (Simulation time: 0 hr 1 min 54 sec) 
Heartbeat CPU 0 instructions: 80000000 cycles: 38793706 heartbeat IPC: 2.0677 cumulative IPC: 2.06219 (Simulation time: 0 hr 2 min 11 sec) 
Heartbeat CPU 0 instructions: 90000002 cycles: 43647746 heartbeat IPC: 2.06014 cumulative IPC: 2.06196 (Simulation time: 0 hr 2 min 28 sec) 
Heartbeat CPU 0 instructions: 100000000 cycles: 48566606 heartbeat IPC: 2.03299 cumulative IPC: 2.05903 (Simulation time: 0 hr 2 min 45 sec) 

Warmup complete CPU 0 instructions: 100000001 cycles: 48566607 (Simulation time: 0 hr 2 min 45 sec) 

Heartbeat CPU 0 instructions: 110000000 cycles: 61686419 heartbeat IPC: 0.762206 cumulative IPC: 0.762206 (Simulation time: 0 hr 3 min 8 sec) 
Heartbeat CPU 0 instructions: 120000000 cycles: 75451209 heartbeat IPC: 0.726491 cumulative IPC: 0.74392 (Simulation time: 0 hr 3 min 33 sec) 
Heartbeat CPU 0 instructions: 130000000 cycles: 89200697 heartbeat IPC: 0.7273 cumulative IPC: 0.738296 (Simulation time: 0 hr 3 min 59 sec) 
Heartbeat CPU 0 instructions: 140000000 cycles: 103479271 heartbeat IPC: 0.70035 cumulative IPC: 0.728429 (Simulation time: 0 hr 4 min 24 sec) 
Heartbeat CPU 0 instructions: 150000003 cycles: 116671073 heartbeat IPC: 0.758047 cumulative IPC: 0.734166 (Simulation time: 0 hr 4 min 47 sec) 
Heartbeat CPU 0 instructions: 160000000 cycles: 130433493 heartbeat IPC: 0.726616 cumulative IPC: 0.732897 (Simulation time: 0 hr 5 min 13 sec) 
Heartbeat CPU 0 instructions: 170000001 cycles: 144220217 heartbeat IPC: 0.725336 cumulative IPC: 0.731807 (Simulation time: 0 hr 5 min 38 sec) 
Heartbeat CPU 0 instructions: 180000000 cycles: 158489947 heartbeat IPC: 0.700784 cumulative IPC: 0.72778 (Simulation time: 0 hr 6 min 4 sec) 
Heartbeat CPU 0 instructions: 190000003 cycles: 171653130 heartbeat IPC: 0.759695 cumulative IPC: 0.731193 (Simulation time: 0 hr 6 min 27 sec) 
Heartbeat CPU 0 instructions: 200000000 cycles: 185419098 heartbeat IPC: 0.726429 cumulative IPC: 0.730714 (Simulation time: 0 hr 6 min 52 sec) 
Heartbeat CPU 0 instructions: 210000002 cycles: 199207811 heartbeat IPC: 0.725231 cumulative IPC: 0.730212 (Simulation time: 0 hr 7 min 17 sec) 
Heartbeat CPU 0 instructions: 220000000 cycles: 213480947 heartbeat IPC: 0.700617 cumulative IPC: 0.72765 (Simulation time: 0 hr 7 min 43 sec) 
Heartbeat CPU 0 instructions: 230000001 cycles: 226585835 heartbeat IPC: 0.763074 cumulative IPC: 0.730258 (Simulation time: 0 hr 8 min 6 sec) 
Heartbeat CPU 0 instructions: 240000000 cycles: 240344193 heartbeat IPC: 0.726831 cumulative IPC: 0.730012 (Simulation time: 0 hr 8 min 31 sec) 
Heartbeat CPU 0 instructions: 250000001 cycles: 254079921 heartbeat IPC: 0.728028 cumulative IPC: 0.72988 (Simulation time: 0 hr 8 min 57 sec) 
Heartbeat CPU 0 instructions: 260000000 cycles: 268235971 heartbeat IPC: 0.706412 cumulative IPC: 0.728367 (Simulation time: 0 hr 9 min 22 sec) 
Heartbeat CPU 0 instructions: 270000003 cycles: 281451088 heartbeat IPC: 0.756709 cumulative IPC: 0.729976 (Simulation time: 0 hr 9 min 45 sec) 
Heartbeat CPU 0 instructions: 280000000 cycles: 295229599 heartbeat IPC: 0.725768 cumulative IPC: 0.729741 (Simulation time: 0 hr 10 min 10 sec) 
Heartbeat CPU 0 instructions: 290000001 cycles: 309012108 heartbeat IPC: 0.725557 cumulative IPC: 0.729519 (Simulation time: 0 hr 10 min 36 sec) 
Heartbeat CPU 0 instructions: 300000000 cycles: 323101090 heartbeat IPC: 0.709774 cumulative IPC: 0.728506 (Simulation time: 0 hr 11 min 1 sec) 
Heartbeat CPU 0 instructions: 310000000 cycles: 336346082 heartbeat IPC: 0.755002 cumulative IPC: 0.729725 (Simulation time: 0 hr 11 min 24 sec) 
Heartbeat CPU 0 instructions: 320000000 cycles: 350164578 heartbeat IPC: 0.723668 cumulative IPC: 0.729448 (Simulation time: 0 hr 11 min 49 sec) 
Heartbeat CPU 0 instructions: 330000000 cycles: 363964988 heartbeat IPC: 0.724616 cumulative IPC: 0.729236 (Simulation time: 0 hr 12 min 15 sec) 
Heartbeat CPU 0 instructions: 340000000 cycles: 378028325 heartbeat IPC: 0.711069 cumulative IPC: 0.728461 (Simulation time: 0 hr 12 min 40 sec) 
Heartbeat CPU 0 instructions: 350000000 cycles: 391315016 heartbeat IPC: 0.752633 cumulative IPC: 0.729398 (Simulation time: 0 hr 13 min 2 sec) 
Heartbeat CPU 0 instructions: 360000000 cycles: 405162685 heartbeat IPC: 0.722143 cumulative IPC: 0.729116 (Simulation time: 0 hr 13 min 27 sec) 
Heartbeat CPU 0 instructions: 370000003 cycles: 418968523 heartbeat IPC: 0.724331 cumulative IPC: 0.728938 (Simulation time: 0 hr 13 min 52 sec) 
Heartbeat CPU 0 instructions: 380000000 cycles: 432996048 heartbeat IPC: 0.712884 cumulative IPC: 0.728352 (Simulation time: 0 hr 14 min 18 sec) 
Heartbeat CPU 0 instructions: 390000003 cycles: 446276724 heartbeat IPC: 0.752974 cumulative IPC: 0.729174 (Simulation time: 0 hr 14 min 40 sec) 
Heartbeat CPU 0 instructions: 400000000 cycles: 460121470 heartbeat IPC: 0.722295 cumulative IPC: 0.728943 (Simulation time: 0 hr 15 min 5 sec) 
Heartbeat CPU 0 instructions: 410000000 cycles: 473894361 heartbeat IPC: 0.726064 cumulative IPC: 0.72885 (Simulation time: 0 hr 15 min 30 sec) 
Heartbeat CPU 0 instructions: 420000000 cycles: 487908783 heartbeat IPC: 0.713551 cumulative IPC: 0.728362 (Simulation time: 0 hr 15 min 55 sec) 
Heartbeat CPU 0 instructions: 430000003 cycles: 501216769 heartbeat IPC: 0.751429 cumulative IPC: 0.72904 (Simulation time: 0 hr 16 min 18 sec) 
Heartbeat CPU 0 instructions: 440000000 cycles: 515059324 heartbeat IPC: 0.72241 cumulative IPC: 0.728843 (Simulation time: 0 hr 16 min 43 sec) 
Heartbeat CPU 0 instructions: 450000000 cycles: 528855406 heartbeat IPC: 0.724844 cumulative IPC: 0.728728 (Simulation time: 0 hr 17 min 8 sec) 
Heartbeat CPU 0 instructions: 460000000 cycles: 542853076 heartbeat IPC: 0.714405 cumulative IPC: 0.728323 (Simulation time: 0 hr 17 min 33 sec) 
Heartbeat CPU 0 instructions: 470000001 cycles: 556147818 heartbeat IPC: 0.752177 cumulative IPC: 0.728947 (Simulation time: 0 hr 17 min 55 sec) 
Heartbeat CPU 0 instructions: 480000000 cycles: 569966925 heartbeat IPC: 0.723636 cumulative IPC: 0.728807 (Simulation time: 0 hr 18 min 20 sec) 
Heartbeat CPU 0 instructions: 490000002 cycles: 583734782 heartbeat IPC: 0.72633 cumulative IPC: 0.728743 (Simulation time: 0 hr 18 min 45 sec) 
Heartbeat CPU 0 instructions: 500000000 cycles: 597729533 heartbeat IPC: 0.714553 cumulative IPC: 0.728381 (Simulation time: 0 hr 19 min 10 sec) 
Heartbeat CPU 0 instructions: 510000002 cycles: 611075478 heartbeat IPC: 0.749291 cumulative IPC: 0.728877 (Simulation time: 0 hr 19 min 32 sec) 
Heartbeat CPU 0 instructions: 520000000 cycles: 624882709 heartbeat IPC: 0.724258 cumulative IPC: 0.728767 (Simulation time: 0 hr 19 min 57 sec) 
Heartbeat CPU 0 instructions: 530000003 cycles: 638632590 heartbeat IPC: 0.727279 cumulative IPC: 0.728732 (Simulation time: 0 hr 20 min 22 sec) 
Heartbeat CPU 0 instructions: 540000000 cycles: 652648531 heartbeat IPC: 0.713473 cumulative IPC: 0.728378 (Simulation time: 0 hr 20 min 47 sec) 
Heartbeat CPU 0 instructions: 550000003 cycles: 665981748 heartbeat IPC: 0.750007 cumulative IPC: 0.728845 (Simulation time: 0 hr 21 min 10 sec) 
Heartbeat CPU 0 instructions: 560000000 cycles: 679766951 heartbeat IPC: 0.725415 cumulative IPC: 0.72877 (Simulation time: 0 hr 21 min 35 sec) 
Heartbeat CPU 0 instructions: 570000001 cycles: 693543455 heartbeat IPC: 0.725874 cumulative IPC: 0.728708 (Simulation time: 0 hr 22 min 0 sec) 
Heartbeat CPU 0 instructions: 580000000 cycles: 707584690 heartbeat IPC: 0.712188 cumulative IPC: 0.728356 (Simulation time: 0 hr 22 min 25 sec) 
Heartbeat CPU 0 instructions: 590000000 cycles: 720860034 heartbeat IPC: 0.753276 cumulative IPC: 0.728848 (Simulation time: 0 hr 22 min 47 sec) 
Heartbeat CPU 0 instructions: 600000000 cycles: 734653830 heartbeat IPC: 0.724964 cumulative IPC: 0.72877 (Simulation time: 0 hr 23 min 12 sec) 
Finished CPU 0 instructions: 500000001 cycles: 686087231 cumulative IPC: 0.72877 (Simulation time: 0 hr 23 min 12 sec) 

CPU 0 Branch Prediction Accuracy: 97.5275% MPKI: 2.1997
Number of Branches: 44482865 Number of Mispredictions: 1099852
Number of LOAD Instructions: 144955155
Number of LOAD Instructions (ROI): 144955155
Number of STORE Instructions: 55921098
Number of STORE Instructions (ROI): 55921098
Total Destination Memory Operands: 57111147
Total Destination Memory Operands (ROI): 57111147
Total Source Memory Operands: 144955155
Total Source Memory Operands (ROI): 144955155
Number of DEPENDED LOADS: 13454807
Number of DEPENDED LOADS (ROI): 13454807
Number of SQ_ADDED: 57111126
Number of SQ_ADDED (ROI): 57111126
Number of LQ_ADDED: 174198682
Number of LQ_ADDED (ROI): 174198682
Number of Instructions read from trace: 600000256

ChampSim completed all CPUs

Region of Interest Statistics

CPU 0 cumulative IPC: 0.72877 instructions: 500000001 cycles: 686087231
ITLB TOTAL     ACCESS:  136070290  HIT:  136067737  MISS:       2553
ITLB LOAD      ACCESS:  136070290  HIT:  136067737  MISS:       2553
ITLB RFO       ACCESS:          0  HIT:          0  MISS:          0
ITLB PREFETCH  ACCESS:          0  HIT:          0  MISS:          0
ITLB WRITEBACK ACCESS:          0  HIT:          0  MISS:          0
ITLB PREFETCH  REQUESTED:          0  ISSUED:          0  USEFUL:          0  USELESS:          0
ITLB TOTAL MSHR MERGED:       4367
ITLB LOAD MSHR MERGED:       4367
ITLB RFO MSHR MERGED:          0
ITLB PREFETCH MSHR MERGED:          0
ITLB WRITEBACK MSHR MERGED:          0
ITLB TOTAL ACCESSES:  136074657 HITS:  136067737 MISSES:       6920
ITLB LOAD ACCESSES:  136074657 HITS:  136067737 MISSES:       6920
ITLB RFO ACCESSES:          0 HITS:          0 MISSES:          0
ITLB PREFETCH ACCESSES:          0 HITS:          0 MISSES:          0
ITLB WRITEBACK ACCESSES:          0 HITS:          0 MISSES:          0
ITLB RQ ACCESS:  500000202
ITLB RQ TO_CACHE:  136074657
ITLB RQ MERGED:  363925545
ITLB RQ FORWARD:          0
ITLB WQ ACCESS:          0
ITLB WQ TO_CACHE:          0
ITLB WQ MERGED:          0
ITLB WQ FORWARD:          0
DTLB TOTAL     ACCESS:  111553458  HIT:  111417265  MISS:     136193
DTLB LOAD      ACCESS:   78953668  HIT:   78828044  MISS:     125624
DTLB RFO       ACCESS:   32599790  HIT:   32589221  MISS:      10569
DTLB PREFETCH  ACCESS:          0  HIT:          0  MISS:          0
DTLB WRITEBACK ACCESS:          0  HIT:          0  MISS:          0
DTLB PREFETCH  REQUESTED:          0  ISSUED:          0  USEFUL:          0  USELESS:          0
DTLB TOTAL MSHR MERGED:      63550
DTLB LOAD MSHR MERGED:      50819
DTLB RFO MSHR MERGED:      12731
DTLB PREFETCH MSHR MERGED:          0
DTLB WRITEBACK MSHR MERGED:          0
DTLB TOTAL ACCESSES:  111617008 HITS:  111417265 MISSES:     199743
DTLB LOAD ACCESSES:   79004487 HITS:   78828044 MISSES:     176443
DTLB RFO ACCESSES:   32612521 HITS:   32589221 MISSES:      23300
DTLB PREFETCH ACCESSES:          0 HITS:          0 MISSES:          0
DTLB WRITEBACK ACCESSES:          0 HITS:          0 MISSES:          0
DTLB RQ ACCESS:  157180624
DTLB RQ TO_CACHE:  111617008
DTLB RQ MERGED:   45563616
DTLB RQ FORWARD:          0
DTLB WQ ACCESS:          0
DTLB WQ TO_CACHE:          0
DTLB WQ MERGED:          0
DTLB WQ FORWARD:          0
L1D TOTAL     ACCESS:  198261087  HIT:  188419983  MISS:    9841104
L1D LOAD      ACCESS:   79952267  HIT:   75690887  MISS:    4261380
L1D RFO       ACCESS:   44547774  HIT:   43647534  MISS:     900240
L1D PREFETCH  ACCESS:   73761046  HIT:   69081562  MISS:    4679484
L1D WRITEBACK ACCESS:          0  HIT:          0  MISS:          0
L1D PREFETCH  REQUESTED:   80349124  ISSUED:   79893486  USEFUL:    1821189  USELESS:    2858204
L1D TOTAL MSHR MERGED:    2474769
L1D LOAD MSHR MERGED:     519840
L1D RFO MSHR MERGED:    1404944
L1D PREFETCH MSHR MERGED:     549985
L1D WRITEBACK MSHR MERGED:          0
L1D TOTAL ACCESSES:  200756998 HITS:  188441125 MISSES:   12315873
L1D LOAD ACCESSES:   80361647 HITS:   75703410 MISSES:    4658237
L1D RFO ACCESSES:   45949839 HITS:   43647534 MISSES:    2302305
L1D PREFETCH ACCESSES:   74445512 HITS:   69090181 MISSES:    5355331
L1D WRITEBACK ACCESSES:          0 HITS:          0 MISSES:          0
L1D RQ ACCESS:  109538654
L1D RQ TO_CACHE:   80349124
L1D RQ MERGED:   29177007
L1D RQ FORWARD:          0
L1D WQ ACCESS:   47641970
L1D WQ TO_CACHE:   45949839
L1D WQ MERGED:    1692131
L1D WQ FORWARD:      21142
L1I TOTAL     ACCESS:  161540159  HIT:  161276191  MISS:     263968
L1I LOAD      ACCESS:  161540159  HIT:  161276191  MISS:     263968
L1I RFO       ACCESS:          0  HIT:          0  MISS:          0
L1I PREFETCH  ACCESS:          0  HIT:          0  MISS:          0
L1I WRITEBACK ACCESS:          0  HIT:          0  MISS:          0
L1I PREFETCH  REQUESTED:          0  ISSUED:          0  USEFUL:          0  USELESS:          0
L1I TOTAL MSHR MERGED:     261222
L1I LOAD MSHR MERGED:     261222
L1I RFO MSHR MERGED:          0
L1I PREFETCH MSHR MERGED:          0
L1I WRITEBACK MSHR MERGED:          0
L1I TOTAL ACCESSES:  161801381 HITS:  161276191 MISSES:     525190
L1I LOAD ACCESSES:  161801381 HITS:  161276191 MISSES:     525190
L1I RFO ACCESSES:          0 HITS:          0 MISSES:          0
L1I PREFETCH ACCESSES:          0 HITS:          0 MISSES:          0
L1I WRITEBACK ACCESSES:          0 HITS:          0 MISSES:          0
L1I RQ ACCESS:  500000202
L1I RQ TO_CACHE:  161801381
L1I RQ MERGED:  338198821
L1I RQ FORWARD:          0
L1I WQ ACCESS:          0
L1I WQ TO_CACHE:          0
L1I WQ MERGED:          0
L1I WQ FORWARD:          0
L2C TOTAL     ACCESS:   11771768  HIT:   10382479  MISS:    1389289
L2C LOAD      ACCESS:    4402300  HIT:    3905715  MISS:     496585
L2C RFO       ACCESS:     897296  HIT:     536288  MISS:     361008
L2C PREFETCH  ACCESS:    5284608  HIT:    4755857  MISS:     528751
L2C WRITEBACK ACCESS:    1187564  HIT:    1184619  MISS:       2945
L2C PREFETCH  REQUESTED:     504524  ISSUED:     504524  USEFUL:     114878  USELESS:     414065
L2C TOTAL MSHR MERGED:       1913
L2C LOAD MSHR MERGED:        400
L2C RFO MSHR MERGED:          0
L2C PREFETCH MSHR MERGED:       1513
L2C WRITEBACK MSHR MERGED:          0
L2C TOTAL ACCESSES:   11776438 HITS:   10382698 MISSES:    1393740
L2C LOAD ACCESSES:    4402365 HITS:    3905780 MISSES:     496585
L2C RFO ACCESSES:     897361 HITS:     536353 MISSES:     361008
L2C PREFETCH ACCESSES:    5289148 HITS:    4755946 MISSES:     533202
L2C WRITEBACK ACCESSES:    1187564 HITS:    1184619 MISSES:       2945
L2C RQ ACCESS:    5299726
L2C RQ TO_CACHE:    5299596
L2C RQ MERGED:          0
L2C RQ FORWARD:          0
L2C WQ ACCESS:    1187564
L2C WQ TO_CACHE:    1187564
L2C WQ MERGED:          0
L2C WQ FORWARD:        219
LLC TOTAL     ACCESS:    1849502  HIT:    1145579  MISS:     703923
LLC LOAD      ACCESS:     496182  HIT:     201942  MISS:     294240
LLC RFO       ACCESS:     361005  HIT:     256115  MISS:     104890
LLC PREFETCH  ACCESS:     531591  HIT:     314604  MISS:     216987
LLC WRITEBACK ACCESS:     460724  HIT:     372918  MISS:      87806
LLC PREFETCH  REQUESTED:          0  ISSUED:          0  USEFUL:       4284  USELESS:     212904
LLC TOTAL MSHR MERGED:         73
LLC LOAD MSHR MERGED:         33
LLC RFO MSHR MERGED:          0
LLC PREFETCH MSHR MERGED:         40
LLC WRITEBACK MSHR MERGED:          0
LLC TOTAL ACCESSES:    1849600 HITS:    1145604 MISSES:     703996
LLC LOAD ACCESSES:     496185 HITS:     201945 MISSES:     294240
LLC RFO ACCESSES:     361008 HITS:     256118 MISSES:     104890
LLC PREFETCH ACCESSES:     531683 HITS:     314623 MISSES:     217060
LLC WRITEBACK ACCESSES:     460724 HITS:     372918 MISSES:      87806
LLC 0 RQ ACCESS:     857193
LLC 0 RQ TO_CACHE:     857187
LLC 0 RQ MERGED:          0
LLC 0 RQ FORWARD:          0
LLC WQ ACCESS:     460724
LLC WQ TO_CACHE:     460724
LLC WQ MERGED:          0
LLC WQ FORWARD:         25
Major fault: 0 Minor fault: 3073
CPU 0 L1D next line prefetcher final stats
CPU 0 L2C PC-based stride prefetcher final stats
All Misses: 858980
All Hits: 1317213
SD Algo Stats - Switches: 0 SRR-Repls: 334945 BRR-Repls: 0

DRAM Statistics
 CHANNEL 0
 RQ ROW_BUFFER_HIT:     421923  ROW_BUFFER_MISS:     194025
 DBUS_CONGESTED:     434635
 WQ ROW_BUFFER_HIT:      14241  ROW_BUFFER_MISS:      96233  FULL:          0

 AVG_CONGESTED_CYCLE: 13
LOADS RETIRED: 120673965
INSTR RETIRED: 500000000
