
*** ChampSim Multicore Out-of-Order Simulator ***

Warmup Instructions: 100000000
Simulation Instructions: 500000000
Number of CPUs: 1
LLC sets: 2048
LLC ways: 16
Clean RRIP Policies: 1113130111131301 Dirty RRIP Policies: 1103130111031301 PSEL Width: 10 Track Set: 4294967295 PSEL Mask: 1 Demote Mask: 3101400031014DS Algo: 0Window size: 0
Off-chip DRAM Size: 4096 MB Channels: 1 Width: 64-bit Data Rate: 1600 MT/s

CPU 0 runs /mnt/beegfs/iconst01/spec2017/Gcc.trace.gz
NOT SORTED
TRACE STRING: /mnt/beegfs/iconst01/spec2017/Gcc.trace.gz
SORTED
TRACE STRING: /mnt/beegfs/iconst01/spec2017/Gcc.trace.gz
INITIAL
TRACE STRING: /mnt/beegfs/iconst01/spec2017/Gcc.trace.gz

champsim_seed used: 269

CPU 0 L1D next line prefetcher
CPU 0 L2C IP-based stride prefetcher
Initialize DRRIP state
Assign rand_sets[0]: 454  LLC: 2048
rand_sets[0]: 454
Assign rand_sets[1]: 1662  LLC: 2048
rand_sets[1]: 1662
Assign rand_sets[2]: 1921  LLC: 2048
rand_sets[2]: 1921
Assign rand_sets[3]: 1131  LLC: 2048
rand_sets[3]: 1131
Assign rand_sets[4]: 331  LLC: 2048
rand_sets[4]: 331
Assign rand_sets[5]: 1531  LLC: 2048
rand_sets[5]: 1531
Assign rand_sets[6]: 482  LLC: 2048
rand_sets[6]: 482
Assign rand_sets[7]: 1275  LLC: 2048
rand_sets[7]: 1275
Assign rand_sets[8]: 1876  LLC: 2048
rand_sets[8]: 1876
Assign rand_sets[9]: 2038  LLC: 2048
rand_sets[9]: 2038
Assign rand_sets[10]: 701  LLC: 2048
rand_sets[10]: 701
Assign rand_sets[11]: 479  LLC: 2048
rand_sets[11]: 479
Assign rand_sets[12]: 892  LLC: 2048
rand_sets[12]: 892
Assign rand_sets[13]: 1820  LLC: 2048
rand_sets[13]: 1820
Assign rand_sets[14]: 1505  LLC: 2048
rand_sets[14]: 1505
Assign rand_sets[15]: 1159  LLC: 2048
rand_sets[15]: 1159
Assign rand_sets[16]: 513  LLC: 2048
rand_sets[16]: 513
Assign rand_sets[17]: 703  LLC: 2048
rand_sets[17]: 703
Assign rand_sets[18]: 561  LLC: 2048
rand_sets[18]: 561
Assign rand_sets[19]: 990  LLC: 2048
rand_sets[19]: 990
Assign rand_sets[20]: 342  LLC: 2048
rand_sets[20]: 342
Assign rand_sets[21]: 882  LLC: 2048
rand_sets[21]: 882
Assign rand_sets[22]: 15  LLC: 2048
rand_sets[22]: 15
Assign rand_sets[23]: 71  LLC: 2048
rand_sets[23]: 71
Assign rand_sets[24]: 1127  LLC: 2048
rand_sets[24]: 1127
Assign rand_sets[25]: 1382  LLC: 2048
rand_sets[25]: 1382
Assign rand_sets[26]: 647  LLC: 2048
rand_sets[26]: 647
Assign rand_sets[27]: 857  LLC: 2048
rand_sets[27]: 857
Assign rand_sets[28]: 1450  LLC: 2048
rand_sets[28]: 1450
Assign rand_sets[29]: 1160  LLC: 2048
rand_sets[29]: 1160
Assign rand_sets[30]: 1852  LLC: 2048
rand_sets[30]: 1852
Assign rand_sets[31]: 1881  LLC: 2048
rand_sets[31]: 1881
Assign rand_sets[32]: 1770  LLC: 2048
rand_sets[32]: 1770
Assign rand_sets[33]: 1622  LLC: 2048
rand_sets[33]: 1622
Assign rand_sets[34]: 275  LLC: 2048
rand_sets[34]: 275
Assign rand_sets[35]: 635  LLC: 2048
rand_sets[35]: 635
Assign rand_sets[36]: 466  LLC: 2048
rand_sets[36]: 466
Assign rand_sets[37]: 1413  LLC: 2048
rand_sets[37]: 1413
Assign rand_sets[38]: 417  LLC: 2048
rand_sets[38]: 417
Assign rand_sets[39]: 472  LLC: 2048
rand_sets[39]: 472
Assign rand_sets[40]: 1340  LLC: 2048
rand_sets[40]: 1340
Assign rand_sets[41]: 852  LLC: 2048
rand_sets[41]: 852
Assign rand_sets[42]: 1365  LLC: 2048
rand_sets[42]: 1365
Assign rand_sets[43]: 47  LLC: 2048
rand_sets[43]: 47
Assign rand_sets[44]: 823  LLC: 2048
rand_sets[44]: 823
Assign rand_sets[45]: 686  LLC: 2048
rand_sets[45]: 686
Assign rand_sets[46]: 1637  LLC: 2048
rand_sets[46]: 1637
Assign rand_sets[47]: 1115  LLC: 2048
rand_sets[47]: 1115
Assign rand_sets[48]: 986  LLC: 2048
rand_sets[48]: 986
Assign rand_sets[49]: 258  LLC: 2048
rand_sets[49]: 258
Assign rand_sets[50]: 633  LLC: 2048
rand_sets[50]: 633
Assign rand_sets[51]: 920  LLC: 2048
rand_sets[51]: 920
Assign rand_sets[52]: 204  LLC: 2048
rand_sets[52]: 204
Assign rand_sets[53]: 227  LLC: 2048
rand_sets[53]: 227
Assign rand_sets[54]: 1818  LLC: 2048
rand_sets[54]: 1818
Assign rand_sets[55]: 886  LLC: 2048
rand_sets[55]: 886
Assign rand_sets[56]: 1422  LLC: 2048
rand_sets[56]: 1422
Assign rand_sets[57]: 607  LLC: 2048
rand_sets[57]: 607
Assign rand_sets[58]: 217  LLC: 2048
rand_sets[58]: 217
Assign rand_sets[59]: 1945  LLC: 2048
rand_sets[59]: 1945
Assign rand_sets[60]: 143  LLC: 2048
rand_sets[60]: 143
Assign rand_sets[61]: 1311  LLC: 2048
rand_sets[61]: 1311
Assign rand_sets[62]: 319  LLC: 2048
rand_sets[62]: 319
Assign rand_sets[63]: 1846  LLC: 2048
rand_sets[63]: 1846
 CLEAN-RRIP-POLICY-1: 1-1-1-3-1-3-0-1- CLEAN-RRIP-POLICY-2: 1-1-1-3-1-3-0-1-
 DIRTY-RRIP-POLICY-1: 1-1-0-3-1-3-0-1- DIRTY-RRIP-POLICY-2: 1-1-0-3-1-3-0-1-
 PSEL width: 10
Heartbeat CPU 0 instructions: 10000001 cycles: 7315980 heartbeat IPC: 1.36687 cumulative IPC: 1.36687 (Simulation time: 0 hr 0 min 15 sec) 
Heartbeat CPU 0 instructions: 20000000 cycles: 14307576 heartbeat IPC: 1.43029 cumulative IPC: 1.39786 (Simulation time: 0 hr 0 min 30 sec) 
Heartbeat CPU 0 instructions: 30000001 cycles: 21020491 heartbeat IPC: 1.48967 cumulative IPC: 1.42718 (Simulation time: 0 hr 0 min 46 sec) 
Heartbeat CPU 0 instructions: 40000000 cycles: 27481300 heartbeat IPC: 1.54779 cumulative IPC: 1.45554 (Simulation time: 0 hr 1 min 3 sec) 
Heartbeat CPU 0 instructions: 50000001 cycles: 33583078 heartbeat IPC: 1.63887 cumulative IPC: 1.48885 (Simulation time: 0 hr 1 min 19 sec) 
Heartbeat CPU 0 instructions: 60000000 cycles: 40064300 heartbeat IPC: 1.54292 cumulative IPC: 1.49759 (Simulation time: 0 hr 1 min 35 sec) 
Heartbeat CPU 0 instructions: 70000000 cycles: 47102568 heartbeat IPC: 1.4208 cumulative IPC: 1.48612 (Simulation time: 0 hr 1 min 51 sec) 
Heartbeat CPU 0 instructions: 80000000 cycles: 54192070 heartbeat IPC: 1.41054 cumulative IPC: 1.47623 (Simulation time: 0 hr 2 min 6 sec) 
Heartbeat CPU 0 instructions: 90000003 cycles: 61196304 heartbeat IPC: 1.42771 cumulative IPC: 1.47068 (Simulation time: 0 hr 2 min 21 sec) 
Heartbeat CPU 0 instructions: 100000000 cycles: 68363471 heartbeat IPC: 1.39525 cumulative IPC: 1.46277 (Simulation time: 0 hr 2 min 36 sec) 

Warmup complete CPU 0 instructions: 100000004 cycles: 68363472 (Simulation time: 0 hr 2 min 36 sec) 

Heartbeat CPU 0 instructions: 110000003 cycles: 95980401 heartbeat IPC: 0.362097 cumulative IPC: 0.362097 (Simulation time: 0 hr 3 min 5 sec) 
Heartbeat CPU 0 instructions: 120000000 cycles: 123421906 heartbeat IPC: 0.364411 cumulative IPC: 0.36325 (Simulation time: 0 hr 3 min 35 sec) 
Heartbeat CPU 0 instructions: 130000000 cycles: 148400429 heartbeat IPC: 0.400344 cumulative IPC: 0.374827 (Simulation time: 0 hr 4 min 4 sec) 
Heartbeat CPU 0 instructions: 140000000 cycles: 177813450 heartbeat IPC: 0.339985 cumulative IPC: 0.365464 (Simulation time: 0 hr 4 min 33 sec) 
Heartbeat CPU 0 instructions: 150000000 cycles: 207631957 heartbeat IPC: 0.335362 cumulative IPC: 0.359019 (Simulation time: 0 hr 5 min 2 sec) 
Heartbeat CPU 0 instructions: 160000000 cycles: 235030123 heartbeat IPC: 0.364988 cumulative IPC: 0.36 (Simulation time: 0 hr 5 min 30 sec) 
Heartbeat CPU 0 instructions: 170000001 cycles: 263033209 heartbeat IPC: 0.357104 cumulative IPC: 0.359583 (Simulation time: 0 hr 6 min 1 sec) 
Heartbeat CPU 0 instructions: 180000000 cycles: 291447790 heartbeat IPC: 0.351932 cumulative IPC: 0.358609 (Simulation time: 0 hr 6 min 31 sec) 
Heartbeat CPU 0 instructions: 190000002 cycles: 319413305 heartbeat IPC: 0.357583 cumulative IPC: 0.358495 (Simulation time: 0 hr 7 min 0 sec) 
Heartbeat CPU 0 instructions: 200000000 cycles: 347726368 heartbeat IPC: 0.353194 cumulative IPC: 0.357957 (Simulation time: 0 hr 7 min 30 sec) 
Heartbeat CPU 0 instructions: 210000002 cycles: 375528644 heartbeat IPC: 0.359683 cumulative IPC: 0.358113 (Simulation time: 0 hr 7 min 59 sec) 
Heartbeat CPU 0 instructions: 220000000 cycles: 404610674 heartbeat IPC: 0.343855 cumulative IPC: 0.35688 (Simulation time: 0 hr 8 min 28 sec) 
Heartbeat CPU 0 instructions: 230000000 cycles: 432124518 heartbeat IPC: 0.363453 cumulative IPC: 0.357377 (Simulation time: 0 hr 8 min 56 sec) 
Heartbeat CPU 0 instructions: 240000000 cycles: 458025674 heartbeat IPC: 0.386083 cumulative IPC: 0.359286 (Simulation time: 0 hr 9 min 24 sec) 
Heartbeat CPU 0 instructions: 250000000 cycles: 488130870 heartbeat IPC: 0.332169 cumulative IPC: 0.357341 (Simulation time: 0 hr 9 min 55 sec) 
Heartbeat CPU 0 instructions: 260000000 cycles: 515226159 heartbeat IPC: 0.369068 cumulative IPC: 0.358052 (Simulation time: 0 hr 10 min 24 sec) 
Heartbeat CPU 0 instructions: 270000003 cycles: 543644356 heartbeat IPC: 0.351887 cumulative IPC: 0.357683 (Simulation time: 0 hr 10 min 54 sec) 
Heartbeat CPU 0 instructions: 280000000 cycles: 571775222 heartbeat IPC: 0.355481 cumulative IPC: 0.35756 (Simulation time: 0 hr 11 min 24 sec) 
Heartbeat CPU 0 instructions: 290000000 cycles: 600636098 heartbeat IPC: 0.34649 cumulative IPC: 0.35696 (Simulation time: 0 hr 11 min 55 sec) 
Heartbeat CPU 0 instructions: 300000000 cycles: 630459758 heartbeat IPC: 0.335304 cumulative IPC: 0.355811 (Simulation time: 0 hr 12 min 24 sec) 
Heartbeat CPU 0 instructions: 310000001 cycles: 659800389 heartbeat IPC: 0.340824 cumulative IPC: 0.355067 (Simulation time: 0 hr 12 min 53 sec) 
Heartbeat CPU 0 instructions: 320000000 cycles: 687947466 heartbeat IPC: 0.355277 cumulative IPC: 0.355077 (Simulation time: 0 hr 13 min 22 sec) 
Heartbeat CPU 0 instructions: 330000000 cycles: 716537923 heartbeat IPC: 0.349767 cumulative IPC: 0.354843 (Simulation time: 0 hr 13 min 51 sec) 
Heartbeat CPU 0 instructions: 340000000 cycles: 745768370 heartbeat IPC: 0.342109 cumulative IPC: 0.354293 (Simulation time: 0 hr 14 min 20 sec) 
Heartbeat CPU 0 instructions: 350000003 cycles: 772781867 heartbeat IPC: 0.370185 cumulative IPC: 0.354903 (Simulation time: 0 hr 14 min 49 sec) 
Heartbeat CPU 0 instructions: 360000000 cycles: 800843277 heartbeat IPC: 0.356361 cumulative IPC: 0.354959 (Simulation time: 0 hr 15 min 17 sec) 
Heartbeat CPU 0 instructions: 370000000 cycles: 829002178 heartbeat IPC: 0.355127 cumulative IPC: 0.354965 (Simulation time: 0 hr 15 min 45 sec) 
Heartbeat CPU 0 instructions: 380000000 cycles: 857497178 heartbeat IPC: 0.350939 cumulative IPC: 0.354819 (Simulation time: 0 hr 16 min 13 sec) 
Heartbeat CPU 0 instructions: 390000001 cycles: 885095371 heartbeat IPC: 0.362343 cumulative IPC: 0.355074 (Simulation time: 0 hr 16 min 41 sec) 
Heartbeat CPU 0 instructions: 400000000 cycles: 913712915 heartbeat IPC: 0.349436 cumulative IPC: 0.354883 (Simulation time: 0 hr 17 min 9 sec) 
Heartbeat CPU 0 instructions: 410000001 cycles: 940997224 heartbeat IPC: 0.366511 cumulative IPC: 0.355246 (Simulation time: 0 hr 17 min 36 sec) 
Heartbeat CPU 0 instructions: 420000000 cycles: 968292886 heartbeat IPC: 0.366359 cumulative IPC: 0.355583 (Simulation time: 0 hr 18 min 4 sec) 
Heartbeat CPU 0 instructions: 430000002 cycles: 995979461 heartbeat IPC: 0.361186 cumulative IPC: 0.355751 (Simulation time: 0 hr 18 min 32 sec) 
Heartbeat CPU 0 instructions: 440000000 cycles: 1025512747 heartbeat IPC: 0.338601 cumulative IPC: 0.355221 (Simulation time: 0 hr 19 min 0 sec) 
Heartbeat CPU 0 instructions: 450000002 cycles: 1054720583 heartbeat IPC: 0.342374 cumulative IPC: 0.354841 (Simulation time: 0 hr 19 min 28 sec) 
Heartbeat CPU 0 instructions: 460000000 cycles: 1082398395 heartbeat IPC: 0.3613 cumulative IPC: 0.355017 (Simulation time: 0 hr 19 min 55 sec) 
Heartbeat CPU 0 instructions: 470000000 cycles: 1110018166 heartbeat IPC: 0.362059 cumulative IPC: 0.355204 (Simulation time: 0 hr 20 min 22 sec) 
Heartbeat CPU 0 instructions: 480000000 cycles: 1137890659 heartbeat IPC: 0.358777 cumulative IPC: 0.355297 (Simulation time: 0 hr 20 min 49 sec) 
Heartbeat CPU 0 instructions: 490000000 cycles: 1165469368 heartbeat IPC: 0.362599 cumulative IPC: 0.355481 (Simulation time: 0 hr 21 min 16 sec) 
Heartbeat CPU 0 instructions: 500000000 cycles: 1193777464 heartbeat IPC: 0.353256 cumulative IPC: 0.355425 (Simulation time: 0 hr 21 min 43 sec) 
Heartbeat CPU 0 instructions: 510000000 cycles: 1228237292 heartbeat IPC: 0.290193 cumulative IPC: 0.353487 (Simulation time: 0 hr 22 min 14 sec) 
Heartbeat CPU 0 instructions: 520000000 cycles: 1256255208 heartbeat IPC: 0.356914 cumulative IPC: 0.353568 (Simulation time: 0 hr 22 min 42 sec) 
Heartbeat CPU 0 instructions: 530000001 cycles: 1285485086 heartbeat IPC: 0.342116 cumulative IPC: 0.353293 (Simulation time: 0 hr 23 min 10 sec) 
Heartbeat CPU 0 instructions: 540000000 cycles: 1313465826 heartbeat IPC: 0.357389 cumulative IPC: 0.353385 (Simulation time: 0 hr 23 min 39 sec) 
Heartbeat CPU 0 instructions: 550000001 cycles: 1342635205 heartbeat IPC: 0.342825 cumulative IPC: 0.353143 (Simulation time: 0 hr 24 min 8 sec) 
Heartbeat CPU 0 instructions: 560000000 cycles: 1367998909 heartbeat IPC: 0.394264 cumulative IPC: 0.353945 (Simulation time: 0 hr 24 min 36 sec) 
Heartbeat CPU 0 instructions: 570000000 cycles: 1397429749 heartbeat IPC: 0.33978 cumulative IPC: 0.353632 (Simulation time: 0 hr 25 min 5 sec) 
Heartbeat CPU 0 instructions: 580000000 cycles: 1425339703 heartbeat IPC: 0.358295 cumulative IPC: 0.353728 (Simulation time: 0 hr 25 min 33 sec) 
Heartbeat CPU 0 instructions: 590000001 cycles: 1450064260 heartbeat IPC: 0.404456 cumulative IPC: 0.354635 (Simulation time: 0 hr 26 min 0 sec) 
Heartbeat CPU 0 instructions: 600000000 cycles: 1476121846 heartbeat IPC: 0.383765 cumulative IPC: 0.355175 (Simulation time: 0 hr 26 min 27 sec) 
Finished CPU 0 instructions: 500000000 cycles: 1407758396 cumulative IPC: 0.355175 (Simulation time: 0 hr 26 min 27 sec) 

CPU 0 Branch Prediction Accuracy: 86.4311% MPKI: 26.2662
Number of Branches: 96788573 Number of Mispredictions: 13133102
Number of LOAD Instructions: 164682285
Number of LOAD Instructions (ROI): 164682285
Number of STORE Instructions: 78194750
Number of STORE Instructions (ROI): 78194750
Total Destination Memory Operands: 83268534
Total Destination Memory Operands (ROI): 83268534
Total Source Memory Operands: 164712438
Total Source Memory Operands (ROI): 164712438
Number of DEPENDED LOADS: 7057863
Number of DEPENDED LOADS (ROI): 7057863
Number of SQ_ADDED: 83268522
Number of SQ_ADDED (ROI): 83268522
Number of LQ_ADDED: 236752821
Number of LQ_ADDED (ROI): 236752821
Number of Instructions read from trace: 600000066

ChampSim completed all CPUs

Region of Interest Statistics

CPU 0 cumulative IPC: 0.355175 instructions: 500000000 cycles: 1407758396
ITLB TOTAL     ACCESS:  100517784  HIT:  100313338  MISS:     204446
ITLB LOAD      ACCESS:  100517784  HIT:  100313338  MISS:     204446
ITLB RFO       ACCESS:          0  HIT:          0  MISS:          0
ITLB PREFETCH  ACCESS:          0  HIT:          0  MISS:          0
ITLB WRITEBACK ACCESS:          0  HIT:          0  MISS:          0
ITLB PREFETCH  REQUESTED:          0  ISSUED:          0  USEFUL:          0  USELESS:          0
ITLB TOTAL MSHR MERGED:     172424
ITLB LOAD MSHR MERGED:     172424
ITLB RFO MSHR MERGED:          0
ITLB PREFETCH MSHR MERGED:          0
ITLB WRITEBACK MSHR MERGED:          0
ITLB TOTAL ACCESSES:  100690208 HITS:  100313338 MISSES:     376870
ITLB LOAD ACCESSES:  100690208 HITS:  100313338 MISSES:     376870
ITLB RFO ACCESSES:          0 HITS:          0 MISSES:          0
ITLB PREFETCH ACCESSES:          0 HITS:          0 MISSES:          0
ITLB WRITEBACK ACCESSES:          0 HITS:          0 MISSES:          0
ITLB RQ ACCESS:  500000057
ITLB RQ TO_CACHE:  100690208
ITLB RQ MERGED:  399309849
ITLB RQ FORWARD:          0
ITLB WQ ACCESS:          0
ITLB WQ TO_CACHE:          0
ITLB WQ MERGED:          0
ITLB WQ FORWARD:          0
DTLB TOTAL     ACCESS:  165337926  HIT:  164703577  MISS:     634349
DTLB LOAD      ACCESS:  106293511  HIT:  105723594  MISS:     569917
DTLB RFO       ACCESS:   59044415  HIT:   58979983  MISS:      64432
DTLB PREFETCH  ACCESS:          0  HIT:          0  MISS:          0
DTLB WRITEBACK ACCESS:          0  HIT:          0  MISS:          0
DTLB PREFETCH  REQUESTED:          0  ISSUED:          0  USEFUL:          0  USELESS:          0
DTLB TOTAL MSHR MERGED:      99982
DTLB LOAD MSHR MERGED:      59462
DTLB RFO MSHR MERGED:      40520
DTLB PREFETCH MSHR MERGED:          0
DTLB WRITEBACK MSHR MERGED:          0
DTLB TOTAL ACCESSES:  165437908 HITS:  164703577 MISSES:     734331
DTLB LOAD ACCESSES:  106352973 HITS:  105723594 MISSES:     629379
DTLB RFO ACCESSES:   59084935 HITS:   58979983 MISSES:     104952
DTLB PREFETCH ACCESSES:          0 HITS:          0 MISSES:          0
DTLB WRITEBACK ACCESSES:          0 HITS:          0 MISSES:          0
DTLB RQ ACCESS:  200313026
DTLB RQ TO_CACHE:  165437908
DTLB RQ MERGED:   34875118
DTLB RQ FORWARD:          0
DTLB WQ ACCESS:          0
DTLB WQ TO_CACHE:          0
DTLB WQ MERGED:          0
DTLB WQ FORWARD:          0
L1D TOTAL     ACCESS:  281836345  HIT:  273927006  MISS:    7909339
L1D LOAD      ACCESS:  110418776  HIT:  107140934  MISS:    3277842
L1D RFO       ACCESS:   67118684  HIT:   66228113  MISS:     890571
L1D PREFETCH  ACCESS:  104298885  HIT:  100557959  MISS:    3740926
L1D WRITEBACK ACCESS:          0  HIT:          0  MISS:          0
L1D PREFETCH  REQUESTED:  110818465  ISSUED:  109119191  USEFUL:    1661623  USELESS:    2079267
L1D TOTAL MSHR MERGED:    2870166
L1D LOAD MSHR MERGED:     496977
L1D RFO MSHR MERGED:    1867229
L1D PREFETCH MSHR MERGED:     505960
L1D WRITEBACK MSHR MERGED:          0
L1D TOTAL ACCESSES:  284733975 HITS:  273954470 MISSES:   10779505
L1D LOAD ACCESSES:  110819929 HITS:  107142398 MISSES:    3677531
L1D RFO ACCESSES:   68974138 HITS:   66228113 MISSES:    2746025
L1D PREFETCH ACCESSES:  104939908 HITS:  100583959 MISSES:    4355949
L1D WRITEBACK ACCESSES:          0 HITS:          0 MISSES:          0
L1D RQ ACCESS:  130760423
L1D RQ TO_CACHE:  110818468
L1D RQ MERGED:   19940491
L1D RQ FORWARD:          0
L1D WQ ACCESS:   69552603
L1D WQ TO_CACHE:   68974139
L1D WQ MERGED:     578464
L1D WQ FORWARD:      27464
L1I TOTAL     ACCESS:  126565332  HIT:  122326779  MISS:    4238553
L1I LOAD      ACCESS:  126565332  HIT:  122326779  MISS:    4238553
L1I RFO       ACCESS:          0  HIT:          0  MISS:          0
L1I PREFETCH  ACCESS:          0  HIT:          0  MISS:          0
L1I WRITEBACK ACCESS:          0  HIT:          0  MISS:          0
L1I PREFETCH  REQUESTED:          0  ISSUED:          0  USEFUL:          0  USELESS:          0
L1I TOTAL MSHR MERGED:    1834532
L1I LOAD MSHR MERGED:    1834532
L1I RFO MSHR MERGED:          0
L1I PREFETCH MSHR MERGED:          0
L1I WRITEBACK MSHR MERGED:          0
L1I TOTAL ACCESSES:  128399867 HITS:  122326779 MISSES:    6073088
L1I LOAD ACCESSES:  128399867 HITS:  122326779 MISSES:    6073088
L1I RFO ACCESSES:          0 HITS:          0 MISSES:          0
L1I PREFETCH ACCESSES:          0 HITS:          0 MISSES:          0
L1I WRITEBACK ACCESSES:          0 HITS:          0 MISSES:          0
L1I RQ ACCESS:  500000057
L1I RQ TO_CACHE:  128399867
L1I RQ MERGED:  371600190
L1I RQ FORWARD:          0
L1I WQ ACCESS:          0
L1I WQ TO_CACHE:          0
L1I WQ MERGED:          0
L1I WQ FORWARD:          0
L2C TOTAL     ACCESS:   14905218  HIT:   11158704  MISS:    3746514
L2C LOAD      ACCESS:    7418897  HIT:    5098884  MISS:    2320013
L2C RFO       ACCESS:     878698  HIT:     409895  MISS:     468803
L2C PREFETCH  ACCESS:    4568381  HIT:    3627942  MISS:     940439
L2C WRITEBACK ACCESS:    2039242  HIT:    2021983  MISS:      17259
L2C PREFETCH  REQUESTED:     842791  ISSUED:     842791  USEFUL:     203381  USELESS:     736764
L2C TOTAL MSHR MERGED:       7070
L2C LOAD MSHR MERGED:        779
L2C RFO MSHR MERGED:          0
L2C PREFETCH MSHR MERGED:       6291
L2C WRITEBACK MSHR MERGED:          0
L2C TOTAL ACCESSES:   14913195 HITS:   11159157 MISSES:    3754038
L2C LOAD ACCESSES:    7419107 HITS:    5099094 MISSES:    2320013
L2C RFO ACCESSES:     878796 HITS:     409993 MISSES:     468803
L2C PREFETCH ACCESSES:    4576050 HITS:    3628087 MISSES:     947963
L2C WRITEBACK ACCESSES:    2039242 HITS:    2021983 MISSES:      17259
L2C RQ ACCESS:    8297906
L2C RQ TO_CACHE:    8297598
L2C RQ MERGED:          0
L2C RQ FORWARD:          0
L2C WQ ACCESS:    2039242
L2C WQ TO_CACHE:    2039242
L2C WQ MERGED:          0
L2C WQ FORWARD:        453
LLC TOTAL     ACCESS:    4609862  HIT:    3984063  MISS:     625799
LLC LOAD      ACCESS:    2319218  HIT:    2090889  MISS:     228329
LLC RFO       ACCESS:     468793  HIT:     405229  MISS:      63564
LLC PREFETCH  ACCESS:     941556  HIT:     662009  MISS:     279547
LLC WRITEBACK ACCESS:     880295  HIT:     825936  MISS:      54359
LLC PREFETCH  REQUESTED:          0  ISSUED:          0  USEFUL:      15259  USELESS:     264765
LLC TOTAL MSHR MERGED:         97
LLC LOAD MSHR MERGED:         32
LLC RFO MSHR MERGED:          0
LLC PREFETCH MSHR MERGED:         65
LLC WRITEBACK MSHR MERGED:          0
LLC TOTAL ACCESSES:    4609995 HITS:    3984099 MISSES:     625896
LLC LOAD ACCESSES:    2319234 HITS:    2090905 MISSES:     228329
LLC RFO ACCESSES:     468803 HITS:     405239 MISSES:      63564
LLC PREFETCH ACCESSES:     941663 HITS:     662019 MISSES:     279644
LLC WRITEBACK ACCESSES:     880295 HITS:     825936 MISSES:      54359
LLC 0 RQ ACCESS:    2788037
LLC 0 RQ TO_CACHE:    2788011
LLC 0 RQ MERGED:          0
LLC 0 RQ FORWARD:          0
LLC WQ ACCESS:     880295
LLC WQ TO_CACHE:     880295
LLC WQ MERGED:          0
LLC WQ FORWARD:         36
Major fault: 0 Minor fault: 12862
CPU 0 L1D next line prefetcher final stats
CPU 0 L2C PC-based stride prefetcher final stats
All Misses: 746230
All Hits: 4680638
SD Algo Stats - Switches: 0 SRR-Repls: 269477 BRR-Repls: 0

DRAM Statistics
 CHANNEL 0
 RQ ROW_BUFFER_HIT:     115580  ROW_BUFFER_MISS:     455125
 DBUS_CONGESTED:     334659
 WQ ROW_BUFFER_HIT:      12884  ROW_BUFFER_MISS:     165392  FULL:          0

 AVG_CONGESTED_CYCLE: 13
LOADS RETIRED: 136549171
INSTR RETIRED: 500000000
