
*** ChampSim Multicore Out-of-Order Simulator ***

Warmup Instructions: 100000000
Simulation Instructions: 500000000
Number of CPUs: 1
LLC sets: 2048
LLC ways: 16
Clean RRIP Policies: 2111210221112102 Dirty RRIP Policies: 2111211221112112 PSEL Width: 10 Track Set: 4294967295 PSEL Mask: 1 Demote Mask: 124100201241002DS Algo: 0Window size: 0
Off-chip DRAM Size: 4096 MB Channels: 1 Width: 64-bit Data Rate: 1600 MT/s

CPU 0 runs /mnt/beegfs/iconst01/spec2017/Gcc.trace.gz
NOT SORTED
TRACE STRING: /mnt/beegfs/iconst01/spec2017/Gcc.trace.gz
SORTED
TRACE STRING: /mnt/beegfs/iconst01/spec2017/Gcc.trace.gz
INITIAL
TRACE STRING: /mnt/beegfs/iconst01/spec2017/Gcc.trace.gz

champsim_seed used: 269

CPU 0 L1D next line prefetcher
CPU 0 L2C IP-based stride prefetcher
Initialize DRRIP state
Assign rand_sets[0]: 454  LLC: 2048
rand_sets[0]: 454
Assign rand_sets[1]: 1662  LLC: 2048
rand_sets[1]: 1662
Assign rand_sets[2]: 1921  LLC: 2048
rand_sets[2]: 1921
Assign rand_sets[3]: 1131  LLC: 2048
rand_sets[3]: 1131
Assign rand_sets[4]: 331  LLC: 2048
rand_sets[4]: 331
Assign rand_sets[5]: 1531  LLC: 2048
rand_sets[5]: 1531
Assign rand_sets[6]: 482  LLC: 2048
rand_sets[6]: 482
Assign rand_sets[7]: 1275  LLC: 2048
rand_sets[7]: 1275
Assign rand_sets[8]: 1876  LLC: 2048
rand_sets[8]: 1876
Assign rand_sets[9]: 2038  LLC: 2048
rand_sets[9]: 2038
Assign rand_sets[10]: 701  LLC: 2048
rand_sets[10]: 701
Assign rand_sets[11]: 479  LLC: 2048
rand_sets[11]: 479
Assign rand_sets[12]: 892  LLC: 2048
rand_sets[12]: 892
Assign rand_sets[13]: 1820  LLC: 2048
rand_sets[13]: 1820
Assign rand_sets[14]: 1505  LLC: 2048
rand_sets[14]: 1505
Assign rand_sets[15]: 1159  LLC: 2048
rand_sets[15]: 1159
Assign rand_sets[16]: 513  LLC: 2048
rand_sets[16]: 513
Assign rand_sets[17]: 703  LLC: 2048
rand_sets[17]: 703
Assign rand_sets[18]: 561  LLC: 2048
rand_sets[18]: 561
Assign rand_sets[19]: 990  LLC: 2048
rand_sets[19]: 990
Assign rand_sets[20]: 342  LLC: 2048
rand_sets[20]: 342
Assign rand_sets[21]: 882  LLC: 2048
rand_sets[21]: 882
Assign rand_sets[22]: 15  LLC: 2048
rand_sets[22]: 15
Assign rand_sets[23]: 71  LLC: 2048
rand_sets[23]: 71
Assign rand_sets[24]: 1127  LLC: 2048
rand_sets[24]: 1127
Assign rand_sets[25]: 1382  LLC: 2048
rand_sets[25]: 1382
Assign rand_sets[26]: 647  LLC: 2048
rand_sets[26]: 647
Assign rand_sets[27]: 857  LLC: 2048
rand_sets[27]: 857
Assign rand_sets[28]: 1450  LLC: 2048
rand_sets[28]: 1450
Assign rand_sets[29]: 1160  LLC: 2048
rand_sets[29]: 1160
Assign rand_sets[30]: 1852  LLC: 2048
rand_sets[30]: 1852
Assign rand_sets[31]: 1881  LLC: 2048
rand_sets[31]: 1881
Assign rand_sets[32]: 1770  LLC: 2048
rand_sets[32]: 1770
Assign rand_sets[33]: 1622  LLC: 2048
rand_sets[33]: 1622
Assign rand_sets[34]: 275  LLC: 2048
rand_sets[34]: 275
Assign rand_sets[35]: 635  LLC: 2048
rand_sets[35]: 635
Assign rand_sets[36]: 466  LLC: 2048
rand_sets[36]: 466
Assign rand_sets[37]: 1413  LLC: 2048
rand_sets[37]: 1413
Assign rand_sets[38]: 417  LLC: 2048
rand_sets[38]: 417
Assign rand_sets[39]: 472  LLC: 2048
rand_sets[39]: 472
Assign rand_sets[40]: 1340  LLC: 2048
rand_sets[40]: 1340
Assign rand_sets[41]: 852  LLC: 2048
rand_sets[41]: 852
Assign rand_sets[42]: 1365  LLC: 2048
rand_sets[42]: 1365
Assign rand_sets[43]: 47  LLC: 2048
rand_sets[43]: 47
Assign rand_sets[44]: 823  LLC: 2048
rand_sets[44]: 823
Assign rand_sets[45]: 686  LLC: 2048
rand_sets[45]: 686
Assign rand_sets[46]: 1637  LLC: 2048
rand_sets[46]: 1637
Assign rand_sets[47]: 1115  LLC: 2048
rand_sets[47]: 1115
Assign rand_sets[48]: 986  LLC: 2048
rand_sets[48]: 986
Assign rand_sets[49]: 258  LLC: 2048
rand_sets[49]: 258
Assign rand_sets[50]: 633  LLC: 2048
rand_sets[50]: 633
Assign rand_sets[51]: 920  LLC: 2048
rand_sets[51]: 920
Assign rand_sets[52]: 204  LLC: 2048
rand_sets[52]: 204
Assign rand_sets[53]: 227  LLC: 2048
rand_sets[53]: 227
Assign rand_sets[54]: 1818  LLC: 2048
rand_sets[54]: 1818
Assign rand_sets[55]: 886  LLC: 2048
rand_sets[55]: 886
Assign rand_sets[56]: 1422  LLC: 2048
rand_sets[56]: 1422
Assign rand_sets[57]: 607  LLC: 2048
rand_sets[57]: 607
Assign rand_sets[58]: 217  LLC: 2048
rand_sets[58]: 217
Assign rand_sets[59]: 1945  LLC: 2048
rand_sets[59]: 1945
Assign rand_sets[60]: 143  LLC: 2048
rand_sets[60]: 143
Assign rand_sets[61]: 1311  LLC: 2048
rand_sets[61]: 1311
Assign rand_sets[62]: 319  LLC: 2048
rand_sets[62]: 319
Assign rand_sets[63]: 1846  LLC: 2048
rand_sets[63]: 1846
 CLEAN-RRIP-POLICY-1: 2-1-1-1-2-1-0-2- CLEAN-RRIP-POLICY-2: 2-1-1-1-2-1-0-2-
 DIRTY-RRIP-POLICY-1: 2-1-1-1-2-1-1-2- DIRTY-RRIP-POLICY-2: 2-1-1-1-2-1-1-2-
 PSEL width: 10
Heartbeat CPU 0 instructions: 10000001 cycles: 7315914 heartbeat IPC: 1.36688 cumulative IPC: 1.36688 (Simulation time: 0 hr 0 min 14 sec) 
Heartbeat CPU 0 instructions: 20000000 cycles: 14308240 heartbeat IPC: 1.43014 cumulative IPC: 1.3978 (Simulation time: 0 hr 0 min 29 sec) 
Heartbeat CPU 0 instructions: 30000001 cycles: 21021820 heartbeat IPC: 1.48952 cumulative IPC: 1.42709 (Simulation time: 0 hr 0 min 45 sec) 
Heartbeat CPU 0 instructions: 40000000 cycles: 27482826 heartbeat IPC: 1.54775 cumulative IPC: 1.45545 (Simulation time: 0 hr 1 min 1 sec) 
Heartbeat CPU 0 instructions: 50000001 cycles: 33584949 heartbeat IPC: 1.63877 cumulative IPC: 1.48876 (Simulation time: 0 hr 1 min 17 sec) 
Heartbeat CPU 0 instructions: 60000000 cycles: 40066444 heartbeat IPC: 1.54285 cumulative IPC: 1.49751 (Simulation time: 0 hr 1 min 33 sec) 
Heartbeat CPU 0 instructions: 70000000 cycles: 47107746 heartbeat IPC: 1.42019 cumulative IPC: 1.48596 (Simulation time: 0 hr 1 min 48 sec) 
Heartbeat CPU 0 instructions: 80000000 cycles: 54200635 heartbeat IPC: 1.40986 cumulative IPC: 1.476 (Simulation time: 0 hr 2 min 3 sec) 
Heartbeat CPU 0 instructions: 90000003 cycles: 61208418 heartbeat IPC: 1.42699 cumulative IPC: 1.47039 (Simulation time: 0 hr 2 min 18 sec) 
Heartbeat CPU 0 instructions: 100000000 cycles: 68379244 heartbeat IPC: 1.39454 cumulative IPC: 1.46243 (Simulation time: 0 hr 2 min 32 sec) 

Warmup complete CPU 0 instructions: 100000004 cycles: 68379245 (Simulation time: 0 hr 2 min 32 sec) 

Heartbeat CPU 0 instructions: 110000003 cycles: 96590960 heartbeat IPC: 0.354463 cumulative IPC: 0.354463 (Simulation time: 0 hr 3 min 1 sec) 
Heartbeat CPU 0 instructions: 120000000 cycles: 124244991 heartbeat IPC: 0.361611 cumulative IPC: 0.358001 (Simulation time: 0 hr 3 min 30 sec) 
Heartbeat CPU 0 instructions: 130000000 cycles: 149389891 heartbeat IPC: 0.397695 cumulative IPC: 0.370322 (Simulation time: 0 hr 3 min 59 sec) 
Heartbeat CPU 0 instructions: 140000000 cycles: 179987296 heartbeat IPC: 0.326825 cumulative IPC: 0.358397 (Simulation time: 0 hr 4 min 27 sec) 
Heartbeat CPU 0 instructions: 150000000 cycles: 210562819 heartbeat IPC: 0.327059 cumulative IPC: 0.351658 (Simulation time: 0 hr 4 min 56 sec) 
Heartbeat CPU 0 instructions: 160000000 cycles: 238214138 heartbeat IPC: 0.361646 cumulative IPC: 0.353284 (Simulation time: 0 hr 5 min 24 sec) 
Heartbeat CPU 0 instructions: 170000001 cycles: 266552098 heartbeat IPC: 0.352884 cumulative IPC: 0.353227 (Simulation time: 0 hr 5 min 54 sec) 
Heartbeat CPU 0 instructions: 180000000 cycles: 295390722 heartbeat IPC: 0.346757 cumulative IPC: 0.352405 (Simulation time: 0 hr 6 min 23 sec) 
Heartbeat CPU 0 instructions: 190000002 cycles: 323892185 heartbeat IPC: 0.350859 cumulative IPC: 0.352233 (Simulation time: 0 hr 6 min 52 sec) 
Heartbeat CPU 0 instructions: 200000000 cycles: 352679751 heartbeat IPC: 0.347372 cumulative IPC: 0.35174 (Simulation time: 0 hr 7 min 22 sec) 
Heartbeat CPU 0 instructions: 210000002 cycles: 380986098 heartbeat IPC: 0.353278 cumulative IPC: 0.35188 (Simulation time: 0 hr 7 min 51 sec) 
Heartbeat CPU 0 instructions: 220000000 cycles: 411263353 heartbeat IPC: 0.330281 cumulative IPC: 0.349972 (Simulation time: 0 hr 8 min 19 sec) 
Heartbeat CPU 0 instructions: 230000000 cycles: 439266595 heartbeat IPC: 0.357102 cumulative IPC: 0.350511 (Simulation time: 0 hr 8 min 47 sec) 
Heartbeat CPU 0 instructions: 240000000 cycles: 465422792 heartbeat IPC: 0.382319 cumulative IPC: 0.352606 (Simulation time: 0 hr 9 min 14 sec) 
Heartbeat CPU 0 instructions: 250000000 cycles: 495867027 heartbeat IPC: 0.328469 cumulative IPC: 0.350887 (Simulation time: 0 hr 9 min 44 sec) 
Heartbeat CPU 0 instructions: 260000000 cycles: 523092722 heartbeat IPC: 0.3673 cumulative IPC: 0.35187 (Simulation time: 0 hr 10 min 12 sec) 
Heartbeat CPU 0 instructions: 270000003 cycles: 551844820 heartbeat IPC: 0.347801 cumulative IPC: 0.351628 (Simulation time: 0 hr 10 min 42 sec) 
Heartbeat CPU 0 instructions: 280000000 cycles: 580472799 heartbeat IPC: 0.349309 cumulative IPC: 0.351498 (Simulation time: 0 hr 11 min 12 sec) 
Heartbeat CPU 0 instructions: 290000000 cycles: 609699807 heartbeat IPC: 0.342149 cumulative IPC: 0.350993 (Simulation time: 0 hr 11 min 42 sec) 
Heartbeat CPU 0 instructions: 300000000 cycles: 640796153 heartbeat IPC: 0.321581 cumulative IPC: 0.349396 (Simulation time: 0 hr 12 min 10 sec) 
Heartbeat CPU 0 instructions: 310000001 cycles: 670957182 heartbeat IPC: 0.331554 cumulative IPC: 0.348503 (Simulation time: 0 hr 12 min 39 sec) 
Heartbeat CPU 0 instructions: 320000000 cycles: 700004120 heartbeat IPC: 0.34427 cumulative IPC: 0.348308 (Simulation time: 0 hr 13 min 8 sec) 
Heartbeat CPU 0 instructions: 330000000 cycles: 729254768 heartbeat IPC: 0.341873 cumulative IPC: 0.348023 (Simulation time: 0 hr 13 min 36 sec) 
Heartbeat CPU 0 instructions: 340000000 cycles: 759207952 heartbeat IPC: 0.333854 cumulative IPC: 0.347409 (Simulation time: 0 hr 14 min 5 sec) 
Heartbeat CPU 0 instructions: 350000003 cycles: 786629846 heartbeat IPC: 0.364672 cumulative IPC: 0.348068 (Simulation time: 0 hr 14 min 33 sec) 
Heartbeat CPU 0 instructions: 360000000 cycles: 816225992 heartbeat IPC: 0.337882 cumulative IPC: 0.347665 (Simulation time: 0 hr 15 min 1 sec) 
Heartbeat CPU 0 instructions: 370000000 cycles: 845454674 heartbeat IPC: 0.34213 cumulative IPC: 0.347457 (Simulation time: 0 hr 15 min 29 sec) 
Heartbeat CPU 0 instructions: 380000000 cycles: 874827018 heartbeat IPC: 0.340456 cumulative IPC: 0.347202 (Simulation time: 0 hr 15 min 57 sec) 
Heartbeat CPU 0 instructions: 390000001 cycles: 903081223 heartbeat IPC: 0.35393 cumulative IPC: 0.347429 (Simulation time: 0 hr 16 min 24 sec) 
Heartbeat CPU 0 instructions: 400000000 cycles: 932409248 heartbeat IPC: 0.340971 cumulative IPC: 0.34721 (Simulation time: 0 hr 16 min 52 sec) 
Heartbeat CPU 0 instructions: 410000001 cycles: 960079283 heartbeat IPC: 0.361402 cumulative IPC: 0.347651 (Simulation time: 0 hr 17 min 19 sec) 
Heartbeat CPU 0 instructions: 420000000 cycles: 987688483 heartbeat IPC: 0.362198 cumulative IPC: 0.348087 (Simulation time: 0 hr 17 min 46 sec) 
Heartbeat CPU 0 instructions: 430000002 cycles: 1015795171 heartbeat IPC: 0.355787 cumulative IPC: 0.348316 (Simulation time: 0 hr 18 min 14 sec) 
Heartbeat CPU 0 instructions: 440000000 cycles: 1046112240 heartbeat IPC: 0.329847 cumulative IPC: 0.347743 (Simulation time: 0 hr 18 min 41 sec) 
Heartbeat CPU 0 instructions: 450000002 cycles: 1076065648 heartbeat IPC: 0.333852 cumulative IPC: 0.34733 (Simulation time: 0 hr 19 min 9 sec) 
Heartbeat CPU 0 instructions: 460000000 cycles: 1104185764 heartbeat IPC: 0.355617 cumulative IPC: 0.347555 (Simulation time: 0 hr 19 min 37 sec) 
Heartbeat CPU 0 instructions: 470000000 cycles: 1132056558 heartbeat IPC: 0.358799 cumulative IPC: 0.34785 (Simulation time: 0 hr 20 min 4 sec) 
Heartbeat CPU 0 instructions: 480000000 cycles: 1160137109 heartbeat IPC: 0.356118 cumulative IPC: 0.348063 (Simulation time: 0 hr 20 min 31 sec) 
Heartbeat CPU 0 instructions: 490000000 cycles: 1187893179 heartbeat IPC: 0.360282 cumulative IPC: 0.348365 (Simulation time: 0 hr 20 min 59 sec) 
Heartbeat CPU 0 instructions: 500000000 cycles: 1216415531 heartbeat IPC: 0.350602 cumulative IPC: 0.348421 (Simulation time: 0 hr 21 min 26 sec) 
Heartbeat CPU 0 instructions: 510000000 cycles: 1250810161 heartbeat IPC: 0.290743 cumulative IPC: 0.346743 (Simulation time: 0 hr 21 min 57 sec) 
Heartbeat CPU 0 instructions: 520000000 cycles: 1279114817 heartbeat IPC: 0.353299 cumulative IPC: 0.346897 (Simulation time: 0 hr 22 min 26 sec) 
Heartbeat CPU 0 instructions: 530000001 cycles: 1309773051 heartbeat IPC: 0.326177 cumulative IPC: 0.346385 (Simulation time: 0 hr 22 min 55 sec) 
Heartbeat CPU 0 instructions: 540000000 cycles: 1338616394 heartbeat IPC: 0.3467 cumulative IPC: 0.346392 (Simulation time: 0 hr 23 min 23 sec) 
Heartbeat CPU 0 instructions: 550000001 cycles: 1368108782 heartbeat IPC: 0.339071 cumulative IPC: 0.346226 (Simulation time: 0 hr 23 min 53 sec) 
Heartbeat CPU 0 instructions: 560000000 cycles: 1393725133 heartbeat IPC: 0.390376 cumulative IPC: 0.347079 (Simulation time: 0 hr 24 min 21 sec) 
Heartbeat CPU 0 instructions: 570000000 cycles: 1424176136 heartbeat IPC: 0.328396 cumulative IPC: 0.34666 (Simulation time: 0 hr 24 min 50 sec) 
Heartbeat CPU 0 instructions: 580000000 cycles: 1452662930 heartbeat IPC: 0.35104 cumulative IPC: 0.34675 (Simulation time: 0 hr 25 min 19 sec) 
Heartbeat CPU 0 instructions: 590000001 cycles: 1477554086 heartbeat IPC: 0.401749 cumulative IPC: 0.347721 (Simulation time: 0 hr 25 min 46 sec) 
Heartbeat CPU 0 instructions: 600000000 cycles: 1503960718 heartbeat IPC: 0.378693 cumulative IPC: 0.348291 (Simulation time: 0 hr 26 min 13 sec) 
Finished CPU 0 instructions: 500000000 cycles: 1435581495 cumulative IPC: 0.348291 (Simulation time: 0 hr 26 min 13 sec) 

CPU 0 Branch Prediction Accuracy: 86.4311% MPKI: 26.2662
Number of Branches: 96788573 Number of Mispredictions: 13133102
Number of LOAD Instructions: 164682285
Number of LOAD Instructions (ROI): 164682285
Number of STORE Instructions: 78194750
Number of STORE Instructions (ROI): 78194750
Total Destination Memory Operands: 83268534
Total Destination Memory Operands (ROI): 83268534
Total Source Memory Operands: 164712438
Total Source Memory Operands (ROI): 164712438
Number of DEPENDED LOADS: 7053094
Number of DEPENDED LOADS (ROI): 7053094
Number of SQ_ADDED: 83268522
Number of SQ_ADDED (ROI): 83268522
Number of LQ_ADDED: 236633322
Number of LQ_ADDED (ROI): 236633322
Number of Instructions read from trace: 600000066

ChampSim completed all CPUs

Region of Interest Statistics

CPU 0 cumulative IPC: 0.348291 instructions: 500000000 cycles: 1435581495
ITLB TOTAL     ACCESS:  100527468  HIT:  100323022  MISS:     204446
ITLB LOAD      ACCESS:  100527468  HIT:  100323022  MISS:     204446
ITLB RFO       ACCESS:          0  HIT:          0  MISS:          0
ITLB PREFETCH  ACCESS:          0  HIT:          0  MISS:          0
ITLB WRITEBACK ACCESS:          0  HIT:          0  MISS:          0
ITLB PREFETCH  REQUESTED:          0  ISSUED:          0  USEFUL:          0  USELESS:          0
ITLB TOTAL MSHR MERGED:     172424
ITLB LOAD MSHR MERGED:     172424
ITLB RFO MSHR MERGED:          0
ITLB PREFETCH MSHR MERGED:          0
ITLB WRITEBACK MSHR MERGED:          0
ITLB TOTAL ACCESSES:  100699892 HITS:  100323022 MISSES:     376870
ITLB LOAD ACCESSES:  100699892 HITS:  100323022 MISSES:     376870
ITLB RFO ACCESSES:          0 HITS:          0 MISSES:          0
ITLB PREFETCH ACCESSES:          0 HITS:          0 MISSES:          0
ITLB WRITEBACK ACCESSES:          0 HITS:          0 MISSES:          0
ITLB RQ ACCESS:  500000057
ITLB RQ TO_CACHE:  100699892
ITLB RQ MERGED:  399300165
ITLB RQ FORWARD:          0
ITLB WQ ACCESS:          0
ITLB WQ TO_CACHE:          0
ITLB WQ MERGED:          0
ITLB WQ FORWARD:          0
DTLB TOTAL     ACCESS:  165349234  HIT:  164714886  MISS:     634348
DTLB LOAD      ACCESS:  106301354  HIT:  105731407  MISS:     569947
DTLB RFO       ACCESS:   59047880  HIT:   58983479  MISS:      64401
DTLB PREFETCH  ACCESS:          0  HIT:          0  MISS:          0
DTLB WRITEBACK ACCESS:          0  HIT:          0  MISS:          0
DTLB PREFETCH  REQUESTED:          0  ISSUED:          0  USEFUL:          0  USELESS:          0
DTLB TOTAL MSHR MERGED:      99716
DTLB LOAD MSHR MERGED:      59256
DTLB RFO MSHR MERGED:      40460
DTLB PREFETCH MSHR MERGED:          0
DTLB WRITEBACK MSHR MERGED:          0
DTLB TOTAL ACCESSES:  165448950 HITS:  164714886 MISSES:     734064
DTLB LOAD ACCESSES:  106360610 HITS:  105731407 MISSES:     629203
DTLB RFO ACCESSES:   59088340 HITS:   58983479 MISSES:     104861
DTLB PREFETCH ACCESSES:          0 HITS:          0 MISSES:          0
DTLB WRITEBACK ACCESSES:          0 HITS:          0 MISSES:          0
DTLB RQ ACCESS:  200317763
DTLB RQ TO_CACHE:  165448950
DTLB RQ MERGED:   34868813
DTLB RQ FORWARD:          0
DTLB WQ ACCESS:          0
DTLB WQ TO_CACHE:          0
DTLB WQ MERGED:          0
DTLB WQ FORWARD:          0
L1D TOTAL     ACCESS:  281902778  HIT:  273993309  MISS:    7909469
L1D LOAD      ACCESS:  110438453  HIT:  107163407  MISS:    3275046
L1D RFO       ACCESS:   67134070  HIT:   66244011  MISS:     890059
L1D PREFETCH  ACCESS:  104330255  HIT:  100585891  MISS:    3744364
L1D WRITEBACK ACCESS:          0  HIT:          0  MISS:          0
L1D PREFETCH  REQUESTED:  110828392  ISSUED:  109128942  USEFUL:    1664919  USELESS:    2079409
L1D TOTAL MSHR MERGED:    2826705
L1D LOAD MSHR MERGED:     484659
L1D RFO MSHR MERGED:    1851264
L1D PREFETCH MSHR MERGED:     490782
L1D WRITEBACK MSHR MERGED:          0
L1D TOTAL ACCESSES:  284756957 HITS:  274020783 MISSES:   10736174
L1D LOAD ACCESSES:  110829873 HITS:  107164888 MISSES:    3664985
L1D RFO ACCESSES:   68974061 HITS:   66244011 MISSES:    2730050
L1D PREFETCH ACCESSES:  104953023 HITS:  100611884 MISSES:    4341139
L1D WRITEBACK ACCESSES:          0 HITS:          0 MISSES:          0
L1D RQ ACCESS:  130765160
L1D RQ TO_CACHE:  110828395
L1D RQ MERGED:   19935284
L1D RQ FORWARD:          0
L1D WQ ACCESS:   69552603
L1D WQ TO_CACHE:   68974062
L1D WQ MERGED:     578541
L1D WQ FORWARD:      27474
L1I TOTAL     ACCESS:  126573639  HIT:  122335091  MISS:    4238548
L1I LOAD      ACCESS:  126573639  HIT:  122335091  MISS:    4238548
L1I RFO       ACCESS:          0  HIT:          0  MISS:          0
L1I PREFETCH  ACCESS:          0  HIT:          0  MISS:          0
L1I WRITEBACK ACCESS:          0  HIT:          0  MISS:          0
L1I PREFETCH  REQUESTED:          0  ISSUED:          0  USEFUL:          0  USELESS:          0
L1I TOTAL MSHR MERGED:    1835974
L1I LOAD MSHR MERGED:    1835974
L1I RFO MSHR MERGED:          0
L1I PREFETCH MSHR MERGED:          0
L1I WRITEBACK MSHR MERGED:          0
L1I TOTAL ACCESSES:  128409616 HITS:  122335091 MISSES:    6074525
L1I LOAD ACCESSES:  128409616 HITS:  122335091 MISSES:    6074525
L1I RFO ACCESSES:          0 HITS:          0 MISSES:          0
L1I PREFETCH ACCESSES:          0 HITS:          0 MISSES:          0
L1I WRITEBACK ACCESSES:          0 HITS:          0 MISSES:          0
L1I RQ ACCESS:  500000057
L1I RQ TO_CACHE:  128409616
L1I RQ MERGED:  371590441
L1I RQ FORWARD:          0
L1I WQ ACCESS:          0
L1I WQ TO_CACHE:          0
L1I WQ MERGED:          0
L1I WQ FORWARD:          0
L2C TOTAL     ACCESS:   14906109  HIT:   11159700  MISS:    3746409
L2C LOAD      ACCESS:    7418667  HIT:    5099015  MISS:    2319652
L2C RFO       ACCESS:     878688  HIT:     409937  MISS:     468751
L2C PREFETCH  ACCESS:    4569494  HIT:    3628746  MISS:     940748
L2C WRITEBACK ACCESS:    2039260  HIT:    2022002  MISS:      17258
L2C PREFETCH  REQUESTED:     842785  ISSUED:     842785  USEFUL:     203615  USELESS:     736839
L2C TOTAL MSHR MERGED:       6349
L2C LOAD MSHR MERGED:        625
L2C RFO MSHR MERGED:          0
L2C PREFETCH MSHR MERGED:       5724
L2C WRITEBACK MSHR MERGED:          0
L2C TOTAL ACCESSES:   14913338 HITS:   11160151 MISSES:    3753187
L2C LOAD ACCESSES:    7418874 HITS:    5099222 MISSES:    2319652
L2C RFO ACCESSES:     878786 HITS:     410035 MISSES:     468751
L2C PREFETCH ACCESSES:    4576418 HITS:    3628892 MISSES:     947526
L2C WRITEBACK ACCESSES:    2039260 HITS:    2022002 MISSES:      17258
L2C RQ ACCESS:    8297663
L2C RQ TO_CACHE:    8297358
L2C RQ MERGED:          0
L2C RQ FORWARD:          0
L2C WQ ACCESS:    2039260
L2C WQ TO_CACHE:    2039260
L2C WQ MERGED:          0
L2C WQ FORWARD:        451
LLC TOTAL     ACCESS:    4609704  HIT:    3810419  MISS:     799285
LLC LOAD      ACCESS:    2319015  HIT:    1824682  MISS:     494333
LLC RFO       ACCESS:     468741  HIT:     423007  MISS:      45734
LLC PREFETCH  ACCESS:     941685  HIT:     697650  MISS:     244035
LLC WRITEBACK ACCESS:     880263  HIT:     865080  MISS:      15183
LLC PREFETCH  REQUESTED:          0  ISSUED:          0  USEFUL:      30126  USELESS:     213631
LLC TOTAL MSHR MERGED:         96
LLC LOAD MSHR MERGED:         30
LLC RFO MSHR MERGED:          0
LLC PREFETCH MSHR MERGED:         66
LLC WRITEBACK MSHR MERGED:          0
LLC TOTAL ACCESSES:    4609834 HITS:    3810453 MISSES:     799381
LLC LOAD ACCESSES:    2319027 HITS:    1824694 MISSES:     494333
LLC RFO ACCESSES:     468751 HITS:     423017 MISSES:      45734
LLC PREFETCH ACCESSES:     941793 HITS:     697662 MISSES:     244131
LLC WRITEBACK ACCESSES:     880263 HITS:     865080 MISSES:      15183
LLC 0 RQ ACCESS:    2787778
LLC 0 RQ TO_CACHE:    2787756
LLC 0 RQ MERGED:          0
LLC 0 RQ FORWARD:          0
LLC WQ ACCESS:     880263
LLC WQ TO_CACHE:     880263
LLC WQ MERGED:          0
LLC WQ FORWARD:         34
Major fault: 0 Minor fault: 12862
CPU 0 L1D next line prefetcher final stats
CPU 0 L2C PC-based stride prefetcher final stats
All Misses: 932043
All Hits: 4494667
SD Algo Stats - Switches: 3 SRR-Repls: 348934 BRR-Repls: 212440

DRAM Statistics
 CHANNEL 0
 RQ ROW_BUFFER_HIT:     194104  ROW_BUFFER_MISS:     588780
 DBUS_CONGESTED:     333006
 WQ ROW_BUFFER_HIT:       7244  ROW_BUFFER_MISS:     141056  FULL:          0

 AVG_CONGESTED_CYCLE: 13
LOADS RETIRED: 136549171
INSTR RETIRED: 500000000
