
*** ChampSim Multicore Out-of-Order Simulator ***

Warmup Instructions: 100000000
Simulation Instructions: 500000000
Number of CPUs: 1
LLC sets: 2048
LLC ways: 16
Clean RRIP Policies: 1012101210121012 Dirty RRIP Policies: 22200200222002 PSEL Width: 10 Track Set: 4294967295 PSEL Mask: 1 Demote Mask: 4013404440134044DS Algo: 0Window size: 0
Off-chip DRAM Size: 4096 MB Channels: 1 Width: 64-bit Data Rate: 1600 MT/s

CPU 0 runs /mnt/beegfs/iconst01/spec2017/cactuBSSN.trace.gz
NOT SORTED
TRACE STRING: /mnt/beegfs/iconst01/spec2017/cactuBSSN.trace.gz
SORTED
TRACE STRING: /mnt/beegfs/iconst01/spec2017/cactuBSSN.trace.gz
INITIAL
TRACE STRING: /mnt/beegfs/iconst01/spec2017/cactuBSSN.trace.gz

champsim_seed used: 838

CPU 0 L1D next line prefetcher
CPU 0 L2C IP-based stride prefetcher
Initialize DRRIP state
Assign rand_sets[0]: 454  LLC: 2048
rand_sets[0]: 454
Assign rand_sets[1]: 1662  LLC: 2048
rand_sets[1]: 1662
Assign rand_sets[2]: 1921  LLC: 2048
rand_sets[2]: 1921
Assign rand_sets[3]: 1131  LLC: 2048
rand_sets[3]: 1131
Assign rand_sets[4]: 331  LLC: 2048
rand_sets[4]: 331
Assign rand_sets[5]: 1531  LLC: 2048
rand_sets[5]: 1531
Assign rand_sets[6]: 482  LLC: 2048
rand_sets[6]: 482
Assign rand_sets[7]: 1275  LLC: 2048
rand_sets[7]: 1275
Assign rand_sets[8]: 1876  LLC: 2048
rand_sets[8]: 1876
Assign rand_sets[9]: 2038  LLC: 2048
rand_sets[9]: 2038
Assign rand_sets[10]: 701  LLC: 2048
rand_sets[10]: 701
Assign rand_sets[11]: 479  LLC: 2048
rand_sets[11]: 479
Assign rand_sets[12]: 892  LLC: 2048
rand_sets[12]: 892
Assign rand_sets[13]: 1820  LLC: 2048
rand_sets[13]: 1820
Assign rand_sets[14]: 1505  LLC: 2048
rand_sets[14]: 1505
Assign rand_sets[15]: 1159  LLC: 2048
rand_sets[15]: 1159
Assign rand_sets[16]: 513  LLC: 2048
rand_sets[16]: 513
Assign rand_sets[17]: 703  LLC: 2048
rand_sets[17]: 703
Assign rand_sets[18]: 561  LLC: 2048
rand_sets[18]: 561
Assign rand_sets[19]: 990  LLC: 2048
rand_sets[19]: 990
Assign rand_sets[20]: 342  LLC: 2048
rand_sets[20]: 342
Assign rand_sets[21]: 882  LLC: 2048
rand_sets[21]: 882
Assign rand_sets[22]: 15  LLC: 2048
rand_sets[22]: 15
Assign rand_sets[23]: 71  LLC: 2048
rand_sets[23]: 71
Assign rand_sets[24]: 1127  LLC: 2048
rand_sets[24]: 1127
Assign rand_sets[25]: 1382  LLC: 2048
rand_sets[25]: 1382
Assign rand_sets[26]: 647  LLC: 2048
rand_sets[26]: 647
Assign rand_sets[27]: 857  LLC: 2048
rand_sets[27]: 857
Assign rand_sets[28]: 1450  LLC: 2048
rand_sets[28]: 1450
Assign rand_sets[29]: 1160  LLC: 2048
rand_sets[29]: 1160
Assign rand_sets[30]: 1852  LLC: 2048
rand_sets[30]: 1852
Assign rand_sets[31]: 1881  LLC: 2048
rand_sets[31]: 1881
Assign rand_sets[32]: 1770  LLC: 2048
rand_sets[32]: 1770
Assign rand_sets[33]: 1622  LLC: 2048
rand_sets[33]: 1622
Assign rand_sets[34]: 275  LLC: 2048
rand_sets[34]: 275
Assign rand_sets[35]: 635  LLC: 2048
rand_sets[35]: 635
Assign rand_sets[36]: 466  LLC: 2048
rand_sets[36]: 466
Assign rand_sets[37]: 1413  LLC: 2048
rand_sets[37]: 1413
Assign rand_sets[38]: 417  LLC: 2048
rand_sets[38]: 417
Assign rand_sets[39]: 472  LLC: 2048
rand_sets[39]: 472
Assign rand_sets[40]: 1340  LLC: 2048
rand_sets[40]: 1340
Assign rand_sets[41]: 852  LLC: 2048
rand_sets[41]: 852
Assign rand_sets[42]: 1365  LLC: 2048
rand_sets[42]: 1365
Assign rand_sets[43]: 47  LLC: 2048
rand_sets[43]: 47
Assign rand_sets[44]: 823  LLC: 2048
rand_sets[44]: 823
Assign rand_sets[45]: 686  LLC: 2048
rand_sets[45]: 686
Assign rand_sets[46]: 1637  LLC: 2048
rand_sets[46]: 1637
Assign rand_sets[47]: 1115  LLC: 2048
rand_sets[47]: 1115
Assign rand_sets[48]: 986  LLC: 2048
rand_sets[48]: 986
Assign rand_sets[49]: 258  LLC: 2048
rand_sets[49]: 258
Assign rand_sets[50]: 633  LLC: 2048
rand_sets[50]: 633
Assign rand_sets[51]: 920  LLC: 2048
rand_sets[51]: 920
Assign rand_sets[52]: 204  LLC: 2048
rand_sets[52]: 204
Assign rand_sets[53]: 227  LLC: 2048
rand_sets[53]: 227
Assign rand_sets[54]: 1818  LLC: 2048
rand_sets[54]: 1818
Assign rand_sets[55]: 886  LLC: 2048
rand_sets[55]: 886
Assign rand_sets[56]: 1422  LLC: 2048
rand_sets[56]: 1422
Assign rand_sets[57]: 607  LLC: 2048
rand_sets[57]: 607
Assign rand_sets[58]: 217  LLC: 2048
rand_sets[58]: 217
Assign rand_sets[59]: 1945  LLC: 2048
rand_sets[59]: 1945
Assign rand_sets[60]: 143  LLC: 2048
rand_sets[60]: 143
Assign rand_sets[61]: 1311  LLC: 2048
rand_sets[61]: 1311
Assign rand_sets[62]: 319  LLC: 2048
rand_sets[62]: 319
Assign rand_sets[63]: 1846  LLC: 2048
rand_sets[63]: 1846
 CLEAN-RRIP-POLICY-1: 1-0-1-2-1-0-1-2- CLEAN-RRIP-POLICY-2: 1-0-1-2-1-0-1-2-
 DIRTY-RRIP-POLICY-1: 0-0-2-2-2-0-0-2- DIRTY-RRIP-POLICY-2: 0-0-2-2-2-0-0-2-
 PSEL width: 10
Heartbeat CPU 0 instructions: 10000000 cycles: 6587903 heartbeat IPC: 1.51793 cumulative IPC: 1.51793 (Simulation time: 0 hr 0 min 24 sec) 
Heartbeat CPU 0 instructions: 20000000 cycles: 13179383 heartbeat IPC: 1.51711 cumulative IPC: 1.51752 (Simulation time: 0 hr 0 min 48 sec) 
Heartbeat CPU 0 instructions: 30000003 cycles: 19772562 heartbeat IPC: 1.51672 cumulative IPC: 1.51725 (Simulation time: 0 hr 1 min 13 sec) 
Heartbeat CPU 0 instructions: 40000000 cycles: 26364029 heartbeat IPC: 1.51711 cumulative IPC: 1.51722 (Simulation time: 0 hr 1 min 37 sec) 
Heartbeat CPU 0 instructions: 50000001 cycles: 32956434 heartbeat IPC: 1.5169 cumulative IPC: 1.51715 (Simulation time: 0 hr 2 min 1 sec) 
Heartbeat CPU 0 instructions: 60000000 cycles: 39554907 heartbeat IPC: 1.5155 cumulative IPC: 1.51688 (Simulation time: 0 hr 2 min 25 sec) 
Heartbeat CPU 0 instructions: 70000003 cycles: 46153090 heartbeat IPC: 1.51557 cumulative IPC: 1.51669 (Simulation time: 0 hr 2 min 50 sec) 
Heartbeat CPU 0 instructions: 80000000 cycles: 52750983 heartbeat IPC: 1.51563 cumulative IPC: 1.51656 (Simulation time: 0 hr 3 min 14 sec) 
Heartbeat CPU 0 instructions: 90000002 cycles: 59346280 heartbeat IPC: 1.51623 cumulative IPC: 1.51652 (Simulation time: 0 hr 3 min 38 sec) 
Heartbeat CPU 0 instructions: 100000000 cycles: 65940980 heartbeat IPC: 1.51637 cumulative IPC: 1.51651 (Simulation time: 0 hr 4 min 3 sec) 

Warmup complete CPU 0 instructions: 100000002 cycles: 65940981 (Simulation time: 0 hr 4 min 3 sec) 

Heartbeat CPU 0 instructions: 110000000 cycles: 79114033 heartbeat IPC: 0.759125 cumulative IPC: 0.759125 (Simulation time: 0 hr 4 min 32 sec) 
Heartbeat CPU 0 instructions: 120000000 cycles: 92242974 heartbeat IPC: 0.761676 cumulative IPC: 0.760399 (Simulation time: 0 hr 5 min 2 sec) 
Heartbeat CPU 0 instructions: 130000001 cycles: 105444681 heartbeat IPC: 0.757478 cumulative IPC: 0.759422 (Simulation time: 0 hr 5 min 31 sec) 
Heartbeat CPU 0 instructions: 140000000 cycles: 118549773 heartbeat IPC: 0.763062 cumulative IPC: 0.760329 (Simulation time: 0 hr 6 min 1 sec) 
Heartbeat CPU 0 instructions: 150000001 cycles: 131665669 heartbeat IPC: 0.762434 cumulative IPC: 0.760749 (Simulation time: 0 hr 6 min 31 sec) 
Heartbeat CPU 0 instructions: 160000000 cycles: 144820019 heartbeat IPC: 0.760205 cumulative IPC: 0.760658 (Simulation time: 0 hr 7 min 0 sec) 
Heartbeat CPU 0 instructions: 170000000 cycles: 157944295 heartbeat IPC: 0.761947 cumulative IPC: 0.760842 (Simulation time: 0 hr 7 min 30 sec) 
Heartbeat CPU 0 instructions: 180000000 cycles: 171070903 heartbeat IPC: 0.761811 cumulative IPC: 0.760963 (Simulation time: 0 hr 7 min 59 sec) 
Heartbeat CPU 0 instructions: 190000000 cycles: 184177445 heartbeat IPC: 0.762978 cumulative IPC: 0.761186 (Simulation time: 0 hr 8 min 29 sec) 
Heartbeat CPU 0 instructions: 200000000 cycles: 197348955 heartbeat IPC: 0.759214 cumulative IPC: 0.760989 (Simulation time: 0 hr 8 min 58 sec) 
Heartbeat CPU 0 instructions: 210000002 cycles: 210474363 heartbeat IPC: 0.761881 cumulative IPC: 0.76107 (Simulation time: 0 hr 9 min 28 sec) 
Heartbeat CPU 0 instructions: 220000000 cycles: 223584662 heartbeat IPC: 0.762759 cumulative IPC: 0.76121 (Simulation time: 0 hr 9 min 58 sec) 
Heartbeat CPU 0 instructions: 230000003 cycles: 236752807 heartbeat IPC: 0.759409 cumulative IPC: 0.761071 (Simulation time: 0 hr 10 min 27 sec) 
Heartbeat CPU 0 instructions: 240000000 cycles: 249887996 heartbeat IPC: 0.761313 cumulative IPC: 0.761089 (Simulation time: 0 hr 10 min 57 sec) 
Heartbeat CPU 0 instructions: 250000001 cycles: 263045586 heartbeat IPC: 0.760018 cumulative IPC: 0.761017 (Simulation time: 0 hr 11 min 26 sec) 
Heartbeat CPU 0 instructions: 260000000 cycles: 276175456 heartbeat IPC: 0.761622 cumulative IPC: 0.761055 (Simulation time: 0 hr 11 min 56 sec) 
Heartbeat CPU 0 instructions: 270000003 cycles: 289346305 heartbeat IPC: 0.759253 cumulative IPC: 0.760949 (Simulation time: 0 hr 12 min 26 sec) 
Heartbeat CPU 0 instructions: 280000000 cycles: 302495648 heartbeat IPC: 0.760494 cumulative IPC: 0.760923 (Simulation time: 0 hr 12 min 55 sec) 
Heartbeat CPU 0 instructions: 290000000 cycles: 315616899 heartbeat IPC: 0.762122 cumulative IPC: 0.760987 (Simulation time: 0 hr 13 min 25 sec) 
Heartbeat CPU 0 instructions: 300000000 cycles: 328797472 heartbeat IPC: 0.758692 cumulative IPC: 0.760871 (Simulation time: 0 hr 13 min 54 sec) 
Heartbeat CPU 0 instructions: 310000001 cycles: 341925252 heartbeat IPC: 0.761743 cumulative IPC: 0.760913 (Simulation time: 0 hr 14 min 24 sec) 
Heartbeat CPU 0 instructions: 320000000 cycles: 355053170 heartbeat IPC: 0.761735 cumulative IPC: 0.76095 (Simulation time: 0 hr 14 min 54 sec) 
Heartbeat CPU 0 instructions: 330000002 cycles: 368178874 heartbeat IPC: 0.761864 cumulative IPC: 0.76099 (Simulation time: 0 hr 15 min 23 sec) 
Heartbeat CPU 0 instructions: 340000000 cycles: 381356926 heartbeat IPC: 0.758837 cumulative IPC: 0.7609 (Simulation time: 0 hr 15 min 53 sec) 
Heartbeat CPU 0 instructions: 350000000 cycles: 394514300 heartbeat IPC: 0.76003 cumulative IPC: 0.760865 (Simulation time: 0 hr 16 min 22 sec) 
Heartbeat CPU 0 instructions: 360000000 cycles: 407678713 heartbeat IPC: 0.759624 cumulative IPC: 0.760817 (Simulation time: 0 hr 16 min 52 sec) 
Heartbeat CPU 0 instructions: 370000002 cycles: 420883562 heartbeat IPC: 0.757298 cumulative IPC: 0.760686 (Simulation time: 0 hr 17 min 22 sec) 
Heartbeat CPU 0 instructions: 380000000 cycles: 434005362 heartbeat IPC: 0.76209 cumulative IPC: 0.760736 (Simulation time: 0 hr 17 min 51 sec) 
Heartbeat CPU 0 instructions: 390000000 cycles: 447114221 heartbeat IPC: 0.762843 cumulative IPC: 0.760809 (Simulation time: 0 hr 18 min 21 sec) 
Heartbeat CPU 0 instructions: 400000000 cycles: 460243869 heartbeat IPC: 0.761635 cumulative IPC: 0.760836 (Simulation time: 0 hr 18 min 50 sec) 
Heartbeat CPU 0 instructions: 410000001 cycles: 473400766 heartbeat IPC: 0.760058 cumulative IPC: 0.760811 (Simulation time: 0 hr 19 min 20 sec) 
Heartbeat CPU 0 instructions: 420000000 cycles: 486516649 heartbeat IPC: 0.762434 cumulative IPC: 0.760862 (Simulation time: 0 hr 19 min 49 sec) 
Heartbeat CPU 0 instructions: 430000001 cycles: 499646466 heartbeat IPC: 0.761625 cumulative IPC: 0.760885 (Simulation time: 0 hr 20 min 19 sec) 
Heartbeat CPU 0 instructions: 440000000 cycles: 512758355 heartbeat IPC: 0.762667 cumulative IPC: 0.760937 (Simulation time: 0 hr 20 min 48 sec) 
Heartbeat CPU 0 instructions: 450000002 cycles: 525960796 heartbeat IPC: 0.757436 cumulative IPC: 0.760837 (Simulation time: 0 hr 21 min 18 sec) 
Heartbeat CPU 0 instructions: 460000000 cycles: 539090313 heartbeat IPC: 0.761643 cumulative IPC: 0.760859 (Simulation time: 0 hr 21 min 48 sec) 
Heartbeat CPU 0 instructions: 470000003 cycles: 552225873 heartbeat IPC: 0.761292 cumulative IPC: 0.760871 (Simulation time: 0 hr 22 min 17 sec) 
Heartbeat CPU 0 instructions: 480000000 cycles: 565410411 heartbeat IPC: 0.758464 cumulative IPC: 0.760807 (Simulation time: 0 hr 22 min 47 sec) 
Heartbeat CPU 0 instructions: 490000000 cycles: 578529101 heartbeat IPC: 0.762271 cumulative IPC: 0.760845 (Simulation time: 0 hr 23 min 16 sec) 
Heartbeat CPU 0 instructions: 500000000 cycles: 591662260 heartbeat IPC: 0.761431 cumulative IPC: 0.760859 (Simulation time: 0 hr 23 min 46 sec) 
Heartbeat CPU 0 instructions: 510000001 cycles: 604773997 heartbeat IPC: 0.762676 cumulative IPC: 0.760904 (Simulation time: 0 hr 24 min 15 sec) 
Heartbeat CPU 0 instructions: 520000000 cycles: 617971546 heartbeat IPC: 0.757716 cumulative IPC: 0.760827 (Simulation time: 0 hr 24 min 45 sec) 
Heartbeat CPU 0 instructions: 530000000 cycles: 631120774 heartbeat IPC: 0.760501 cumulative IPC: 0.76082 (Simulation time: 0 hr 25 min 14 sec) 
Heartbeat CPU 0 instructions: 540000000 cycles: 644257238 heartbeat IPC: 0.76124 cumulative IPC: 0.760829 (Simulation time: 0 hr 25 min 44 sec) 
Heartbeat CPU 0 instructions: 550000002 cycles: 657431784 heartbeat IPC: 0.75904 cumulative IPC: 0.76079 (Simulation time: 0 hr 26 min 13 sec) 
Heartbeat CPU 0 instructions: 560000000 cycles: 670544760 heartbeat IPC: 0.762603 cumulative IPC: 0.760829 (Simulation time: 0 hr 26 min 43 sec) 
Heartbeat CPU 0 instructions: 570000001 cycles: 683665732 heartbeat IPC: 0.762139 cumulative IPC: 0.760857 (Simulation time: 0 hr 27 min 12 sec) 
Heartbeat CPU 0 instructions: 580000000 cycles: 696786659 heartbeat IPC: 0.762141 cumulative IPC: 0.760883 (Simulation time: 0 hr 27 min 42 sec) 
Heartbeat CPU 0 instructions: 590000003 cycles: 709947555 heartbeat IPC: 0.759827 cumulative IPC: 0.760862 (Simulation time: 0 hr 28 min 11 sec) 
Heartbeat CPU 0 instructions: 600000000 cycles: 723107039 heartbeat IPC: 0.759908 cumulative IPC: 0.760843 (Simulation time: 0 hr 28 min 41 sec) 
Finished CPU 0 instructions: 500000000 cycles: 657166068 cumulative IPC: 0.760843 (Simulation time: 0 hr 28 min 41 sec) 

CPU 0 Branch Prediction Accuracy: 99.968% MPKI: 0.002246
Number of Branches: 3513331 Number of Mispredictions: 1123
Number of LOAD Instructions: 287251172
Number of LOAD Instructions (ROI): 287251172
Number of STORE Instructions: 51060820
Number of STORE Instructions (ROI): 51060820
Total Destination Memory Operands: 51166221
Total Destination Memory Operands (ROI): 51166221
Total Source Memory Operands: 287251172
Total Source Memory Operands (ROI): 287251172
Number of DEPENDED LOADS: 9555380
Number of DEPENDED LOADS (ROI): 9555380
Number of SQ_ADDED: 51166208
Number of SQ_ADDED (ROI): 51166208
Number of LQ_ADDED: 290420486
Number of LQ_ADDED (ROI): 290420486
Number of Instructions read from trace: 600000257

ChampSim completed all CPUs

Region of Interest Statistics

CPU 0 cumulative IPC: 0.760843 instructions: 500000000 cycles: 657166068
ITLB TOTAL     ACCESS:  108937613  HIT:  108937613  MISS:          0
ITLB LOAD      ACCESS:  108937613  HIT:  108937613  MISS:          0
ITLB RFO       ACCESS:          0  HIT:          0  MISS:          0
ITLB PREFETCH  ACCESS:          0  HIT:          0  MISS:          0
ITLB WRITEBACK ACCESS:          0  HIT:          0  MISS:          0
ITLB PREFETCH  REQUESTED:          0  ISSUED:          0  USEFUL:          0  USELESS:          0
ITLB TOTAL MSHR MERGED:          0
ITLB LOAD MSHR MERGED:          0
ITLB RFO MSHR MERGED:          0
ITLB PREFETCH MSHR MERGED:          0
ITLB WRITEBACK MSHR MERGED:          0
ITLB TOTAL ACCESSES:  108937613 HITS:  108937613 MISSES:          0
ITLB LOAD ACCESSES:  108937613 HITS:  108937613 MISSES:          0
ITLB RFO ACCESSES:          0 HITS:          0 MISSES:          0
ITLB PREFETCH ACCESSES:          0 HITS:          0 MISSES:          0
ITLB WRITEBACK ACCESSES:          0 HITS:          0 MISSES:          0
ITLB RQ ACCESS:  500000001
ITLB RQ TO_CACHE:  108937613
ITLB RQ MERGED:  391062388
ITLB RQ FORWARD:          0
ITLB WQ ACCESS:          0
ITLB WQ TO_CACHE:          0
ITLB WQ MERGED:          0
ITLB WQ FORWARD:          0
DTLB TOTAL     ACCESS:  171118671  HIT:  161102304  MISS:   10016367
DTLB LOAD      ACCESS:  143464803  HIT:  135588686  MISS:    7876117
DTLB RFO       ACCESS:   27653868  HIT:   25513618  MISS:    2140250
DTLB PREFETCH  ACCESS:          0  HIT:          0  MISS:          0
DTLB WRITEBACK ACCESS:          0  HIT:          0  MISS:          0
DTLB PREFETCH  REQUESTED:          0  ISSUED:          0  USEFUL:          0  USELESS:          0
DTLB TOTAL MSHR MERGED:     360479
DTLB LOAD MSHR MERGED:     360479
DTLB RFO MSHR MERGED:          0
DTLB PREFETCH MSHR MERGED:          0
DTLB WRITEBACK MSHR MERGED:          0
DTLB TOTAL ACCESSES:  171479150 HITS:  161102304 MISSES:   10376846
DTLB LOAD ACCESSES:  143825282 HITS:  135588686 MISSES:    8236596
DTLB RFO ACCESSES:   27653868 HITS:   25513618 MISSES:    2140250
DTLB PREFETCH ACCESSES:          0 HITS:          0 MISSES:          0
DTLB WRITEBACK ACCESSES:          0 HITS:          0 MISSES:          0
DTLB RQ ACCESS:  274072437
DTLB RQ TO_CACHE:  171479150
DTLB RQ MERGED:  102593287
DTLB RQ FORWARD:          0
DTLB WQ ACCESS:          0
DTLB WQ TO_CACHE:          0
DTLB WQ MERGED:          0
DTLB WQ FORWARD:          0
L1D TOTAL     ACCESS:  350889439  HIT:  283708365  MISS:   67181074
L1D LOAD      ACCESS:  175624871  HIT:  142595821  MISS:   33029050
L1D RFO       ACCESS:   42019149  HIT:   39213293  MISS:    2805856
L1D PREFETCH  ACCESS:  133245419  HIT:  101899251  MISS:   31346168
L1D WRITEBACK ACCESS:          0  HIT:          0  MISS:          0
L1D PREFETCH  REQUESTED:  176227428  ISSUED:  175288185  USEFUL:    2180204  USELESS:   29165966
L1D TOTAL MSHR MERGED:    1483633
L1D LOAD MSHR MERGED:     702803
L1D RFO MSHR MERGED:     349954
L1D PREFETCH MSHR MERGED:     430876
L1D WRITEBACK MSHR MERGED:          0
L1D TOTAL ACCESSES:  352486981 HITS:  283822274 MISSES:   68664707
L1D LOAD ACCESSES:  176234912 HITS:  142603305 MISSES:   33631607
L1D RFO ACCESSES:   42368421 HITS:   39213293 MISSES:    3155128
L1D PREFETCH ACCESSES:  133883648 HITS:  102005676 MISSES:   31877972
L1D WRITEBACK ACCESSES:          0 HITS:          0 MISSES:          0
L1D RQ ACCESS:  231433964
L1D RQ TO_CACHE:  176227428
L1D RQ MERGED:   55199052
L1D RQ FORWARD:          0
L1D WQ ACCESS:   42638475
L1D WQ TO_CACHE:   42368421
L1D WQ MERGED:     270054
L1D WQ FORWARD:     113909
L1I TOTAL     ACCESS:  109326952  HIT:   77811248  MISS:   31515704
L1I LOAD      ACCESS:  109326952  HIT:   77811248  MISS:   31515704
L1I RFO       ACCESS:          0  HIT:          0  MISS:          0
L1I PREFETCH  ACCESS:          0  HIT:          0  MISS:          0
L1I WRITEBACK ACCESS:          0  HIT:          0  MISS:          0
L1I PREFETCH  REQUESTED:          0  ISSUED:          0  USEFUL:          0  USELESS:          0
L1I TOTAL MSHR MERGED:   30761596
L1I LOAD MSHR MERGED:   30761596
L1I RFO MSHR MERGED:          0
L1I PREFETCH MSHR MERGED:          0
L1I WRITEBACK MSHR MERGED:          0
L1I TOTAL ACCESSES:  140088550 HITS:   77811248 MISSES:   62277302
L1I LOAD ACCESSES:  140088550 HITS:   77811248 MISSES:   62277302
L1I RFO ACCESSES:          0 HITS:          0 MISSES:          0
L1I PREFETCH ACCESSES:          0 HITS:          0 MISSES:          0
L1I WRITEBACK ACCESSES:          0 HITS:          0 MISSES:          0
L1I RQ ACCESS:  500000003
L1I RQ TO_CACHE:  140088550
L1I RQ MERGED:  359911453
L1I RQ FORWARD:          0
L1I WQ ACCESS:          0
L1I WQ TO_CACHE:          0
L1I WQ MERGED:          0
L1I WQ FORWARD:          0
L2C TOTAL     ACCESS:  113695625  HIT:  110680898  MISS:    3014727
L2C LOAD      ACCESS:   64442604  HIT:   63870847  MISS:     571757
L2C RFO       ACCESS:    2803124  HIT:    2193912  MISS:     609212
L2C PREFETCH  ACCESS:   43288312  HIT:   41460863  MISS:    1827449
L2C WRITEBACK ACCESS:    3161585  HIT:    3155276  MISS:       6309
L2C PREFETCH  REQUESTED:   15133052  ISSUED:   14618385  USEFUL:    1701641  USELESS:     125813
L2C TOTAL MSHR MERGED:      10003
L2C LOAD MSHR MERGED:          0
L2C RFO MSHR MERGED:          0
L2C PREFETCH MSHR MERGED:      10003
L2C WRITEBACK MSHR MERGED:          0
L2C TOTAL ACCESSES:  113881304 HITS:  110686939 MISSES:    3194365
L2C LOAD ACCESSES:   64444509 HITS:   63872751 MISSES:     571758
L2C RFO ACCESSES:    2805174 HITS:    2195962 MISSES:     609212
L2C PREFETCH ACCESSES:   43470036 HITS:   41462950 MISSES:    2007086
L2C WRITEBACK ACCESSES:    3161585 HITS:    3155276 MISSES:       6309
L2C RQ ACCESS:   67249684
L2C RQ TO_CACHE:   67245730
L2C RQ MERGED:          0
L2C RQ FORWARD:          0
L2C WQ ACCESS:    3161585
L2C WQ TO_CACHE:    3161585
L2C WQ MERGED:          0
L2C WQ FORWARD:       6041
LLC TOTAL     ACCESS:    3710319  HIT:    2387043  MISS:    1323276
LLC LOAD      ACCESS:     571729  HIT:     545597  MISS:      26132
LLC RFO       ACCESS:     527257  HIT:     239157  MISS:     288100
LLC PREFETCH  ACCESS:    1993084  HIT:     985363  MISS:    1007721
LLC WRITEBACK ACCESS:     618249  HIT:     616926  MISS:       1323
LLC PREFETCH  REQUESTED:          0  ISSUED:          0  USEFUL:      93510  USELESS:     913130
LLC TOTAL MSHR MERGED:       3452
LLC LOAD MSHR MERGED:          0
LLC RFO MSHR MERGED:          0
LLC PREFETCH MSHR MERGED:       3452
LLC WRITEBACK MSHR MERGED:          0
LLC TOTAL ACCESSES:    3795838 HITS:    2469110 MISSES:    1326728
LLC LOAD ACCESSES:     571757 HITS:     545625 MISSES:      26132
LLC RFO ACCESSES:     609212 HITS:     321112 MISSES:     288100
LLC PREFETCH ACCESSES:    1996620 HITS:     985447 MISSES:    1011173
LLC WRITEBACK ACCESSES:     618249 HITS:     616926 MISSES:       1323
LLC 0 RQ ACCESS:    1180970
LLC 0 RQ TO_CACHE:    1098987
LLC 0 RQ MERGED:          0
LLC 0 RQ FORWARD:          0
LLC WQ ACCESS:     618249
LLC WQ TO_CACHE:     618249
LLC WQ MERGED:          0
LLC WQ FORWARD:      82067
Major fault: 0 Minor fault: 12800
CPU 0 L1D next line prefetcher final stats
CPU 0 L2C PC-based stride prefetcher final stats
All Misses: 1592995
All Hits: 2968431
SD Algo Stats - Switches: 0 SRR-Repls: 32797 BRR-Repls: 0

DRAM Statistics
 CHANNEL 0
 RQ ROW_BUFFER_HIT:     722920  ROW_BUFFER_MISS:     599033
 DBUS_CONGESTED:     781060
 WQ ROW_BUFFER_HIT:      41788  ROW_BUFFER_MISS:     247720  FULL:          0

 AVG_CONGESTED_CYCLE: 13
LOADS RETIRED: 239375970
INSTR RETIRED: 500000000
