
*** ChampSim Multicore Out-of-Order Simulator ***

Warmup Instructions: 100000000
Simulation Instructions: 500000000
Number of CPUs: 1
LLC sets: 2048
LLC ways: 16
Clean RRIP Policies: 1113130111131301 Dirty RRIP Policies: 1103130111031301 PSEL Width: 10 Track Set: 4294967295 PSEL Mask: 1 Demote Mask: 3144200031442DS Algo: 0Window size: 0
Off-chip DRAM Size: 4096 MB Channels: 1 Width: 64-bit Data Rate: 1600 MT/s

CPU 0 runs /mnt/beegfs/iconst01/spec2017/Gcc.trace.gz
NOT SORTED
TRACE STRING: /mnt/beegfs/iconst01/spec2017/Gcc.trace.gz
SORTED
TRACE STRING: /mnt/beegfs/iconst01/spec2017/Gcc.trace.gz
INITIAL
TRACE STRING: /mnt/beegfs/iconst01/spec2017/Gcc.trace.gz

champsim_seed used: 269

CPU 0 L1D next line prefetcher
CPU 0 L2C IP-based stride prefetcher
Initialize DRRIP state
Assign rand_sets[0]: 454  LLC: 2048
rand_sets[0]: 454
Assign rand_sets[1]: 1662  LLC: 2048
rand_sets[1]: 1662
Assign rand_sets[2]: 1921  LLC: 2048
rand_sets[2]: 1921
Assign rand_sets[3]: 1131  LLC: 2048
rand_sets[3]: 1131
Assign rand_sets[4]: 331  LLC: 2048
rand_sets[4]: 331
Assign rand_sets[5]: 1531  LLC: 2048
rand_sets[5]: 1531
Assign rand_sets[6]: 482  LLC: 2048
rand_sets[6]: 482
Assign rand_sets[7]: 1275  LLC: 2048
rand_sets[7]: 1275
Assign rand_sets[8]: 1876  LLC: 2048
rand_sets[8]: 1876
Assign rand_sets[9]: 2038  LLC: 2048
rand_sets[9]: 2038
Assign rand_sets[10]: 701  LLC: 2048
rand_sets[10]: 701
Assign rand_sets[11]: 479  LLC: 2048
rand_sets[11]: 479
Assign rand_sets[12]: 892  LLC: 2048
rand_sets[12]: 892
Assign rand_sets[13]: 1820  LLC: 2048
rand_sets[13]: 1820
Assign rand_sets[14]: 1505  LLC: 2048
rand_sets[14]: 1505
Assign rand_sets[15]: 1159  LLC: 2048
rand_sets[15]: 1159
Assign rand_sets[16]: 513  LLC: 2048
rand_sets[16]: 513
Assign rand_sets[17]: 703  LLC: 2048
rand_sets[17]: 703
Assign rand_sets[18]: 561  LLC: 2048
rand_sets[18]: 561
Assign rand_sets[19]: 990  LLC: 2048
rand_sets[19]: 990
Assign rand_sets[20]: 342  LLC: 2048
rand_sets[20]: 342
Assign rand_sets[21]: 882  LLC: 2048
rand_sets[21]: 882
Assign rand_sets[22]: 15  LLC: 2048
rand_sets[22]: 15
Assign rand_sets[23]: 71  LLC: 2048
rand_sets[23]: 71
Assign rand_sets[24]: 1127  LLC: 2048
rand_sets[24]: 1127
Assign rand_sets[25]: 1382  LLC: 2048
rand_sets[25]: 1382
Assign rand_sets[26]: 647  LLC: 2048
rand_sets[26]: 647
Assign rand_sets[27]: 857  LLC: 2048
rand_sets[27]: 857
Assign rand_sets[28]: 1450  LLC: 2048
rand_sets[28]: 1450
Assign rand_sets[29]: 1160  LLC: 2048
rand_sets[29]: 1160
Assign rand_sets[30]: 1852  LLC: 2048
rand_sets[30]: 1852
Assign rand_sets[31]: 1881  LLC: 2048
rand_sets[31]: 1881
Assign rand_sets[32]: 1770  LLC: 2048
rand_sets[32]: 1770
Assign rand_sets[33]: 1622  LLC: 2048
rand_sets[33]: 1622
Assign rand_sets[34]: 275  LLC: 2048
rand_sets[34]: 275
Assign rand_sets[35]: 635  LLC: 2048
rand_sets[35]: 635
Assign rand_sets[36]: 466  LLC: 2048
rand_sets[36]: 466
Assign rand_sets[37]: 1413  LLC: 2048
rand_sets[37]: 1413
Assign rand_sets[38]: 417  LLC: 2048
rand_sets[38]: 417
Assign rand_sets[39]: 472  LLC: 2048
rand_sets[39]: 472
Assign rand_sets[40]: 1340  LLC: 2048
rand_sets[40]: 1340
Assign rand_sets[41]: 852  LLC: 2048
rand_sets[41]: 852
Assign rand_sets[42]: 1365  LLC: 2048
rand_sets[42]: 1365
Assign rand_sets[43]: 47  LLC: 2048
rand_sets[43]: 47
Assign rand_sets[44]: 823  LLC: 2048
rand_sets[44]: 823
Assign rand_sets[45]: 686  LLC: 2048
rand_sets[45]: 686
Assign rand_sets[46]: 1637  LLC: 2048
rand_sets[46]: 1637
Assign rand_sets[47]: 1115  LLC: 2048
rand_sets[47]: 1115
Assign rand_sets[48]: 986  LLC: 2048
rand_sets[48]: 986
Assign rand_sets[49]: 258  LLC: 2048
rand_sets[49]: 258
Assign rand_sets[50]: 633  LLC: 2048
rand_sets[50]: 633
Assign rand_sets[51]: 920  LLC: 2048
rand_sets[51]: 920
Assign rand_sets[52]: 204  LLC: 2048
rand_sets[52]: 204
Assign rand_sets[53]: 227  LLC: 2048
rand_sets[53]: 227
Assign rand_sets[54]: 1818  LLC: 2048
rand_sets[54]: 1818
Assign rand_sets[55]: 886  LLC: 2048
rand_sets[55]: 886
Assign rand_sets[56]: 1422  LLC: 2048
rand_sets[56]: 1422
Assign rand_sets[57]: 607  LLC: 2048
rand_sets[57]: 607
Assign rand_sets[58]: 217  LLC: 2048
rand_sets[58]: 217
Assign rand_sets[59]: 1945  LLC: 2048
rand_sets[59]: 1945
Assign rand_sets[60]: 143  LLC: 2048
rand_sets[60]: 143
Assign rand_sets[61]: 1311  LLC: 2048
rand_sets[61]: 1311
Assign rand_sets[62]: 319  LLC: 2048
rand_sets[62]: 319
Assign rand_sets[63]: 1846  LLC: 2048
rand_sets[63]: 1846
 CLEAN-RRIP-POLICY-1: 1-1-1-3-1-3-0-1- CLEAN-RRIP-POLICY-2: 1-1-1-3-1-3-0-1-
 DIRTY-RRIP-POLICY-1: 1-1-0-3-1-3-0-1- DIRTY-RRIP-POLICY-2: 1-1-0-3-1-3-0-1-
 PSEL width: 10
Heartbeat CPU 0 instructions: 10000001 cycles: 7315981 heartbeat IPC: 1.36687 cumulative IPC: 1.36687 (Simulation time: 0 hr 0 min 15 sec) 
Heartbeat CPU 0 instructions: 20000000 cycles: 14307521 heartbeat IPC: 1.4303 cumulative IPC: 1.39787 (Simulation time: 0 hr 0 min 30 sec) 
Heartbeat CPU 0 instructions: 30000001 cycles: 21020465 heartbeat IPC: 1.48966 cumulative IPC: 1.42718 (Simulation time: 0 hr 0 min 47 sec) 
Heartbeat CPU 0 instructions: 40000000 cycles: 27481196 heartbeat IPC: 1.54781 cumulative IPC: 1.45554 (Simulation time: 0 hr 1 min 3 sec) 
Heartbeat CPU 0 instructions: 50000001 cycles: 33582778 heartbeat IPC: 1.63892 cumulative IPC: 1.48886 (Simulation time: 0 hr 1 min 19 sec) 
Heartbeat CPU 0 instructions: 60000000 cycles: 40063780 heartbeat IPC: 1.54297 cumulative IPC: 1.49761 (Simulation time: 0 hr 1 min 36 sec) 
Heartbeat CPU 0 instructions: 70000000 cycles: 47101486 heartbeat IPC: 1.42092 cumulative IPC: 1.48615 (Simulation time: 0 hr 1 min 51 sec) 
Heartbeat CPU 0 instructions: 80000000 cycles: 54191085 heartbeat IPC: 1.41052 cumulative IPC: 1.47626 (Simulation time: 0 hr 2 min 6 sec) 
Heartbeat CPU 0 instructions: 90000003 cycles: 61195347 heartbeat IPC: 1.4277 cumulative IPC: 1.4707 (Simulation time: 0 hr 2 min 22 sec) 
Heartbeat CPU 0 instructions: 100000000 cycles: 68362507 heartbeat IPC: 1.39525 cumulative IPC: 1.46279 (Simulation time: 0 hr 2 min 37 sec) 

Warmup complete CPU 0 instructions: 100000004 cycles: 68362508 (Simulation time: 0 hr 2 min 37 sec) 

Heartbeat CPU 0 instructions: 110000003 cycles: 96002309 heartbeat IPC: 0.361797 cumulative IPC: 0.361797 (Simulation time: 0 hr 3 min 7 sec) 
Heartbeat CPU 0 instructions: 120000000 cycles: 123446174 heartbeat IPC: 0.36438 cumulative IPC: 0.363084 (Simulation time: 0 hr 3 min 37 sec) 
Heartbeat CPU 0 instructions: 130000000 cycles: 148383971 heartbeat IPC: 0.400998 cumulative IPC: 0.374899 (Simulation time: 0 hr 4 min 7 sec) 
Heartbeat CPU 0 instructions: 140000000 cycles: 177801306 heartbeat IPC: 0.339936 cumulative IPC: 0.365501 (Simulation time: 0 hr 4 min 37 sec) 
Heartbeat CPU 0 instructions: 150000000 cycles: 207652739 heartbeat IPC: 0.334992 cumulative IPC: 0.358963 (Simulation time: 0 hr 5 min 7 sec) 
Heartbeat CPU 0 instructions: 160000000 cycles: 235033703 heartbeat IPC: 0.365217 cumulative IPC: 0.35999 (Simulation time: 0 hr 5 min 36 sec) 
Heartbeat CPU 0 instructions: 170000001 cycles: 263036910 heartbeat IPC: 0.357102 cumulative IPC: 0.359575 (Simulation time: 0 hr 6 min 8 sec) 
Heartbeat CPU 0 instructions: 180000000 cycles: 291466416 heartbeat IPC: 0.351747 cumulative IPC: 0.358577 (Simulation time: 0 hr 6 min 39 sec) 
Heartbeat CPU 0 instructions: 190000002 cycles: 319423436 heartbeat IPC: 0.357692 cumulative IPC: 0.358479 (Simulation time: 0 hr 7 min 9 sec) 
Heartbeat CPU 0 instructions: 200000000 cycles: 347760071 heartbeat IPC: 0.3529 cumulative IPC: 0.357913 (Simulation time: 0 hr 7 min 40 sec) 
Heartbeat CPU 0 instructions: 210000002 cycles: 375546215 heartbeat IPC: 0.359892 cumulative IPC: 0.358092 (Simulation time: 0 hr 8 min 10 sec) 
Heartbeat CPU 0 instructions: 220000000 cycles: 404614872 heartbeat IPC: 0.344013 cumulative IPC: 0.356875 (Simulation time: 0 hr 8 min 39 sec) 
Heartbeat CPU 0 instructions: 230000000 cycles: 432141531 heartbeat IPC: 0.363284 cumulative IPC: 0.35736 (Simulation time: 0 hr 9 min 8 sec) 
Heartbeat CPU 0 instructions: 240000000 cycles: 458095042 heartbeat IPC: 0.385304 cumulative IPC: 0.359221 (Simulation time: 0 hr 9 min 37 sec) 
Heartbeat CPU 0 instructions: 250000000 cycles: 488190991 heartbeat IPC: 0.332271 cumulative IPC: 0.357289 (Simulation time: 0 hr 10 min 8 sec) 
Heartbeat CPU 0 instructions: 260000000 cycles: 515216718 heartbeat IPC: 0.370018 cumulative IPC: 0.358059 (Simulation time: 0 hr 10 min 38 sec) 
Heartbeat CPU 0 instructions: 270000003 cycles: 543532566 heartbeat IPC: 0.353159 cumulative IPC: 0.357767 (Simulation time: 0 hr 11 min 9 sec) 
Heartbeat CPU 0 instructions: 280000000 cycles: 571687575 heartbeat IPC: 0.355176 cumulative IPC: 0.357622 (Simulation time: 0 hr 11 min 40 sec) 
Heartbeat CPU 0 instructions: 290000000 cycles: 600481313 heartbeat IPC: 0.347298 cumulative IPC: 0.357063 (Simulation time: 0 hr 12 min 12 sec) 
Heartbeat CPU 0 instructions: 300000000 cycles: 630301643 heartbeat IPC: 0.335342 cumulative IPC: 0.35591 (Simulation time: 0 hr 12 min 42 sec) 
Heartbeat CPU 0 instructions: 310000001 cycles: 659661658 heartbeat IPC: 0.340599 cumulative IPC: 0.35515 (Simulation time: 0 hr 13 min 12 sec) 
Heartbeat CPU 0 instructions: 320000000 cycles: 687809429 heartbeat IPC: 0.355268 cumulative IPC: 0.355156 (Simulation time: 0 hr 13 min 41 sec) 
Heartbeat CPU 0 instructions: 330000000 cycles: 716386022 heartbeat IPC: 0.349937 cumulative IPC: 0.354925 (Simulation time: 0 hr 14 min 11 sec) 
Heartbeat CPU 0 instructions: 340000000 cycles: 745648434 heartbeat IPC: 0.341735 cumulative IPC: 0.354356 (Simulation time: 0 hr 14 min 41 sec) 
Heartbeat CPU 0 instructions: 350000003 cycles: 772615360 heartbeat IPC: 0.370825 cumulative IPC: 0.354986 (Simulation time: 0 hr 15 min 11 sec) 
Heartbeat CPU 0 instructions: 360000000 cycles: 800707888 heartbeat IPC: 0.355966 cumulative IPC: 0.355024 (Simulation time: 0 hr 15 min 40 sec) 
Heartbeat CPU 0 instructions: 370000000 cycles: 828902964 heartbeat IPC: 0.354672 cumulative IPC: 0.355011 (Simulation time: 0 hr 16 min 9 sec) 
Heartbeat CPU 0 instructions: 380000000 cycles: 857414053 heartbeat IPC: 0.350741 cumulative IPC: 0.354856 (Simulation time: 0 hr 16 min 37 sec) 
Heartbeat CPU 0 instructions: 390000001 cycles: 885027382 heartbeat IPC: 0.362144 cumulative IPC: 0.355103 (Simulation time: 0 hr 17 min 6 sec) 
Heartbeat CPU 0 instructions: 400000000 cycles: 913658179 heartbeat IPC: 0.349274 cumulative IPC: 0.354905 (Simulation time: 0 hr 17 min 35 sec) 
Heartbeat CPU 0 instructions: 410000001 cycles: 940973552 heartbeat IPC: 0.366094 cumulative IPC: 0.355256 (Simulation time: 0 hr 18 min 4 sec) 
Heartbeat CPU 0 instructions: 420000000 cycles: 968293378 heartbeat IPC: 0.366035 cumulative IPC: 0.355583 (Simulation time: 0 hr 18 min 32 sec) 
Heartbeat CPU 0 instructions: 430000002 cycles: 995981226 heartbeat IPC: 0.361169 cumulative IPC: 0.35575 (Simulation time: 0 hr 19 min 1 sec) 
Heartbeat CPU 0 instructions: 440000000 cycles: 1025495234 heartbeat IPC: 0.338822 cumulative IPC: 0.355228 (Simulation time: 0 hr 19 min 31 sec) 
Heartbeat CPU 0 instructions: 450000002 cycles: 1054723063 heartbeat IPC: 0.34214 cumulative IPC: 0.35484 (Simulation time: 0 hr 20 min 0 sec) 
Heartbeat CPU 0 instructions: 460000000 cycles: 1082419228 heartbeat IPC: 0.361061 cumulative IPC: 0.35501 (Simulation time: 0 hr 20 min 29 sec) 
Heartbeat CPU 0 instructions: 470000000 cycles: 1110060868 heartbeat IPC: 0.361773 cumulative IPC: 0.355189 (Simulation time: 0 hr 20 min 58 sec) 
Heartbeat CPU 0 instructions: 480000000 cycles: 1137946849 heartbeat IPC: 0.358603 cumulative IPC: 0.355278 (Simulation time: 0 hr 21 min 27 sec) 
Heartbeat CPU 0 instructions: 490000000 cycles: 1165542504 heartbeat IPC: 0.362376 cumulative IPC: 0.355457 (Simulation time: 0 hr 21 min 56 sec) 
Heartbeat CPU 0 instructions: 500000000 cycles: 1193823566 heartbeat IPC: 0.353593 cumulative IPC: 0.35541 (Simulation time: 0 hr 22 min 25 sec) 
Heartbeat CPU 0 instructions: 510000000 cycles: 1228834857 heartbeat IPC: 0.285622 cumulative IPC: 0.353304 (Simulation time: 0 hr 22 min 58 sec) 
Heartbeat CPU 0 instructions: 520000000 cycles: 1256562173 heartbeat IPC: 0.360655 cumulative IPC: 0.353476 (Simulation time: 0 hr 23 min 27 sec) 
Heartbeat CPU 0 instructions: 530000001 cycles: 1286040495 heartbeat IPC: 0.339232 cumulative IPC: 0.353131 (Simulation time: 0 hr 23 min 58 sec) 
Heartbeat CPU 0 instructions: 540000000 cycles: 1314202452 heartbeat IPC: 0.355089 cumulative IPC: 0.353175 (Simulation time: 0 hr 24 min 28 sec) 
Heartbeat CPU 0 instructions: 550000001 cycles: 1343450374 heartbeat IPC: 0.341905 cumulative IPC: 0.352917 (Simulation time: 0 hr 24 min 59 sec) 
Heartbeat CPU 0 instructions: 560000000 cycles: 1368835357 heartbeat IPC: 0.393934 cumulative IPC: 0.353718 (Simulation time: 0 hr 25 min 29 sec) 
Heartbeat CPU 0 instructions: 570000000 cycles: 1398359391 heartbeat IPC: 0.338707 cumulative IPC: 0.353384 (Simulation time: 0 hr 25 min 59 sec) 
Heartbeat CPU 0 instructions: 580000000 cycles: 1426365446 heartbeat IPC: 0.357066 cumulative IPC: 0.35346 (Simulation time: 0 hr 26 min 30 sec) 
Heartbeat CPU 0 instructions: 590000001 cycles: 1451153354 heartbeat IPC: 0.403423 cumulative IPC: 0.354356 (Simulation time: 0 hr 26 min 58 sec) 
Heartbeat CPU 0 instructions: 600000000 cycles: 1477356796 heartbeat IPC: 0.381629 cumulative IPC: 0.354863 (Simulation time: 0 hr 27 min 27 sec) 
Finished CPU 0 instructions: 500000000 cycles: 1408994310 cumulative IPC: 0.354863 (Simulation time: 0 hr 27 min 27 sec) 

CPU 0 Branch Prediction Accuracy: 86.4311% MPKI: 26.2662
Number of Branches: 96788573 Number of Mispredictions: 13133102
Number of LOAD Instructions: 164682285
Number of LOAD Instructions (ROI): 164682285
Number of STORE Instructions: 78194750
Number of STORE Instructions (ROI): 78194750
Total Destination Memory Operands: 83268534
Total Destination Memory Operands (ROI): 83268534
Total Source Memory Operands: 164712438
Total Source Memory Operands (ROI): 164712438
Number of DEPENDED LOADS: 7060859
Number of DEPENDED LOADS (ROI): 7060859
Number of SQ_ADDED: 83268522
Number of SQ_ADDED (ROI): 83268522
Number of LQ_ADDED: 236689177
Number of LQ_ADDED (ROI): 236689177
Number of Instructions read from trace: 600000066

ChampSim completed all CPUs

Region of Interest Statistics

CPU 0 cumulative IPC: 0.354863 instructions: 500000000 cycles: 1408994310
ITLB TOTAL     ACCESS:  100510760  HIT:  100306314  MISS:     204446
ITLB LOAD      ACCESS:  100510760  HIT:  100306314  MISS:     204446
ITLB RFO       ACCESS:          0  HIT:          0  MISS:          0
ITLB PREFETCH  ACCESS:          0  HIT:          0  MISS:          0
ITLB WRITEBACK ACCESS:          0  HIT:          0  MISS:          0
ITLB PREFETCH  REQUESTED:          0  ISSUED:          0  USEFUL:          0  USELESS:          0
ITLB TOTAL MSHR MERGED:     172423
ITLB LOAD MSHR MERGED:     172423
ITLB RFO MSHR MERGED:          0
ITLB PREFETCH MSHR MERGED:          0
ITLB WRITEBACK MSHR MERGED:          0
ITLB TOTAL ACCESSES:  100683183 HITS:  100306314 MISSES:     376869
ITLB LOAD ACCESSES:  100683183 HITS:  100306314 MISSES:     376869
ITLB RFO ACCESSES:          0 HITS:          0 MISSES:          0
ITLB PREFETCH ACCESSES:          0 HITS:          0 MISSES:          0
ITLB WRITEBACK ACCESSES:          0 HITS:          0 MISSES:          0
ITLB RQ ACCESS:  500000057
ITLB RQ TO_CACHE:  100683183
ITLB RQ MERGED:  399316874
ITLB RQ FORWARD:          0
ITLB WQ ACCESS:          0
ITLB WQ TO_CACHE:          0
ITLB WQ MERGED:          0
ITLB WQ FORWARD:          0
DTLB TOTAL     ACCESS:  165334670  HIT:  164700322  MISS:     634348
DTLB LOAD      ACCESS:  106290685  HIT:  105720700  MISS:     569985
DTLB RFO       ACCESS:   59043985  HIT:   58979622  MISS:      64363
DTLB PREFETCH  ACCESS:          0  HIT:          0  MISS:          0
DTLB WRITEBACK ACCESS:          0  HIT:          0  MISS:          0
DTLB PREFETCH  REQUESTED:          0  ISSUED:          0  USEFUL:          0  USELESS:          0
DTLB TOTAL MSHR MERGED:      99966
DTLB LOAD MSHR MERGED:      59481
DTLB RFO MSHR MERGED:      40485
DTLB PREFETCH MSHR MERGED:          0
DTLB WRITEBACK MSHR MERGED:          0
DTLB TOTAL ACCESSES:  165434636 HITS:  164700322 MISSES:     734314
DTLB LOAD ACCESSES:  106350166 HITS:  105720700 MISSES:     629466
DTLB RFO ACCESSES:   59084470 HITS:   58979622 MISSES:     104848
DTLB PREFETCH ACCESSES:          0 HITS:          0 MISSES:          0
DTLB WRITEBACK ACCESSES:          0 HITS:          0 MISSES:          0
DTLB RQ ACCESS:  200310022
DTLB RQ TO_CACHE:  165434636
DTLB RQ MERGED:   34875386
DTLB RQ FORWARD:          0
DTLB WQ ACCESS:          0
DTLB WQ TO_CACHE:          0
DTLB WQ MERGED:          0
DTLB WQ FORWARD:          0
L1D TOTAL     ACCESS:  281816495  HIT:  273907201  MISS:    7909294
L1D LOAD      ACCESS:  110415155  HIT:  107137031  MISS:    3278124
L1D RFO       ACCESS:   67107642  HIT:   66216650  MISS:     890992
L1D PREFETCH  ACCESS:  104293698  HIT:  100553520  MISS:    3740178
L1D WRITEBACK ACCESS:          0  HIT:          0  MISS:          0
L1D PREFETCH  REQUESTED:  110815523  ISSUED:  109116197  USEFUL:    1660944  USELESS:    2079198
L1D TOTAL MSHR MERGED:    2884525
L1D LOAD MSHR MERGED:     497909
L1D RFO MSHR MERGED:    1878713
L1D PREFETCH MSHR MERGED:     507903
L1D WRITEBACK MSHR MERGED:          0
L1D TOTAL ACCESSES:  284728533 HITS:  273934714 MISSES:   10793819
L1D LOAD ACCESSES:  110817031 HITS:  107138539 MISSES:    3678492
L1D RFO ACCESSES:   68974153 HITS:   66216650 MISSES:    2757503
L1D PREFETCH ACCESSES:  104937349 HITS:  100579525 MISSES:    4357824
L1D WRITEBACK ACCESSES:          0 HITS:          0 MISSES:          0
L1D RQ ACCESS:  130757419
L1D RQ TO_CACHE:  110815526
L1D RQ MERGED:   19940385
L1D RQ FORWARD:          0
L1D WQ ACCESS:   69552603
L1D WQ TO_CACHE:   68974154
L1D WQ MERGED:     578449
L1D WQ FORWARD:      27513
L1I TOTAL     ACCESS:  126558617  HIT:  122320063  MISS:    4238554
L1I LOAD      ACCESS:  126558617  HIT:  122320063  MISS:    4238554
L1I RFO       ACCESS:          0  HIT:          0  MISS:          0
L1I PREFETCH  ACCESS:          0  HIT:          0  MISS:          0
L1I WRITEBACK ACCESS:          0  HIT:          0  MISS:          0
L1I PREFETCH  REQUESTED:          0  ISSUED:          0  USEFUL:          0  USELESS:          0
L1I TOTAL MSHR MERGED:    1834440
L1I LOAD MSHR MERGED:    1834440
L1I RFO MSHR MERGED:          0
L1I PREFETCH MSHR MERGED:          0
L1I WRITEBACK MSHR MERGED:          0
L1I TOTAL ACCESSES:  128393060 HITS:  122320063 MISSES:    6072997
L1I LOAD ACCESSES:  128393060 HITS:  122320063 MISSES:    6072997
L1I RFO ACCESSES:          0 HITS:          0 MISSES:          0
L1I PREFETCH ACCESSES:          0 HITS:          0 MISSES:          0
L1I WRITEBACK ACCESSES:          0 HITS:          0 MISSES:          0
L1I RQ ACCESS:  500000057
L1I RQ TO_CACHE:  128393060
L1I RQ MERGED:  371606997
L1I RQ FORWARD:          0
L1I WQ ACCESS:          0
L1I WQ TO_CACHE:          0
L1I WQ MERGED:          0
L1I WQ FORWARD:          0
L2C TOTAL     ACCESS:   14904728  HIT:   11158366  MISS:    3746362
L2C LOAD      ACCESS:    7418928  HIT:    5098823  MISS:    2320105
L2C RFO       ACCESS:     878692  HIT:     409913  MISS:     468779
L2C PREFETCH  ACCESS:    4567869  HIT:    3627647  MISS:     940222
L2C WRITEBACK ACCESS:    2039239  HIT:    2021983  MISS:      17256
L2C PREFETCH  REQUESTED:     842732  ISSUED:     842732  USEFUL:     203275  USELESS:     736653
L2C TOTAL MSHR MERGED:       7448
L2C LOAD MSHR MERGED:        862
L2C RFO MSHR MERGED:          0
L2C PREFETCH MSHR MERGED:       6586
L2C WRITEBACK MSHR MERGED:          0
L2C TOTAL ACCESSES:   14913114 HITS:   11158815 MISSES:    3754299
L2C LOAD ACCESSES:    7419137 HITS:    5099032 MISSES:    2320105
L2C RFO ACCESSES:     878790 HITS:     410011 MISSES:     468779
L2C PREFETCH ACCESSES:    4575948 HITS:    3627789 MISSES:     948159
L2C WRITEBACK ACCESSES:    2039239 HITS:    2021983 MISSES:      17256
L2C RQ ACCESS:    8297930
L2C RQ TO_CACHE:    8297623
L2C RQ MERGED:          0
L2C RQ FORWARD:          0
L2C WQ ACCESS:    2039239
L2C WQ TO_CACHE:    2039239
L2C WQ MERGED:          0
L2C WQ FORWARD:        449
LLC TOTAL     ACCESS:    4609677  HIT:    3932253  MISS:     677424
LLC LOAD      ACCESS:    2319230  HIT:    2090779  MISS:     228451
LLC RFO       ACCESS:     468768  HIT:     388186  MISS:      80582
LLC PREFETCH  ACCESS:     941434  HIT:     645037  MISS:     296397
LLC WRITEBACK ACCESS:     880245  HIT:     808251  MISS:      71994
LLC PREFETCH  REQUESTED:          0  ISSUED:          0  USEFUL:      15562  USELESS:     281309
LLC TOTAL MSHR MERGED:        121
LLC LOAD MSHR MERGED:         44
LLC RFO MSHR MERGED:          0
LLC PREFETCH MSHR MERGED:         77
LLC WRITEBACK MSHR MERGED:          0
LLC TOTAL ACCESSES:    4609832 HITS:    3932287 MISSES:     677545
LLC LOAD ACCESSES:    2319243 HITS:    2090792 MISSES:     228451
LLC RFO ACCESSES:     468779 HITS:     388197 MISSES:      80582
LLC PREFETCH ACCESSES:     941565 HITS:     645047 MISSES:     296518
LLC WRITEBACK ACCESSES:     880245 HITS:     808251 MISSES:      71994
LLC 0 RQ ACCESS:    2788022
LLC 0 RQ TO_CACHE:    2787998
LLC 0 RQ MERGED:          0
LLC 0 RQ FORWARD:          0
LLC WQ ACCESS:     880245
LLC WQ TO_CACHE:     880245
LLC WQ MERGED:          0
LLC WQ FORWARD:         34
Major fault: 0 Minor fault: 12862
CPU 0 L1D next line prefetcher final stats
CPU 0 L2C PC-based stride prefetcher final stats
All Misses: 798795
All Hits: 4627888
SD Algo Stats - Switches: 0 SRR-Repls: 267578 BRR-Repls: 0

DRAM Statistics
 CHANNEL 0
 RQ ROW_BUFFER_HIT:     117302  ROW_BUFFER_MISS:     487065
 DBUS_CONGESTED:     384117
 WQ ROW_BUFFER_HIT:      18632  ROW_BUFFER_MISS:     199459  FULL:          0

 AVG_CONGESTED_CYCLE: 13
LOADS RETIRED: 136549171
INSTR RETIRED: 500000000
