
*** ChampSim Multicore Out-of-Order Simulator ***

Warmup Instructions: 100000000
Simulation Instructions: 500000000
Number of CPUs: 1
LLC sets: 2048
LLC ways: 16
Clean RRIP Policies: 2213230222132302 Dirty RRIP Policies: 1203130212031302 PSEL Width: 10 Track Set: 4294967295 PSEL Mask: 1 Demote Mask: 1033100010331000DS Algo: 0Window size: 0
Off-chip DRAM Size: 4096 MB Channels: 1 Width: 64-bit Data Rate: 1600 MT/s

CPU 0 runs /mnt/beegfs/iconst01/spec2017/x264.trace.gz
NOT SORTED
TRACE STRING: /mnt/beegfs/iconst01/spec2017/x264.trace.gz
SORTED
TRACE STRING: /mnt/beegfs/iconst01/spec2017/x264.trace.gz
INITIAL
TRACE STRING: /mnt/beegfs/iconst01/spec2017/x264.trace.gz

champsim_seed used: 276

CPU 0 L1D next line prefetcher
CPU 0 L2C IP-based stride prefetcher
Initialize DRRIP state
Assign rand_sets[0]: 454  LLC: 2048
rand_sets[0]: 454
Assign rand_sets[1]: 1662  LLC: 2048
rand_sets[1]: 1662
Assign rand_sets[2]: 1921  LLC: 2048
rand_sets[2]: 1921
Assign rand_sets[3]: 1131  LLC: 2048
rand_sets[3]: 1131
Assign rand_sets[4]: 331  LLC: 2048
rand_sets[4]: 331
Assign rand_sets[5]: 1531  LLC: 2048
rand_sets[5]: 1531
Assign rand_sets[6]: 482  LLC: 2048
rand_sets[6]: 482
Assign rand_sets[7]: 1275  LLC: 2048
rand_sets[7]: 1275
Assign rand_sets[8]: 1876  LLC: 2048
rand_sets[8]: 1876
Assign rand_sets[9]: 2038  LLC: 2048
rand_sets[9]: 2038
Assign rand_sets[10]: 701  LLC: 2048
rand_sets[10]: 701
Assign rand_sets[11]: 479  LLC: 2048
rand_sets[11]: 479
Assign rand_sets[12]: 892  LLC: 2048
rand_sets[12]: 892
Assign rand_sets[13]: 1820  LLC: 2048
rand_sets[13]: 1820
Assign rand_sets[14]: 1505  LLC: 2048
rand_sets[14]: 1505
Assign rand_sets[15]: 1159  LLC: 2048
rand_sets[15]: 1159
Assign rand_sets[16]: 513  LLC: 2048
rand_sets[16]: 513
Assign rand_sets[17]: 703  LLC: 2048
rand_sets[17]: 703
Assign rand_sets[18]: 561  LLC: 2048
rand_sets[18]: 561
Assign rand_sets[19]: 990  LLC: 2048
rand_sets[19]: 990
Assign rand_sets[20]: 342  LLC: 2048
rand_sets[20]: 342
Assign rand_sets[21]: 882  LLC: 2048
rand_sets[21]: 882
Assign rand_sets[22]: 15  LLC: 2048
rand_sets[22]: 15
Assign rand_sets[23]: 71  LLC: 2048
rand_sets[23]: 71
Assign rand_sets[24]: 1127  LLC: 2048
rand_sets[24]: 1127
Assign rand_sets[25]: 1382  LLC: 2048
rand_sets[25]: 1382
Assign rand_sets[26]: 647  LLC: 2048
rand_sets[26]: 647
Assign rand_sets[27]: 857  LLC: 2048
rand_sets[27]: 857
Assign rand_sets[28]: 1450  LLC: 2048
rand_sets[28]: 1450
Assign rand_sets[29]: 1160  LLC: 2048
rand_sets[29]: 1160
Assign rand_sets[30]: 1852  LLC: 2048
rand_sets[30]: 1852
Assign rand_sets[31]: 1881  LLC: 2048
rand_sets[31]: 1881
Assign rand_sets[32]: 1770  LLC: 2048
rand_sets[32]: 1770
Assign rand_sets[33]: 1622  LLC: 2048
rand_sets[33]: 1622
Assign rand_sets[34]: 275  LLC: 2048
rand_sets[34]: 275
Assign rand_sets[35]: 635  LLC: 2048
rand_sets[35]: 635
Assign rand_sets[36]: 466  LLC: 2048
rand_sets[36]: 466
Assign rand_sets[37]: 1413  LLC: 2048
rand_sets[37]: 1413
Assign rand_sets[38]: 417  LLC: 2048
rand_sets[38]: 417
Assign rand_sets[39]: 472  LLC: 2048
rand_sets[39]: 472
Assign rand_sets[40]: 1340  LLC: 2048
rand_sets[40]: 1340
Assign rand_sets[41]: 852  LLC: 2048
rand_sets[41]: 852
Assign rand_sets[42]: 1365  LLC: 2048
rand_sets[42]: 1365
Assign rand_sets[43]: 47  LLC: 2048
rand_sets[43]: 47
Assign rand_sets[44]: 823  LLC: 2048
rand_sets[44]: 823
Assign rand_sets[45]: 686  LLC: 2048
rand_sets[45]: 686
Assign rand_sets[46]: 1637  LLC: 2048
rand_sets[46]: 1637
Assign rand_sets[47]: 1115  LLC: 2048
rand_sets[47]: 1115
Assign rand_sets[48]: 986  LLC: 2048
rand_sets[48]: 986
Assign rand_sets[49]: 258  LLC: 2048
rand_sets[49]: 258
Assign rand_sets[50]: 633  LLC: 2048
rand_sets[50]: 633
Assign rand_sets[51]: 920  LLC: 2048
rand_sets[51]: 920
Assign rand_sets[52]: 204  LLC: 2048
rand_sets[52]: 204
Assign rand_sets[53]: 227  LLC: 2048
rand_sets[53]: 227
Assign rand_sets[54]: 1818  LLC: 2048
rand_sets[54]: 1818
Assign rand_sets[55]: 886  LLC: 2048
rand_sets[55]: 886
Assign rand_sets[56]: 1422  LLC: 2048
rand_sets[56]: 1422
Assign rand_sets[57]: 607  LLC: 2048
rand_sets[57]: 607
Assign rand_sets[58]: 217  LLC: 2048
rand_sets[58]: 217
Assign rand_sets[59]: 1945  LLC: 2048
rand_sets[59]: 1945
Assign rand_sets[60]: 143  LLC: 2048
rand_sets[60]: 143
Assign rand_sets[61]: 1311  LLC: 2048
rand_sets[61]: 1311
Assign rand_sets[62]: 319  LLC: 2048
rand_sets[62]: 319
Assign rand_sets[63]: 1846  LLC: 2048
rand_sets[63]: 1846
 CLEAN-RRIP-POLICY-1: 2-2-1-3-2-3-0-2- CLEAN-RRIP-POLICY-2: 2-2-1-3-2-3-0-2-
 DIRTY-RRIP-POLICY-1: 1-2-0-3-1-3-0-2- DIRTY-RRIP-POLICY-2: 1-2-0-3-1-3-0-2-
 PSEL width: 10
Heartbeat CPU 0 instructions: 10000000 cycles: 4124759 heartbeat IPC: 2.42438 cumulative IPC: 2.42438 (Simulation time: 0 hr 0 min 14 sec) 
Heartbeat CPU 0 instructions: 20000000 cycles: 8233863 heartbeat IPC: 2.43362 cumulative IPC: 2.42899 (Simulation time: 0 hr 0 min 27 sec) 
Heartbeat CPU 0 instructions: 30000003 cycles: 12464696 heartbeat IPC: 2.3636 cumulative IPC: 2.4068 (Simulation time: 0 hr 0 min 40 sec) 
Heartbeat CPU 0 instructions: 40000000 cycles: 16636669 heartbeat IPC: 2.39695 cumulative IPC: 2.40433 (Simulation time: 0 hr 0 min 54 sec) 
Heartbeat CPU 0 instructions: 50000000 cycles: 20699150 heartbeat IPC: 2.46155 cumulative IPC: 2.41556 (Simulation time: 0 hr 1 min 7 sec) 
Heartbeat CPU 0 instructions: 60000000 cycles: 25022635 heartbeat IPC: 2.31295 cumulative IPC: 2.39783 (Simulation time: 0 hr 1 min 21 sec) 
Heartbeat CPU 0 instructions: 70000000 cycles: 29370911 heartbeat IPC: 2.29976 cumulative IPC: 2.38331 (Simulation time: 0 hr 1 min 34 sec) 
Heartbeat CPU 0 instructions: 80000000 cycles: 33721045 heartbeat IPC: 2.29878 cumulative IPC: 2.37241 (Simulation time: 0 hr 1 min 47 sec) 
Heartbeat CPU 0 instructions: 90000002 cycles: 38032030 heartbeat IPC: 2.31966 cumulative IPC: 2.36643 (Simulation time: 0 hr 2 min 0 sec) 
Heartbeat CPU 0 instructions: 100000000 cycles: 42328926 heartbeat IPC: 2.32726 cumulative IPC: 2.36245 (Simulation time: 0 hr 2 min 13 sec) 

Warmup complete CPU 0 instructions: 100000001 cycles: 42328927 (Simulation time: 0 hr 2 min 13 sec) 

Heartbeat CPU 0 instructions: 110000001 cycles: 49386955 heartbeat IPC: 1.41683 cumulative IPC: 1.41683 (Simulation time: 0 hr 2 min 31 sec) 
Heartbeat CPU 0 instructions: 120000000 cycles: 58883097 heartbeat IPC: 1.05306 cumulative IPC: 1.20815 (Simulation time: 0 hr 2 min 50 sec) 
Heartbeat CPU 0 instructions: 130000000 cycles: 63709452 heartbeat IPC: 2.07196 cumulative IPC: 1.40315 (Simulation time: 0 hr 3 min 7 sec) 
Heartbeat CPU 0 instructions: 140000000 cycles: 68642432 heartbeat IPC: 2.02717 cumulative IPC: 1.52013 (Simulation time: 0 hr 3 min 24 sec) 
Heartbeat CPU 0 instructions: 150000002 cycles: 75472271 heartbeat IPC: 1.46416 cumulative IPC: 1.5086 (Simulation time: 0 hr 3 min 42 sec) 
Heartbeat CPU 0 instructions: 160000000 cycles: 83322920 heartbeat IPC: 1.27378 cumulative IPC: 1.46363 (Simulation time: 0 hr 4 min 0 sec) 
Heartbeat CPU 0 instructions: 170000000 cycles: 90732710 heartbeat IPC: 1.34957 cumulative IPC: 1.44617 (Simulation time: 0 hr 4 min 17 sec) 
Heartbeat CPU 0 instructions: 180000000 cycles: 98036926 heartbeat IPC: 1.36907 cumulative IPC: 1.43606 (Simulation time: 0 hr 4 min 34 sec) 
Heartbeat CPU 0 instructions: 190000002 cycles: 105217390 heartbeat IPC: 1.39267 cumulative IPC: 1.43111 (Simulation time: 0 hr 4 min 52 sec) 
Heartbeat CPU 0 instructions: 200000000 cycles: 112463295 heartbeat IPC: 1.38009 cumulative IPC: 1.42583 (Simulation time: 0 hr 5 min 9 sec) 
Heartbeat CPU 0 instructions: 210000000 cycles: 119337425 heartbeat IPC: 1.45473 cumulative IPC: 1.42841 (Simulation time: 0 hr 5 min 26 sec) 
Heartbeat CPU 0 instructions: 220000000 cycles: 126110293 heartbeat IPC: 1.47648 cumulative IPC: 1.4323 (Simulation time: 0 hr 5 min 42 sec) 
Heartbeat CPU 0 instructions: 230000003 cycles: 132840460 heartbeat IPC: 1.48585 cumulative IPC: 1.43628 (Simulation time: 0 hr 5 min 59 sec) 
Heartbeat CPU 0 instructions: 240000000 cycles: 139587168 heartbeat IPC: 1.4822 cumulative IPC: 1.43947 (Simulation time: 0 hr 6 min 16 sec) 
Heartbeat CPU 0 instructions: 250000001 cycles: 146314383 heartbeat IPC: 1.4865 cumulative IPC: 1.44251 (Simulation time: 0 hr 6 min 32 sec) 
Heartbeat CPU 0 instructions: 260000000 cycles: 153021719 heartbeat IPC: 1.4909 cumulative IPC: 1.44544 (Simulation time: 0 hr 6 min 49 sec) 
Heartbeat CPU 0 instructions: 270000001 cycles: 160000976 heartbeat IPC: 1.43282 cumulative IPC: 1.44469 (Simulation time: 0 hr 7 min 6 sec) 
Heartbeat CPU 0 instructions: 280000000 cycles: 167528120 heartbeat IPC: 1.32852 cumulative IPC: 1.43771 (Simulation time: 0 hr 7 min 24 sec) 
Heartbeat CPU 0 instructions: 290000000 cycles: 175446523 heartbeat IPC: 1.26288 cumulative IPC: 1.42731 (Simulation time: 0 hr 7 min 41 sec) 
Heartbeat CPU 0 instructions: 300000000 cycles: 183628774 heartbeat IPC: 1.22216 cumulative IPC: 1.41543 (Simulation time: 0 hr 8 min 0 sec) 
Heartbeat CPU 0 instructions: 310000002 cycles: 191945774 heartbeat IPC: 1.20236 cumulative IPC: 1.40359 (Simulation time: 0 hr 8 min 18 sec) 
Heartbeat CPU 0 instructions: 320000000 cycles: 201945412 heartbeat IPC: 1.00004 cumulative IPC: 1.3783 (Simulation time: 0 hr 8 min 38 sec) 
Heartbeat CPU 0 instructions: 330000002 cycles: 206597691 heartbeat IPC: 2.14948 cumulative IPC: 1.40014 (Simulation time: 0 hr 8 min 55 sec) 
Heartbeat CPU 0 instructions: 340000000 cycles: 211846862 heartbeat IPC: 1.90506 cumulative IPC: 1.41578 (Simulation time: 0 hr 9 min 12 sec) 
Heartbeat CPU 0 instructions: 350000000 cycles: 219075923 heartbeat IPC: 1.38331 cumulative IPC: 1.41445 (Simulation time: 0 hr 9 min 30 sec) 
Heartbeat CPU 0 instructions: 360000000 cycles: 226744482 heartbeat IPC: 1.30403 cumulative IPC: 1.40986 (Simulation time: 0 hr 9 min 48 sec) 
Heartbeat CPU 0 instructions: 370000000 cycles: 234156982 heartbeat IPC: 1.34907 cumulative IPC: 1.40751 (Simulation time: 0 hr 10 min 5 sec) 
Heartbeat CPU 0 instructions: 380000000 cycles: 241435296 heartbeat IPC: 1.37394 cumulative IPC: 1.40628 (Simulation time: 0 hr 10 min 22 sec) 
Heartbeat CPU 0 instructions: 390000000 cycles: 249555888 heartbeat IPC: 1.23144 cumulative IPC: 1.39943 (Simulation time: 0 hr 10 min 40 sec) 
Heartbeat CPU 0 instructions: 400000000 cycles: 257753351 heartbeat IPC: 1.21989 cumulative IPC: 1.3926 (Simulation time: 0 hr 10 min 59 sec) 
Heartbeat CPU 0 instructions: 410000001 cycles: 265576867 heartbeat IPC: 1.2782 cumulative IPC: 1.38859 (Simulation time: 0 hr 11 min 16 sec) 
Heartbeat CPU 0 instructions: 420000000 cycles: 273622320 heartbeat IPC: 1.24294 cumulative IPC: 1.38352 (Simulation time: 0 hr 11 min 35 sec) 
Heartbeat CPU 0 instructions: 430000001 cycles: 281883301 heartbeat IPC: 1.21051 cumulative IPC: 1.37756 (Simulation time: 0 hr 11 min 53 sec) 
Heartbeat CPU 0 instructions: 440000000 cycles: 289936137 heartbeat IPC: 1.2418 cumulative IPC: 1.37314 (Simulation time: 0 hr 12 min 11 sec) 
Heartbeat CPU 0 instructions: 450000001 cycles: 297810410 heartbeat IPC: 1.26996 cumulative IPC: 1.36996 (Simulation time: 0 hr 12 min 29 sec) 
Heartbeat CPU 0 instructions: 460000000 cycles: 307757829 heartbeat IPC: 1.00529 cumulative IPC: 1.3563 (Simulation time: 0 hr 12 min 48 sec) 
Heartbeat CPU 0 instructions: 470000002 cycles: 312405996 heartbeat IPC: 2.15139 cumulative IPC: 1.36998 (Simulation time: 0 hr 13 min 5 sec) 
Heartbeat CPU 0 instructions: 480000000 cycles: 317675543 heartbeat IPC: 1.8977 cumulative IPC: 1.38008 (Simulation time: 0 hr 13 min 22 sec) 
Heartbeat CPU 0 instructions: 490000001 cycles: 324994250 heartbeat IPC: 1.36636 cumulative IPC: 1.37972 (Simulation time: 0 hr 13 min 40 sec) 
Heartbeat CPU 0 instructions: 500000000 cycles: 333724698 heartbeat IPC: 1.14542 cumulative IPC: 1.3727 (Simulation time: 0 hr 14 min 0 sec) 
Heartbeat CPU 0 instructions: 510000002 cycles: 342456959 heartbeat IPC: 1.14518 cumulative IPC: 1.36608 (Simulation time: 0 hr 14 min 20 sec) 
Heartbeat CPU 0 instructions: 520000000 cycles: 351184656 heartbeat IPC: 1.14578 cumulative IPC: 1.35986 (Simulation time: 0 hr 14 min 40 sec) 
Heartbeat CPU 0 instructions: 530000000 cycles: 359890946 heartbeat IPC: 1.14859 cumulative IPC: 1.35407 (Simulation time: 0 hr 15 min 0 sec) 
Heartbeat CPU 0 instructions: 540000000 cycles: 368147589 heartbeat IPC: 1.21115 cumulative IPC: 1.35044 (Simulation time: 0 hr 15 min 20 sec) 
Heartbeat CPU 0 instructions: 550000000 cycles: 375186424 heartbeat IPC: 1.42069 cumulative IPC: 1.35193 (Simulation time: 0 hr 15 min 37 sec) 
Heartbeat CPU 0 instructions: 560000000 cycles: 381800526 heartbeat IPC: 1.51192 cumulative IPC: 1.35505 (Simulation time: 0 hr 15 min 54 sec) 
Heartbeat CPU 0 instructions: 570000002 cycles: 388395941 heartbeat IPC: 1.51621 cumulative IPC: 1.35812 (Simulation time: 0 hr 16 min 11 sec) 
Heartbeat CPU 0 instructions: 580000000 cycles: 395048226 heartbeat IPC: 1.50324 cumulative IPC: 1.36086 (Simulation time: 0 hr 16 min 28 sec) 
Heartbeat CPU 0 instructions: 590000002 cycles: 401740084 heartbeat IPC: 1.49435 cumulative IPC: 1.36334 (Simulation time: 0 hr 16 min 45 sec) 
Heartbeat CPU 0 instructions: 600000000 cycles: 408553968 heartbeat IPC: 1.46759 cumulative IPC: 1.36528 (Simulation time: 0 hr 17 min 3 sec) 
Finished CPU 0 instructions: 500000000 cycles: 366225049 cumulative IPC: 1.36528 (Simulation time: 0 hr 17 min 3 sec) 

CPU 0 Branch Prediction Accuracy: 93.4682% MPKI: 2.44079
Number of Branches: 18683822 Number of Mispredictions: 1220394
Number of LOAD Instructions: 142551610
Number of LOAD Instructions (ROI): 142551610
Number of STORE Instructions: 44807454
Number of STORE Instructions (ROI): 44807454
Total Destination Memory Operands: 48357071
Total Destination Memory Operands (ROI): 48357071
Total Source Memory Operands: 142551610
Total Source Memory Operands (ROI): 142551610
Number of DEPENDED LOADS: 7395021
Number of DEPENDED LOADS (ROI): 7395021
Number of SQ_ADDED: 48357051
Number of SQ_ADDED (ROI): 48357051
Number of LQ_ADDED: 157235990
Number of LQ_ADDED (ROI): 157235990
Number of Instructions read from trace: 600000256

ChampSim completed all CPUs

Region of Interest Statistics

CPU 0 cumulative IPC: 1.36528 instructions: 500000000 cycles: 366225049
ITLB TOTAL     ACCESS:   88178053  HIT:   88177984  MISS:         69
ITLB LOAD      ACCESS:   88178053  HIT:   88177984  MISS:         69
ITLB RFO       ACCESS:          0  HIT:          0  MISS:          0
ITLB PREFETCH  ACCESS:          0  HIT:          0  MISS:          0
ITLB WRITEBACK ACCESS:          0  HIT:          0  MISS:          0
ITLB PREFETCH  REQUESTED:          0  ISSUED:          0  USEFUL:          0  USELESS:          0
ITLB TOTAL MSHR MERGED:         85
ITLB LOAD MSHR MERGED:         85
ITLB RFO MSHR MERGED:          0
ITLB PREFETCH MSHR MERGED:          0
ITLB WRITEBACK MSHR MERGED:          0
ITLB TOTAL ACCESSES:   88178138 HITS:   88177984 MISSES:        154
ITLB LOAD ACCESSES:   88178138 HITS:   88177984 MISSES:        154
ITLB RFO ACCESSES:          0 HITS:          0 MISSES:          0
ITLB PREFETCH ACCESSES:          0 HITS:          0 MISSES:          0
ITLB WRITEBACK ACCESSES:          0 HITS:          0 MISSES:          0
ITLB RQ ACCESS:  500000000
ITLB RQ TO_CACHE:   88178138
ITLB RQ MERGED:  411821862
ITLB RQ FORWARD:          0
ITLB WQ ACCESS:          0
ITLB WQ TO_CACHE:          0
ITLB WQ MERGED:          0
ITLB WQ FORWARD:          0
DTLB TOTAL     ACCESS:   88203121  HIT:   88075706  MISS:     127415
DTLB LOAD      ACCESS:   59485204  HIT:   59392735  MISS:      92469
DTLB RFO       ACCESS:   28717917  HIT:   28682971  MISS:      34946
DTLB PREFETCH  ACCESS:          0  HIT:          0  MISS:          0
DTLB WRITEBACK ACCESS:          0  HIT:          0  MISS:          0
DTLB PREFETCH  REQUESTED:          0  ISSUED:          0  USEFUL:          0  USELESS:          0
DTLB TOTAL MSHR MERGED:     141195
DTLB LOAD MSHR MERGED:     107671
DTLB RFO MSHR MERGED:      33524
DTLB PREFETCH MSHR MERGED:          0
DTLB WRITEBACK MSHR MERGED:          0
DTLB TOTAL ACCESSES:   88344316 HITS:   88075706 MISSES:     268610
DTLB LOAD ACCESSES:   59592875 HITS:   59392735 MISSES:     200140
DTLB RFO ACCESSES:   28751441 HITS:   28682971 MISSES:      68470
DTLB PREFETCH ACCESSES:          0 HITS:          0 MISSES:          0
DTLB WRITEBACK ACCESSES:          0 HITS:          0 MISSES:          0
DTLB RQ ACCESS:  154558870
DTLB RQ TO_CACHE:   88344316
DTLB RQ MERGED:   66214554
DTLB RQ FORWARD:          0
DTLB WQ ACCESS:          0
DTLB WQ TO_CACHE:          0
DTLB WQ MERGED:          0
DTLB WQ FORWARD:          0
L1D TOTAL     ACCESS:  128111406  HIT:  124885806  MISS:    3225600
L1D LOAD      ACCESS:   53171808  HIT:   51976596  MISS:    1195212
L1D RFO       ACCESS:   37377609  HIT:   36763532  MISS:     614077
L1D PREFETCH  ACCESS:   37561989  HIT:   36145678  MISS:    1416311
L1D WRITEBACK ACCESS:          0  HIT:          0  MISS:          0
L1D PREFETCH  REQUESTED:   53656808  ISSUED:   52456794  USEFUL:     352175  USELESS:    1064101
L1D TOTAL MSHR MERGED:    2798343
L1D LOAD MSHR MERGED:     523683
L1D RFO MSHR MERGED:    1576977
L1D PREFETCH MSHR MERGED:     697683
L1D WRITEBACK MSHR MERGED:          0
L1D TOTAL ACCESSES:  130944606 HITS:  124920663 MISSES:    6023943
L1D LOAD ACCESSES:   53659669 HITS:   51979457 MISSES:    1680212
L1D RFO ACCESSES:   38952745 HITS:   36763532 MISSES:    2189213
L1D PREFETCH ACCESSES:   38332192 HITS:   36177674 MISSES:    2154518
L1D WRITEBACK ACCESSES:          0 HITS:          0 MISSES:          0
L1D RQ ACCESS:  113713978
L1D RQ TO_CACHE:   53656808
L1D RQ MERGED:   60054309
L1D RQ FORWARD:          0
L1D WQ ACCESS:   40844891
L1D WQ TO_CACHE:   38952745
L1D WQ MERGED:    1892146
L1D WQ FORWARD:      34857
L1I TOTAL     ACCESS:  108369313  HIT:  107810178  MISS:     559135
L1I LOAD      ACCESS:  108369313  HIT:  107810178  MISS:     559135
L1I RFO       ACCESS:          0  HIT:          0  MISS:          0
L1I PREFETCH  ACCESS:          0  HIT:          0  MISS:          0
L1I WRITEBACK ACCESS:          0  HIT:          0  MISS:          0
L1I PREFETCH  REQUESTED:          0  ISSUED:          0  USEFUL:          0  USELESS:          0
L1I TOTAL MSHR MERGED:     525612
L1I LOAD MSHR MERGED:     525612
L1I RFO MSHR MERGED:          0
L1I PREFETCH MSHR MERGED:          0
L1I WRITEBACK MSHR MERGED:          0
L1I TOTAL ACCESSES:  108894925 HITS:  107810178 MISSES:    1084747
L1I LOAD ACCESSES:  108894925 HITS:  107810178 MISSES:    1084747
L1I RFO ACCESSES:          0 HITS:          0 MISSES:          0
L1I PREFETCH ACCESSES:          0 HITS:          0 MISSES:          0
L1I WRITEBACK ACCESSES:          0 HITS:          0 MISSES:          0
L1I RQ ACCESS:  500000002
L1I RQ TO_CACHE:  108894925
L1I RQ MERGED:  391105077
L1I RQ FORWARD:          0
L1I WQ ACCESS:          0
L1I WQ TO_CACHE:          0
L1I WQ MERGED:          0
L1I WQ FORWARD:          0
L2C TOTAL     ACCESS:    4692124  HIT:    3866015  MISS:     826109
L2C LOAD      ACCESS:    1715549  HIT:    1562718  MISS:     152831
L2C RFO       ACCESS:     610809  HIT:     421179  MISS:     189630
L2C PREFETCH  ACCESS:    1662888  HIT:    1181430  MISS:     481458
L2C WRITEBACK ACCESS:     702878  HIT:     700688  MISS:       2190
L2C PREFETCH  REQUESTED:     256399  ISSUED:     256399  USEFUL:     173156  USELESS:     308968
L2C TOTAL MSHR MERGED:      13296
L2C LOAD MSHR MERGED:       4011
L2C RFO MSHR MERGED:          0
L2C PREFETCH MSHR MERGED:       9285
L2C WRITEBACK MSHR MERGED:          0
L2C TOTAL ACCESSES:    4712085 HITS:    3867628 MISSES:     844457
L2C LOAD ACCESSES:    1715664 HITS:    1562833 MISSES:     152831
L2C RFO ACCESSES:     612236 HITS:     422606 MISSES:     189630
L2C PREFETCH ACCESSES:    1681307 HITS:    1181501 MISSES:     499806
L2C WRITEBACK ACCESSES:     702878 HITS:     700688 MISSES:       2190
L2C RQ ACCESS:    2327900
L2C RQ TO_CACHE:    2326358
L2C RQ MERGED:          0
L2C RQ FORWARD:          0
L2C WQ ACCESS:     702878
L2C WQ TO_CACHE:     702878
L2C WQ MERGED:          0
L2C WQ FORWARD:       1613
LLC TOTAL     ACCESS:    1047492  HIT:     291513  MISS:     755979
LLC LOAD      ACCESS:     148816  HIT:      87136  MISS:      61680
LLC RFO       ACCESS:     189623  HIT:       6263  MISS:     183360
LLC PREFETCH  ACCESS:     488176  HIT:     159022  MISS:     329154
LLC WRITEBACK ACCESS:     220877  HIT:      39092  MISS:     181785
LLC PREFETCH  REQUESTED:          0  ISSUED:          0  USEFUL:       2184  USELESS:     327515
LLC TOTAL MSHR MERGED:       1644
LLC LOAD MSHR MERGED:        561
LLC RFO MSHR MERGED:          0
LLC PREFETCH MSHR MERGED:       1083
LLC WRITEBACK MSHR MERGED:          0
LLC TOTAL ACCESSES:    1049147 HITS:     291524 MISSES:     757623
LLC LOAD ACCESSES:     148820 HITS:      87140 MISSES:      61680
LLC RFO ACCESSES:     189630 HITS:       6270 MISSES:     183360
LLC PREFETCH ACCESSES:     489820 HITS:     159022 MISSES:     330798
LLC WRITEBACK ACCESSES:     220877 HITS:      39092 MISSES:     181785
LLC 0 RQ ACCESS:     338450
LLC 0 RQ TO_CACHE:     338439
LLC 0 RQ MERGED:          0
LLC 0 RQ FORWARD:          0
LLC WQ ACCESS:     220877
LLC WQ TO_CACHE:     220877
LLC WQ MERGED:          0
LLC WQ FORWARD:         11
Major fault: 0 Minor fault: 6811
CPU 0 L1D next line prefetcher final stats
CPU 0 L2C PC-based stride prefetcher final stats
All Misses: 895171
All Hits: 359304
SD Algo Stats - Switches: 0 SRR-Repls: 69147 BRR-Repls: 0

DRAM Statistics
 CHANNEL 0
 RQ ROW_BUFFER_HIT:     286366  ROW_BUFFER_MISS:     287763
 DBUS_CONGESTED:     396219
 WQ ROW_BUFFER_HIT:      23413  ROW_BUFFER_MISS:     191981  FULL:          0

 AVG_CONGESTED_CYCLE: 13
LOADS RETIRED: 119922929
INSTR RETIRED: 500000000
