
*** ChampSim Multicore Out-of-Order Simulator ***

Warmup Instructions: 100000000
Simulation Instructions: 500000000
Number of CPUs: 1
LLC sets: 2048
LLC ways: 16
Clean RRIP Policies: 2013230220132302 Dirty RRIP Policies: 1013130210131302 PSEL Width: 10 Track Set: 4294967295 PSEL Mask: 1 Demote Mask: 1340100013401000DS Algo: 0Window size: 0
Off-chip DRAM Size: 4096 MB Channels: 1 Width: 64-bit Data Rate: 1600 MT/s

CPU 0 runs /mnt/beegfs/iconst01/spec2017/Omnetpp.trace.gz
NOT SORTED
TRACE STRING: /mnt/beegfs/iconst01/spec2017/Omnetpp.trace.gz
SORTED
TRACE STRING: /mnt/beegfs/iconst01/spec2017/Omnetpp.trace.gz
INITIAL
TRACE STRING: /mnt/beegfs/iconst01/spec2017/Omnetpp.trace.gz

champsim_seed used: 739

CPU 0 L1D next line prefetcher
CPU 0 L2C IP-based stride prefetcher
Initialize DRRIP state
Assign rand_sets[0]: 454  LLC: 2048
rand_sets[0]: 454
Assign rand_sets[1]: 1662  LLC: 2048
rand_sets[1]: 1662
Assign rand_sets[2]: 1921  LLC: 2048
rand_sets[2]: 1921
Assign rand_sets[3]: 1131  LLC: 2048
rand_sets[3]: 1131
Assign rand_sets[4]: 331  LLC: 2048
rand_sets[4]: 331
Assign rand_sets[5]: 1531  LLC: 2048
rand_sets[5]: 1531
Assign rand_sets[6]: 482  LLC: 2048
rand_sets[6]: 482
Assign rand_sets[7]: 1275  LLC: 2048
rand_sets[7]: 1275
Assign rand_sets[8]: 1876  LLC: 2048
rand_sets[8]: 1876
Assign rand_sets[9]: 2038  LLC: 2048
rand_sets[9]: 2038
Assign rand_sets[10]: 701  LLC: 2048
rand_sets[10]: 701
Assign rand_sets[11]: 479  LLC: 2048
rand_sets[11]: 479
Assign rand_sets[12]: 892  LLC: 2048
rand_sets[12]: 892
Assign rand_sets[13]: 1820  LLC: 2048
rand_sets[13]: 1820
Assign rand_sets[14]: 1505  LLC: 2048
rand_sets[14]: 1505
Assign rand_sets[15]: 1159  LLC: 2048
rand_sets[15]: 1159
Assign rand_sets[16]: 513  LLC: 2048
rand_sets[16]: 513
Assign rand_sets[17]: 703  LLC: 2048
rand_sets[17]: 703
Assign rand_sets[18]: 561  LLC: 2048
rand_sets[18]: 561
Assign rand_sets[19]: 990  LLC: 2048
rand_sets[19]: 990
Assign rand_sets[20]: 342  LLC: 2048
rand_sets[20]: 342
Assign rand_sets[21]: 882  LLC: 2048
rand_sets[21]: 882
Assign rand_sets[22]: 15  LLC: 2048
rand_sets[22]: 15
Assign rand_sets[23]: 71  LLC: 2048
rand_sets[23]: 71
Assign rand_sets[24]: 1127  LLC: 2048
rand_sets[24]: 1127
Assign rand_sets[25]: 1382  LLC: 2048
rand_sets[25]: 1382
Assign rand_sets[26]: 647  LLC: 2048
rand_sets[26]: 647
Assign rand_sets[27]: 857  LLC: 2048
rand_sets[27]: 857
Assign rand_sets[28]: 1450  LLC: 2048
rand_sets[28]: 1450
Assign rand_sets[29]: 1160  LLC: 2048
rand_sets[29]: 1160
Assign rand_sets[30]: 1852  LLC: 2048
rand_sets[30]: 1852
Assign rand_sets[31]: 1881  LLC: 2048
rand_sets[31]: 1881
Assign rand_sets[32]: 1770  LLC: 2048
rand_sets[32]: 1770
Assign rand_sets[33]: 1622  LLC: 2048
rand_sets[33]: 1622
Assign rand_sets[34]: 275  LLC: 2048
rand_sets[34]: 275
Assign rand_sets[35]: 635  LLC: 2048
rand_sets[35]: 635
Assign rand_sets[36]: 466  LLC: 2048
rand_sets[36]: 466
Assign rand_sets[37]: 1413  LLC: 2048
rand_sets[37]: 1413
Assign rand_sets[38]: 417  LLC: 2048
rand_sets[38]: 417
Assign rand_sets[39]: 472  LLC: 2048
rand_sets[39]: 472
Assign rand_sets[40]: 1340  LLC: 2048
rand_sets[40]: 1340
Assign rand_sets[41]: 852  LLC: 2048
rand_sets[41]: 852
Assign rand_sets[42]: 1365  LLC: 2048
rand_sets[42]: 1365
Assign rand_sets[43]: 47  LLC: 2048
rand_sets[43]: 47
Assign rand_sets[44]: 823  LLC: 2048
rand_sets[44]: 823
Assign rand_sets[45]: 686  LLC: 2048
rand_sets[45]: 686
Assign rand_sets[46]: 1637  LLC: 2048
rand_sets[46]: 1637
Assign rand_sets[47]: 1115  LLC: 2048
rand_sets[47]: 1115
Assign rand_sets[48]: 986  LLC: 2048
rand_sets[48]: 986
Assign rand_sets[49]: 258  LLC: 2048
rand_sets[49]: 258
Assign rand_sets[50]: 633  LLC: 2048
rand_sets[50]: 633
Assign rand_sets[51]: 920  LLC: 2048
rand_sets[51]: 920
Assign rand_sets[52]: 204  LLC: 2048
rand_sets[52]: 204
Assign rand_sets[53]: 227  LLC: 2048
rand_sets[53]: 227
Assign rand_sets[54]: 1818  LLC: 2048
rand_sets[54]: 1818
Assign rand_sets[55]: 886  LLC: 2048
rand_sets[55]: 886
Assign rand_sets[56]: 1422  LLC: 2048
rand_sets[56]: 1422
Assign rand_sets[57]: 607  LLC: 2048
rand_sets[57]: 607
Assign rand_sets[58]: 217  LLC: 2048
rand_sets[58]: 217
Assign rand_sets[59]: 1945  LLC: 2048
rand_sets[59]: 1945
Assign rand_sets[60]: 143  LLC: 2048
rand_sets[60]: 143
Assign rand_sets[61]: 1311  LLC: 2048
rand_sets[61]: 1311
Assign rand_sets[62]: 319  LLC: 2048
rand_sets[62]: 319
Assign rand_sets[63]: 1846  LLC: 2048
rand_sets[63]: 1846
 CLEAN-RRIP-POLICY-1: 2-0-1-3-2-3-0-2- CLEAN-RRIP-POLICY-2: 2-0-1-3-2-3-0-2-
 DIRTY-RRIP-POLICY-1: 1-0-1-3-1-3-0-2- DIRTY-RRIP-POLICY-2: 1-0-1-3-1-3-0-2-
 PSEL width: 10
Heartbeat CPU 0 instructions: 10000000 cycles: 7320120 heartbeat IPC: 1.3661 cumulative IPC: 1.3661 (Simulation time: 0 hr 0 min 19 sec) 
Heartbeat CPU 0 instructions: 20000000 cycles: 14624198 heartbeat IPC: 1.3691 cumulative IPC: 1.3676 (Simulation time: 0 hr 0 min 39 sec) 
Heartbeat CPU 0 instructions: 30000003 cycles: 21925949 heartbeat IPC: 1.36953 cumulative IPC: 1.36824 (Simulation time: 0 hr 0 min 58 sec) 
Heartbeat CPU 0 instructions: 40000000 cycles: 29214469 heartbeat IPC: 1.37202 cumulative IPC: 1.36918 (Simulation time: 0 hr 1 min 18 sec) 
Heartbeat CPU 0 instructions: 50000000 cycles: 36491148 heartbeat IPC: 1.37425 cumulative IPC: 1.3702 (Simulation time: 0 hr 1 min 38 sec) 
Heartbeat CPU 0 instructions: 60000000 cycles: 43771405 heartbeat IPC: 1.37358 cumulative IPC: 1.37076 (Simulation time: 0 hr 1 min 58 sec) 
Heartbeat CPU 0 instructions: 70000001 cycles: 51056997 heartbeat IPC: 1.37257 cumulative IPC: 1.37102 (Simulation time: 0 hr 2 min 17 sec) 
Heartbeat CPU 0 instructions: 80000000 cycles: 58332318 heartbeat IPC: 1.37451 cumulative IPC: 1.37145 (Simulation time: 0 hr 2 min 37 sec) 
Heartbeat CPU 0 instructions: 90000000 cycles: 65638936 heartbeat IPC: 1.36862 cumulative IPC: 1.37114 (Simulation time: 0 hr 2 min 57 sec) 
Heartbeat CPU 0 instructions: 100000000 cycles: 72931192 heartbeat IPC: 1.37132 cumulative IPC: 1.37116 (Simulation time: 0 hr 3 min 16 sec) 

Warmup complete CPU 0 instructions: 100000002 cycles: 72931193 (Simulation time: 0 hr 3 min 16 sec) 

Heartbeat CPU 0 instructions: 110000002 cycles: 113558294 heartbeat IPC: 0.246141 cumulative IPC: 0.246141 (Simulation time: 0 hr 3 min 56 sec) 
Heartbeat CPU 0 instructions: 120000000 cycles: 153895986 heartbeat IPC: 0.247907 cumulative IPC: 0.247021 (Simulation time: 0 hr 4 min 35 sec) 
Heartbeat CPU 0 instructions: 130000002 cycles: 194444983 heartbeat IPC: 0.246615 cumulative IPC: 0.246886 (Simulation time: 0 hr 5 min 15 sec) 
Heartbeat CPU 0 instructions: 140000000 cycles: 235086963 heartbeat IPC: 0.246051 cumulative IPC: 0.246676 (Simulation time: 0 hr 5 min 55 sec) 
Heartbeat CPU 0 instructions: 150000002 cycles: 275313110 heartbeat IPC: 0.248595 cumulative IPC: 0.247058 (Simulation time: 0 hr 6 min 34 sec) 
Heartbeat CPU 0 instructions: 160000000 cycles: 315540300 heartbeat IPC: 0.248588 cumulative IPC: 0.247311 (Simulation time: 0 hr 7 min 14 sec) 
Heartbeat CPU 0 instructions: 170000001 cycles: 355045223 heartbeat IPC: 0.253133 cumulative IPC: 0.248127 (Simulation time: 0 hr 7 min 53 sec) 
Heartbeat CPU 0 instructions: 180000000 cycles: 395261020 heartbeat IPC: 0.248658 cumulative IPC: 0.248193 (Simulation time: 0 hr 8 min 32 sec) 
Heartbeat CPU 0 instructions: 190000002 cycles: 435469194 heartbeat IPC: 0.248706 cumulative IPC: 0.24825 (Simulation time: 0 hr 9 min 11 sec) 
Heartbeat CPU 0 instructions: 200000000 cycles: 476896118 heartbeat IPC: 0.241389 cumulative IPC: 0.247546 (Simulation time: 0 hr 9 min 51 sec) 
Heartbeat CPU 0 instructions: 210000003 cycles: 517160869 heartbeat IPC: 0.248356 cumulative IPC: 0.24762 (Simulation time: 0 hr 10 min 31 sec) 
Heartbeat CPU 0 instructions: 220000000 cycles: 557647983 heartbeat IPC: 0.246992 cumulative IPC: 0.247567 (Simulation time: 0 hr 11 min 10 sec) 
Heartbeat CPU 0 instructions: 230000000 cycles: 598080393 heartbeat IPC: 0.247326 cumulative IPC: 0.247549 (Simulation time: 0 hr 11 min 50 sec) 
Heartbeat CPU 0 instructions: 240000000 cycles: 638255786 heartbeat IPC: 0.248909 cumulative IPC: 0.247645 (Simulation time: 0 hr 12 min 29 sec) 
Heartbeat CPU 0 instructions: 250000000 cycles: 678459362 heartbeat IPC: 0.248734 cumulative IPC: 0.247718 (Simulation time: 0 hr 13 min 8 sec) 
Heartbeat CPU 0 instructions: 260000000 cycles: 718796062 heartbeat IPC: 0.247913 cumulative IPC: 0.24773 (Simulation time: 0 hr 13 min 47 sec) 
Heartbeat CPU 0 instructions: 270000000 cycles: 759200267 heartbeat IPC: 0.247499 cumulative IPC: 0.247716 (Simulation time: 0 hr 14 min 27 sec) 
Heartbeat CPU 0 instructions: 280000000 cycles: 799957140 heartbeat IPC: 0.245357 cumulative IPC: 0.247584 (Simulation time: 0 hr 15 min 6 sec) 
Heartbeat CPU 0 instructions: 290000001 cycles: 839908351 heartbeat IPC: 0.250305 cumulative IPC: 0.247726 (Simulation time: 0 hr 15 min 45 sec) 
Heartbeat CPU 0 instructions: 300000000 cycles: 880528371 heartbeat IPC: 0.246184 cumulative IPC: 0.247648 (Simulation time: 0 hr 16 min 24 sec) 
Heartbeat CPU 0 instructions: 310000000 cycles: 921120044 heartbeat IPC: 0.246356 cumulative IPC: 0.247586 (Simulation time: 0 hr 17 min 3 sec) 
Heartbeat CPU 0 instructions: 320000000 cycles: 961447462 heartbeat IPC: 0.24797 cumulative IPC: 0.247604 (Simulation time: 0 hr 17 min 43 sec) 
Heartbeat CPU 0 instructions: 330000000 cycles: 1001760612 heartbeat IPC: 0.248058 cumulative IPC: 0.247624 (Simulation time: 0 hr 18 min 22 sec) 
Heartbeat CPU 0 instructions: 340000000 cycles: 1042664454 heartbeat IPC: 0.244476 cumulative IPC: 0.247491 (Simulation time: 0 hr 19 min 1 sec) 
Heartbeat CPU 0 instructions: 350000001 cycles: 1083055966 heartbeat IPC: 0.247577 cumulative IPC: 0.247494 (Simulation time: 0 hr 19 min 40 sec) 
Heartbeat CPU 0 instructions: 360000000 cycles: 1123711758 heartbeat IPC: 0.245967 cumulative IPC: 0.247435 (Simulation time: 0 hr 20 min 19 sec) 
Heartbeat CPU 0 instructions: 370000000 cycles: 1163437290 heartbeat IPC: 0.251727 cumulative IPC: 0.247591 (Simulation time: 0 hr 20 min 58 sec) 
Heartbeat CPU 0 instructions: 380000000 cycles: 1204098555 heartbeat IPC: 0.245934 cumulative IPC: 0.247532 (Simulation time: 0 hr 21 min 37 sec) 
Heartbeat CPU 0 instructions: 390000001 cycles: 1244266038 heartbeat IPC: 0.248958 cumulative IPC: 0.247581 (Simulation time: 0 hr 22 min 16 sec) 
Heartbeat CPU 0 instructions: 400000000 cycles: 1284516077 heartbeat IPC: 0.248447 cumulative IPC: 0.24761 (Simulation time: 0 hr 22 min 55 sec) 
Heartbeat CPU 0 instructions: 410000000 cycles: 1324609504 heartbeat IPC: 0.249417 cumulative IPC: 0.247667 (Simulation time: 0 hr 23 min 33 sec) 
Heartbeat CPU 0 instructions: 420000000 cycles: 1364767052 heartbeat IPC: 0.249019 cumulative IPC: 0.247709 (Simulation time: 0 hr 24 min 12 sec) 
Heartbeat CPU 0 instructions: 430000000 cycles: 1404972809 heartbeat IPC: 0.248721 cumulative IPC: 0.24774 (Simulation time: 0 hr 24 min 51 sec) 
Heartbeat CPU 0 instructions: 440000000 cycles: 1445218733 heartbeat IPC: 0.248472 cumulative IPC: 0.247761 (Simulation time: 0 hr 25 min 30 sec) 
Heartbeat CPU 0 instructions: 450000002 cycles: 1485343201 heartbeat IPC: 0.249225 cumulative IPC: 0.247803 (Simulation time: 0 hr 26 min 8 sec) 
Heartbeat CPU 0 instructions: 460000000 cycles: 1524884548 heartbeat IPC: 0.2529 cumulative IPC: 0.247942 (Simulation time: 0 hr 26 min 47 sec) 
Heartbeat CPU 0 instructions: 470000000 cycles: 1565290391 heartbeat IPC: 0.247489 cumulative IPC: 0.24793 (Simulation time: 0 hr 27 min 26 sec) 
Heartbeat CPU 0 instructions: 480000000 cycles: 1605344557 heartbeat IPC: 0.249662 cumulative IPC: 0.247975 (Simulation time: 0 hr 28 min 5 sec) 
Heartbeat CPU 0 instructions: 490000001 cycles: 1645558857 heartbeat IPC: 0.248668 cumulative IPC: 0.247993 (Simulation time: 0 hr 28 min 44 sec) 
Heartbeat CPU 0 instructions: 500000000 cycles: 1685972392 heartbeat IPC: 0.247442 cumulative IPC: 0.247979 (Simulation time: 0 hr 29 min 22 sec) 
Heartbeat CPU 0 instructions: 510000000 cycles: 1725823282 heartbeat IPC: 0.250935 cumulative IPC: 0.24805 (Simulation time: 0 hr 30 min 0 sec) 
Heartbeat CPU 0 instructions: 520000000 cycles: 1766463431 heartbeat IPC: 0.246062 cumulative IPC: 0.248002 (Simulation time: 0 hr 30 min 37 sec) 
Heartbeat CPU 0 instructions: 530000000 cycles: 1806587038 heartbeat IPC: 0.24923 cumulative IPC: 0.248031 (Simulation time: 0 hr 31 min 14 sec) 
Heartbeat CPU 0 instructions: 540000000 cycles: 1846432521 heartbeat IPC: 0.250969 cumulative IPC: 0.248097 (Simulation time: 0 hr 31 min 50 sec) 
Heartbeat CPU 0 instructions: 550000001 cycles: 1887006872 heartbeat IPC: 0.246461 cumulative IPC: 0.24806 (Simulation time: 0 hr 32 min 26 sec) 
Heartbeat CPU 0 instructions: 560000000 cycles: 1927657091 heartbeat IPC: 0.246001 cumulative IPC: 0.248015 (Simulation time: 0 hr 33 min 3 sec) 
Heartbeat CPU 0 instructions: 570000003 cycles: 1968280426 heartbeat IPC: 0.246164 cumulative IPC: 0.247975 (Simulation time: 0 hr 33 min 39 sec) 
Heartbeat CPU 0 instructions: 580000000 cycles: 2008736948 heartbeat IPC: 0.247179 cumulative IPC: 0.247959 (Simulation time: 0 hr 34 min 16 sec) 
Heartbeat CPU 0 instructions: 590000001 cycles: 2049633511 heartbeat IPC: 0.244519 cumulative IPC: 0.247888 (Simulation time: 0 hr 34 min 52 sec) 
Heartbeat CPU 0 instructions: 600000000 cycles: 2090271981 heartbeat IPC: 0.246072 cumulative IPC: 0.247851 (Simulation time: 0 hr 35 min 29 sec) 
Finished CPU 0 instructions: 500000000 cycles: 2017340796 cumulative IPC: 0.247851 (Simulation time: 0 hr 35 min 29 sec) 

CPU 0 Branch Prediction Accuracy: 96.2429% MPKI: 5.85335
Number of Branches: 77897976 Number of Mispredictions: 2926674
Number of LOAD Instructions: 193081861
Number of LOAD Instructions (ROI): 193081861
Number of STORE Instructions: 97310749
Number of STORE Instructions (ROI): 97310749
Total Destination Memory Operands: 106368027
Total Destination Memory Operands (ROI): 106368027
Total Source Memory Operands: 193081861
Total Source Memory Operands (ROI): 193081861
Number of DEPENDED LOADS: 6430757
Number of DEPENDED LOADS (ROI): 6430757
Number of SQ_ADDED: 106367982
Number of SQ_ADDED (ROI): 106367982
Number of LQ_ADDED: 429394054
Number of LQ_ADDED (ROI): 429394054
Number of Instructions read from trace: 600000256

ChampSim completed all CPUs

Region of Interest Statistics

CPU 0 cumulative IPC: 0.247851 instructions: 500000000 cycles: 2017340796
ITLB TOTAL     ACCESS:  151365973  HIT:  151350142  MISS:      15831
ITLB LOAD      ACCESS:  151365973  HIT:  151350142  MISS:      15831
ITLB RFO       ACCESS:          0  HIT:          0  MISS:          0
ITLB PREFETCH  ACCESS:          0  HIT:          0  MISS:          0
ITLB WRITEBACK ACCESS:          0  HIT:          0  MISS:          0
ITLB PREFETCH  REQUESTED:          0  ISSUED:          0  USEFUL:          0  USELESS:          0
ITLB TOTAL MSHR MERGED:      17424
ITLB LOAD MSHR MERGED:      17424
ITLB RFO MSHR MERGED:          0
ITLB PREFETCH MSHR MERGED:          0
ITLB WRITEBACK MSHR MERGED:          0
ITLB TOTAL ACCESSES:  151383397 HITS:  151350142 MISSES:      33255
ITLB LOAD ACCESSES:  151383397 HITS:  151350142 MISSES:      33255
ITLB RFO ACCESSES:          0 HITS:          0 MISSES:          0
ITLB PREFETCH ACCESSES:          0 HITS:          0 MISSES:          0
ITLB WRITEBACK ACCESSES:          0 HITS:          0 MISSES:          0
ITLB RQ ACCESS:  500000242
ITLB RQ TO_CACHE:  151383397
ITLB RQ MERGED:  348616845
ITLB RQ FORWARD:          0
ITLB WQ ACCESS:          0
ITLB WQ TO_CACHE:          0
ITLB WQ MERGED:          0
ITLB WQ FORWARD:          0
DTLB TOTAL     ACCESS:  199574800  HIT:  194195699  MISS:    5379101
DTLB LOAD      ACCESS:  123149485  HIT:  118130863  MISS:    5018622
DTLB RFO       ACCESS:   76425315  HIT:   76064836  MISS:     360479
DTLB PREFETCH  ACCESS:          0  HIT:          0  MISS:          0
DTLB WRITEBACK ACCESS:          0  HIT:          0  MISS:          0
DTLB PREFETCH  REQUESTED:          0  ISSUED:          0  USEFUL:          0  USELESS:          0
DTLB TOTAL MSHR MERGED:     917472
DTLB LOAD MSHR MERGED:     807598
DTLB RFO MSHR MERGED:     109874
DTLB PREFETCH MSHR MERGED:          0
DTLB WRITEBACK MSHR MERGED:          0
DTLB TOTAL ACCESSES:  200492272 HITS:  194195699 MISSES:    6296573
DTLB LOAD ACCESSES:  123957083 HITS:  118130863 MISSES:    5826220
DTLB RFO ACCESSES:   76535189 HITS:   76064836 MISSES:     470353
DTLB PREFETCH ACCESSES:          0 HITS:          0 MISSES:          0
DTLB WRITEBACK ACCESSES:          0 HITS:          0 MISSES:          0
DTLB RQ ACCESS:  243895312
DTLB RQ TO_CACHE:  200492272
DTLB RQ MERGED:   43403040
DTLB RQ FORWARD:          0
DTLB WQ ACCESS:          0
DTLB WQ TO_CACHE:          0
DTLB WQ MERGED:          0
DTLB WQ FORWARD:          0
L1D TOTAL     ACCESS:  335661922  HIT:  317565757  MISS:   18096165
L1D LOAD      ACCESS:  127713024  HIT:  118770908  MISS:    8942116
L1D RFO       ACCESS:   87085911  HIT:   86310490  MISS:     775421
L1D PREFETCH  ACCESS:  120862987  HIT:  112484359  MISS:    8378628
L1D WRITEBACK ACCESS:          0  HIT:          0  MISS:          0
L1D PREFETCH  REQUESTED:  128489484  ISSUED:  126891484  USEFUL:    1744329  USELESS:    6634311
L1D TOTAL MSHR MERGED:    3815732
L1D LOAD MSHR MERGED:     939053
L1D RFO MSHR MERGED:    1051699
L1D PREFETCH MSHR MERGED:    1824980
L1D WRITEBACK MSHR MERGED:          0
L1D TOTAL ACCESSES:  339565656 HITS:  317653759 MISSES:   21911897
L1D LOAD ACCESSES:  128489916 HITS:  118771340 MISSES:    9718576
L1D RFO ACCESSES:   88082264 HITS:   86310490 MISSES:    1771774
L1D PREFETCH ACCESSES:  122993476 HITS:  112571929 MISSES:   10421547
L1D WRITEBACK ACCESSES:          0 HITS:          0 MISSES:          0
L1D RQ ACCESS:  155263927
L1D RQ TO_CACHE:  128489484
L1D RQ MERGED:   26774011
L1D RQ FORWARD:          0
L1D WQ ACCESS:   88631385
L1D WQ TO_CACHE:   88082263
L1D WQ MERGED:     549122
L1D WQ FORWARD:      88002
L1I TOTAL     ACCESS:  175661531  HIT:  175395073  MISS:     266458
L1I LOAD      ACCESS:  175661531  HIT:  175395073  MISS:     266458
L1I RFO       ACCESS:          0  HIT:          0  MISS:          0
L1I PREFETCH  ACCESS:          0  HIT:          0  MISS:          0
L1I WRITEBACK ACCESS:          0  HIT:          0  MISS:          0
L1I PREFETCH  REQUESTED:          0  ISSUED:          0  USEFUL:          0  USELESS:          0
L1I TOTAL MSHR MERGED:     213546
L1I LOAD MSHR MERGED:     213546
L1I RFO MSHR MERGED:          0
L1I PREFETCH MSHR MERGED:          0
L1I WRITEBACK MSHR MERGED:          0
L1I TOTAL ACCESSES:  175875077 HITS:  175395073 MISSES:     480004
L1I LOAD ACCESSES:  175875077 HITS:  175395073 MISSES:     480004
L1I RFO ACCESSES:          0 HITS:          0 MISSES:          0
L1I PREFETCH ACCESSES:          0 HITS:          0 MISSES:          0
L1I WRITEBACK ACCESSES:          0 HITS:          0 MISSES:          0
L1I RQ ACCESS:  500000242
L1I RQ TO_CACHE:  175875077
L1I RQ MERGED:  324125165
L1I RQ FORWARD:          0
L1I WQ ACCESS:          0
L1I WQ TO_CACHE:          0
L1I WQ MERGED:          0
L1I WQ FORWARD:          0
L2C TOTAL     ACCESS:   23738724  HIT:   12112954  MISS:   11625770
L2C LOAD      ACCESS:    9044804  HIT:    3565167  MISS:    5479637
L2C RFO       ACCESS:     720017  HIT:     129925  MISS:     590092
L2C PREFETCH  ACCESS:    8613565  HIT:    3086231  MISS:    5527334
L2C WRITEBACK ACCESS:    5360338  HIT:    5331631  MISS:      28707
L2C PREFETCH  REQUESTED:      18041  ISSUED:      18041  USEFUL:     322942  USELESS:    5204566
L2C TOTAL MSHR MERGED:         23
L2C LOAD MSHR MERGED:          2
L2C RFO MSHR MERGED:          0
L2C PREFETCH MSHR MERGED:         21
L2C WRITEBACK MSHR MERGED:          0
L2C TOTAL ACCESSES:   23740542 HITS:   12114743 MISSES:   11625799
L2C LOAD ACCESSES:    9045981 HITS:    3566344 MISSES:    5479637
L2C RFO ACCESSES:     720075 HITS:     129983 MISSES:     590092
L2C PREFETCH ACCESSES:    8614148 HITS:    3086785 MISSES:    5527363
L2C WRITEBACK ACCESSES:    5360338 HITS:    5331631 MISSES:      28707
L2C RQ ACCESS:    9766056
L2C RQ TO_CACHE:    9764821
L2C RQ MERGED:          0
L2C RQ FORWARD:          0
L2C WQ ACCESS:    5360338
L2C WQ TO_CACHE:    5360338
L2C WQ MERGED:          0
L2C WQ FORWARD:       1789
LLC TOTAL     ACCESS:   15448684  HIT:    6458602  MISS:    8990082
LLC LOAD      ACCESS:    5479606  HIT:    1991743  MISS:    3487863
LLC RFO       ACCESS:     590090  HIT:     299445  MISS:     290645
LLC PREFETCH  ACCESS:    5527326  HIT:    1067366  MISS:    4459960
LLC WRITEBACK ACCESS:    3851662  HIT:    3100048  MISS:     751614
LLC PREFETCH  REQUESTED:          0  ISSUED:          0  USEFUL:      22262  USELESS:    4438166
LLC TOTAL MSHR MERGED:          0
LLC LOAD MSHR MERGED:          0
LLC RFO MSHR MERGED:          0
LLC PREFETCH MSHR MERGED:          0
LLC WRITEBACK MSHR MERGED:          0
LLC TOTAL ACCESSES:   15448731 HITS:    6458649 MISSES:    8990082
LLC LOAD ACCESSES:    5479635 HITS:    1991772 MISSES:    3487863
LLC RFO ACCESSES:     590092 HITS:     299447 MISSES:     290645
LLC PREFETCH ACCESSES:    5527342 HITS:    1067382 MISSES:    4459960
LLC WRITEBACK ACCESSES:    3851662 HITS:    3100048 MISSES:     751614
LLC 0 RQ ACCESS:    6069727
LLC 0 RQ TO_CACHE:    6069696
LLC 0 RQ MERGED:          0
LLC 0 RQ FORWARD:          0
LLC WQ ACCESS:    3851662
LLC WQ TO_CACHE:    3851662
LLC WQ MERGED:          0
LLC WQ FORWARD:         47
Major fault: 0 Minor fault: 44814
CPU 0 L1D next line prefetcher final stats
CPU 0 L2C PC-based stride prefetcher final stats
All Misses: 10887065
All Hits: 7734119
SD Algo Stats - Switches: 0 SRR-Repls: 3984093 BRR-Repls: 0

DRAM Statistics
 CHANNEL 0
 RQ ROW_BUFFER_HIT:    1459321  ROW_BUFFER_MISS:    6778096
 DBUS_CONGESTED:    5446325
 WQ ROW_BUFFER_HIT:     160585  ROW_BUFFER_MISS:    2024096  FULL:          0

 AVG_CONGESTED_CYCLE: 13
LOADS RETIRED: 160808997
INSTR RETIRED: 500000000
