
*** ChampSim Multicore Out-of-Order Simulator ***

Warmup Instructions: 100000000
Simulation Instructions: 500000000
Number of CPUs: 1
LLC sets: 2048
LLC ways: 16
Clean RRIP Policies: 2323211123232111 Dirty RRIP Policies: 323211103232111 PSEL Width: 10 Track Set: 4294967295 PSEL Mask: 1 Demote Mask: 3423320134233201DS Algo: 0Window size: 0
Off-chip DRAM Size: 4096 MB Channels: 1 Width: 64-bit Data Rate: 1600 MT/s

CPU 0 runs /mnt/beegfs/iconst01/spec2017/Gcc.trace.gz
NOT SORTED
TRACE STRING: /mnt/beegfs/iconst01/spec2017/Gcc.trace.gz
SORTED
TRACE STRING: /mnt/beegfs/iconst01/spec2017/Gcc.trace.gz
INITIAL
TRACE STRING: /mnt/beegfs/iconst01/spec2017/Gcc.trace.gz

champsim_seed used: 269

CPU 0 L1D next line prefetcher
CPU 0 L2C IP-based stride prefetcher
Initialize DRRIP state
Assign rand_sets[0]: 454  LLC: 2048
rand_sets[0]: 454
Assign rand_sets[1]: 1662  LLC: 2048
rand_sets[1]: 1662
Assign rand_sets[2]: 1921  LLC: 2048
rand_sets[2]: 1921
Assign rand_sets[3]: 1131  LLC: 2048
rand_sets[3]: 1131
Assign rand_sets[4]: 331  LLC: 2048
rand_sets[4]: 331
Assign rand_sets[5]: 1531  LLC: 2048
rand_sets[5]: 1531
Assign rand_sets[6]: 482  LLC: 2048
rand_sets[6]: 482
Assign rand_sets[7]: 1275  LLC: 2048
rand_sets[7]: 1275
Assign rand_sets[8]: 1876  LLC: 2048
rand_sets[8]: 1876
Assign rand_sets[9]: 2038  LLC: 2048
rand_sets[9]: 2038
Assign rand_sets[10]: 701  LLC: 2048
rand_sets[10]: 701
Assign rand_sets[11]: 479  LLC: 2048
rand_sets[11]: 479
Assign rand_sets[12]: 892  LLC: 2048
rand_sets[12]: 892
Assign rand_sets[13]: 1820  LLC: 2048
rand_sets[13]: 1820
Assign rand_sets[14]: 1505  LLC: 2048
rand_sets[14]: 1505
Assign rand_sets[15]: 1159  LLC: 2048
rand_sets[15]: 1159
Assign rand_sets[16]: 513  LLC: 2048
rand_sets[16]: 513
Assign rand_sets[17]: 703  LLC: 2048
rand_sets[17]: 703
Assign rand_sets[18]: 561  LLC: 2048
rand_sets[18]: 561
Assign rand_sets[19]: 990  LLC: 2048
rand_sets[19]: 990
Assign rand_sets[20]: 342  LLC: 2048
rand_sets[20]: 342
Assign rand_sets[21]: 882  LLC: 2048
rand_sets[21]: 882
Assign rand_sets[22]: 15  LLC: 2048
rand_sets[22]: 15
Assign rand_sets[23]: 71  LLC: 2048
rand_sets[23]: 71
Assign rand_sets[24]: 1127  LLC: 2048
rand_sets[24]: 1127
Assign rand_sets[25]: 1382  LLC: 2048
rand_sets[25]: 1382
Assign rand_sets[26]: 647  LLC: 2048
rand_sets[26]: 647
Assign rand_sets[27]: 857  LLC: 2048
rand_sets[27]: 857
Assign rand_sets[28]: 1450  LLC: 2048
rand_sets[28]: 1450
Assign rand_sets[29]: 1160  LLC: 2048
rand_sets[29]: 1160
Assign rand_sets[30]: 1852  LLC: 2048
rand_sets[30]: 1852
Assign rand_sets[31]: 1881  LLC: 2048
rand_sets[31]: 1881
Assign rand_sets[32]: 1770  LLC: 2048
rand_sets[32]: 1770
Assign rand_sets[33]: 1622  LLC: 2048
rand_sets[33]: 1622
Assign rand_sets[34]: 275  LLC: 2048
rand_sets[34]: 275
Assign rand_sets[35]: 635  LLC: 2048
rand_sets[35]: 635
Assign rand_sets[36]: 466  LLC: 2048
rand_sets[36]: 466
Assign rand_sets[37]: 1413  LLC: 2048
rand_sets[37]: 1413
Assign rand_sets[38]: 417  LLC: 2048
rand_sets[38]: 417
Assign rand_sets[39]: 472  LLC: 2048
rand_sets[39]: 472
Assign rand_sets[40]: 1340  LLC: 2048
rand_sets[40]: 1340
Assign rand_sets[41]: 852  LLC: 2048
rand_sets[41]: 852
Assign rand_sets[42]: 1365  LLC: 2048
rand_sets[42]: 1365
Assign rand_sets[43]: 47  LLC: 2048
rand_sets[43]: 47
Assign rand_sets[44]: 823  LLC: 2048
rand_sets[44]: 823
Assign rand_sets[45]: 686  LLC: 2048
rand_sets[45]: 686
Assign rand_sets[46]: 1637  LLC: 2048
rand_sets[46]: 1637
Assign rand_sets[47]: 1115  LLC: 2048
rand_sets[47]: 1115
Assign rand_sets[48]: 986  LLC: 2048
rand_sets[48]: 986
Assign rand_sets[49]: 258  LLC: 2048
rand_sets[49]: 258
Assign rand_sets[50]: 633  LLC: 2048
rand_sets[50]: 633
Assign rand_sets[51]: 920  LLC: 2048
rand_sets[51]: 920
Assign rand_sets[52]: 204  LLC: 2048
rand_sets[52]: 204
Assign rand_sets[53]: 227  LLC: 2048
rand_sets[53]: 227
Assign rand_sets[54]: 1818  LLC: 2048
rand_sets[54]: 1818
Assign rand_sets[55]: 886  LLC: 2048
rand_sets[55]: 886
Assign rand_sets[56]: 1422  LLC: 2048
rand_sets[56]: 1422
Assign rand_sets[57]: 607  LLC: 2048
rand_sets[57]: 607
Assign rand_sets[58]: 217  LLC: 2048
rand_sets[58]: 217
Assign rand_sets[59]: 1945  LLC: 2048
rand_sets[59]: 1945
Assign rand_sets[60]: 143  LLC: 2048
rand_sets[60]: 143
Assign rand_sets[61]: 1311  LLC: 2048
rand_sets[61]: 1311
Assign rand_sets[62]: 319  LLC: 2048
rand_sets[62]: 319
Assign rand_sets[63]: 1846  LLC: 2048
rand_sets[63]: 1846
 CLEAN-RRIP-POLICY-1: 2-3-2-3-2-1-1-1- CLEAN-RRIP-POLICY-2: 2-3-2-3-2-1-1-1-
 DIRTY-RRIP-POLICY-1: 0-3-2-3-2-1-1-1- DIRTY-RRIP-POLICY-2: 0-3-2-3-2-1-1-1-
 PSEL width: 10
Heartbeat CPU 0 instructions: 10000001 cycles: 7316000 heartbeat IPC: 1.36687 cumulative IPC: 1.36687 (Simulation time: 0 hr 0 min 15 sec) 
Heartbeat CPU 0 instructions: 20000000 cycles: 14307743 heartbeat IPC: 1.43026 cumulative IPC: 1.39784 (Simulation time: 0 hr 0 min 30 sec) 
Heartbeat CPU 0 instructions: 30000001 cycles: 21021071 heartbeat IPC: 1.48957 cumulative IPC: 1.42714 (Simulation time: 0 hr 0 min 47 sec) 
Heartbeat CPU 0 instructions: 40000000 cycles: 27481971 heartbeat IPC: 1.54777 cumulative IPC: 1.4555 (Simulation time: 0 hr 1 min 3 sec) 
Heartbeat CPU 0 instructions: 50000001 cycles: 33583851 heartbeat IPC: 1.63884 cumulative IPC: 1.48881 (Simulation time: 0 hr 1 min 19 sec) 
Heartbeat CPU 0 instructions: 60000000 cycles: 40065170 heartbeat IPC: 1.5429 cumulative IPC: 1.49756 (Simulation time: 0 hr 1 min 35 sec) 
Heartbeat CPU 0 instructions: 70000000 cycles: 47104978 heartbeat IPC: 1.42049 cumulative IPC: 1.48604 (Simulation time: 0 hr 1 min 51 sec) 
Heartbeat CPU 0 instructions: 80000000 cycles: 54195970 heartbeat IPC: 1.41024 cumulative IPC: 1.47612 (Simulation time: 0 hr 2 min 6 sec) 
Heartbeat CPU 0 instructions: 90000003 cycles: 61201746 heartbeat IPC: 1.42739 cumulative IPC: 1.47055 (Simulation time: 0 hr 2 min 21 sec) 
Heartbeat CPU 0 instructions: 100000000 cycles: 68370546 heartbeat IPC: 1.39493 cumulative IPC: 1.46262 (Simulation time: 0 hr 2 min 37 sec) 

Warmup complete CPU 0 instructions: 100000004 cycles: 68370547 (Simulation time: 0 hr 2 min 37 sec) 

Heartbeat CPU 0 instructions: 110000003 cycles: 96338516 heartbeat IPC: 0.357552 cumulative IPC: 0.357552 (Simulation time: 0 hr 3 min 6 sec) 
Heartbeat CPU 0 instructions: 120000000 cycles: 123908594 heartbeat IPC: 0.362712 cumulative IPC: 0.360113 (Simulation time: 0 hr 3 min 36 sec) 
Heartbeat CPU 0 instructions: 130000000 cycles: 148987857 heartbeat IPC: 0.398736 cumulative IPC: 0.372128 (Simulation time: 0 hr 4 min 6 sec) 
Heartbeat CPU 0 instructions: 140000000 cycles: 178962086 heartbeat IPC: 0.33362 cumulative IPC: 0.361691 (Simulation time: 0 hr 4 min 36 sec) 
Heartbeat CPU 0 instructions: 150000000 cycles: 209136984 heartbeat IPC: 0.331401 cumulative IPC: 0.355198 (Simulation time: 0 hr 5 min 6 sec) 
Heartbeat CPU 0 instructions: 160000000 cycles: 236663203 heartbeat IPC: 0.36329 cumulative IPC: 0.356522 (Simulation time: 0 hr 5 min 34 sec) 
Heartbeat CPU 0 instructions: 170000001 cycles: 264847342 heartbeat IPC: 0.35481 cumulative IPC: 0.356276 (Simulation time: 0 hr 6 min 6 sec) 
Heartbeat CPU 0 instructions: 180000000 cycles: 293470178 heartbeat IPC: 0.349371 cumulative IPC: 0.355398 (Simulation time: 0 hr 6 min 36 sec) 
Heartbeat CPU 0 instructions: 190000002 cycles: 321751146 heartbeat IPC: 0.353595 cumulative IPC: 0.355197 (Simulation time: 0 hr 7 min 6 sec) 
Heartbeat CPU 0 instructions: 200000000 cycles: 350291218 heartbeat IPC: 0.350384 cumulative IPC: 0.35471 (Simulation time: 0 hr 7 min 37 sec) 
Heartbeat CPU 0 instructions: 210000002 cycles: 378365395 heartbeat IPC: 0.356199 cumulative IPC: 0.354845 (Simulation time: 0 hr 8 min 7 sec) 
Heartbeat CPU 0 instructions: 220000000 cycles: 407975148 heartbeat IPC: 0.337727 cumulative IPC: 0.353352 (Simulation time: 0 hr 8 min 35 sec) 
Heartbeat CPU 0 instructions: 230000000 cycles: 435783977 heartbeat IPC: 0.359598 cumulative IPC: 0.353825 (Simulation time: 0 hr 9 min 4 sec) 
Heartbeat CPU 0 instructions: 240000000 cycles: 461891364 heartbeat IPC: 0.383033 cumulative IPC: 0.355763 (Simulation time: 0 hr 9 min 33 sec) 
Heartbeat CPU 0 instructions: 250000000 cycles: 492222325 heartbeat IPC: 0.329696 cumulative IPC: 0.353897 (Simulation time: 0 hr 10 min 4 sec) 
Heartbeat CPU 0 instructions: 260000000 cycles: 519450968 heartbeat IPC: 0.36726 cumulative IPC: 0.354704 (Simulation time: 0 hr 10 min 33 sec) 
Heartbeat CPU 0 instructions: 270000003 cycles: 548065740 heartbeat IPC: 0.34947 cumulative IPC: 0.354392 (Simulation time: 0 hr 11 min 4 sec) 
Heartbeat CPU 0 instructions: 280000000 cycles: 576505237 heartbeat IPC: 0.351624 cumulative IPC: 0.354237 (Simulation time: 0 hr 11 min 35 sec) 
Heartbeat CPU 0 instructions: 290000000 cycles: 605599346 heartbeat IPC: 0.343712 cumulative IPC: 0.353667 (Simulation time: 0 hr 12 min 6 sec) 
Heartbeat CPU 0 instructions: 300000000 cycles: 636166821 heartbeat IPC: 0.327145 cumulative IPC: 0.352239 (Simulation time: 0 hr 12 min 36 sec) 
Heartbeat CPU 0 instructions: 310000001 cycles: 665945370 heartbeat IPC: 0.335812 cumulative IPC: 0.35142 (Simulation time: 0 hr 13 min 6 sec) 
Heartbeat CPU 0 instructions: 320000000 cycles: 694592785 heartbeat IPC: 0.349072 cumulative IPC: 0.351313 (Simulation time: 0 hr 13 min 35 sec) 
Heartbeat CPU 0 instructions: 330000000 cycles: 723585017 heartbeat IPC: 0.34492 cumulative IPC: 0.35103 (Simulation time: 0 hr 14 min 5 sec) 
Heartbeat CPU 0 instructions: 340000000 cycles: 753214965 heartbeat IPC: 0.337496 cumulative IPC: 0.350445 (Simulation time: 0 hr 14 min 35 sec) 
Heartbeat CPU 0 instructions: 350000003 cycles: 780492364 heartbeat IPC: 0.366604 cumulative IPC: 0.351064 (Simulation time: 0 hr 15 min 4 sec) 
Heartbeat CPU 0 instructions: 360000000 cycles: 809209582 heartbeat IPC: 0.348223 cumulative IPC: 0.350953 (Simulation time: 0 hr 15 min 33 sec) 
Heartbeat CPU 0 instructions: 370000000 cycles: 837835186 heartbeat IPC: 0.349338 cumulative IPC: 0.350893 (Simulation time: 0 hr 16 min 2 sec) 
Heartbeat CPU 0 instructions: 380000000 cycles: 866753013 heartbeat IPC: 0.345807 cumulative IPC: 0.350709 (Simulation time: 0 hr 16 min 30 sec) 
Heartbeat CPU 0 instructions: 390000001 cycles: 894665335 heartbeat IPC: 0.358265 cumulative IPC: 0.350964 (Simulation time: 0 hr 16 min 59 sec) 
Heartbeat CPU 0 instructions: 400000000 cycles: 923696953 heartbeat IPC: 0.344452 cumulative IPC: 0.350743 (Simulation time: 0 hr 17 min 27 sec) 
Heartbeat CPU 0 instructions: 410000001 cycles: 951232244 heartbeat IPC: 0.36317 cumulative IPC: 0.351131 (Simulation time: 0 hr 17 min 56 sec) 
Heartbeat CPU 0 instructions: 420000000 cycles: 978741527 heartbeat IPC: 0.363514 cumulative IPC: 0.351505 (Simulation time: 0 hr 18 min 24 sec) 
Heartbeat CPU 0 instructions: 430000002 cycles: 1006709697 heartbeat IPC: 0.357549 cumulative IPC: 0.351685 (Simulation time: 0 hr 18 min 53 sec) 
Heartbeat CPU 0 instructions: 440000000 cycles: 1036717980 heartbeat IPC: 0.333241 cumulative IPC: 0.351114 (Simulation time: 0 hr 19 min 21 sec) 
Heartbeat CPU 0 instructions: 450000002 cycles: 1066425470 heartbeat IPC: 0.336616 cumulative IPC: 0.350682 (Simulation time: 0 hr 19 min 50 sec) 
Heartbeat CPU 0 instructions: 460000000 cycles: 1094396240 heartbeat IPC: 0.357516 cumulative IPC: 0.350868 (Simulation time: 0 hr 20 min 19 sec) 
Heartbeat CPU 0 instructions: 470000000 cycles: 1122185280 heartbeat IPC: 0.359854 cumulative IPC: 0.351105 (Simulation time: 0 hr 20 min 47 sec) 
Heartbeat CPU 0 instructions: 480000000 cycles: 1150240954 heartbeat IPC: 0.356434 cumulative IPC: 0.351244 (Simulation time: 0 hr 21 min 14 sec) 
Heartbeat CPU 0 instructions: 490000000 cycles: 1177993956 heartbeat IPC: 0.360321 cumulative IPC: 0.351471 (Simulation time: 0 hr 21 min 41 sec) 
Heartbeat CPU 0 instructions: 500000000 cycles: 1206482337 heartbeat IPC: 0.35102 cumulative IPC: 0.351459 (Simulation time: 0 hr 22 min 9 sec) 
Heartbeat CPU 0 instructions: 510000000 cycles: 1241652890 heartbeat IPC: 0.284329 cumulative IPC: 0.349447 (Simulation time: 0 hr 22 min 40 sec) 
Heartbeat CPU 0 instructions: 520000000 cycles: 1269630765 heartbeat IPC: 0.357425 cumulative IPC: 0.349633 (Simulation time: 0 hr 23 min 8 sec) 
Heartbeat CPU 0 instructions: 530000001 cycles: 1299479039 heartbeat IPC: 0.335028 cumulative IPC: 0.349279 (Simulation time: 0 hr 23 min 36 sec) 
Heartbeat CPU 0 instructions: 540000000 cycles: 1327959378 heartbeat IPC: 0.351119 cumulative IPC: 0.34932 (Simulation time: 0 hr 24 min 5 sec) 
Heartbeat CPU 0 instructions: 550000001 cycles: 1357364958 heartbeat IPC: 0.340072 cumulative IPC: 0.349109 (Simulation time: 0 hr 24 min 35 sec) 
Heartbeat CPU 0 instructions: 560000000 cycles: 1382948171 heartbeat IPC: 0.390881 cumulative IPC: 0.349922 (Simulation time: 0 hr 25 min 2 sec) 
Heartbeat CPU 0 instructions: 570000000 cycles: 1413021453 heartbeat IPC: 0.332521 cumulative IPC: 0.349533 (Simulation time: 0 hr 25 min 31 sec) 
Heartbeat CPU 0 instructions: 580000000 cycles: 1441403431 heartbeat IPC: 0.352336 cumulative IPC: 0.349591 (Simulation time: 0 hr 26 min 0 sec) 
Heartbeat CPU 0 instructions: 590000001 cycles: 1466333144 heartbeat IPC: 0.401128 cumulative IPC: 0.35051 (Simulation time: 0 hr 26 min 27 sec) 
Heartbeat CPU 0 instructions: 600000000 cycles: 1492713199 heartbeat IPC: 0.379074 cumulative IPC: 0.351039 (Simulation time: 0 hr 26 min 54 sec) 
Finished CPU 0 instructions: 500000000 cycles: 1424342674 cumulative IPC: 0.351039 (Simulation time: 0 hr 26 min 54 sec) 

CPU 0 Branch Prediction Accuracy: 86.4311% MPKI: 26.2662
Number of Branches: 96788573 Number of Mispredictions: 13133102
Number of LOAD Instructions: 164682285
Number of LOAD Instructions (ROI): 164682285
Number of STORE Instructions: 78194750
Number of STORE Instructions (ROI): 78194750
Total Destination Memory Operands: 83268534
Total Destination Memory Operands (ROI): 83268534
Total Source Memory Operands: 164712438
Total Source Memory Operands (ROI): 164712438
Number of DEPENDED LOADS: 7056507
Number of DEPENDED LOADS (ROI): 7056507
Number of SQ_ADDED: 83268522
Number of SQ_ADDED (ROI): 83268522
Number of LQ_ADDED: 236831195
Number of LQ_ADDED (ROI): 236831195
Number of Instructions read from trace: 600000066

ChampSim completed all CPUs

Region of Interest Statistics

CPU 0 cumulative IPC: 0.351039 instructions: 500000000 cycles: 1424342674
ITLB TOTAL     ACCESS:  100527707  HIT:  100323261  MISS:     204446
ITLB LOAD      ACCESS:  100527707  HIT:  100323261  MISS:     204446
ITLB RFO       ACCESS:          0  HIT:          0  MISS:          0
ITLB PREFETCH  ACCESS:          0  HIT:          0  MISS:          0
ITLB WRITEBACK ACCESS:          0  HIT:          0  MISS:          0
ITLB PREFETCH  REQUESTED:          0  ISSUED:          0  USEFUL:          0  USELESS:          0
ITLB TOTAL MSHR MERGED:     172424
ITLB LOAD MSHR MERGED:     172424
ITLB RFO MSHR MERGED:          0
ITLB PREFETCH MSHR MERGED:          0
ITLB WRITEBACK MSHR MERGED:          0
ITLB TOTAL ACCESSES:  100700131 HITS:  100323261 MISSES:     376870
ITLB LOAD ACCESSES:  100700131 HITS:  100323261 MISSES:     376870
ITLB RFO ACCESSES:          0 HITS:          0 MISSES:          0
ITLB PREFETCH ACCESSES:          0 HITS:          0 MISSES:          0
ITLB WRITEBACK ACCESSES:          0 HITS:          0 MISSES:          0
ITLB RQ ACCESS:  500000057
ITLB RQ TO_CACHE:  100700131
ITLB RQ MERGED:  399299926
ITLB RQ FORWARD:          0
ITLB WQ ACCESS:          0
ITLB WQ TO_CACHE:          0
ITLB WQ MERGED:          0
ITLB WQ FORWARD:          0
DTLB TOTAL     ACCESS:  165343353  HIT:  164708994  MISS:     634359
DTLB LOAD      ACCESS:  106296885  HIT:  105726878  MISS:     570007
DTLB RFO       ACCESS:   59046468  HIT:   58982116  MISS:      64352
DTLB PREFETCH  ACCESS:          0  HIT:          0  MISS:          0
DTLB WRITEBACK ACCESS:          0  HIT:          0  MISS:          0
DTLB PREFETCH  REQUESTED:          0  ISSUED:          0  USEFUL:          0  USELESS:          0
DTLB TOTAL MSHR MERGED:      99953
DTLB LOAD MSHR MERGED:      59420
DTLB RFO MSHR MERGED:      40533
DTLB PREFETCH MSHR MERGED:          0
DTLB WRITEBACK MSHR MERGED:          0
DTLB TOTAL ACCESSES:  165443306 HITS:  164708994 MISSES:     734312
DTLB LOAD ACCESSES:  106356305 HITS:  105726878 MISSES:     629427
DTLB RFO ACCESSES:   59087001 HITS:   58982116 MISSES:     104885
DTLB PREFETCH ACCESSES:          0 HITS:          0 MISSES:          0
DTLB WRITEBACK ACCESSES:          0 HITS:          0 MISSES:          0
DTLB RQ ACCESS:  200314349
DTLB RQ TO_CACHE:  165443306
DTLB RQ MERGED:   34871043
DTLB RQ FORWARD:          0
DTLB WQ ACCESS:          0
DTLB WQ TO_CACHE:          0
DTLB WQ MERGED:          0
DTLB WQ FORWARD:          0
L1D TOTAL     ACCESS:  281817963  HIT:  273908706  MISS:    7909257
L1D LOAD      ACCESS:  110418505  HIT:  107135909  MISS:    3282596
L1D RFO       ACCESS:   67124928  HIT:   66234464  MISS:     890464
L1D PREFETCH  ACCESS:  104274530  HIT:  100538333  MISS:    3736197
L1D WRITEBACK ACCESS:          0  HIT:          0  MISS:          0
L1D PREFETCH  REQUESTED:  110823576  ISSUED:  109124291  USEFUL:    1656896  USELESS:    2079265
L1D TOTAL MSHR MERGED:    2900902
L1D LOAD MSHR MERGED:     507378
L1D RFO MSHR MERGED:    1860539
L1D PREFETCH MSHR MERGED:     532985
L1D WRITEBACK MSHR MERGED:          0
L1D TOTAL ACCESSES:  284746293 HITS:  273936134 MISSES:   10810159
L1D LOAD ACCESSES:  110825020 HITS:  107137353 MISSES:    3687667
L1D RFO ACCESSES:   68973819 HITS:   66234464 MISSES:    2739355
L1D PREFETCH ACCESSES:  104947454 HITS:  100564317 MISSES:    4383137
L1D WRITEBACK ACCESSES:          0 HITS:          0 MISSES:          0
L1D RQ ACCESS:  130761746
L1D RQ TO_CACHE:  110823579
L1D RQ MERGED:   19936723
L1D RQ FORWARD:          0
L1D WQ ACCESS:   69552603
L1D WQ TO_CACHE:   68973820
L1D WQ MERGED:     578783
L1D WQ FORWARD:      27428
L1I TOTAL     ACCESS:  126574475  HIT:  122335922  MISS:    4238553
L1I LOAD      ACCESS:  126574475  HIT:  122335922  MISS:    4238553
L1I RFO       ACCESS:          0  HIT:          0  MISS:          0
L1I PREFETCH  ACCESS:          0  HIT:          0  MISS:          0
L1I WRITEBACK ACCESS:          0  HIT:          0  MISS:          0
L1I PREFETCH  REQUESTED:          0  ISSUED:          0  USEFUL:          0  USELESS:          0
L1I TOTAL MSHR MERGED:    1835101
L1I LOAD MSHR MERGED:    1835101
L1I RFO MSHR MERGED:          0
L1I PREFETCH MSHR MERGED:          0
L1I WRITEBACK MSHR MERGED:          0
L1I TOTAL ACCESSES:  128409579 HITS:  122335922 MISSES:    6073657
L1I LOAD ACCESSES:  128409579 HITS:  122335922 MISSES:    6073657
L1I RFO ACCESSES:          0 HITS:          0 MISSES:          0
L1I PREFETCH ACCESSES:          0 HITS:          0 MISSES:          0
L1I WRITEBACK ACCESSES:          0 HITS:          0 MISSES:          0
L1I RQ ACCESS:  500000057
L1I RQ TO_CACHE:  128409579
L1I RQ MERGED:  371590478
L1I RQ FORWARD:          0
L1I WQ ACCESS:          0
L1I WQ TO_CACHE:          0
L1I WQ MERGED:          0
L1I WQ FORWARD:          0
L2C TOTAL     ACCESS:   14905334  HIT:   11158846  MISS:    3746488
L2C LOAD      ACCESS:    7418635  HIT:    5098792  MISS:    2319843
L2C RFO       ACCESS:     878720  HIT:     409912  MISS:     468808
L2C PREFETCH  ACCESS:    4568741  HIT:    3628169  MISS:     940572
L2C WRITEBACK ACCESS:    2039238  HIT:    2021973  MISS:      17265
L2C PREFETCH  REQUESTED:     842577  ISSUED:     842577  USEFUL:     203442  USELESS:     736835
L2C TOTAL MSHR MERGED:       6735
L2C LOAD MSHR MERGED:        718
L2C RFO MSHR MERGED:          0
L2C PREFETCH MSHR MERGED:       6017
L2C WRITEBACK MSHR MERGED:          0
L2C TOTAL ACCESSES:   14912992 HITS:   11159292 MISSES:    3753700
L2C LOAD ACCESSES:    7418842 HITS:    5098999 MISSES:    2319843
L2C RFO ACCESSES:     878816 HITS:     410008 MISSES:     468808
L2C PREFETCH ACCESSES:    4576096 HITS:    3628312 MISSES:     947784
L2C WRITEBACK ACCESSES:    2039238 HITS:    2021973 MISSES:      17265
L2C RQ ACCESS:    8297661
L2C RQ TO_CACHE:    8297358
L2C RQ MERGED:          0
L2C RQ FORWARD:          0
L2C WQ ACCESS:    2039238
L2C WQ TO_CACHE:    2039238
L2C WQ MERGED:          0
L2C WQ FORWARD:        446
LLC TOTAL     ACCESS:    4609836  HIT:    3746560  MISS:     863276
LLC LOAD      ACCESS:    2319110  HIT:    1957184  MISS:     361926
LLC RFO       ACCESS:     468798  HIT:     412242  MISS:      56556
LLC PREFETCH  ACCESS:     941637  HIT:     557091  MISS:     384546
LLC WRITEBACK ACCESS:     880291  HIT:     820043  MISS:      60248
LLC PREFETCH  REQUESTED:          0  ISSUED:          0  USEFUL:      12738  USELESS:     371189
LLC TOTAL MSHR MERGED:        108
LLC LOAD MSHR MERGED:         38
LLC RFO MSHR MERGED:          0
LLC PREFETCH MSHR MERGED:         70
LLC WRITEBACK MSHR MERGED:          0
LLC TOTAL ACCESSES:    4609980 HITS:    3746596 MISSES:     863384
LLC LOAD ACCESSES:    2319125 HITS:    1957199 MISSES:     361926
LLC RFO ACCESSES:     468808 HITS:     412252 MISSES:      56556
LLC PREFETCH ACCESSES:     941756 HITS:     557102 MISSES:     384654
LLC WRITEBACK ACCESSES:     880291 HITS:     820043 MISSES:      60248
LLC 0 RQ ACCESS:    2787933
LLC 0 RQ TO_CACHE:    2787908
LLC 0 RQ MERGED:          0
LLC 0 RQ FORWARD:          0
LLC WQ ACCESS:     880291
LLC WQ TO_CACHE:     880291
LLC WQ MERGED:          0
LLC WQ FORWARD:         36
Major fault: 0 Minor fault: 12862
CPU 0 L1D next line prefetcher final stats
CPU 0 L2C PC-based stride prefetcher final stats
All Misses: 1006751
All Hits: 4420091
SD Algo Stats - Switches: 0 SRR-Repls: 413860 BRR-Repls: 0

DRAM Statistics
 CHANNEL 0
 RQ ROW_BUFFER_HIT:     159624  ROW_BUFFER_MISS:     640295
 DBUS_CONGESTED:     373635
 WQ ROW_BUFFER_HIT:      13103  ROW_BUFFER_MISS:     178449  FULL:          0

 AVG_CONGESTED_CYCLE: 13
LOADS RETIRED: 136549171
INSTR RETIRED: 500000000
