
*** ChampSim Multicore Out-of-Order Simulator ***

Warmup Instructions: 100000000
Simulation Instructions: 500000000
Number of CPUs: 1
LLC sets: 2048
LLC ways: 16
Clean RRIP Policies: 2203230222032302 Dirty RRIP Policies: 1203130212031302 PSEL Width: 10 Track Set: 4294967295 PSEL Mask: 1 Demote Mask: 1040100010401000DS Algo: 0Window size: 0
Off-chip DRAM Size: 4096 MB Channels: 1 Width: 64-bit Data Rate: 1600 MT/s

CPU 0 runs /mnt/beegfs/iconst01/spec2017/Cam4.trace.gz
NOT SORTED
TRACE STRING: /mnt/beegfs/iconst01/spec2017/Cam4.trace.gz
SORTED
TRACE STRING: /mnt/beegfs/iconst01/spec2017/Cam4.trace.gz
INITIAL
TRACE STRING: /mnt/beegfs/iconst01/spec2017/Cam4.trace.gz

champsim_seed used: 325

CPU 0 L1D next line prefetcher
CPU 0 L2C IP-based stride prefetcher
Initialize DRRIP state
Assign rand_sets[0]: 454  LLC: 2048
rand_sets[0]: 454
Assign rand_sets[1]: 1662  LLC: 2048
rand_sets[1]: 1662
Assign rand_sets[2]: 1921  LLC: 2048
rand_sets[2]: 1921
Assign rand_sets[3]: 1131  LLC: 2048
rand_sets[3]: 1131
Assign rand_sets[4]: 331  LLC: 2048
rand_sets[4]: 331
Assign rand_sets[5]: 1531  LLC: 2048
rand_sets[5]: 1531
Assign rand_sets[6]: 482  LLC: 2048
rand_sets[6]: 482
Assign rand_sets[7]: 1275  LLC: 2048
rand_sets[7]: 1275
Assign rand_sets[8]: 1876  LLC: 2048
rand_sets[8]: 1876
Assign rand_sets[9]: 2038  LLC: 2048
rand_sets[9]: 2038
Assign rand_sets[10]: 701  LLC: 2048
rand_sets[10]: 701
Assign rand_sets[11]: 479  LLC: 2048
rand_sets[11]: 479
Assign rand_sets[12]: 892  LLC: 2048
rand_sets[12]: 892
Assign rand_sets[13]: 1820  LLC: 2048
rand_sets[13]: 1820
Assign rand_sets[14]: 1505  LLC: 2048
rand_sets[14]: 1505
Assign rand_sets[15]: 1159  LLC: 2048
rand_sets[15]: 1159
Assign rand_sets[16]: 513  LLC: 2048
rand_sets[16]: 513
Assign rand_sets[17]: 703  LLC: 2048
rand_sets[17]: 703
Assign rand_sets[18]: 561  LLC: 2048
rand_sets[18]: 561
Assign rand_sets[19]: 990  LLC: 2048
rand_sets[19]: 990
Assign rand_sets[20]: 342  LLC: 2048
rand_sets[20]: 342
Assign rand_sets[21]: 882  LLC: 2048
rand_sets[21]: 882
Assign rand_sets[22]: 15  LLC: 2048
rand_sets[22]: 15
Assign rand_sets[23]: 71  LLC: 2048
rand_sets[23]: 71
Assign rand_sets[24]: 1127  LLC: 2048
rand_sets[24]: 1127
Assign rand_sets[25]: 1382  LLC: 2048
rand_sets[25]: 1382
Assign rand_sets[26]: 647  LLC: 2048
rand_sets[26]: 647
Assign rand_sets[27]: 857  LLC: 2048
rand_sets[27]: 857
Assign rand_sets[28]: 1450  LLC: 2048
rand_sets[28]: 1450
Assign rand_sets[29]: 1160  LLC: 2048
rand_sets[29]: 1160
Assign rand_sets[30]: 1852  LLC: 2048
rand_sets[30]: 1852
Assign rand_sets[31]: 1881  LLC: 2048
rand_sets[31]: 1881
Assign rand_sets[32]: 1770  LLC: 2048
rand_sets[32]: 1770
Assign rand_sets[33]: 1622  LLC: 2048
rand_sets[33]: 1622
Assign rand_sets[34]: 275  LLC: 2048
rand_sets[34]: 275
Assign rand_sets[35]: 635  LLC: 2048
rand_sets[35]: 635
Assign rand_sets[36]: 466  LLC: 2048
rand_sets[36]: 466
Assign rand_sets[37]: 1413  LLC: 2048
rand_sets[37]: 1413
Assign rand_sets[38]: 417  LLC: 2048
rand_sets[38]: 417
Assign rand_sets[39]: 472  LLC: 2048
rand_sets[39]: 472
Assign rand_sets[40]: 1340  LLC: 2048
rand_sets[40]: 1340
Assign rand_sets[41]: 852  LLC: 2048
rand_sets[41]: 852
Assign rand_sets[42]: 1365  LLC: 2048
rand_sets[42]: 1365
Assign rand_sets[43]: 47  LLC: 2048
rand_sets[43]: 47
Assign rand_sets[44]: 823  LLC: 2048
rand_sets[44]: 823
Assign rand_sets[45]: 686  LLC: 2048
rand_sets[45]: 686
Assign rand_sets[46]: 1637  LLC: 2048
rand_sets[46]: 1637
Assign rand_sets[47]: 1115  LLC: 2048
rand_sets[47]: 1115
Assign rand_sets[48]: 986  LLC: 2048
rand_sets[48]: 986
Assign rand_sets[49]: 258  LLC: 2048
rand_sets[49]: 258
Assign rand_sets[50]: 633  LLC: 2048
rand_sets[50]: 633
Assign rand_sets[51]: 920  LLC: 2048
rand_sets[51]: 920
Assign rand_sets[52]: 204  LLC: 2048
rand_sets[52]: 204
Assign rand_sets[53]: 227  LLC: 2048
rand_sets[53]: 227
Assign rand_sets[54]: 1818  LLC: 2048
rand_sets[54]: 1818
Assign rand_sets[55]: 886  LLC: 2048
rand_sets[55]: 886
Assign rand_sets[56]: 1422  LLC: 2048
rand_sets[56]: 1422
Assign rand_sets[57]: 607  LLC: 2048
rand_sets[57]: 607
Assign rand_sets[58]: 217  LLC: 2048
rand_sets[58]: 217
Assign rand_sets[59]: 1945  LLC: 2048
rand_sets[59]: 1945
Assign rand_sets[60]: 143  LLC: 2048
rand_sets[60]: 143
Assign rand_sets[61]: 1311  LLC: 2048
rand_sets[61]: 1311
Assign rand_sets[62]: 319  LLC: 2048
rand_sets[62]: 319
Assign rand_sets[63]: 1846  LLC: 2048
rand_sets[63]: 1846
 CLEAN-RRIP-POLICY-1: 2-2-0-3-2-3-0-2- CLEAN-RRIP-POLICY-2: 2-2-0-3-2-3-0-2-
 DIRTY-RRIP-POLICY-1: 1-2-0-3-1-3-0-2- DIRTY-RRIP-POLICY-2: 1-2-0-3-1-3-0-2-
 PSEL width: 10
Heartbeat CPU 0 instructions: 10000000 cycles: 4859184 heartbeat IPC: 2.05796 cumulative IPC: 2.05796 (Simulation time: 0 hr 0 min 16 sec) 
Heartbeat CPU 0 instructions: 20000000 cycles: 9790786 heartbeat IPC: 2.02774 cumulative IPC: 2.04274 (Simulation time: 0 hr 0 min 32 sec) 
Heartbeat CPU 0 instructions: 30000001 cycles: 14562948 heartbeat IPC: 2.09549 cumulative IPC: 2.06002 (Simulation time: 0 hr 0 min 47 sec) 
Heartbeat CPU 0 instructions: 40000000 cycles: 19399943 heartbeat IPC: 2.0674 cumulative IPC: 2.06186 (Simulation time: 0 hr 1 min 3 sec) 
Heartbeat CPU 0 instructions: 50000000 cycles: 24256462 heartbeat IPC: 2.05909 cumulative IPC: 2.06131 (Simulation time: 0 hr 1 min 20 sec) 
Heartbeat CPU 0 instructions: 60000000 cycles: 29181864 heartbeat IPC: 2.03029 cumulative IPC: 2.05607 (Simulation time: 0 hr 1 min 36 sec) 
Heartbeat CPU 0 instructions: 70000001 cycles: 33956931 heartbeat IPC: 2.09421 cumulative IPC: 2.06143 (Simulation time: 0 hr 1 min 51 sec) 
Heartbeat CPU 0 instructions: 80000000 cycles: 38793175 heartbeat IPC: 2.06772 cumulative IPC: 2.06222 (Simulation time: 0 hr 2 min 8 sec) 
Heartbeat CPU 0 instructions: 90000002 cycles: 43647207 heartbeat IPC: 2.06014 cumulative IPC: 2.06199 (Simulation time: 0 hr 2 min 24 sec) 
Heartbeat CPU 0 instructions: 100000000 cycles: 48565984 heartbeat IPC: 2.03303 cumulative IPC: 2.05905 (Simulation time: 0 hr 2 min 41 sec) 

Warmup complete CPU 0 instructions: 100000001 cycles: 48565985 (Simulation time: 0 hr 2 min 41 sec) 

Heartbeat CPU 0 instructions: 110000000 cycles: 61648027 heartbeat IPC: 0.764407 cumulative IPC: 0.764407 (Simulation time: 0 hr 3 min 3 sec) 
Heartbeat CPU 0 instructions: 120000000 cycles: 75390044 heartbeat IPC: 0.727695 cumulative IPC: 0.745599 (Simulation time: 0 hr 3 min 28 sec) 
Heartbeat CPU 0 instructions: 130000000 cycles: 89132964 heartbeat IPC: 0.727647 cumulative IPC: 0.739518 (Simulation time: 0 hr 3 min 52 sec) 
Heartbeat CPU 0 instructions: 140000000 cycles: 103380543 heartbeat IPC: 0.701874 cumulative IPC: 0.729733 (Simulation time: 0 hr 4 min 17 sec) 
Heartbeat CPU 0 instructions: 150000003 cycles: 116532889 heartbeat IPC: 0.760321 cumulative IPC: 0.735652 (Simulation time: 0 hr 4 min 40 sec) 
Heartbeat CPU 0 instructions: 160000000 cycles: 130273157 heartbeat IPC: 0.727788 cumulative IPC: 0.73433 (Simulation time: 0 hr 5 min 4 sec) 
Heartbeat CPU 0 instructions: 170000001 cycles: 144049376 heartbeat IPC: 0.725889 cumulative IPC: 0.733112 (Simulation time: 0 hr 5 min 29 sec) 
Heartbeat CPU 0 instructions: 180000000 cycles: 158286843 heartbeat IPC: 0.702372 cumulative IPC: 0.729123 (Simulation time: 0 hr 5 min 54 sec) 
Heartbeat CPU 0 instructions: 190000003 cycles: 171418872 heartbeat IPC: 0.761497 cumulative IPC: 0.732584 (Simulation time: 0 hr 6 min 16 sec) 
Heartbeat CPU 0 instructions: 200000000 cycles: 185157172 heartbeat IPC: 0.727892 cumulative IPC: 0.732112 (Simulation time: 0 hr 6 min 41 sec) 
Heartbeat CPU 0 instructions: 210000002 cycles: 198934686 heartbeat IPC: 0.72582 cumulative IPC: 0.731535 (Simulation time: 0 hr 7 min 5 sec) 
Heartbeat CPU 0 instructions: 220000000 cycles: 213171891 heartbeat IPC: 0.702385 cumulative IPC: 0.729014 (Simulation time: 0 hr 7 min 30 sec) 
Heartbeat CPU 0 instructions: 230000001 cycles: 226240981 heartbeat IPC: 0.765164 cumulative IPC: 0.731673 (Simulation time: 0 hr 7 min 52 sec) 
Heartbeat CPU 0 instructions: 240000000 cycles: 239965206 heartbeat IPC: 0.728639 cumulative IPC: 0.731455 (Simulation time: 0 hr 8 min 17 sec) 
Heartbeat CPU 0 instructions: 250000001 cycles: 253689071 heartbeat IPC: 0.728658 cumulative IPC: 0.731268 (Simulation time: 0 hr 8 min 42 sec) 
Heartbeat CPU 0 instructions: 260000000 cycles: 267826734 heartbeat IPC: 0.70733 cumulative IPC: 0.729725 (Simulation time: 0 hr 9 min 6 sec) 
Heartbeat CPU 0 instructions: 270000003 cycles: 281007796 heartbeat IPC: 0.758664 cumulative IPC: 0.731366 (Simulation time: 0 hr 9 min 29 sec) 
Heartbeat CPU 0 instructions: 280000000 cycles: 294748682 heartbeat IPC: 0.727755 cumulative IPC: 0.731164 (Simulation time: 0 hr 9 min 53 sec) 
Heartbeat CPU 0 instructions: 290000001 cycles: 308515626 heartbeat IPC: 0.726378 cumulative IPC: 0.730911 (Simulation time: 0 hr 10 min 18 sec) 
Heartbeat CPU 0 instructions: 300000000 cycles: 322597493 heartbeat IPC: 0.710133 cumulative IPC: 0.729843 (Simulation time: 0 hr 10 min 42 sec) 
Heartbeat CPU 0 instructions: 310000000 cycles: 335789339 heartbeat IPC: 0.758044 cumulative IPC: 0.731138 (Simulation time: 0 hr 11 min 5 sec) 
Heartbeat CPU 0 instructions: 320000000 cycles: 349574308 heartbeat IPC: 0.725428 cumulative IPC: 0.730877 (Simulation time: 0 hr 11 min 29 sec) 
Heartbeat CPU 0 instructions: 330000000 cycles: 363362776 heartbeat IPC: 0.725244 cumulative IPC: 0.73063 (Simulation time: 0 hr 11 min 54 sec) 
Heartbeat CPU 0 instructions: 340000000 cycles: 377418842 heartbeat IPC: 0.711437 cumulative IPC: 0.72981 (Simulation time: 0 hr 12 min 18 sec) 
Heartbeat CPU 0 instructions: 350000000 cycles: 390653752 heartbeat IPC: 0.755578 cumulative IPC: 0.730807 (Simulation time: 0 hr 12 min 40 sec) 
Heartbeat CPU 0 instructions: 360000000 cycles: 404469698 heartbeat IPC: 0.723801 cumulative IPC: 0.730535 (Simulation time: 0 hr 13 min 4 sec) 
Heartbeat CPU 0 instructions: 370000003 cycles: 418257411 heartbeat IPC: 0.725284 cumulative IPC: 0.730339 (Simulation time: 0 hr 13 min 29 sec) 
Heartbeat CPU 0 instructions: 380000000 cycles: 432277909 heartbeat IPC: 0.713241 cumulative IPC: 0.729714 (Simulation time: 0 hr 13 min 53 sec) 
Heartbeat CPU 0 instructions: 390000003 cycles: 445514223 heartbeat IPC: 0.755498 cumulative IPC: 0.730574 (Simulation time: 0 hr 14 min 15 sec) 
Heartbeat CPU 0 instructions: 400000000 cycles: 459321649 heartbeat IPC: 0.724248 cumulative IPC: 0.730361 (Simulation time: 0 hr 14 min 39 sec) 
Heartbeat CPU 0 instructions: 410000000 cycles: 473080186 heartbeat IPC: 0.726821 cumulative IPC: 0.730246 (Simulation time: 0 hr 15 min 4 sec) 
Heartbeat CPU 0 instructions: 420000000 cycles: 487092427 heartbeat IPC: 0.713662 cumulative IPC: 0.729717 (Simulation time: 0 hr 15 min 28 sec) 
Heartbeat CPU 0 instructions: 430000003 cycles: 500354954 heartbeat IPC: 0.754004 cumulative IPC: 0.73043 (Simulation time: 0 hr 15 min 50 sec) 
Heartbeat CPU 0 instructions: 440000000 cycles: 514159299 heartbeat IPC: 0.724409 cumulative IPC: 0.730251 (Simulation time: 0 hr 16 min 14 sec) 
Heartbeat CPU 0 instructions: 450000000 cycles: 527934837 heartbeat IPC: 0.725924 cumulative IPC: 0.730127 (Simulation time: 0 hr 16 min 38 sec) 
Heartbeat CPU 0 instructions: 460000000 cycles: 541925677 heartbeat IPC: 0.714753 cumulative IPC: 0.729691 (Simulation time: 0 hr 17 min 3 sec) 
Heartbeat CPU 0 instructions: 470000001 cycles: 555169125 heartbeat IPC: 0.75509 cumulative IPC: 0.730355 (Simulation time: 0 hr 17 min 25 sec) 
Heartbeat CPU 0 instructions: 480000000 cycles: 568949903 heartbeat IPC: 0.725648 cumulative IPC: 0.73023 (Simulation time: 0 hr 17 min 49 sec) 
Heartbeat CPU 0 instructions: 490000002 cycles: 582701765 heartbeat IPC: 0.727174 cumulative IPC: 0.730151 (Simulation time: 0 hr 18 min 13 sec) 
Heartbeat CPU 0 instructions: 500000000 cycles: 596693391 heartbeat IPC: 0.714713 cumulative IPC: 0.729757 (Simulation time: 0 hr 18 min 37 sec) 
Heartbeat CPU 0 instructions: 510000002 cycles: 609981380 heartbeat IPC: 0.752559 cumulative IPC: 0.730297 (Simulation time: 0 hr 18 min 59 sec) 
Heartbeat CPU 0 instructions: 520000000 cycles: 623746263 heartbeat IPC: 0.726486 cumulative IPC: 0.730206 (Simulation time: 0 hr 19 min 23 sec) 
Heartbeat CPU 0 instructions: 530000003 cycles: 637477748 heartbeat IPC: 0.728254 cumulative IPC: 0.73016 (Simulation time: 0 hr 19 min 47 sec) 
Heartbeat CPU 0 instructions: 540000000 cycles: 651488579 heartbeat IPC: 0.713733 cumulative IPC: 0.729779 (Simulation time: 0 hr 20 min 12 sec) 
Heartbeat CPU 0 instructions: 550000003 cycles: 664762999 heartbeat IPC: 0.753329 cumulative IPC: 0.730286 (Simulation time: 0 hr 20 min 34 sec) 
Heartbeat CPU 0 instructions: 560000000 cycles: 678510027 heartbeat IPC: 0.72743 cumulative IPC: 0.730224 (Simulation time: 0 hr 20 min 58 sec) 
Heartbeat CPU 0 instructions: 570000001 cycles: 692268581 heartbeat IPC: 0.726821 cumulative IPC: 0.730151 (Simulation time: 0 hr 21 min 22 sec) 
Heartbeat CPU 0 instructions: 580000000 cycles: 706303251 heartbeat IPC: 0.712521 cumulative IPC: 0.729775 (Simulation time: 0 hr 21 min 46 sec) 
Heartbeat CPU 0 instructions: 590000000 cycles: 719533686 heartbeat IPC: 0.755833 cumulative IPC: 0.730289 (Simulation time: 0 hr 22 min 8 sec) 
Heartbeat CPU 0 instructions: 600000000 cycles: 733282625 heartbeat IPC: 0.727329 cumulative IPC: 0.730229 (Simulation time: 0 hr 22 min 32 sec) 
Finished CPU 0 instructions: 500000001 cycles: 684716648 cumulative IPC: 0.730229 (Simulation time: 0 hr 22 min 32 sec) 

CPU 0 Branch Prediction Accuracy: 97.5275% MPKI: 2.1997
Number of Branches: 44482865 Number of Mispredictions: 1099852
Number of LOAD Instructions: 144955155
Number of LOAD Instructions (ROI): 144955155
Number of STORE Instructions: 55921098
Number of STORE Instructions (ROI): 55921098
Total Destination Memory Operands: 57111147
Total Destination Memory Operands (ROI): 57111147
Total Source Memory Operands: 144955155
Total Source Memory Operands (ROI): 144955155
Number of DEPENDED LOADS: 13454734
Number of DEPENDED LOADS (ROI): 13454734
Number of SQ_ADDED: 57111126
Number of SQ_ADDED (ROI): 57111126
Number of LQ_ADDED: 174193796
Number of LQ_ADDED (ROI): 174193796
Number of Instructions read from trace: 600000256

ChampSim completed all CPUs

Region of Interest Statistics

CPU 0 cumulative IPC: 0.730229 instructions: 500000001 cycles: 684716648
ITLB TOTAL     ACCESS:  136064264  HIT:  136061711  MISS:       2553
ITLB LOAD      ACCESS:  136064264  HIT:  136061711  MISS:       2553
ITLB RFO       ACCESS:          0  HIT:          0  MISS:          0
ITLB PREFETCH  ACCESS:          0  HIT:          0  MISS:          0
ITLB WRITEBACK ACCESS:          0  HIT:          0  MISS:          0
ITLB PREFETCH  REQUESTED:          0  ISSUED:          0  USEFUL:          0  USELESS:          0
ITLB TOTAL MSHR MERGED:       4357
ITLB LOAD MSHR MERGED:       4357
ITLB RFO MSHR MERGED:          0
ITLB PREFETCH MSHR MERGED:          0
ITLB WRITEBACK MSHR MERGED:          0
ITLB TOTAL ACCESSES:  136068621 HITS:  136061711 MISSES:       6910
ITLB LOAD ACCESSES:  136068621 HITS:  136061711 MISSES:       6910
ITLB RFO ACCESSES:          0 HITS:          0 MISSES:          0
ITLB PREFETCH ACCESSES:          0 HITS:          0 MISSES:          0
ITLB WRITEBACK ACCESSES:          0 HITS:          0 MISSES:          0
ITLB RQ ACCESS:  500000202
ITLB RQ TO_CACHE:  136068621
ITLB RQ MERGED:  363931581
ITLB RQ FORWARD:          0
ITLB WQ ACCESS:          0
ITLB WQ TO_CACHE:          0
ITLB WQ MERGED:          0
ITLB WQ FORWARD:          0
DTLB TOTAL     ACCESS:  111548839  HIT:  111412644  MISS:     136195
DTLB LOAD      ACCESS:   78950293  HIT:   78824666  MISS:     125627
DTLB RFO       ACCESS:   32598546  HIT:   32587978  MISS:      10568
DTLB PREFETCH  ACCESS:          0  HIT:          0  MISS:          0
DTLB WRITEBACK ACCESS:          0  HIT:          0  MISS:          0
DTLB PREFETCH  REQUESTED:          0  ISSUED:          0  USEFUL:          0  USELESS:          0
DTLB TOTAL MSHR MERGED:      63651
DTLB LOAD MSHR MERGED:      50951
DTLB RFO MSHR MERGED:      12700
DTLB PREFETCH MSHR MERGED:          0
DTLB WRITEBACK MSHR MERGED:          0
DTLB TOTAL ACCESSES:  111612490 HITS:  111412644 MISSES:     199846
DTLB LOAD ACCESSES:   79001244 HITS:   78824666 MISSES:     176578
DTLB RFO ACCESSES:   32611246 HITS:   32587978 MISSES:      23268
DTLB PREFETCH ACCESSES:          0 HITS:          0 MISSES:          0
DTLB WRITEBACK ACCESSES:          0 HITS:          0 MISSES:          0
DTLB RQ ACCESS:  157180691
DTLB RQ TO_CACHE:  111612490
DTLB RQ MERGED:   45568201
DTLB RQ FORWARD:          0
DTLB WQ ACCESS:          0
DTLB WQ TO_CACHE:          0
DTLB WQ MERGED:          0
DTLB WQ FORWARD:          0
L1D TOTAL     ACCESS:  198252452  HIT:  188411360  MISS:    9841092
L1D LOAD      ACCESS:   79951090  HIT:   75689332  MISS:    4261758
L1D RFO       ACCESS:   44541603  HIT:   43641261  MISS:     900342
L1D PREFETCH  ACCESS:   73759759  HIT:   69080767  MISS:    4678992
L1D WRITEBACK ACCESS:          0  HIT:          0  MISS:          0
L1D PREFETCH  REQUESTED:   80345997  ISSUED:   79890377  USEFUL:    1820720  USELESS:    2858181
L1D TOTAL MSHR MERGED:    2477111
L1D LOAD MSHR MERGED:     518115
L1D RFO MSHR MERGED:    1411156
L1D PREFETCH MSHR MERGED:     547840
L1D WRITEBACK MSHR MERGED:          0
L1D TOTAL ACCESSES:  200750804 HITS:  188432601 MISSES:   12318203
L1D LOAD ACCESSES:   80358626 HITS:   75701961 MISSES:    4656665
L1D RFO ACCESSES:   45949777 HITS:   43641261 MISSES:    2308516
L1D PREFETCH ACCESSES:   74442401 HITS:   69089379 MISSES:    5353022
L1D WRITEBACK ACCESSES:          0 HITS:          0 MISSES:          0
L1D RQ ACCESS:  109538721
L1D RQ TO_CACHE:   80345997
L1D RQ MERGED:   29180095
L1D RQ FORWARD:          0
L1D WQ ACCESS:   47641970
L1D WQ TO_CACHE:   45949777
L1D WQ MERGED:    1692193
L1D WQ FORWARD:      21241
L1I TOTAL     ACCESS:  161534950  HIT:  161270975  MISS:     263975
L1I LOAD      ACCESS:  161534950  HIT:  161270975  MISS:     263975
L1I RFO       ACCESS:          0  HIT:          0  MISS:          0
L1I PREFETCH  ACCESS:          0  HIT:          0  MISS:          0
L1I WRITEBACK ACCESS:          0  HIT:          0  MISS:          0
L1I PREFETCH  REQUESTED:          0  ISSUED:          0  USEFUL:          0  USELESS:          0
L1I TOTAL MSHR MERGED:     260961
L1I LOAD MSHR MERGED:     260961
L1I RFO MSHR MERGED:          0
L1I PREFETCH MSHR MERGED:          0
L1I WRITEBACK MSHR MERGED:          0
L1I TOTAL ACCESSES:  161795911 HITS:  161270975 MISSES:     524936
L1I LOAD ACCESSES:  161795911 HITS:  161270975 MISSES:     524936
L1I RFO ACCESSES:          0 HITS:          0 MISSES:          0
L1I PREFETCH ACCESSES:          0 HITS:          0 MISSES:          0
L1I WRITEBACK ACCESSES:          0 HITS:          0 MISSES:          0
L1I RQ ACCESS:  500000202
L1I RQ TO_CACHE:  161795911
L1I RQ MERGED:  338204291
L1I RQ FORWARD:          0
L1I WQ ACCESS:          0
L1I WQ TO_CACHE:          0
L1I WQ MERGED:          0
L1I WQ FORWARD:          0
L2C TOTAL     ACCESS:   11771950  HIT:   10382630  MISS:    1389320
L2C LOAD      ACCESS:    4402460  HIT:    3905864  MISS:     496596
L2C RFO       ACCESS:     897295  HIT:     536257  MISS:     361038
L2C PREFETCH  ACCESS:    5284642  HIT:    4755900  MISS:     528742
L2C WRITEBACK ACCESS:    1187553  HIT:    1184609  MISS:       2944
L2C PREFETCH  REQUESTED:     504640  ISSUED:     504640  USEFUL:     114919  USELESS:     414015
L2C TOTAL MSHR MERGED:       1882
L2C LOAD MSHR MERGED:        387
L2C RFO MSHR MERGED:          0
L2C PREFETCH MSHR MERGED:       1495
L2C WRITEBACK MSHR MERGED:          0
L2C TOTAL ACCESSES:   11776517 HITS:   10382849 MISSES:    1393668
L2C LOAD ACCESSES:    4402525 HITS:    3905929 MISSES:     496596
L2C RFO ACCESSES:     897360 HITS:     536322 MISSES:     361038
L2C PREFETCH ACCESSES:    5289079 HITS:    4755989 MISSES:     533090
L2C WRITEBACK ACCESSES:    1187553 HITS:    1184609 MISSES:       2944
L2C RQ ACCESS:    5299885
L2C RQ TO_CACHE:    5299755
L2C RQ MERGED:          0
L2C RQ FORWARD:          0
L2C WQ ACCESS:    1187553
L2C WQ TO_CACHE:    1187553
L2C WQ MERGED:          0
L2C WQ FORWARD:        219
LLC TOTAL     ACCESS:    1849507  HIT:    1169952  MISS:     679555
LLC LOAD      ACCESS:     496207  HIT:     236590  MISS:     259617
LLC RFO       ACCESS:     361036  HIT:     243036  MISS:     118000
LLC PREFETCH  ACCESS:     531522  HIT:     328631  MISS:     202891
LLC WRITEBACK ACCESS:     460742  HIT:     361695  MISS:      99047
LLC PREFETCH  REQUESTED:          0  ISSUED:          0  USEFUL:       2413  USELESS:     200363
LLC TOTAL MSHR MERGED:         47
LLC LOAD MSHR MERGED:         21
LLC RFO MSHR MERGED:          0
LLC PREFETCH MSHR MERGED:         26
LLC WRITEBACK MSHR MERGED:          0
LLC TOTAL ACCESSES:    1849578 HITS:    1169976 MISSES:     679602
LLC LOAD ACCESSES:     496209 HITS:     236592 MISSES:     259617
LLC RFO ACCESSES:     361038 HITS:     243038 MISSES:     118000
LLC PREFETCH ACCESSES:     531589 HITS:     328651 MISSES:     202938
LLC WRITEBACK ACCESSES:     460742 HITS:     361695 MISSES:      99047
LLC 0 RQ ACCESS:     857247
LLC 0 RQ TO_CACHE:     857243
LLC 0 RQ MERGED:          0
LLC 0 RQ FORWARD:          0
LLC WQ ACCESS:     460742
LLC WQ TO_CACHE:     460742
LLC WQ MERGED:          0
LLC WQ FORWARD:         24
Major fault: 0 Minor fault: 3073
CPU 0 L1D next line prefetcher final stats
CPU 0 L2C PC-based stride prefetcher final stats
All Misses: 831279
All Hits: 1344919
SD Algo Stats - Switches: 0 SRR-Repls: 297923 BRR-Repls: 0

DRAM Statistics
 CHANNEL 0
 RQ ROW_BUFFER_HIT:     403516  ROW_BUFFER_MISS:     176774
 DBUS_CONGESTED:     426192
 WQ ROW_BUFFER_HIT:      16007  ROW_BUFFER_MISS:     108604  FULL:          0

 AVG_CONGESTED_CYCLE: 13
LOADS RETIRED: 120673965
INSTR RETIRED: 500000000
