
*** ChampSim Multicore Out-of-Order Simulator ***

Warmup Instructions: 100000000
Simulation Instructions: 500000000
Number of CPUs: 1
LLC sets: 2048
LLC ways: 16
Clean RRIP Policies: 1213030112130301 Dirty RRIP Policies: 2213130122131301 PSEL Width: 10 Track Set: 4294967295 PSEL Mask: 1 Demote Mask: 1340211013402110DS Algo: 0Window size: 0
Off-chip DRAM Size: 4096 MB Channels: 1 Width: 64-bit Data Rate: 1600 MT/s

CPU 0 runs /mnt/beegfs/iconst01/spec2017/Cam4.trace.gz
NOT SORTED
TRACE STRING: /mnt/beegfs/iconst01/spec2017/Cam4.trace.gz
SORTED
TRACE STRING: /mnt/beegfs/iconst01/spec2017/Cam4.trace.gz
INITIAL
TRACE STRING: /mnt/beegfs/iconst01/spec2017/Cam4.trace.gz

champsim_seed used: 325

CPU 0 L1D next line prefetcher
CPU 0 L2C IP-based stride prefetcher
Initialize DRRIP state
Assign rand_sets[0]: 454  LLC: 2048
rand_sets[0]: 454
Assign rand_sets[1]: 1662  LLC: 2048
rand_sets[1]: 1662
Assign rand_sets[2]: 1921  LLC: 2048
rand_sets[2]: 1921
Assign rand_sets[3]: 1131  LLC: 2048
rand_sets[3]: 1131
Assign rand_sets[4]: 331  LLC: 2048
rand_sets[4]: 331
Assign rand_sets[5]: 1531  LLC: 2048
rand_sets[5]: 1531
Assign rand_sets[6]: 482  LLC: 2048
rand_sets[6]: 482
Assign rand_sets[7]: 1275  LLC: 2048
rand_sets[7]: 1275
Assign rand_sets[8]: 1876  LLC: 2048
rand_sets[8]: 1876
Assign rand_sets[9]: 2038  LLC: 2048
rand_sets[9]: 2038
Assign rand_sets[10]: 701  LLC: 2048
rand_sets[10]: 701
Assign rand_sets[11]: 479  LLC: 2048
rand_sets[11]: 479
Assign rand_sets[12]: 892  LLC: 2048
rand_sets[12]: 892
Assign rand_sets[13]: 1820  LLC: 2048
rand_sets[13]: 1820
Assign rand_sets[14]: 1505  LLC: 2048
rand_sets[14]: 1505
Assign rand_sets[15]: 1159  LLC: 2048
rand_sets[15]: 1159
Assign rand_sets[16]: 513  LLC: 2048
rand_sets[16]: 513
Assign rand_sets[17]: 703  LLC: 2048
rand_sets[17]: 703
Assign rand_sets[18]: 561  LLC: 2048
rand_sets[18]: 561
Assign rand_sets[19]: 990  LLC: 2048
rand_sets[19]: 990
Assign rand_sets[20]: 342  LLC: 2048
rand_sets[20]: 342
Assign rand_sets[21]: 882  LLC: 2048
rand_sets[21]: 882
Assign rand_sets[22]: 15  LLC: 2048
rand_sets[22]: 15
Assign rand_sets[23]: 71  LLC: 2048
rand_sets[23]: 71
Assign rand_sets[24]: 1127  LLC: 2048
rand_sets[24]: 1127
Assign rand_sets[25]: 1382  LLC: 2048
rand_sets[25]: 1382
Assign rand_sets[26]: 647  LLC: 2048
rand_sets[26]: 647
Assign rand_sets[27]: 857  LLC: 2048
rand_sets[27]: 857
Assign rand_sets[28]: 1450  LLC: 2048
rand_sets[28]: 1450
Assign rand_sets[29]: 1160  LLC: 2048
rand_sets[29]: 1160
Assign rand_sets[30]: 1852  LLC: 2048
rand_sets[30]: 1852
Assign rand_sets[31]: 1881  LLC: 2048
rand_sets[31]: 1881
Assign rand_sets[32]: 1770  LLC: 2048
rand_sets[32]: 1770
Assign rand_sets[33]: 1622  LLC: 2048
rand_sets[33]: 1622
Assign rand_sets[34]: 275  LLC: 2048
rand_sets[34]: 275
Assign rand_sets[35]: 635  LLC: 2048
rand_sets[35]: 635
Assign rand_sets[36]: 466  LLC: 2048
rand_sets[36]: 466
Assign rand_sets[37]: 1413  LLC: 2048
rand_sets[37]: 1413
Assign rand_sets[38]: 417  LLC: 2048
rand_sets[38]: 417
Assign rand_sets[39]: 472  LLC: 2048
rand_sets[39]: 472
Assign rand_sets[40]: 1340  LLC: 2048
rand_sets[40]: 1340
Assign rand_sets[41]: 852  LLC: 2048
rand_sets[41]: 852
Assign rand_sets[42]: 1365  LLC: 2048
rand_sets[42]: 1365
Assign rand_sets[43]: 47  LLC: 2048
rand_sets[43]: 47
Assign rand_sets[44]: 823  LLC: 2048
rand_sets[44]: 823
Assign rand_sets[45]: 686  LLC: 2048
rand_sets[45]: 686
Assign rand_sets[46]: 1637  LLC: 2048
rand_sets[46]: 1637
Assign rand_sets[47]: 1115  LLC: 2048
rand_sets[47]: 1115
Assign rand_sets[48]: 986  LLC: 2048
rand_sets[48]: 986
Assign rand_sets[49]: 258  LLC: 2048
rand_sets[49]: 258
Assign rand_sets[50]: 633  LLC: 2048
rand_sets[50]: 633
Assign rand_sets[51]: 920  LLC: 2048
rand_sets[51]: 920
Assign rand_sets[52]: 204  LLC: 2048
rand_sets[52]: 204
Assign rand_sets[53]: 227  LLC: 2048
rand_sets[53]: 227
Assign rand_sets[54]: 1818  LLC: 2048
rand_sets[54]: 1818
Assign rand_sets[55]: 886  LLC: 2048
rand_sets[55]: 886
Assign rand_sets[56]: 1422  LLC: 2048
rand_sets[56]: 1422
Assign rand_sets[57]: 607  LLC: 2048
rand_sets[57]: 607
Assign rand_sets[58]: 217  LLC: 2048
rand_sets[58]: 217
Assign rand_sets[59]: 1945  LLC: 2048
rand_sets[59]: 1945
Assign rand_sets[60]: 143  LLC: 2048
rand_sets[60]: 143
Assign rand_sets[61]: 1311  LLC: 2048
rand_sets[61]: 1311
Assign rand_sets[62]: 319  LLC: 2048
rand_sets[62]: 319
Assign rand_sets[63]: 1846  LLC: 2048
rand_sets[63]: 1846
 CLEAN-RRIP-POLICY-1: 1-2-1-3-0-3-0-1- CLEAN-RRIP-POLICY-2: 1-2-1-3-0-3-0-1-
 DIRTY-RRIP-POLICY-1: 2-2-1-3-1-3-0-1- DIRTY-RRIP-POLICY-2: 2-2-1-3-1-3-0-1-
 PSEL width: 10
Heartbeat CPU 0 instructions: 10000000 cycles: 4859184 heartbeat IPC: 2.05796 cumulative IPC: 2.05796 (Simulation time: 0 hr 0 min 16 sec) 
Heartbeat CPU 0 instructions: 20000000 cycles: 9790786 heartbeat IPC: 2.02774 cumulative IPC: 2.04274 (Simulation time: 0 hr 0 min 32 sec) 
Heartbeat CPU 0 instructions: 30000001 cycles: 14563065 heartbeat IPC: 2.09544 cumulative IPC: 2.06001 (Simulation time: 0 hr 0 min 47 sec) 
Heartbeat CPU 0 instructions: 40000000 cycles: 19400214 heartbeat IPC: 2.06733 cumulative IPC: 2.06183 (Simulation time: 0 hr 1 min 3 sec) 
Heartbeat CPU 0 instructions: 50000000 cycles: 24256897 heartbeat IPC: 2.05902 cumulative IPC: 2.06127 (Simulation time: 0 hr 1 min 20 sec) 
Heartbeat CPU 0 instructions: 60000000 cycles: 29182434 heartbeat IPC: 2.03024 cumulative IPC: 2.05603 (Simulation time: 0 hr 1 min 36 sec) 
Heartbeat CPU 0 instructions: 70000001 cycles: 33957056 heartbeat IPC: 2.09441 cumulative IPC: 2.06143 (Simulation time: 0 hr 1 min 50 sec) 
Heartbeat CPU 0 instructions: 80000000 cycles: 38793410 heartbeat IPC: 2.06767 cumulative IPC: 2.06221 (Simulation time: 0 hr 2 min 7 sec) 
Heartbeat CPU 0 instructions: 90000002 cycles: 43647528 heartbeat IPC: 2.06011 cumulative IPC: 2.06197 (Simulation time: 0 hr 2 min 23 sec) 
Heartbeat CPU 0 instructions: 100000000 cycles: 48566362 heartbeat IPC: 2.033 cumulative IPC: 2.05904 (Simulation time: 0 hr 2 min 40 sec) 

Warmup complete CPU 0 instructions: 100000001 cycles: 48566363 (Simulation time: 0 hr 2 min 40 sec) 

Heartbeat CPU 0 instructions: 110000000 cycles: 61786723 heartbeat IPC: 0.756409 cumulative IPC: 0.756409 (Simulation time: 0 hr 3 min 2 sec) 
Heartbeat CPU 0 instructions: 120000000 cycles: 75567720 heartbeat IPC: 0.725637 cumulative IPC: 0.740703 (Simulation time: 0 hr 3 min 26 sec) 
Heartbeat CPU 0 instructions: 130000000 cycles: 89353801 heartbeat IPC: 0.725369 cumulative IPC: 0.735521 (Simulation time: 0 hr 3 min 50 sec) 
Heartbeat CPU 0 instructions: 140000000 cycles: 103623720 heartbeat IPC: 0.700775 cumulative IPC: 0.726515 (Simulation time: 0 hr 4 min 15 sec) 
Heartbeat CPU 0 instructions: 150000003 cycles: 116897290 heartbeat IPC: 0.753377 cumulative IPC: 0.731733 (Simulation time: 0 hr 4 min 37 sec) 
Heartbeat CPU 0 instructions: 160000000 cycles: 130675586 heartbeat IPC: 0.725779 cumulative IPC: 0.730734 (Simulation time: 0 hr 5 min 2 sec) 
Heartbeat CPU 0 instructions: 170000001 cycles: 144498120 heartbeat IPC: 0.723456 cumulative IPC: 0.729685 (Simulation time: 0 hr 5 min 26 sec) 
Heartbeat CPU 0 instructions: 180000000 cycles: 158745946 heartbeat IPC: 0.701861 cumulative IPC: 0.726087 (Simulation time: 0 hr 5 min 50 sec) 
Heartbeat CPU 0 instructions: 190000003 cycles: 171954349 heartbeat IPC: 0.757094 cumulative IPC: 0.729407 (Simulation time: 0 hr 6 min 13 sec) 
Heartbeat CPU 0 instructions: 200000000 cycles: 185730968 heartbeat IPC: 0.725867 cumulative IPC: 0.729051 (Simulation time: 0 hr 6 min 37 sec) 
Heartbeat CPU 0 instructions: 210000002 cycles: 199542864 heartbeat IPC: 0.724014 cumulative IPC: 0.72859 (Simulation time: 0 hr 7 min 1 sec) 
Heartbeat CPU 0 instructions: 220000000 cycles: 213783606 heartbeat IPC: 0.70221 cumulative IPC: 0.726316 (Simulation time: 0 hr 7 min 26 sec) 
Heartbeat CPU 0 instructions: 230000001 cycles: 226905579 heartbeat IPC: 0.762081 cumulative IPC: 0.728948 (Simulation time: 0 hr 7 min 48 sec) 
Heartbeat CPU 0 instructions: 240000000 cycles: 240667606 heartbeat IPC: 0.726637 cumulative IPC: 0.728782 (Simulation time: 0 hr 8 min 12 sec) 
Heartbeat CPU 0 instructions: 250000001 cycles: 254429965 heartbeat IPC: 0.72662 cumulative IPC: 0.728638 (Simulation time: 0 hr 8 min 36 sec) 
Heartbeat CPU 0 instructions: 260000000 cycles: 268561647 heartbeat IPC: 0.70763 cumulative IPC: 0.727288 (Simulation time: 0 hr 9 min 1 sec) 
Heartbeat CPU 0 instructions: 270000003 cycles: 281803635 heartbeat IPC: 0.755174 cumulative IPC: 0.728872 (Simulation time: 0 hr 9 min 23 sec) 
Heartbeat CPU 0 instructions: 280000000 cycles: 295583489 heartbeat IPC: 0.725697 cumulative IPC: 0.728694 (Simulation time: 0 hr 9 min 47 sec) 
Heartbeat CPU 0 instructions: 290000001 cycles: 309381544 heartbeat IPC: 0.72474 cumulative IPC: 0.728485 (Simulation time: 0 hr 10 min 11 sec) 
Heartbeat CPU 0 instructions: 300000000 cycles: 323466329 heartbeat IPC: 0.709986 cumulative IPC: 0.727537 (Simulation time: 0 hr 10 min 36 sec) 
Heartbeat CPU 0 instructions: 310000000 cycles: 336730350 heartbeat IPC: 0.753919 cumulative IPC: 0.728752 (Simulation time: 0 hr 10 min 58 sec) 
Heartbeat CPU 0 instructions: 320000000 cycles: 350546896 heartbeat IPC: 0.72377 cumulative IPC: 0.728524 (Simulation time: 0 hr 11 min 22 sec) 
Heartbeat CPU 0 instructions: 330000000 cycles: 364368230 heartbeat IPC: 0.723519 cumulative IPC: 0.728305 (Simulation time: 0 hr 11 min 46 sec) 
Heartbeat CPU 0 instructions: 340000000 cycles: 378435319 heartbeat IPC: 0.710879 cumulative IPC: 0.727562 (Simulation time: 0 hr 12 min 11 sec) 
Heartbeat CPU 0 instructions: 350000000 cycles: 391752142 heartbeat IPC: 0.75093 cumulative IPC: 0.728468 (Simulation time: 0 hr 12 min 32 sec) 
Heartbeat CPU 0 instructions: 360000000 cycles: 405603421 heartbeat IPC: 0.721955 cumulative IPC: 0.728216 (Simulation time: 0 hr 12 min 57 sec) 
Heartbeat CPU 0 instructions: 370000003 cycles: 419427686 heartbeat IPC: 0.723366 cumulative IPC: 0.728035 (Simulation time: 0 hr 13 min 21 sec) 
Heartbeat CPU 0 instructions: 380000000 cycles: 433465509 heartbeat IPC: 0.712361 cumulative IPC: 0.727463 (Simulation time: 0 hr 13 min 45 sec) 
Heartbeat CPU 0 instructions: 390000003 cycles: 446784290 heartbeat IPC: 0.75082 cumulative IPC: 0.728244 (Simulation time: 0 hr 14 min 7 sec) 
Heartbeat CPU 0 instructions: 400000000 cycles: 460626720 heartbeat IPC: 0.722416 cumulative IPC: 0.728049 (Simulation time: 0 hr 14 min 31 sec) 
Heartbeat CPU 0 instructions: 410000000 cycles: 474423706 heartbeat IPC: 0.724796 cumulative IPC: 0.727943 (Simulation time: 0 hr 14 min 55 sec) 
Heartbeat CPU 0 instructions: 420000000 cycles: 488448147 heartbeat IPC: 0.713041 cumulative IPC: 0.727468 (Simulation time: 0 hr 15 min 20 sec) 
Heartbeat CPU 0 instructions: 430000003 cycles: 501776481 heartbeat IPC: 0.750282 cumulative IPC: 0.728139 (Simulation time: 0 hr 15 min 41 sec) 
Heartbeat CPU 0 instructions: 440000000 cycles: 515621259 heartbeat IPC: 0.722294 cumulative IPC: 0.727966 (Simulation time: 0 hr 16 min 6 sec) 
Heartbeat CPU 0 instructions: 450000000 cycles: 529434259 heartbeat IPC: 0.723956 cumulative IPC: 0.727851 (Simulation time: 0 hr 16 min 30 sec) 
Heartbeat CPU 0 instructions: 460000000 cycles: 543441002 heartbeat IPC: 0.713942 cumulative IPC: 0.727457 (Simulation time: 0 hr 16 min 54 sec) 
Heartbeat CPU 0 instructions: 470000001 cycles: 556714295 heartbeat IPC: 0.753393 cumulative IPC: 0.728134 (Simulation time: 0 hr 17 min 16 sec) 
Heartbeat CPU 0 instructions: 480000000 cycles: 570524795 heartbeat IPC: 0.724087 cumulative IPC: 0.728027 (Simulation time: 0 hr 17 min 40 sec) 
Heartbeat CPU 0 instructions: 490000002 cycles: 584309764 heartbeat IPC: 0.725428 cumulative IPC: 0.72796 (Simulation time: 0 hr 18 min 4 sec) 
Heartbeat CPU 0 instructions: 500000000 cycles: 598309265 heartbeat IPC: 0.714311 cumulative IPC: 0.727613 (Simulation time: 0 hr 18 min 28 sec) 
Heartbeat CPU 0 instructions: 510000002 cycles: 611608867 heartbeat IPC: 0.751902 cumulative IPC: 0.728187 (Simulation time: 0 hr 18 min 50 sec) 
Heartbeat CPU 0 instructions: 520000000 cycles: 625415034 heartbeat IPC: 0.724314 cumulative IPC: 0.728094 (Simulation time: 0 hr 19 min 14 sec) 
Heartbeat CPU 0 instructions: 530000003 cycles: 639188032 heartbeat IPC: 0.726059 cumulative IPC: 0.728046 (Simulation time: 0 hr 19 min 39 sec) 
Heartbeat CPU 0 instructions: 540000000 cycles: 653214798 heartbeat IPC: 0.712923 cumulative IPC: 0.727696 (Simulation time: 0 hr 20 min 3 sec) 
Heartbeat CPU 0 instructions: 550000003 cycles: 666515818 heartbeat IPC: 0.751822 cumulative IPC: 0.728215 (Simulation time: 0 hr 20 min 25 sec) 
Heartbeat CPU 0 instructions: 560000000 cycles: 680307535 heartbeat IPC: 0.725073 cumulative IPC: 0.728146 (Simulation time: 0 hr 20 min 49 sec) 
Heartbeat CPU 0 instructions: 570000001 cycles: 694110528 heartbeat IPC: 0.724481 cumulative IPC: 0.728068 (Simulation time: 0 hr 21 min 13 sec) 
Heartbeat CPU 0 instructions: 580000000 cycles: 708162916 heartbeat IPC: 0.711623 cumulative IPC: 0.727718 (Simulation time: 0 hr 21 min 37 sec) 
Heartbeat CPU 0 instructions: 590000000 cycles: 721387980 heartbeat IPC: 0.75614 cumulative IPC: 0.728276 (Simulation time: 0 hr 21 min 59 sec) 
Heartbeat CPU 0 instructions: 600000000 cycles: 735179614 heartbeat IPC: 0.725077 cumulative IPC: 0.728212 (Simulation time: 0 hr 22 min 23 sec) 
Finished CPU 0 instructions: 500000001 cycles: 686613259 cumulative IPC: 0.728212 (Simulation time: 0 hr 22 min 23 sec) 

CPU 0 Branch Prediction Accuracy: 97.5275% MPKI: 2.1997
Number of Branches: 44482865 Number of Mispredictions: 1099852
Number of LOAD Instructions: 144955155
Number of LOAD Instructions (ROI): 144955155
Number of STORE Instructions: 55921098
Number of STORE Instructions (ROI): 55921098
Total Destination Memory Operands: 57111147
Total Destination Memory Operands (ROI): 57111147
Total Source Memory Operands: 144955155
Total Source Memory Operands (ROI): 144955155
Number of DEPENDED LOADS: 13454766
Number of DEPENDED LOADS (ROI): 13454766
Number of SQ_ADDED: 57111126
Number of SQ_ADDED (ROI): 57111126
Number of LQ_ADDED: 175343595
Number of LQ_ADDED (ROI): 175343595
Number of Instructions read from trace: 600000256

ChampSim completed all CPUs

Region of Interest Statistics

CPU 0 cumulative IPC: 0.728212 instructions: 500000001 cycles: 686613259
ITLB TOTAL     ACCESS:  136066806  HIT:  136064253  MISS:       2553
ITLB LOAD      ACCESS:  136066806  HIT:  136064253  MISS:       2553
ITLB RFO       ACCESS:          0  HIT:          0  MISS:          0
ITLB PREFETCH  ACCESS:          0  HIT:          0  MISS:          0
ITLB WRITEBACK ACCESS:          0  HIT:          0  MISS:          0
ITLB PREFETCH  REQUESTED:          0  ISSUED:          0  USEFUL:          0  USELESS:          0
ITLB TOTAL MSHR MERGED:       4410
ITLB LOAD MSHR MERGED:       4410
ITLB RFO MSHR MERGED:          0
ITLB PREFETCH MSHR MERGED:          0
ITLB WRITEBACK MSHR MERGED:          0
ITLB TOTAL ACCESSES:  136071216 HITS:  136064253 MISSES:       6963
ITLB LOAD ACCESSES:  136071216 HITS:  136064253 MISSES:       6963
ITLB RFO ACCESSES:          0 HITS:          0 MISSES:          0
ITLB PREFETCH ACCESSES:          0 HITS:          0 MISSES:          0
ITLB WRITEBACK ACCESSES:          0 HITS:          0 MISSES:          0
ITLB RQ ACCESS:  500000202
ITLB RQ TO_CACHE:  136071216
ITLB RQ MERGED:  363928986
ITLB RQ FORWARD:          0
ITLB WQ ACCESS:          0
ITLB WQ TO_CACHE:          0
ITLB WQ MERGED:          0
ITLB WQ FORWARD:          0
DTLB TOTAL     ACCESS:  111533759  HIT:  111397569  MISS:     136190
DTLB LOAD      ACCESS:   78941159  HIT:   78815537  MISS:     125622
DTLB RFO       ACCESS:   32592600  HIT:   32582032  MISS:      10568
DTLB PREFETCH  ACCESS:          0  HIT:          0  MISS:          0
DTLB WRITEBACK ACCESS:          0  HIT:          0  MISS:          0
DTLB PREFETCH  REQUESTED:          0  ISSUED:          0  USEFUL:          0  USELESS:          0
DTLB TOTAL MSHR MERGED:      63730
DTLB LOAD MSHR MERGED:      51241
DTLB RFO MSHR MERGED:      12489
DTLB PREFETCH MSHR MERGED:          0
DTLB WRITEBACK MSHR MERGED:          0
DTLB TOTAL ACCESSES:  111597489 HITS:  111397569 MISSES:     199920
DTLB LOAD ACCESSES:   78992400 HITS:   78815537 MISSES:     176863
DTLB RFO ACCESSES:   32605089 HITS:   32582032 MISSES:      23057
DTLB PREFETCH ACCESSES:          0 HITS:          0 MISSES:          0
DTLB WRITEBACK ACCESSES:          0 HITS:          0 MISSES:          0
DTLB RQ ACCESS:  157180660
DTLB RQ TO_CACHE:  111597489
DTLB RQ MERGED:   45583171
DTLB RQ FORWARD:          0
DTLB WQ ACCESS:          0
DTLB WQ TO_CACHE:          0
DTLB WQ MERGED:          0
DTLB WQ FORWARD:          0
L1D TOTAL     ACCESS:  198096450  HIT:  188255551  MISS:    9840899
L1D LOAD      ACCESS:   79929307  HIT:   75653566  MISS:    4275741
L1D RFO       ACCESS:   44473889  HIT:   43573173  MISS:     900716
L1D PREFETCH  ACCESS:   73693254  HIT:   69028812  MISS:    4664442
L1D WRITEBACK ACCESS:          0  HIT:          0  MISS:          0
L1D PREFETCH  REQUESTED:   80335475  ISSUED:   79879593  USEFUL:    1806215  USELESS:    2858136
L1D TOTAL MSHR MERGED:    2618804
L1D LOAD MSHR MERGED:     542754
L1D RFO MSHR MERGED:    1478820
L1D PREFETCH MSHR MERGED:     597230
L1D WRITEBACK MSHR MERGED:          0
L1D TOTAL ACCESSES:  200736972 HITS:  188277269 MISSES:   12459703
L1D LOAD ACCESSES:   80348598 HITS:   75666689 MISSES:    4681909
L1D RFO ACCESSES:   45949614 HITS:   43573173 MISSES:    2376441
L1D PREFETCH ACCESSES:   74438760 HITS:   69037407 MISSES:    5401353
L1D WRITEBACK ACCESSES:          0 HITS:          0 MISSES:          0
L1D RQ ACCESS:  109538690
L1D RQ TO_CACHE:   80335475
L1D RQ MERGED:   29190092
L1D RQ FORWARD:          0
L1D WQ ACCESS:   47641970
L1D WQ TO_CACHE:   45949614
L1D WQ MERGED:    1692356
L1D WQ FORWARD:      21718
L1I TOTAL     ACCESS:  161539360  HIT:  161275391  MISS:     263969
L1I LOAD      ACCESS:  161539360  HIT:  161275391  MISS:     263969
L1I RFO       ACCESS:          0  HIT:          0  MISS:          0
L1I PREFETCH  ACCESS:          0  HIT:          0  MISS:          0
L1I WRITEBACK ACCESS:          0  HIT:          0  MISS:          0
L1I PREFETCH  REQUESTED:          0  ISSUED:          0  USEFUL:          0  USELESS:          0
L1I TOTAL MSHR MERGED:     259270
L1I LOAD MSHR MERGED:     259270
L1I RFO MSHR MERGED:          0
L1I PREFETCH MSHR MERGED:          0
L1I WRITEBACK MSHR MERGED:          0
L1I TOTAL ACCESSES:  161798630 HITS:  161275391 MISSES:     523239
L1I LOAD ACCESSES:  161798630 HITS:  161275391 MISSES:     523239
L1I RFO ACCESSES:          0 HITS:          0 MISSES:          0
L1I PREFETCH ACCESSES:          0 HITS:          0 MISSES:          0
L1I WRITEBACK ACCESSES:          0 HITS:          0 MISSES:          0
L1I RQ ACCESS:  500000202
L1I RQ TO_CACHE:  161798630
L1I RQ MERGED:  338201572
L1I RQ FORWARD:          0
L1I WQ ACCESS:          0
L1I WQ TO_CACHE:          0
L1I WQ MERGED:          0
L1I WQ FORWARD:          0
L2C TOTAL     ACCESS:   11771466  HIT:   10382203  MISS:    1389263
L2C LOAD      ACCESS:    4403060  HIT:    3906158  MISS:     496902
L2C RFO       ACCESS:     897553  HIT:     536458  MISS:     361095
L2C PREFETCH  ACCESS:    5283375  HIT:    4755049  MISS:     528326
L2C WRITEBACK ACCESS:    1187478  HIT:    1184538  MISS:       2940
L2C PREFETCH  REQUESTED:     504385  ISSUED:     504385  USEFUL:     115063  USELESS:     413457
L2C TOTAL MSHR MERGED:       2207
L2C LOAD MSHR MERGED:        433
L2C RFO MSHR MERGED:          0
L2C PREFETCH MSHR MERGED:       1774
L2C WRITEBACK MSHR MERGED:          0
L2C TOTAL ACCESSES:   11776185 HITS:   10382419 MISSES:    1393766
L2C LOAD ACCESSES:    4403124 HITS:    3906222 MISSES:     496902
L2C RFO ACCESSES:     897621 HITS:     536526 MISSES:     361095
L2C PREFETCH ACCESSES:    5287962 HITS:    4755133 MISSES:     532829
L2C WRITEBACK ACCESSES:    1187478 HITS:    1184538 MISSES:       2940
L2C RQ ACCESS:    5300745
L2C RQ TO_CACHE:    5300613
L2C RQ MERGED:          0
L2C RQ FORWARD:          0
L2C WQ ACCESS:    1187478
L2C WQ TO_CACHE:    1187478
L2C WQ MERGED:          0
L2C WQ FORWARD:        216
LLC TOTAL     ACCESS:    1849240  HIT:    1017516  MISS:     831724
LLC LOAD      ACCESS:     496467  HIT:     326470  MISS:     169997
LLC RFO       ACCESS:     361094  HIT:     145545  MISS:     215549
LLC PREFETCH  ACCESS:     530963  HIT:     286289  MISS:     244674
LLC WRITEBACK ACCESS:     460716  HIT:     259212  MISS:     201504
LLC PREFETCH  REQUESTED:          0  ISSUED:          0  USEFUL:       3944  USELESS:     240860
LLC TOTAL MSHR MERGED:         65
LLC LOAD MSHR MERGED:         19
LLC RFO MSHR MERGED:          0
LLC PREFETCH MSHR MERGED:         46
LLC WRITEBACK MSHR MERGED:          0
LLC TOTAL ACCESSES:    1849324 HITS:    1017535 MISSES:     831789
LLC LOAD ACCESSES:     496469 HITS:     326472 MISSES:     169997
LLC RFO ACCESSES:     361095 HITS:     145546 MISSES:     215549
LLC PREFETCH ACCESSES:     531044 HITS:     286305 MISSES:     244739
LLC WRITEBACK ACCESSES:     460716 HITS:     259212 MISSES:     201504
LLC 0 RQ ACCESS:     857564
LLC 0 RQ TO_CACHE:     857561
LLC 0 RQ MERGED:          0
LLC 0 RQ FORWARD:          0
LLC WQ ACCESS:     460716
LLC WQ TO_CACHE:     460716
LLC WQ MERGED:          0
LLC WQ FORWARD:         19
Major fault: 0 Minor fault: 3073
CPU 0 L1D next line prefetcher final stats
CPU 0 L2C PC-based stride prefetcher final stats
All Misses: 1009632
All Hits: 1166304
SD Algo Stats - Switches: 0 SRR-Repls: 210124 BRR-Repls: 0

DRAM Statistics
 CHANNEL 0
 RQ ROW_BUFFER_HIT:     370543  ROW_BUFFER_MISS:     259037
 DBUS_CONGESTED:     511334
 WQ ROW_BUFFER_HIT:      56641  ROW_BUFFER_MISS:     179325  FULL:         95

 AVG_CONGESTED_CYCLE: 13
LOADS RETIRED: 120673965
INSTR RETIRED: 500000000
