
*** ChampSim Multicore Out-of-Order Simulator ***

Warmup Instructions: 100000000
Simulation Instructions: 500000000
Number of CPUs: 1
LLC sets: 2048
LLC ways: 16
Clean RRIP Policies: 2213230222132302 Dirty RRIP Policies: 1203130212031302 PSEL Width: 10 Track Set: 4294967295 PSEL Mask: 1 Demote Mask: 1040000010400000DS Algo: 0Window size: 0
Off-chip DRAM Size: 4096 MB Channels: 1 Width: 64-bit Data Rate: 1600 MT/s

CPU 0 runs /mnt/beegfs/iconst01/spec2017/Parest.trace.gz
NOT SORTED
TRACE STRING: /mnt/beegfs/iconst01/spec2017/Parest.trace.gz
SORTED
TRACE STRING: /mnt/beegfs/iconst01/spec2017/Parest.trace.gz
INITIAL
TRACE STRING: /mnt/beegfs/iconst01/spec2017/Parest.trace.gz

champsim_seed used: 623

CPU 0 L1D next line prefetcher
CPU 0 L2C IP-based stride prefetcher
Initialize DRRIP state
Assign rand_sets[0]: 454  LLC: 2048
rand_sets[0]: 454
Assign rand_sets[1]: 1662  LLC: 2048
rand_sets[1]: 1662
Assign rand_sets[2]: 1921  LLC: 2048
rand_sets[2]: 1921
Assign rand_sets[3]: 1131  LLC: 2048
rand_sets[3]: 1131
Assign rand_sets[4]: 331  LLC: 2048
rand_sets[4]: 331
Assign rand_sets[5]: 1531  LLC: 2048
rand_sets[5]: 1531
Assign rand_sets[6]: 482  LLC: 2048
rand_sets[6]: 482
Assign rand_sets[7]: 1275  LLC: 2048
rand_sets[7]: 1275
Assign rand_sets[8]: 1876  LLC: 2048
rand_sets[8]: 1876
Assign rand_sets[9]: 2038  LLC: 2048
rand_sets[9]: 2038
Assign rand_sets[10]: 701  LLC: 2048
rand_sets[10]: 701
Assign rand_sets[11]: 479  LLC: 2048
rand_sets[11]: 479
Assign rand_sets[12]: 892  LLC: 2048
rand_sets[12]: 892
Assign rand_sets[13]: 1820  LLC: 2048
rand_sets[13]: 1820
Assign rand_sets[14]: 1505  LLC: 2048
rand_sets[14]: 1505
Assign rand_sets[15]: 1159  LLC: 2048
rand_sets[15]: 1159
Assign rand_sets[16]: 513  LLC: 2048
rand_sets[16]: 513
Assign rand_sets[17]: 703  LLC: 2048
rand_sets[17]: 703
Assign rand_sets[18]: 561  LLC: 2048
rand_sets[18]: 561
Assign rand_sets[19]: 990  LLC: 2048
rand_sets[19]: 990
Assign rand_sets[20]: 342  LLC: 2048
rand_sets[20]: 342
Assign rand_sets[21]: 882  LLC: 2048
rand_sets[21]: 882
Assign rand_sets[22]: 15  LLC: 2048
rand_sets[22]: 15
Assign rand_sets[23]: 71  LLC: 2048
rand_sets[23]: 71
Assign rand_sets[24]: 1127  LLC: 2048
rand_sets[24]: 1127
Assign rand_sets[25]: 1382  LLC: 2048
rand_sets[25]: 1382
Assign rand_sets[26]: 647  LLC: 2048
rand_sets[26]: 647
Assign rand_sets[27]: 857  LLC: 2048
rand_sets[27]: 857
Assign rand_sets[28]: 1450  LLC: 2048
rand_sets[28]: 1450
Assign rand_sets[29]: 1160  LLC: 2048
rand_sets[29]: 1160
Assign rand_sets[30]: 1852  LLC: 2048
rand_sets[30]: 1852
Assign rand_sets[31]: 1881  LLC: 2048
rand_sets[31]: 1881
Assign rand_sets[32]: 1770  LLC: 2048
rand_sets[32]: 1770
Assign rand_sets[33]: 1622  LLC: 2048
rand_sets[33]: 1622
Assign rand_sets[34]: 275  LLC: 2048
rand_sets[34]: 275
Assign rand_sets[35]: 635  LLC: 2048
rand_sets[35]: 635
Assign rand_sets[36]: 466  LLC: 2048
rand_sets[36]: 466
Assign rand_sets[37]: 1413  LLC: 2048
rand_sets[37]: 1413
Assign rand_sets[38]: 417  LLC: 2048
rand_sets[38]: 417
Assign rand_sets[39]: 472  LLC: 2048
rand_sets[39]: 472
Assign rand_sets[40]: 1340  LLC: 2048
rand_sets[40]: 1340
Assign rand_sets[41]: 852  LLC: 2048
rand_sets[41]: 852
Assign rand_sets[42]: 1365  LLC: 2048
rand_sets[42]: 1365
Assign rand_sets[43]: 47  LLC: 2048
rand_sets[43]: 47
Assign rand_sets[44]: 823  LLC: 2048
rand_sets[44]: 823
Assign rand_sets[45]: 686  LLC: 2048
rand_sets[45]: 686
Assign rand_sets[46]: 1637  LLC: 2048
rand_sets[46]: 1637
Assign rand_sets[47]: 1115  LLC: 2048
rand_sets[47]: 1115
Assign rand_sets[48]: 986  LLC: 2048
rand_sets[48]: 986
Assign rand_sets[49]: 258  LLC: 2048
rand_sets[49]: 258
Assign rand_sets[50]: 633  LLC: 2048
rand_sets[50]: 633
Assign rand_sets[51]: 920  LLC: 2048
rand_sets[51]: 920
Assign rand_sets[52]: 204  LLC: 2048
rand_sets[52]: 204
Assign rand_sets[53]: 227  LLC: 2048
rand_sets[53]: 227
Assign rand_sets[54]: 1818  LLC: 2048
rand_sets[54]: 1818
Assign rand_sets[55]: 886  LLC: 2048
rand_sets[55]: 886
Assign rand_sets[56]: 1422  LLC: 2048
rand_sets[56]: 1422
Assign rand_sets[57]: 607  LLC: 2048
rand_sets[57]: 607
Assign rand_sets[58]: 217  LLC: 2048
rand_sets[58]: 217
Assign rand_sets[59]: 1945  LLC: 2048
rand_sets[59]: 1945
Assign rand_sets[60]: 143  LLC: 2048
rand_sets[60]: 143
Assign rand_sets[61]: 1311  LLC: 2048
rand_sets[61]: 1311
Assign rand_sets[62]: 319  LLC: 2048
rand_sets[62]: 319
Assign rand_sets[63]: 1846  LLC: 2048
rand_sets[63]: 1846
 CLEAN-RRIP-POLICY-1: 2-2-1-3-2-3-0-2- CLEAN-RRIP-POLICY-2: 2-2-1-3-2-3-0-2-
 DIRTY-RRIP-POLICY-1: 1-2-0-3-1-3-0-2- DIRTY-RRIP-POLICY-2: 1-2-0-3-1-3-0-2-
 PSEL width: 10
Heartbeat CPU 0 instructions: 10000001 cycles: 4387143 heartbeat IPC: 2.27939 cumulative IPC: 2.27939 (Simulation time: 0 hr 0 min 15 sec) 
Heartbeat CPU 0 instructions: 20000000 cycles: 8781328 heartbeat IPC: 2.27573 cumulative IPC: 2.27756 (Simulation time: 0 hr 0 min 29 sec) 
Heartbeat CPU 0 instructions: 30000003 cycles: 13213265 heartbeat IPC: 2.25635 cumulative IPC: 2.27045 (Simulation time: 0 hr 0 min 43 sec) 
Heartbeat CPU 0 instructions: 40000000 cycles: 17643899 heartbeat IPC: 2.25701 cumulative IPC: 2.26707 (Simulation time: 0 hr 0 min 57 sec) 
Heartbeat CPU 0 instructions: 50000000 cycles: 22052169 heartbeat IPC: 2.26846 cumulative IPC: 2.26735 (Simulation time: 0 hr 1 min 10 sec) 
Heartbeat CPU 0 instructions: 60000000 cycles: 26457915 heartbeat IPC: 2.26976 cumulative IPC: 2.26775 (Simulation time: 0 hr 1 min 24 sec) 
Heartbeat CPU 0 instructions: 70000000 cycles: 30858836 heartbeat IPC: 2.27225 cumulative IPC: 2.26839 (Simulation time: 0 hr 1 min 38 sec) 
Heartbeat CPU 0 instructions: 80000000 cycles: 35254444 heartbeat IPC: 2.275 cumulative IPC: 2.26922 (Simulation time: 0 hr 1 min 52 sec) 
Heartbeat CPU 0 instructions: 90000000 cycles: 39648733 heartbeat IPC: 2.27568 cumulative IPC: 2.26993 (Simulation time: 0 hr 2 min 6 sec) 
Heartbeat CPU 0 instructions: 100000000 cycles: 44046076 heartbeat IPC: 2.2741 cumulative IPC: 2.27035 (Simulation time: 0 hr 2 min 21 sec) 

Warmup complete CPU 0 instructions: 100000002 cycles: 44046086 (Simulation time: 0 hr 2 min 21 sec) 

Heartbeat CPU 0 instructions: 110000000 cycles: 53997376 heartbeat IPC: 1.00489 cumulative IPC: 1.00489 (Simulation time: 0 hr 2 min 39 sec) 
Heartbeat CPU 0 instructions: 120000000 cycles: 62965495 heartbeat IPC: 1.11506 cumulative IPC: 1.05712 (Simulation time: 0 hr 2 min 57 sec) 
Heartbeat CPU 0 instructions: 130000000 cycles: 71973486 heartbeat IPC: 1.11013 cumulative IPC: 1.07421 (Simulation time: 0 hr 3 min 14 sec) 
Heartbeat CPU 0 instructions: 140000000 cycles: 81120697 heartbeat IPC: 1.09323 cumulative IPC: 1.07891 (Simulation time: 0 hr 3 min 32 sec) 
Heartbeat CPU 0 instructions: 150000000 cycles: 92210534 heartbeat IPC: 0.901726 cumulative IPC: 1.03811 (Simulation time: 0 hr 3 min 50 sec) 
Heartbeat CPU 0 instructions: 160000000 cycles: 102280623 heartbeat IPC: 0.99304 cumulative IPC: 1.03032 (Simulation time: 0 hr 4 min 8 sec) 
Heartbeat CPU 0 instructions: 170000000 cycles: 112106901 heartbeat IPC: 1.01768 cumulative IPC: 1.02849 (Simulation time: 0 hr 4 min 26 sec) 
Heartbeat CPU 0 instructions: 180000000 cycles: 121763997 heartbeat IPC: 1.03551 cumulative IPC: 1.02936 (Simulation time: 0 hr 4 min 43 sec) 
Heartbeat CPU 0 instructions: 190000002 cycles: 131550193 heartbeat IPC: 1.02185 cumulative IPC: 1.02852 (Simulation time: 0 hr 5 min 1 sec) 
Heartbeat CPU 0 instructions: 200000000 cycles: 140773270 heartbeat IPC: 1.08424 cumulative IPC: 1.03384 (Simulation time: 0 hr 5 min 19 sec) 
Heartbeat CPU 0 instructions: 210000000 cycles: 150391636 heartbeat IPC: 1.03968 cumulative IPC: 1.03436 (Simulation time: 0 hr 5 min 36 sec) 
Heartbeat CPU 0 instructions: 220000000 cycles: 159304472 heartbeat IPC: 1.12198 cumulative IPC: 1.04114 (Simulation time: 0 hr 5 min 54 sec) 
Heartbeat CPU 0 instructions: 230000001 cycles: 171440349 heartbeat IPC: 0.824003 cumulative IPC: 1.02045 (Simulation time: 0 hr 6 min 14 sec) 
Heartbeat CPU 0 instructions: 240000000 cycles: 181905491 heartbeat IPC: 0.955553 cumulative IPC: 1.01553 (Simulation time: 0 hr 6 min 32 sec) 
Heartbeat CPU 0 instructions: 250000002 cycles: 191754499 heartbeat IPC: 1.01533 cumulative IPC: 1.01551 (Simulation time: 0 hr 6 min 49 sec) 
Heartbeat CPU 0 instructions: 260000000 cycles: 201323482 heartbeat IPC: 1.04504 cumulative IPC: 1.01731 (Simulation time: 0 hr 7 min 7 sec) 
Heartbeat CPU 0 instructions: 270000001 cycles: 210716207 heartbeat IPC: 1.06465 cumulative IPC: 1.01998 (Simulation time: 0 hr 7 min 24 sec) 
Heartbeat CPU 0 instructions: 280000000 cycles: 220405929 heartbeat IPC: 1.03202 cumulative IPC: 1.02064 (Simulation time: 0 hr 7 min 42 sec) 
Heartbeat CPU 0 instructions: 290000002 cycles: 229453289 heartbeat IPC: 1.1053 cumulative IPC: 1.02477 (Simulation time: 0 hr 8 min 0 sec) 
Heartbeat CPU 0 instructions: 300000000 cycles: 238981158 heartbeat IPC: 1.04955 cumulative IPC: 1.02598 (Simulation time: 0 hr 8 min 17 sec) 
Heartbeat CPU 0 instructions: 310000000 cycles: 247953335 heartbeat IPC: 1.11456 cumulative IPC: 1.02988 (Simulation time: 0 hr 8 min 35 sec) 
Heartbeat CPU 0 instructions: 320000000 cycles: 257040595 heartbeat IPC: 1.10044 cumulative IPC: 1.03289 (Simulation time: 0 hr 8 min 53 sec) 
Heartbeat CPU 0 instructions: 330000003 cycles: 266309191 heartbeat IPC: 1.07891 cumulative IPC: 1.03481 (Simulation time: 0 hr 9 min 10 sec) 
Heartbeat CPU 0 instructions: 340000000 cycles: 276225110 heartbeat IPC: 1.00848 cumulative IPC: 1.03369 (Simulation time: 0 hr 9 min 28 sec) 
Heartbeat CPU 0 instructions: 350000000 cycles: 286565242 heartbeat IPC: 0.967106 cumulative IPC: 1.03085 (Simulation time: 0 hr 9 min 46 sec) 
Heartbeat CPU 0 instructions: 360000000 cycles: 296341479 heartbeat IPC: 1.02289 cumulative IPC: 1.03054 (Simulation time: 0 hr 10 min 4 sec) 
Heartbeat CPU 0 instructions: 370000000 cycles: 305842920 heartbeat IPC: 1.05247 cumulative IPC: 1.03133 (Simulation time: 0 hr 10 min 21 sec) 
Heartbeat CPU 0 instructions: 380000000 cycles: 315165727 heartbeat IPC: 1.07264 cumulative IPC: 1.03275 (Simulation time: 0 hr 10 min 39 sec) 
Heartbeat CPU 0 instructions: 390000002 cycles: 324257570 heartbeat IPC: 1.09989 cumulative IPC: 1.03493 (Simulation time: 0 hr 10 min 56 sec) 
Heartbeat CPU 0 instructions: 400000000 cycles: 333772065 heartbeat IPC: 1.05103 cumulative IPC: 1.03546 (Simulation time: 0 hr 11 min 14 sec) 
Heartbeat CPU 0 instructions: 410000000 cycles: 342646652 heartbeat IPC: 1.12681 cumulative IPC: 1.03818 (Simulation time: 0 hr 11 min 31 sec) 
Heartbeat CPU 0 instructions: 420000000 cycles: 353445862 heartbeat IPC: 0.925994 cumulative IPC: 1.03426 (Simulation time: 0 hr 11 min 50 sec) 
Heartbeat CPU 0 instructions: 430000000 cycles: 364302094 heartbeat IPC: 0.92113 cumulative IPC: 1.03043 (Simulation time: 0 hr 12 min 8 sec) 
Heartbeat CPU 0 instructions: 440000000 cycles: 374181934 heartbeat IPC: 1.01216 cumulative IPC: 1.02988 (Simulation time: 0 hr 12 min 25 sec) 
Heartbeat CPU 0 instructions: 450000000 cycles: 383949331 heartbeat IPC: 1.02381 cumulative IPC: 1.0297 (Simulation time: 0 hr 12 min 43 sec) 
Heartbeat CPU 0 instructions: 460000000 cycles: 393655927 heartbeat IPC: 1.03023 cumulative IPC: 1.02972 (Simulation time: 0 hr 13 min 0 sec) 
Heartbeat CPU 0 instructions: 470000001 cycles: 403410065 heartbeat IPC: 1.02521 cumulative IPC: 1.0296 (Simulation time: 0 hr 13 min 18 sec) 
Heartbeat CPU 0 instructions: 480000000 cycles: 412582255 heartbeat IPC: 1.09025 cumulative IPC: 1.03111 (Simulation time: 0 hr 13 min 35 sec) 
Heartbeat CPU 0 instructions: 490000002 cycles: 422256619 heartbeat IPC: 1.03366 cumulative IPC: 1.03117 (Simulation time: 0 hr 13 min 53 sec) 
Heartbeat CPU 0 instructions: 500000000 cycles: 431503656 heartbeat IPC: 1.08143 cumulative IPC: 1.03237 (Simulation time: 0 hr 14 min 10 sec) 
Heartbeat CPU 0 instructions: 510000000 cycles: 440541864 heartbeat IPC: 1.10641 cumulative IPC: 1.03406 (Simulation time: 0 hr 14 min 28 sec) 
Heartbeat CPU 0 instructions: 520000000 cycles: 449888351 heartbeat IPC: 1.06992 cumulative IPC: 1.03488 (Simulation time: 0 hr 14 min 45 sec) 
Heartbeat CPU 0 instructions: 530000001 cycles: 460027432 heartbeat IPC: 0.986283 cumulative IPC: 1.0337 (Simulation time: 0 hr 15 min 3 sec) 
Heartbeat CPU 0 instructions: 540000000 cycles: 470545732 heartbeat IPC: 0.950724 cumulative IPC: 1.03165 (Simulation time: 0 hr 15 min 21 sec) 
Heartbeat CPU 0 instructions: 550000003 cycles: 480513950 heartbeat IPC: 1.00319 cumulative IPC: 1.031 (Simulation time: 0 hr 15 min 38 sec) 
Heartbeat CPU 0 instructions: 560000000 cycles: 490215624 heartbeat IPC: 1.03075 cumulative IPC: 1.031 (Simulation time: 0 hr 15 min 55 sec) 
Heartbeat CPU 0 instructions: 570000002 cycles: 499717172 heartbeat IPC: 1.05246 cumulative IPC: 1.03145 (Simulation time: 0 hr 16 min 13 sec) 
Heartbeat CPU 0 instructions: 580000000 cycles: 508995481 heartbeat IPC: 1.07778 cumulative IPC: 1.03237 (Simulation time: 0 hr 16 min 30 sec) 
Heartbeat CPU 0 instructions: 590000002 cycles: 518620462 heartbeat IPC: 1.03896 cumulative IPC: 1.0325 (Simulation time: 0 hr 16 min 47 sec) 
Heartbeat CPU 0 instructions: 600000000 cycles: 527785645 heartbeat IPC: 1.09109 cumulative IPC: 1.03361 (Simulation time: 0 hr 17 min 5 sec) 
Finished CPU 0 instructions: 500000000 cycles: 483739573 cumulative IPC: 1.03361 (Simulation time: 0 hr 17 min 5 sec) 

CPU 0 Branch Prediction Accuracy: 97.8526% MPKI: 2.66709
Number of Branches: 62099103 Number of Mispredictions: 1333545
Number of LOAD Instructions: 210576465
Number of LOAD Instructions (ROI): 210576465
Number of STORE Instructions: 16915507
Number of STORE Instructions (ROI): 16915507
Total Destination Memory Operands: 16918869
Total Destination Memory Operands (ROI): 16918869
Total Source Memory Operands: 210576465
Total Source Memory Operands (ROI): 210576465
Number of DEPENDED LOADS: 345129
Number of DEPENDED LOADS (ROI): 345129
Number of SQ_ADDED: 16918826
Number of SQ_ADDED (ROI): 16918826
Number of LQ_ADDED: 210614135
Number of LQ_ADDED (ROI): 210614135
Number of Instructions read from trace: 600000257

ChampSim completed all CPUs

Region of Interest Statistics

CPU 0 cumulative IPC: 1.03361 instructions: 500000000 cycles: 483739573
ITLB TOTAL     ACCESS:   76361603  HIT:   76361565  MISS:         38
ITLB LOAD      ACCESS:   76361603  HIT:   76361565  MISS:         38
ITLB RFO       ACCESS:          0  HIT:          0  MISS:          0
ITLB PREFETCH  ACCESS:          0  HIT:          0  MISS:          0
ITLB WRITEBACK ACCESS:          0  HIT:          0  MISS:          0
ITLB PREFETCH  REQUESTED:          0  ISSUED:          0  USEFUL:          0  USELESS:          0
ITLB TOTAL MSHR MERGED:         37
ITLB LOAD MSHR MERGED:         37
ITLB RFO MSHR MERGED:          0
ITLB PREFETCH MSHR MERGED:          0
ITLB WRITEBACK MSHR MERGED:          0
ITLB TOTAL ACCESSES:   76361640 HITS:   76361565 MISSES:         75
ITLB LOAD ACCESSES:   76361640 HITS:   76361565 MISSES:         75
ITLB RFO ACCESSES:          0 HITS:          0 MISSES:          0
ITLB PREFETCH ACCESSES:          0 HITS:          0 MISSES:          0
ITLB WRITEBACK ACCESSES:          0 HITS:          0 MISSES:          0
ITLB RQ ACCESS:  500000188
ITLB RQ TO_CACHE:   76361641
ITLB RQ MERGED:  423638547
ITLB RQ FORWARD:          0
ITLB WQ ACCESS:          0
ITLB WQ TO_CACHE:          0
ITLB WQ MERGED:          0
ITLB WQ FORWARD:          0
DTLB TOTAL     ACCESS:  136722521  HIT:  136519727  MISS:     202794
DTLB LOAD      ACCESS:  128660508  HIT:  128460435  MISS:     200073
DTLB RFO       ACCESS:    8062013  HIT:    8059292  MISS:       2721
DTLB PREFETCH  ACCESS:          0  HIT:          0  MISS:          0
DTLB WRITEBACK ACCESS:          0  HIT:          0  MISS:          0
DTLB PREFETCH  REQUESTED:          0  ISSUED:          0  USEFUL:          0  USELESS:          0
DTLB TOTAL MSHR MERGED:     448735
DTLB LOAD MSHR MERGED:     445015
DTLB RFO MSHR MERGED:       3720
DTLB PREFETCH MSHR MERGED:          0
DTLB WRITEBACK MSHR MERGED:          0
DTLB TOTAL ACCESSES:  137171256 HITS:  136519727 MISSES:     651529
DTLB LOAD ACCESSES:  129105523 HITS:  128460435 MISSES:     645088
DTLB RFO ACCESSES:    8065733 HITS:    8059292 MISSES:       6441
DTLB PREFETCH ACCESSES:          0 HITS:          0 MISSES:          0
DTLB WRITEBACK ACCESSES:          0 HITS:          0 MISSES:          0
DTLB RQ ACCESS:  189419433
DTLB RQ TO_CACHE:  137171256
DTLB RQ MERGED:   52248177
DTLB RQ FORWARD:          0
DTLB WQ ACCESS:          0
DTLB WQ TO_CACHE:          0
DTLB WQ MERGED:          0
DTLB WQ FORWARD:          0
L1D TOTAL     ACCESS:  125180450  HIT:  107623357  MISS:   17557093
L1D LOAD      ACCESS:   72279101  HIT:   62001606  MISS:   10277495
L1D RFO       ACCESS:   14013668  HIT:   13860832  MISS:     152836
L1D PREFETCH  ACCESS:   38887681  HIT:   31760919  MISS:    7126762
L1D WRITEBACK ACCESS:          0  HIT:          0  MISS:          0
L1D PREFETCH  REQUESTED:   85477187  ISSUED:   84156283  USEFUL:    5867282  USELESS:    1259491
L1D TOTAL MSHR MERGED:   31645879
L1D LOAD MSHR MERGED:   18363402
L1D RFO MSHR MERGED:     266819
L1D PREFETCH MSHR MERGED:   13015658
L1D WRITEBACK MSHR MERGED:          0
L1D TOTAL ACCESSES:  156826831 HITS:  107623860 MISSES:   49202971
L1D LOAD ACCESSES:   85477194 HITS:   62001613 MISSES:   23475581
L1D RFO ACCESSES:   14280462 HITS:   13860832 MISSES:     419630
L1D PREFETCH ACCESSES:   57069175 HITS:   31761415 MISSES:   25307760
L1D WRITEBACK ACCESSES:          0 HITS:          0 MISSES:          0
L1D RQ ACCESS:  175130411
L1D RQ TO_CACHE:   85477187
L1D RQ MERGED:   89653217
L1D RQ FORWARD:          0
L1D WQ ACCESS:   14289037
L1D WQ TO_CACHE:   14280462
L1D WQ MERGED:       8575
L1D WQ FORWARD:        503
L1I TOTAL     ACCESS:   93389972  HIT:   93388176  MISS:       1796
L1I LOAD      ACCESS:   93389972  HIT:   93388176  MISS:       1796
L1I RFO       ACCESS:          0  HIT:          0  MISS:          0
L1I PREFETCH  ACCESS:          0  HIT:          0  MISS:          0
L1I WRITEBACK ACCESS:          0  HIT:          0  MISS:          0
L1I PREFETCH  REQUESTED:          0  ISSUED:          0  USEFUL:          0  USELESS:          0
L1I TOTAL MSHR MERGED:       2339
L1I LOAD MSHR MERGED:       2339
L1I RFO MSHR MERGED:          0
L1I PREFETCH MSHR MERGED:          0
L1I WRITEBACK MSHR MERGED:          0
L1I TOTAL ACCESSES:   93392311 HITS:   93388176 MISSES:       4135
L1I LOAD ACCESSES:   93392311 HITS:   93388176 MISSES:       4135
L1I RFO ACCESSES:          0 HITS:          0 MISSES:          0
L1I PREFETCH ACCESSES:          0 HITS:          0 MISSES:          0
L1I WRITEBACK ACCESSES:          0 HITS:          0 MISSES:          0
L1I RQ ACCESS:  500000187
L1I RQ TO_CACHE:   93392311
L1I RQ MERGED:  406607876
L1I RQ FORWARD:          0
L1I WQ ACCESS:          0
L1I WQ TO_CACHE:          0
L1I WQ MERGED:          0
L1I WQ FORWARD:          0
L2C TOTAL     ACCESS:   20902275  HIT:    8673112  MISS:   12229163
L2C LOAD      ACCESS:    5113952  HIT:    2145254  MISS:    2968698
L2C RFO       ACCESS:     152811  HIT:       6518  MISS:     146293
L2C PREFETCH  ACCESS:   13862759  HIT:    4748697  MISS:    9114062
L2C WRITEBACK ACCESS:    1772753  HIT:    1772643  MISS:        110
L2C PREFETCH  REQUESTED:    1814204  ISSUED:    1814204  USEFUL:    1065598  USELESS:    8050132
L2C TOTAL MSHR MERGED:      98386
L2C LOAD MSHR MERGED:      22792
L2C RFO MSHR MERGED:          0
L2C PREFETCH MSHR MERGED:      75594
L2C WRITEBACK MSHR MERGED:          0
L2C TOTAL ACCESSES:   21024867 HITS:    8673146 MISSES:   12351721
L2C LOAD ACCESSES:    5113975 HITS:    2145277 MISSES:    2968698
L2C RFO ACCESSES:     152811 HITS:       6518 MISSES:     146293
L2C PREFETCH ACCESSES:   13985328 HITS:    4748708 MISSES:    9236620
L2C WRITEBACK ACCESSES:    1772753 HITS:    1772643 MISSES:        110
L2C RQ ACCESS:    5266786
L2C RQ TO_CACHE:    5266763
L2C RQ MERGED:          0
L2C RQ FORWARD:          0
L2C WQ ACCESS:    1772753
L2C WQ TO_CACHE:    1772753
L2C WQ MERGED:          0
L2C WQ FORWARD:         34
LLC TOTAL     ACCESS:   12533856  HIT:    6809003  MISS:    5724853
LLC LOAD      ACCESS:    2945891  HIT:    2476185  MISS:     469706
LLC RFO       ACCESS:     146293  HIT:      82068  MISS:      64225
LLC PREFETCH  ACCESS:    9155693  HIT:    4012258  MISS:    5143435
LLC WRITEBACK ACCESS:     285979  HIT:     238492  MISS:      47487
LLC PREFETCH  REQUESTED:          0  ISSUED:          0  USEFUL:       6545  USELESS:    5136855
LLC TOTAL MSHR MERGED:        884
LLC LOAD MSHR MERGED:        165
LLC RFO MSHR MERGED:          0
LLC PREFETCH MSHR MERGED:        719
LLC WRITEBACK MSHR MERGED:          0
LLC TOTAL ACCESSES:   12534766 HITS:    6809029 MISSES:    5725737
LLC LOAD ACCESSES:    2945906 HITS:    2476200 MISSES:     469706
LLC RFO ACCESSES:     146293 HITS:      82068 MISSES:      64225
LLC PREFETCH ACCESSES:    9156588 HITS:    4012269 MISSES:    5144319
LLC WRITEBACK ACCESSES:     285979 HITS:     238492 MISSES:      47487
LLC 0 RQ ACCESS:    3092199
LLC 0 RQ TO_CACHE:    3092184
LLC 0 RQ MERGED:          0
LLC 0 RQ FORWARD:          0
LLC WQ ACCESS:     285979
LLC WQ TO_CACHE:     285979
LLC WQ MERGED:          0
LLC WQ FORWARD:         26
Major fault: 0 Minor fault: 6524
CPU 0 L1D next line prefetcher final stats
CPU 0 L2C PC-based stride prefetcher final stats
All Misses: 7523869
All Hits: 7535001
SD Algo Stats - Switches: 0 SRR-Repls: 499963 BRR-Repls: 0

DRAM Statistics
 CHANNEL 0
 RQ ROW_BUFFER_HIT:    4886518  ROW_BUFFER_MISS:     784053
 DBUS_CONGESTED:    2060156
 WQ ROW_BUFFER_HIT:      13592  ROW_BUFFER_MISS:      66456  FULL:          0

 AVG_CONGESTED_CYCLE: 12
LOADS RETIRED: 175418235
INSTR RETIRED: 500000000
