
*** ChampSim Multicore Out-of-Order Simulator ***

Warmup Instructions: 100000000
Simulation Instructions: 500000000
Number of CPUs: 1
LLC sets: 2048
LLC ways: 16
Clean RRIP Policies: 1222102312221023 Dirty RRIP Policies: 212200302122003 PSEL Width: 10 Track Set: 4294967295 PSEL Mask: 1 Demote Mask: 2231143122311431DS Algo: 0Window size: 0
Off-chip DRAM Size: 4096 MB Channels: 1 Width: 64-bit Data Rate: 1600 MT/s

CPU 0 runs /mnt/beegfs/iconst01/spec2017/Gcc.trace.gz
NOT SORTED
TRACE STRING: /mnt/beegfs/iconst01/spec2017/Gcc.trace.gz
SORTED
TRACE STRING: /mnt/beegfs/iconst01/spec2017/Gcc.trace.gz
INITIAL
TRACE STRING: /mnt/beegfs/iconst01/spec2017/Gcc.trace.gz

champsim_seed used: 269

CPU 0 L1D next line prefetcher
CPU 0 L2C IP-based stride prefetcher
Initialize DRRIP state
Assign rand_sets[0]: 454  LLC: 2048
rand_sets[0]: 454
Assign rand_sets[1]: 1662  LLC: 2048
rand_sets[1]: 1662
Assign rand_sets[2]: 1921  LLC: 2048
rand_sets[2]: 1921
Assign rand_sets[3]: 1131  LLC: 2048
rand_sets[3]: 1131
Assign rand_sets[4]: 331  LLC: 2048
rand_sets[4]: 331
Assign rand_sets[5]: 1531  LLC: 2048
rand_sets[5]: 1531
Assign rand_sets[6]: 482  LLC: 2048
rand_sets[6]: 482
Assign rand_sets[7]: 1275  LLC: 2048
rand_sets[7]: 1275
Assign rand_sets[8]: 1876  LLC: 2048
rand_sets[8]: 1876
Assign rand_sets[9]: 2038  LLC: 2048
rand_sets[9]: 2038
Assign rand_sets[10]: 701  LLC: 2048
rand_sets[10]: 701
Assign rand_sets[11]: 479  LLC: 2048
rand_sets[11]: 479
Assign rand_sets[12]: 892  LLC: 2048
rand_sets[12]: 892
Assign rand_sets[13]: 1820  LLC: 2048
rand_sets[13]: 1820
Assign rand_sets[14]: 1505  LLC: 2048
rand_sets[14]: 1505
Assign rand_sets[15]: 1159  LLC: 2048
rand_sets[15]: 1159
Assign rand_sets[16]: 513  LLC: 2048
rand_sets[16]: 513
Assign rand_sets[17]: 703  LLC: 2048
rand_sets[17]: 703
Assign rand_sets[18]: 561  LLC: 2048
rand_sets[18]: 561
Assign rand_sets[19]: 990  LLC: 2048
rand_sets[19]: 990
Assign rand_sets[20]: 342  LLC: 2048
rand_sets[20]: 342
Assign rand_sets[21]: 882  LLC: 2048
rand_sets[21]: 882
Assign rand_sets[22]: 15  LLC: 2048
rand_sets[22]: 15
Assign rand_sets[23]: 71  LLC: 2048
rand_sets[23]: 71
Assign rand_sets[24]: 1127  LLC: 2048
rand_sets[24]: 1127
Assign rand_sets[25]: 1382  LLC: 2048
rand_sets[25]: 1382
Assign rand_sets[26]: 647  LLC: 2048
rand_sets[26]: 647
Assign rand_sets[27]: 857  LLC: 2048
rand_sets[27]: 857
Assign rand_sets[28]: 1450  LLC: 2048
rand_sets[28]: 1450
Assign rand_sets[29]: 1160  LLC: 2048
rand_sets[29]: 1160
Assign rand_sets[30]: 1852  LLC: 2048
rand_sets[30]: 1852
Assign rand_sets[31]: 1881  LLC: 2048
rand_sets[31]: 1881
Assign rand_sets[32]: 1770  LLC: 2048
rand_sets[32]: 1770
Assign rand_sets[33]: 1622  LLC: 2048
rand_sets[33]: 1622
Assign rand_sets[34]: 275  LLC: 2048
rand_sets[34]: 275
Assign rand_sets[35]: 635  LLC: 2048
rand_sets[35]: 635
Assign rand_sets[36]: 466  LLC: 2048
rand_sets[36]: 466
Assign rand_sets[37]: 1413  LLC: 2048
rand_sets[37]: 1413
Assign rand_sets[38]: 417  LLC: 2048
rand_sets[38]: 417
Assign rand_sets[39]: 472  LLC: 2048
rand_sets[39]: 472
Assign rand_sets[40]: 1340  LLC: 2048
rand_sets[40]: 1340
Assign rand_sets[41]: 852  LLC: 2048
rand_sets[41]: 852
Assign rand_sets[42]: 1365  LLC: 2048
rand_sets[42]: 1365
Assign rand_sets[43]: 47  LLC: 2048
rand_sets[43]: 47
Assign rand_sets[44]: 823  LLC: 2048
rand_sets[44]: 823
Assign rand_sets[45]: 686  LLC: 2048
rand_sets[45]: 686
Assign rand_sets[46]: 1637  LLC: 2048
rand_sets[46]: 1637
Assign rand_sets[47]: 1115  LLC: 2048
rand_sets[47]: 1115
Assign rand_sets[48]: 986  LLC: 2048
rand_sets[48]: 986
Assign rand_sets[49]: 258  LLC: 2048
rand_sets[49]: 258
Assign rand_sets[50]: 633  LLC: 2048
rand_sets[50]: 633
Assign rand_sets[51]: 920  LLC: 2048
rand_sets[51]: 920
Assign rand_sets[52]: 204  LLC: 2048
rand_sets[52]: 204
Assign rand_sets[53]: 227  LLC: 2048
rand_sets[53]: 227
Assign rand_sets[54]: 1818  LLC: 2048
rand_sets[54]: 1818
Assign rand_sets[55]: 886  LLC: 2048
rand_sets[55]: 886
Assign rand_sets[56]: 1422  LLC: 2048
rand_sets[56]: 1422
Assign rand_sets[57]: 607  LLC: 2048
rand_sets[57]: 607
Assign rand_sets[58]: 217  LLC: 2048
rand_sets[58]: 217
Assign rand_sets[59]: 1945  LLC: 2048
rand_sets[59]: 1945
Assign rand_sets[60]: 143  LLC: 2048
rand_sets[60]: 143
Assign rand_sets[61]: 1311  LLC: 2048
rand_sets[61]: 1311
Assign rand_sets[62]: 319  LLC: 2048
rand_sets[62]: 319
Assign rand_sets[63]: 1846  LLC: 2048
rand_sets[63]: 1846
 CLEAN-RRIP-POLICY-1: 1-2-2-2-1-0-2-3- CLEAN-RRIP-POLICY-2: 1-2-2-2-1-0-2-3-
 DIRTY-RRIP-POLICY-1: 0-2-1-2-2-0-0-3- DIRTY-RRIP-POLICY-2: 0-2-1-2-2-0-0-3-
 PSEL width: 10
Heartbeat CPU 0 instructions: 10000001 cycles: 7320815 heartbeat IPC: 1.36597 cumulative IPC: 1.36597 (Simulation time: 0 hr 0 min 15 sec) 
Heartbeat CPU 0 instructions: 20000000 cycles: 14325332 heartbeat IPC: 1.42765 cumulative IPC: 1.39613 (Simulation time: 0 hr 0 min 29 sec) 
Heartbeat CPU 0 instructions: 30000001 cycles: 21041836 heartbeat IPC: 1.48887 cumulative IPC: 1.42573 (Simulation time: 0 hr 0 min 45 sec) 
Heartbeat CPU 0 instructions: 40000000 cycles: 27503920 heartbeat IPC: 1.54749 cumulative IPC: 1.45434 (Simulation time: 0 hr 1 min 1 sec) 
Heartbeat CPU 0 instructions: 50000001 cycles: 33607028 heartbeat IPC: 1.63851 cumulative IPC: 1.48778 (Simulation time: 0 hr 1 min 17 sec) 
Heartbeat CPU 0 instructions: 60000000 cycles: 40089699 heartbeat IPC: 1.54257 cumulative IPC: 1.49664 (Simulation time: 0 hr 1 min 32 sec) 
Heartbeat CPU 0 instructions: 70000000 cycles: 47134006 heartbeat IPC: 1.41959 cumulative IPC: 1.48513 (Simulation time: 0 hr 1 min 47 sec) 
Heartbeat CPU 0 instructions: 80000000 cycles: 54231565 heartbeat IPC: 1.40894 cumulative IPC: 1.47516 (Simulation time: 0 hr 2 min 2 sec) 
Heartbeat CPU 0 instructions: 90000003 cycles: 61244219 heartbeat IPC: 1.42599 cumulative IPC: 1.46953 (Simulation time: 0 hr 2 min 17 sec) 
Heartbeat CPU 0 instructions: 100000000 cycles: 68420111 heartbeat IPC: 1.39355 cumulative IPC: 1.46156 (Simulation time: 0 hr 2 min 31 sec) 

Warmup complete CPU 0 instructions: 100000004 cycles: 68420112 (Simulation time: 0 hr 2 min 31 sec) 

Heartbeat CPU 0 instructions: 110000003 cycles: 97475876 heartbeat IPC: 0.344166 cumulative IPC: 0.344166 (Simulation time: 0 hr 3 min 0 sec) 
Heartbeat CPU 0 instructions: 120000000 cycles: 125699068 heartbeat IPC: 0.354318 cumulative IPC: 0.349168 (Simulation time: 0 hr 3 min 29 sec) 
Heartbeat CPU 0 instructions: 130000000 cycles: 151301546 heartbeat IPC: 0.390587 cumulative IPC: 0.361963 (Simulation time: 0 hr 3 min 58 sec) 
Heartbeat CPU 0 instructions: 140000000 cycles: 183507628 heartbeat IPC: 0.3105 cumulative IPC: 0.347562 (Simulation time: 0 hr 4 min 26 sec) 
Heartbeat CPU 0 instructions: 150000000 cycles: 215354262 heartbeat IPC: 0.314005 cumulative IPC: 0.340288 (Simulation time: 0 hr 4 min 56 sec) 
Heartbeat CPU 0 instructions: 160000000 cycles: 243623447 heartbeat IPC: 0.353742 cumulative IPC: 0.342459 (Simulation time: 0 hr 5 min 23 sec) 
Heartbeat CPU 0 instructions: 170000001 cycles: 272557611 heartbeat IPC: 0.345612 cumulative IPC: 0.342906 (Simulation time: 0 hr 5 min 53 sec) 
Heartbeat CPU 0 instructions: 180000000 cycles: 302089944 heartbeat IPC: 0.338612 cumulative IPC: 0.342363 (Simulation time: 0 hr 6 min 23 sec) 
Heartbeat CPU 0 instructions: 190000002 cycles: 331309919 heartbeat IPC: 0.342232 cumulative IPC: 0.342349 (Simulation time: 0 hr 6 min 51 sec) 
Heartbeat CPU 0 instructions: 200000000 cycles: 360820521 heartbeat IPC: 0.338861 cumulative IPC: 0.341997 (Simulation time: 0 hr 7 min 21 sec) 
Heartbeat CPU 0 instructions: 210000002 cycles: 389878931 heartbeat IPC: 0.344135 cumulative IPC: 0.34219 (Simulation time: 0 hr 7 min 50 sec) 
Heartbeat CPU 0 instructions: 220000000 cycles: 421681294 heartbeat IPC: 0.314442 cumulative IPC: 0.339692 (Simulation time: 0 hr 8 min 18 sec) 
Heartbeat CPU 0 instructions: 230000000 cycles: 450701834 heartbeat IPC: 0.344584 cumulative IPC: 0.340063 (Simulation time: 0 hr 8 min 46 sec) 
Heartbeat CPU 0 instructions: 240000000 cycles: 477753916 heartbeat IPC: 0.369657 cumulative IPC: 0.342019 (Simulation time: 0 hr 9 min 14 sec) 
Heartbeat CPU 0 instructions: 250000000 cycles: 508932507 heartbeat IPC: 0.320733 cumulative IPC: 0.340513 (Simulation time: 0 hr 9 min 44 sec) 
Heartbeat CPU 0 instructions: 260000000 cycles: 536718003 heartbeat IPC: 0.3599 cumulative IPC: 0.341663 (Simulation time: 0 hr 10 min 12 sec) 
Heartbeat CPU 0 instructions: 270000003 cycles: 566150723 heartbeat IPC: 0.339758 cumulative IPC: 0.34155 (Simulation time: 0 hr 10 min 42 sec) 
Heartbeat CPU 0 instructions: 280000000 cycles: 595357338 heartbeat IPC: 0.342388 cumulative IPC: 0.341597 (Simulation time: 0 hr 11 min 11 sec) 
Heartbeat CPU 0 instructions: 290000000 cycles: 625296008 heartbeat IPC: 0.334016 cumulative IPC: 0.341189 (Simulation time: 0 hr 11 min 41 sec) 
Heartbeat CPU 0 instructions: 300000000 cycles: 657501182 heartbeat IPC: 0.310509 cumulative IPC: 0.339512 (Simulation time: 0 hr 12 min 10 sec) 
Heartbeat CPU 0 instructions: 310000001 cycles: 688638588 heartbeat IPC: 0.321157 cumulative IPC: 0.33859 (Simulation time: 0 hr 12 min 39 sec) 
Heartbeat CPU 0 instructions: 320000000 cycles: 718746595 heartbeat IPC: 0.332138 cumulative IPC: 0.338292 (Simulation time: 0 hr 13 min 8 sec) 
Heartbeat CPU 0 instructions: 330000000 cycles: 748911290 heartbeat IPC: 0.331513 cumulative IPC: 0.337991 (Simulation time: 0 hr 13 min 36 sec) 
Heartbeat CPU 0 instructions: 340000000 cycles: 779958557 heartbeat IPC: 0.32209 cumulative IPC: 0.337297 (Simulation time: 0 hr 14 min 5 sec) 
Heartbeat CPU 0 instructions: 350000003 cycles: 808103298 heartbeat IPC: 0.355306 cumulative IPC: 0.337983 (Simulation time: 0 hr 14 min 33 sec) 
Heartbeat CPU 0 instructions: 360000000 cycles: 840384099 heartbeat IPC: 0.309782 cumulative IPC: 0.336803 (Simulation time: 0 hr 15 min 2 sec) 
Heartbeat CPU 0 instructions: 370000000 cycles: 872826539 heartbeat IPC: 0.308238 cumulative IPC: 0.335651 (Simulation time: 0 hr 15 min 31 sec) 
Heartbeat CPU 0 instructions: 380000000 cycles: 905731712 heartbeat IPC: 0.303904 cumulative IPC: 0.334404 (Simulation time: 0 hr 15 min 59 sec) 
Heartbeat CPU 0 instructions: 390000001 cycles: 937572996 heartbeat IPC: 0.314058 cumulative IPC: 0.333658 (Simulation time: 0 hr 16 min 28 sec) 
Heartbeat CPU 0 instructions: 400000000 cycles: 970519443 heartbeat IPC: 0.303523 cumulative IPC: 0.332558 (Simulation time: 0 hr 16 min 57 sec) 
Heartbeat CPU 0 instructions: 410000001 cycles: 1002183016 heartbeat IPC: 0.31582 cumulative IPC: 0.33199 (Simulation time: 0 hr 17 min 25 sec) 
Heartbeat CPU 0 instructions: 420000000 cycles: 1033800005 heartbeat IPC: 0.316286 cumulative IPC: 0.331476 (Simulation time: 0 hr 17 min 54 sec) 
Heartbeat CPU 0 instructions: 430000002 cycles: 1065968122 heartbeat IPC: 0.310867 cumulative IPC: 0.330811 (Simulation time: 0 hr 18 min 22 sec) 
Heartbeat CPU 0 instructions: 440000000 cycles: 1099305942 heartbeat IPC: 0.29996 cumulative IPC: 0.329813 (Simulation time: 0 hr 18 min 51 sec) 
Heartbeat CPU 0 instructions: 450000002 cycles: 1132555877 heartbeat IPC: 0.300753 cumulative IPC: 0.328905 (Simulation time: 0 hr 19 min 20 sec) 
Heartbeat CPU 0 instructions: 460000000 cycles: 1164547346 heartbeat IPC: 0.312583 cumulative IPC: 0.328429 (Simulation time: 0 hr 19 min 49 sec) 
Heartbeat CPU 0 instructions: 470000000 cycles: 1196038237 heartbeat IPC: 0.317552 cumulative IPC: 0.328125 (Simulation time: 0 hr 20 min 17 sec) 
Heartbeat CPU 0 instructions: 480000000 cycles: 1227794310 heartbeat IPC: 0.3149 cumulative IPC: 0.327763 (Simulation time: 0 hr 20 min 46 sec) 
Heartbeat CPU 0 instructions: 490000000 cycles: 1259264810 heartbeat IPC: 0.317758 cumulative IPC: 0.327499 (Simulation time: 0 hr 21 min 14 sec) 
Heartbeat CPU 0 instructions: 500000000 cycles: 1291094848 heartbeat IPC: 0.314169 cumulative IPC: 0.327152 (Simulation time: 0 hr 21 min 42 sec) 
Heartbeat CPU 0 instructions: 510000000 cycles: 1327315256 heartbeat IPC: 0.276087 cumulative IPC: 0.325682 (Simulation time: 0 hr 22 min 14 sec) 
Heartbeat CPU 0 instructions: 520000000 cycles: 1356139449 heartbeat IPC: 0.346931 cumulative IPC: 0.326158 (Simulation time: 0 hr 22 min 42 sec) 
Heartbeat CPU 0 instructions: 530000001 cycles: 1387757904 heartbeat IPC: 0.316271 cumulative IPC: 0.325921 (Simulation time: 0 hr 23 min 11 sec) 
Heartbeat CPU 0 instructions: 540000000 cycles: 1417665663 heartbeat IPC: 0.334361 cumulative IPC: 0.326108 (Simulation time: 0 hr 23 min 40 sec) 
Heartbeat CPU 0 instructions: 550000001 cycles: 1447718616 heartbeat IPC: 0.332746 cumulative IPC: 0.326253 (Simulation time: 0 hr 24 min 9 sec) 
Heartbeat CPU 0 instructions: 560000000 cycles: 1473821945 heartbeat IPC: 0.383093 cumulative IPC: 0.327309 (Simulation time: 0 hr 24 min 37 sec) 
Heartbeat CPU 0 instructions: 570000000 cycles: 1505251066 heartbeat IPC: 0.318176 cumulative IPC: 0.327109 (Simulation time: 0 hr 25 min 6 sec) 
Heartbeat CPU 0 instructions: 580000000 cycles: 1534813928 heartbeat IPC: 0.338262 cumulative IPC: 0.327334 (Simulation time: 0 hr 25 min 35 sec) 
Heartbeat CPU 0 instructions: 590000001 cycles: 1560534807 heartbeat IPC: 0.388789 cumulative IPC: 0.328393 (Simulation time: 0 hr 26 min 2 sec) 
Heartbeat CPU 0 instructions: 600000000 cycles: 1588366954 heartbeat IPC: 0.359297 cumulative IPC: 0.328959 (Simulation time: 0 hr 26 min 30 sec) 
Finished CPU 0 instructions: 500000000 cycles: 1519946864 cumulative IPC: 0.328959 (Simulation time: 0 hr 26 min 30 sec) 

CPU 0 Branch Prediction Accuracy: 86.4311% MPKI: 26.2662
Number of Branches: 96788573 Number of Mispredictions: 13133102
Number of LOAD Instructions: 164682285
Number of LOAD Instructions (ROI): 164682285
Number of STORE Instructions: 78194750
Number of STORE Instructions (ROI): 78194750
Total Destination Memory Operands: 83268534
Total Destination Memory Operands (ROI): 83268534
Total Source Memory Operands: 164712438
Total Source Memory Operands (ROI): 164712438
Number of DEPENDED LOADS: 7050466
Number of DEPENDED LOADS (ROI): 7050466
Number of SQ_ADDED: 83268522
Number of SQ_ADDED (ROI): 83268522
Number of LQ_ADDED: 236270989
Number of LQ_ADDED (ROI): 236270989
Number of Instructions read from trace: 600000066

ChampSim completed all CPUs

Region of Interest Statistics

CPU 0 cumulative IPC: 0.328959 instructions: 500000000 cycles: 1519946864
ITLB TOTAL     ACCESS:  100536610  HIT:  100332164  MISS:     204446
ITLB LOAD      ACCESS:  100536610  HIT:  100332164  MISS:     204446
ITLB RFO       ACCESS:          0  HIT:          0  MISS:          0
ITLB PREFETCH  ACCESS:          0  HIT:          0  MISS:          0
ITLB WRITEBACK ACCESS:          0  HIT:          0  MISS:          0
ITLB PREFETCH  REQUESTED:          0  ISSUED:          0  USEFUL:          0  USELESS:          0
ITLB TOTAL MSHR MERGED:     172422
ITLB LOAD MSHR MERGED:     172422
ITLB RFO MSHR MERGED:          0
ITLB PREFETCH MSHR MERGED:          0
ITLB WRITEBACK MSHR MERGED:          0
ITLB TOTAL ACCESSES:  100709032 HITS:  100332164 MISSES:     376868
ITLB LOAD ACCESSES:  100709032 HITS:  100332164 MISSES:     376868
ITLB RFO ACCESSES:          0 HITS:          0 MISSES:          0
ITLB PREFETCH ACCESSES:          0 HITS:          0 MISSES:          0
ITLB WRITEBACK ACCESSES:          0 HITS:          0 MISSES:          0
ITLB RQ ACCESS:  500000057
ITLB RQ TO_CACHE:  100709032
ITLB RQ MERGED:  399291025
ITLB RQ FORWARD:          0
ITLB WQ ACCESS:          0
ITLB WQ TO_CACHE:          0
ITLB WQ MERGED:          0
ITLB WQ FORWARD:          0
DTLB TOTAL     ACCESS:  165370224  HIT:  164735880  MISS:     634344
DTLB LOAD      ACCESS:  106315125  HIT:  105745145  MISS:     569980
DTLB RFO       ACCESS:   59055099  HIT:   58990735  MISS:      64364
DTLB PREFETCH  ACCESS:          0  HIT:          0  MISS:          0
DTLB WRITEBACK ACCESS:          0  HIT:          0  MISS:          0
DTLB PREFETCH  REQUESTED:          0  ISSUED:          0  USEFUL:          0  USELESS:          0
DTLB TOTAL MSHR MERGED:      99191
DTLB LOAD MSHR MERGED:      59108
DTLB RFO MSHR MERGED:      40083
DTLB PREFETCH MSHR MERGED:          0
DTLB WRITEBACK MSHR MERGED:          0
DTLB TOTAL ACCESSES:  165469415 HITS:  164735880 MISSES:     733535
DTLB LOAD ACCESSES:  106374233 HITS:  105745145 MISSES:     629088
DTLB RFO ACCESSES:   59095182 HITS:   58990735 MISSES:     104447
DTLB PREFETCH ACCESSES:          0 HITS:          0 MISSES:          0
DTLB WRITEBACK ACCESSES:          0 HITS:          0 MISSES:          0
DTLB RQ ACCESS:  200320447
DTLB RQ TO_CACHE:  165469415
DTLB RQ MERGED:   34851032
DTLB RQ FORWARD:          0
DTLB WQ ACCESS:          0
DTLB WQ TO_CACHE:          0
DTLB WQ MERGED:          0
DTLB WQ FORWARD:          0
L1D TOTAL     ACCESS:  281931769  HIT:  274022285  MISS:    7909484
L1D LOAD      ACCESS:  110454235  HIT:  107176828  MISS:    3277407
L1D RFO       ACCESS:   67140889  HIT:   66251068  MISS:     889821
L1D PREFETCH  ACCESS:  104336645  HIT:  100594389  MISS:    3742256
L1D WRITEBACK ACCESS:          0  HIT:          0  MISS:          0
L1D PREFETCH  REQUESTED:  110849265  ISSUED:  109149777  USEFUL:    1662732  USELESS:    2079488
L1D TOTAL MSHR MERGED:    2846953
L1D LOAD MSHR MERGED:     492575
L1D RFO MSHR MERGED:    1844120
L1D PREFETCH MSHR MERGED:     510258
L1D WRITEBACK MSHR MERGED:          0
L1D TOTAL ACCESSES:  284806040 HITS:  274049603 MISSES:   10756437
L1D LOAD ACCESSES:  110850644 HITS:  107178207 MISSES:    3672437
L1D RFO ACCESSES:   68973993 HITS:   66251068 MISSES:    2722925
L1D PREFETCH ACCESSES:  104981403 HITS:  100620328 MISSES:    4361075
L1D WRITEBACK ACCESSES:          0 HITS:          0 MISSES:          0
L1D RQ ACCESS:  130767844
L1D RQ TO_CACHE:  110849268
L1D RQ MERGED:   19917197
L1D RQ FORWARD:          0
L1D WQ ACCESS:   69552603
L1D WQ TO_CACHE:   68973994
L1D WQ MERGED:     578609
L1D WQ FORWARD:      27318
L1I TOTAL     ACCESS:  126576498  HIT:  122337987  MISS:    4238511
L1I LOAD      ACCESS:  126576498  HIT:  122337987  MISS:    4238511
L1I RFO       ACCESS:          0  HIT:          0  MISS:          0
L1I PREFETCH  ACCESS:          0  HIT:          0  MISS:          0
L1I WRITEBACK ACCESS:          0  HIT:          0  MISS:          0
L1I PREFETCH  REQUESTED:          0  ISSUED:          0  USEFUL:          0  USELESS:          0
L1I TOTAL MSHR MERGED:    1842029
L1I LOAD MSHR MERGED:    1842029
L1I RFO MSHR MERGED:          0
L1I PREFETCH MSHR MERGED:          0
L1I WRITEBACK MSHR MERGED:          0
L1I TOTAL ACCESSES:  128418530 HITS:  122337987 MISSES:    6080543
L1I LOAD ACCESSES:  128418530 HITS:  122337987 MISSES:    6080543
L1I RFO ACCESSES:          0 HITS:          0 MISSES:          0
L1I PREFETCH ACCESSES:          0 HITS:          0 MISSES:          0
L1I WRITEBACK ACCESSES:          0 HITS:          0 MISSES:          0
L1I RQ ACCESS:  500000057
L1I RQ TO_CACHE:  128418530
L1I RQ MERGED:  371581527
L1I RQ FORWARD:          0
L1I WQ ACCESS:          0
L1I WQ TO_CACHE:          0
L1I WQ MERGED:          0
L1I WQ FORWARD:          0
L2C TOTAL     ACCESS:   14905906  HIT:   11159598  MISS:    3746308
L2C LOAD      ACCESS:    7418173  HIT:    5098653  MISS:    2319520
L2C RFO       ACCESS:     878706  HIT:     410003  MISS:     468703
L2C PREFETCH  ACCESS:    4569752  HIT:    3628926  MISS:     940826
L2C WRITEBACK ACCESS:    2039275  HIT:    2022016  MISS:      17259
L2C PREFETCH  REQUESTED:     842742  ISSUED:     842742  USEFUL:     203579  USELESS:     736954
L2C TOTAL MSHR MERGED:       6466
L2C LOAD MSHR MERGED:        662
L2C RFO MSHR MERGED:          0
L2C PREFETCH MSHR MERGED:       5804
L2C WRITEBACK MSHR MERGED:          0
L2C TOTAL ACCESSES:   14913283 HITS:   11160040 MISSES:    3753243
L2C LOAD ACCESSES:    7418373 HITS:    5098853 MISSES:    2319520
L2C RFO ACCESSES:     878805 HITS:     410102 MISSES:     468703
L2C PREFETCH ACCESSES:    4576830 HITS:    3629069 MISSES:     947761
L2C WRITEBACK ACCESSES:    2039275 HITS:    2022016 MISSES:      17259
L2C RQ ACCESS:    8297181
L2C RQ TO_CACHE:    8296882
L2C RQ MERGED:          0
L2C RQ FORWARD:          0
L2C WQ ACCESS:    2039275
L2C WQ TO_CACHE:    2039275
L2C WQ MERGED:          0
L2C WQ FORWARD:        442
LLC TOTAL     ACCESS:    4609612  HIT:    2755213  MISS:    1854399
LLC LOAD      ACCESS:    2318847  HIT:     957094  MISS:    1361753
LLC RFO       ACCESS:     468699  HIT:     421511  MISS:      47188
LLC PREFETCH  ACCESS:     941843  HIT:     598774  MISS:     343069
LLC WRITEBACK ACCESS:     880223  HIT:     777834  MISS:     102389
LLC PREFETCH  REQUESTED:          0  ISSUED:          0  USEFUL:      14299  USELESS:     330202
LLC TOTAL MSHR MERGED:         99
LLC LOAD MSHR MERGED:         30
LLC RFO MSHR MERGED:          0
LLC PREFETCH MSHR MERGED:         69
LLC WRITEBACK MSHR MERGED:          0
LLC TOTAL ACCESSES:    4609735 HITS:    2755237 MISSES:    1854498
LLC LOAD ACCESSES:    2318858 HITS:     957105 MISSES:    1361753
LLC RFO ACCESSES:     468703 HITS:     421515 MISSES:      47188
LLC PREFETCH ACCESSES:     941951 HITS:     598783 MISSES:     343168
LLC WRITEBACK ACCESSES:     880223 HITS:     777834 MISSES:     102389
LLC 0 RQ ACCESS:    2787561
LLC 0 RQ TO_CACHE:    2787546
LLC 0 RQ MERGED:          0
LLC 0 RQ FORWARD:          0
LLC WQ ACCESS:     880223
LLC WQ TO_CACHE:     880223
LLC WQ MERGED:          0
LLC WQ FORWARD:         24
Major fault: 0 Minor fault: 12862
CPU 0 L1D next line prefetcher final stats
CPU 0 L2C PC-based stride prefetcher final stats
All Misses: 2093727
All Hits: 3332883
SD Algo Stats - Switches: 0 SRR-Repls: 1494287 BRR-Repls: 0

DRAM Statistics
 CHANNEL 0
 RQ ROW_BUFFER_HIT:     521183  ROW_BUFFER_MISS:    1227793
 DBUS_CONGESTED:     574896
 WQ ROW_BUFFER_HIT:       8289  ROW_BUFFER_MISS:     172663  FULL:          0

 AVG_CONGESTED_CYCLE: 13
LOADS RETIRED: 136549171
INSTR RETIRED: 500000000
