
*** ChampSim Multicore Out-of-Order Simulator ***

Warmup Instructions: 100000000
Simulation Instructions: 500000000
Number of CPUs: 1
LLC sets: 2048
LLC ways: 16
Clean RRIP Policies: 2123010121230101 Dirty RRIP Policies: 2123010121230101 PSEL Width: 10 Track Set: 4294967295 PSEL Mask: 1 Demote Mask: 3013210430132104DS Algo: 0Window size: 0
Off-chip DRAM Size: 4096 MB Channels: 1 Width: 64-bit Data Rate: 1600 MT/s

CPU 0 runs /mnt/beegfs/iconst01/spec2017/Gcc.trace.gz
NOT SORTED
TRACE STRING: /mnt/beegfs/iconst01/spec2017/Gcc.trace.gz
SORTED
TRACE STRING: /mnt/beegfs/iconst01/spec2017/Gcc.trace.gz
INITIAL
TRACE STRING: /mnt/beegfs/iconst01/spec2017/Gcc.trace.gz

champsim_seed used: 269

CPU 0 L1D next line prefetcher
CPU 0 L2C IP-based stride prefetcher
Initialize DRRIP state
Assign rand_sets[0]: 454  LLC: 2048
rand_sets[0]: 454
Assign rand_sets[1]: 1662  LLC: 2048
rand_sets[1]: 1662
Assign rand_sets[2]: 1921  LLC: 2048
rand_sets[2]: 1921
Assign rand_sets[3]: 1131  LLC: 2048
rand_sets[3]: 1131
Assign rand_sets[4]: 331  LLC: 2048
rand_sets[4]: 331
Assign rand_sets[5]: 1531  LLC: 2048
rand_sets[5]: 1531
Assign rand_sets[6]: 482  LLC: 2048
rand_sets[6]: 482
Assign rand_sets[7]: 1275  LLC: 2048
rand_sets[7]: 1275
Assign rand_sets[8]: 1876  LLC: 2048
rand_sets[8]: 1876
Assign rand_sets[9]: 2038  LLC: 2048
rand_sets[9]: 2038
Assign rand_sets[10]: 701  LLC: 2048
rand_sets[10]: 701
Assign rand_sets[11]: 479  LLC: 2048
rand_sets[11]: 479
Assign rand_sets[12]: 892  LLC: 2048
rand_sets[12]: 892
Assign rand_sets[13]: 1820  LLC: 2048
rand_sets[13]: 1820
Assign rand_sets[14]: 1505  LLC: 2048
rand_sets[14]: 1505
Assign rand_sets[15]: 1159  LLC: 2048
rand_sets[15]: 1159
Assign rand_sets[16]: 513  LLC: 2048
rand_sets[16]: 513
Assign rand_sets[17]: 703  LLC: 2048
rand_sets[17]: 703
Assign rand_sets[18]: 561  LLC: 2048
rand_sets[18]: 561
Assign rand_sets[19]: 990  LLC: 2048
rand_sets[19]: 990
Assign rand_sets[20]: 342  LLC: 2048
rand_sets[20]: 342
Assign rand_sets[21]: 882  LLC: 2048
rand_sets[21]: 882
Assign rand_sets[22]: 15  LLC: 2048
rand_sets[22]: 15
Assign rand_sets[23]: 71  LLC: 2048
rand_sets[23]: 71
Assign rand_sets[24]: 1127  LLC: 2048
rand_sets[24]: 1127
Assign rand_sets[25]: 1382  LLC: 2048
rand_sets[25]: 1382
Assign rand_sets[26]: 647  LLC: 2048
rand_sets[26]: 647
Assign rand_sets[27]: 857  LLC: 2048
rand_sets[27]: 857
Assign rand_sets[28]: 1450  LLC: 2048
rand_sets[28]: 1450
Assign rand_sets[29]: 1160  LLC: 2048
rand_sets[29]: 1160
Assign rand_sets[30]: 1852  LLC: 2048
rand_sets[30]: 1852
Assign rand_sets[31]: 1881  LLC: 2048
rand_sets[31]: 1881
Assign rand_sets[32]: 1770  LLC: 2048
rand_sets[32]: 1770
Assign rand_sets[33]: 1622  LLC: 2048
rand_sets[33]: 1622
Assign rand_sets[34]: 275  LLC: 2048
rand_sets[34]: 275
Assign rand_sets[35]: 635  LLC: 2048
rand_sets[35]: 635
Assign rand_sets[36]: 466  LLC: 2048
rand_sets[36]: 466
Assign rand_sets[37]: 1413  LLC: 2048
rand_sets[37]: 1413
Assign rand_sets[38]: 417  LLC: 2048
rand_sets[38]: 417
Assign rand_sets[39]: 472  LLC: 2048
rand_sets[39]: 472
Assign rand_sets[40]: 1340  LLC: 2048
rand_sets[40]: 1340
Assign rand_sets[41]: 852  LLC: 2048
rand_sets[41]: 852
Assign rand_sets[42]: 1365  LLC: 2048
rand_sets[42]: 1365
Assign rand_sets[43]: 47  LLC: 2048
rand_sets[43]: 47
Assign rand_sets[44]: 823  LLC: 2048
rand_sets[44]: 823
Assign rand_sets[45]: 686  LLC: 2048
rand_sets[45]: 686
Assign rand_sets[46]: 1637  LLC: 2048
rand_sets[46]: 1637
Assign rand_sets[47]: 1115  LLC: 2048
rand_sets[47]: 1115
Assign rand_sets[48]: 986  LLC: 2048
rand_sets[48]: 986
Assign rand_sets[49]: 258  LLC: 2048
rand_sets[49]: 258
Assign rand_sets[50]: 633  LLC: 2048
rand_sets[50]: 633
Assign rand_sets[51]: 920  LLC: 2048
rand_sets[51]: 920
Assign rand_sets[52]: 204  LLC: 2048
rand_sets[52]: 204
Assign rand_sets[53]: 227  LLC: 2048
rand_sets[53]: 227
Assign rand_sets[54]: 1818  LLC: 2048
rand_sets[54]: 1818
Assign rand_sets[55]: 886  LLC: 2048
rand_sets[55]: 886
Assign rand_sets[56]: 1422  LLC: 2048
rand_sets[56]: 1422
Assign rand_sets[57]: 607  LLC: 2048
rand_sets[57]: 607
Assign rand_sets[58]: 217  LLC: 2048
rand_sets[58]: 217
Assign rand_sets[59]: 1945  LLC: 2048
rand_sets[59]: 1945
Assign rand_sets[60]: 143  LLC: 2048
rand_sets[60]: 143
Assign rand_sets[61]: 1311  LLC: 2048
rand_sets[61]: 1311
Assign rand_sets[62]: 319  LLC: 2048
rand_sets[62]: 319
Assign rand_sets[63]: 1846  LLC: 2048
rand_sets[63]: 1846
 CLEAN-RRIP-POLICY-1: 2-1-2-3-0-1-0-1- CLEAN-RRIP-POLICY-2: 2-1-2-3-0-1-0-1-
 DIRTY-RRIP-POLICY-1: 2-1-2-3-0-1-0-1- DIRTY-RRIP-POLICY-2: 2-1-2-3-0-1-0-1-
 PSEL width: 10
Heartbeat CPU 0 instructions: 10000001 cycles: 7315980 heartbeat IPC: 1.36687 cumulative IPC: 1.36687 (Simulation time: 0 hr 0 min 15 sec) 
Heartbeat CPU 0 instructions: 20000000 cycles: 14307403 heartbeat IPC: 1.43032 cumulative IPC: 1.39788 (Simulation time: 0 hr 0 min 30 sec) 
Heartbeat CPU 0 instructions: 30000001 cycles: 21020133 heartbeat IPC: 1.48971 cumulative IPC: 1.4272 (Simulation time: 0 hr 0 min 46 sec) 
Heartbeat CPU 0 instructions: 40000000 cycles: 27480876 heartbeat IPC: 1.54781 cumulative IPC: 1.45556 (Simulation time: 0 hr 1 min 3 sec) 
Heartbeat CPU 0 instructions: 50000001 cycles: 33582474 heartbeat IPC: 1.63892 cumulative IPC: 1.48887 (Simulation time: 0 hr 1 min 19 sec) 
Heartbeat CPU 0 instructions: 60000000 cycles: 40063536 heartbeat IPC: 1.54296 cumulative IPC: 1.49762 (Simulation time: 0 hr 1 min 35 sec) 
Heartbeat CPU 0 instructions: 70000000 cycles: 47101223 heartbeat IPC: 1.42092 cumulative IPC: 1.48616 (Simulation time: 0 hr 1 min 51 sec) 
Heartbeat CPU 0 instructions: 80000000 cycles: 54190636 heartbeat IPC: 1.41055 cumulative IPC: 1.47627 (Simulation time: 0 hr 2 min 6 sec) 
Heartbeat CPU 0 instructions: 90000003 cycles: 61194817 heartbeat IPC: 1.42772 cumulative IPC: 1.47071 (Simulation time: 0 hr 2 min 21 sec) 
Heartbeat CPU 0 instructions: 100000000 cycles: 68361688 heartbeat IPC: 1.39531 cumulative IPC: 1.46281 (Simulation time: 0 hr 2 min 36 sec) 

Warmup complete CPU 0 instructions: 100000004 cycles: 68361689 (Simulation time: 0 hr 2 min 36 sec) 

Heartbeat CPU 0 instructions: 110000003 cycles: 95951184 heartbeat IPC: 0.362457 cumulative IPC: 0.362457 (Simulation time: 0 hr 3 min 6 sec) 
Heartbeat CPU 0 instructions: 120000000 cycles: 123407744 heartbeat IPC: 0.364212 cumulative IPC: 0.363332 (Simulation time: 0 hr 3 min 36 sec) 
Heartbeat CPU 0 instructions: 130000000 cycles: 148371395 heartbeat IPC: 0.400582 cumulative IPC: 0.374954 (Simulation time: 0 hr 4 min 6 sec) 
Heartbeat CPU 0 instructions: 140000000 cycles: 177748096 heartbeat IPC: 0.340406 cumulative IPC: 0.365676 (Simulation time: 0 hr 4 min 35 sec) 
Heartbeat CPU 0 instructions: 150000000 cycles: 207544539 heartbeat IPC: 0.335611 cumulative IPC: 0.35924 (Simulation time: 0 hr 5 min 5 sec) 
Heartbeat CPU 0 instructions: 160000000 cycles: 234921630 heartbeat IPC: 0.365269 cumulative IPC: 0.360231 (Simulation time: 0 hr 5 min 34 sec) 
Heartbeat CPU 0 instructions: 170000001 cycles: 262894599 heartbeat IPC: 0.357488 cumulative IPC: 0.359836 (Simulation time: 0 hr 6 min 5 sec) 
Heartbeat CPU 0 instructions: 180000000 cycles: 291286035 heartbeat IPC: 0.352219 cumulative IPC: 0.358866 (Simulation time: 0 hr 6 min 35 sec) 
Heartbeat CPU 0 instructions: 190000002 cycles: 319236934 heartbeat IPC: 0.35777 cumulative IPC: 0.358744 (Simulation time: 0 hr 7 min 5 sec) 
Heartbeat CPU 0 instructions: 200000000 cycles: 347530320 heartbeat IPC: 0.353439 cumulative IPC: 0.358206 (Simulation time: 0 hr 7 min 36 sec) 
Heartbeat CPU 0 instructions: 210000002 cycles: 375312343 heartbeat IPC: 0.359945 cumulative IPC: 0.358364 (Simulation time: 0 hr 8 min 6 sec) 
Heartbeat CPU 0 instructions: 220000000 cycles: 404320424 heartbeat IPC: 0.344731 cumulative IPC: 0.357187 (Simulation time: 0 hr 8 min 34 sec) 
Heartbeat CPU 0 instructions: 230000000 cycles: 431808806 heartbeat IPC: 0.36379 cumulative IPC: 0.357686 (Simulation time: 0 hr 9 min 3 sec) 
Heartbeat CPU 0 instructions: 240000000 cycles: 457741440 heartbeat IPC: 0.385615 cumulative IPC: 0.359546 (Simulation time: 0 hr 9 min 32 sec) 
Heartbeat CPU 0 instructions: 250000000 cycles: 487847846 heartbeat IPC: 0.332155 cumulative IPC: 0.35758 (Simulation time: 0 hr 10 min 3 sec) 
Heartbeat CPU 0 instructions: 260000000 cycles: 514939053 heartbeat IPC: 0.369123 cumulative IPC: 0.358281 (Simulation time: 0 hr 10 min 33 sec) 
Heartbeat CPU 0 instructions: 270000003 cycles: 543296568 heartbeat IPC: 0.35264 cumulative IPC: 0.357944 (Simulation time: 0 hr 11 min 4 sec) 
Heartbeat CPU 0 instructions: 280000000 cycles: 571407012 heartbeat IPC: 0.35574 cumulative IPC: 0.357821 (Simulation time: 0 hr 11 min 35 sec) 
Heartbeat CPU 0 instructions: 290000000 cycles: 600246277 heartbeat IPC: 0.346749 cumulative IPC: 0.35722 (Simulation time: 0 hr 12 min 6 sec) 
Heartbeat CPU 0 instructions: 300000000 cycles: 630017876 heartbeat IPC: 0.335891 cumulative IPC: 0.35609 (Simulation time: 0 hr 12 min 35 sec) 
Heartbeat CPU 0 instructions: 310000001 cycles: 659337449 heartbeat IPC: 0.341069 cumulative IPC: 0.355345 (Simulation time: 0 hr 13 min 5 sec) 
Heartbeat CPU 0 instructions: 320000000 cycles: 687450854 heartbeat IPC: 0.355702 cumulative IPC: 0.355361 (Simulation time: 0 hr 13 min 34 sec) 
Heartbeat CPU 0 instructions: 330000000 cycles: 716036438 heartbeat IPC: 0.349827 cumulative IPC: 0.355117 (Simulation time: 0 hr 14 min 4 sec) 
Heartbeat CPU 0 instructions: 340000000 cycles: 745249790 heartbeat IPC: 0.342309 cumulative IPC: 0.354564 (Simulation time: 0 hr 14 min 34 sec) 
Heartbeat CPU 0 instructions: 350000003 cycles: 772226279 heartbeat IPC: 0.370693 cumulative IPC: 0.355182 (Simulation time: 0 hr 15 min 3 sec) 
Heartbeat CPU 0 instructions: 360000000 cycles: 800295068 heartbeat IPC: 0.356267 cumulative IPC: 0.355224 (Simulation time: 0 hr 15 min 31 sec) 
Heartbeat CPU 0 instructions: 370000000 cycles: 828495097 heartbeat IPC: 0.35461 cumulative IPC: 0.355201 (Simulation time: 0 hr 16 min 0 sec) 
Heartbeat CPU 0 instructions: 380000000 cycles: 857005998 heartbeat IPC: 0.350743 cumulative IPC: 0.35504 (Simulation time: 0 hr 16 min 28 sec) 
Heartbeat CPU 0 instructions: 390000001 cycles: 884637973 heartbeat IPC: 0.3619 cumulative IPC: 0.355272 (Simulation time: 0 hr 16 min 57 sec) 
Heartbeat CPU 0 instructions: 400000000 cycles: 913275042 heartbeat IPC: 0.349198 cumulative IPC: 0.355066 (Simulation time: 0 hr 17 min 25 sec) 
Heartbeat CPU 0 instructions: 410000001 cycles: 940605778 heartbeat IPC: 0.365888 cumulative IPC: 0.355405 (Simulation time: 0 hr 17 min 54 sec) 
Heartbeat CPU 0 instructions: 420000000 cycles: 967945236 heartbeat IPC: 0.365772 cumulative IPC: 0.35572 (Simulation time: 0 hr 18 min 22 sec) 
Heartbeat CPU 0 instructions: 430000002 cycles: 995624876 heartbeat IPC: 0.361276 cumulative IPC: 0.355886 (Simulation time: 0 hr 18 min 51 sec) 
Heartbeat CPU 0 instructions: 440000000 cycles: 1025067406 heartbeat IPC: 0.339645 cumulative IPC: 0.355386 (Simulation time: 0 hr 19 min 19 sec) 
Heartbeat CPU 0 instructions: 450000002 cycles: 1054294721 heartbeat IPC: 0.342146 cumulative IPC: 0.354994 (Simulation time: 0 hr 19 min 48 sec) 
Heartbeat CPU 0 instructions: 460000000 cycles: 1082001152 heartbeat IPC: 0.360927 cumulative IPC: 0.355156 (Simulation time: 0 hr 20 min 17 sec) 
Heartbeat CPU 0 instructions: 470000000 cycles: 1109647608 heartbeat IPC: 0.36171 cumulative IPC: 0.35533 (Simulation time: 0 hr 20 min 45 sec) 
Heartbeat CPU 0 instructions: 480000000 cycles: 1137546499 heartbeat IPC: 0.358437 cumulative IPC: 0.355411 (Simulation time: 0 hr 21 min 14 sec) 
Heartbeat CPU 0 instructions: 490000000 cycles: 1165168324 heartbeat IPC: 0.362033 cumulative IPC: 0.355578 (Simulation time: 0 hr 21 min 42 sec) 
Heartbeat CPU 0 instructions: 500000000 cycles: 1193418996 heartbeat IPC: 0.353974 cumulative IPC: 0.355537 (Simulation time: 0 hr 22 min 11 sec) 
Heartbeat CPU 0 instructions: 510000000 cycles: 1228654617 heartbeat IPC: 0.283804 cumulative IPC: 0.353359 (Simulation time: 0 hr 22 min 43 sec) 
Heartbeat CPU 0 instructions: 520000000 cycles: 1256587599 heartbeat IPC: 0.358 cumulative IPC: 0.353468 (Simulation time: 0 hr 23 min 13 sec) 
Heartbeat CPU 0 instructions: 530000001 cycles: 1285845849 heartbeat IPC: 0.341784 cumulative IPC: 0.353187 (Simulation time: 0 hr 23 min 43 sec) 
Heartbeat CPU 0 instructions: 540000000 cycles: 1313834430 heartbeat IPC: 0.357289 cumulative IPC: 0.35328 (Simulation time: 0 hr 24 min 12 sec) 
Heartbeat CPU 0 instructions: 550000001 cycles: 1343018888 heartbeat IPC: 0.342648 cumulative IPC: 0.353036 (Simulation time: 0 hr 24 min 44 sec) 
Heartbeat CPU 0 instructions: 560000000 cycles: 1368380563 heartbeat IPC: 0.394296 cumulative IPC: 0.353841 (Simulation time: 0 hr 25 min 12 sec) 
Heartbeat CPU 0 instructions: 570000000 cycles: 1397733328 heartbeat IPC: 0.340683 cumulative IPC: 0.35355 (Simulation time: 0 hr 25 min 43 sec) 
Heartbeat CPU 0 instructions: 580000000 cycles: 1425655648 heartbeat IPC: 0.358136 cumulative IPC: 0.353645 (Simulation time: 0 hr 26 min 12 sec) 
Heartbeat CPU 0 instructions: 590000001 cycles: 1450433325 heartbeat IPC: 0.403589 cumulative IPC: 0.35454 (Simulation time: 0 hr 26 min 40 sec) 
Heartbeat CPU 0 instructions: 600000000 cycles: 1476565006 heartbeat IPC: 0.382677 cumulative IPC: 0.355062 (Simulation time: 0 hr 27 min 9 sec) 
Finished CPU 0 instructions: 500000000 cycles: 1408203339 cumulative IPC: 0.355062 (Simulation time: 0 hr 27 min 9 sec) 

CPU 0 Branch Prediction Accuracy: 86.4311% MPKI: 26.2662
Number of Branches: 96788573 Number of Mispredictions: 13133102
Number of LOAD Instructions: 164682285
Number of LOAD Instructions (ROI): 164682285
Number of STORE Instructions: 78194750
Number of STORE Instructions (ROI): 78194750
Total Destination Memory Operands: 83268534
Total Destination Memory Operands (ROI): 83268534
Total Source Memory Operands: 164712438
Total Source Memory Operands (ROI): 164712438
Number of DEPENDED LOADS: 7063807
Number of DEPENDED LOADS (ROI): 7063807
Number of SQ_ADDED: 83268522
Number of SQ_ADDED (ROI): 83268522
Number of LQ_ADDED: 236714782
Number of LQ_ADDED (ROI): 236714782
Number of Instructions read from trace: 600000066

ChampSim completed all CPUs

Region of Interest Statistics

CPU 0 cumulative IPC: 0.355062 instructions: 500000000 cycles: 1408203339
ITLB TOTAL     ACCESS:  100507789  HIT:  100303343  MISS:     204446
ITLB LOAD      ACCESS:  100507789  HIT:  100303343  MISS:     204446
ITLB RFO       ACCESS:          0  HIT:          0  MISS:          0
ITLB PREFETCH  ACCESS:          0  HIT:          0  MISS:          0
ITLB WRITEBACK ACCESS:          0  HIT:          0  MISS:          0
ITLB PREFETCH  REQUESTED:          0  ISSUED:          0  USEFUL:          0  USELESS:          0
ITLB TOTAL MSHR MERGED:     172423
ITLB LOAD MSHR MERGED:     172423
ITLB RFO MSHR MERGED:          0
ITLB PREFETCH MSHR MERGED:          0
ITLB WRITEBACK MSHR MERGED:          0
ITLB TOTAL ACCESSES:  100680212 HITS:  100303343 MISSES:     376869
ITLB LOAD ACCESSES:  100680212 HITS:  100303343 MISSES:     376869
ITLB RFO ACCESSES:          0 HITS:          0 MISSES:          0
ITLB PREFETCH ACCESSES:          0 HITS:          0 MISSES:          0
ITLB WRITEBACK ACCESSES:          0 HITS:          0 MISSES:          0
ITLB RQ ACCESS:  500000057
ITLB RQ TO_CACHE:  100680212
ITLB RQ MERGED:  399319845
ITLB RQ FORWARD:          0
ITLB WQ ACCESS:          0
ITLB WQ TO_CACHE:          0
ITLB WQ MERGED:          0
ITLB WQ FORWARD:          0
DTLB TOTAL     ACCESS:  165332359  HIT:  164698010  MISS:     634349
DTLB LOAD      ACCESS:  106288571  HIT:  105718574  MISS:     569997
DTLB RFO       ACCESS:   59043788  HIT:   58979436  MISS:      64352
DTLB PREFETCH  ACCESS:          0  HIT:          0  MISS:          0
DTLB WRITEBACK ACCESS:          0  HIT:          0  MISS:          0
DTLB PREFETCH  REQUESTED:          0  ISSUED:          0  USEFUL:          0  USELESS:          0
DTLB TOTAL MSHR MERGED:     100004
DTLB LOAD MSHR MERGED:      59451
DTLB RFO MSHR MERGED:      40553
DTLB PREFETCH MSHR MERGED:          0
DTLB WRITEBACK MSHR MERGED:          0
DTLB TOTAL ACCESSES:  165432363 HITS:  164698010 MISSES:     734353
DTLB LOAD ACCESSES:  106348022 HITS:  105718574 MISSES:     629448
DTLB RFO ACCESSES:   59084341 HITS:   58979436 MISSES:     104905
DTLB PREFETCH ACCESSES:          0 HITS:          0 MISSES:          0
DTLB WRITEBACK ACCESSES:          0 HITS:          0 MISSES:          0
DTLB RQ ACCESS:  200307098
DTLB RQ TO_CACHE:  165432363
DTLB RQ MERGED:   34874735
DTLB RQ FORWARD:          0
DTLB WQ ACCESS:          0
DTLB WQ TO_CACHE:          0
DTLB WQ MERGED:          0
DTLB WQ FORWARD:          0
L1D TOTAL     ACCESS:  281786048  HIT:  273876787  MISS:    7909261
L1D LOAD      ACCESS:  110407170  HIT:  107126111  MISS:    3281059
L1D RFO       ACCESS:   67107015  HIT:   66216019  MISS:     890996
L1D PREFETCH  ACCESS:  104271863  HIT:  100534657  MISS:    3737206
L1D WRITEBACK ACCESS:          0  HIT:          0  MISS:          0
L1D PREFETCH  REQUESTED:  110813290  ISSUED:  109114042  USEFUL:    1658023  USELESS:    2079147
L1D TOTAL MSHR MERGED:    2910673
L1D LOAD MSHR MERGED:     506673
L1D RFO MSHR MERGED:    1879111
L1D PREFETCH MSHR MERGED:     524889
L1D WRITEBACK MSHR MERGED:          0
L1D TOTAL ACCESSES:  284724231 HITS:  273904297 MISSES:   10819934
L1D LOAD ACCESSES:  110814808 HITS:  107127629 MISSES:    3687179
L1D RFO ACCESSES:   68973924 HITS:   66216019 MISSES:    2757905
L1D PREFETCH ACCESSES:  104935499 HITS:  100560649 MISSES:    4374850
L1D WRITEBACK ACCESSES:          0 HITS:          0 MISSES:          0
L1D RQ ACCESS:  130754495
L1D RQ TO_CACHE:  110813293
L1D RQ MERGED:   19939684
L1D RQ FORWARD:          0
L1D WQ ACCESS:   69552603
L1D WQ TO_CACHE:   68973925
L1D WQ MERGED:     578678
L1D WQ FORWARD:      27510
L1I TOTAL     ACCESS:  126555435  HIT:  122316881  MISS:    4238554
L1I LOAD      ACCESS:  126555435  HIT:  122316881  MISS:    4238554
L1I RFO       ACCESS:          0  HIT:          0  MISS:          0
L1I PREFETCH  ACCESS:          0  HIT:          0  MISS:          0
L1I WRITEBACK ACCESS:          0  HIT:          0  MISS:          0
L1I PREFETCH  REQUESTED:          0  ISSUED:          0  USEFUL:          0  USELESS:          0
L1I TOTAL MSHR MERGED:    1834428
L1I LOAD MSHR MERGED:    1834428
L1I RFO MSHR MERGED:          0
L1I PREFETCH MSHR MERGED:          0
L1I WRITEBACK MSHR MERGED:          0
L1I TOTAL ACCESSES:  128389866 HITS:  122316881 MISSES:    6072985
L1I LOAD ACCESSES:  128389866 HITS:  122316881 MISSES:    6072985
L1I RFO ACCESSES:          0 HITS:          0 MISSES:          0
L1I PREFETCH ACCESSES:          0 HITS:          0 MISSES:          0
L1I WRITEBACK ACCESSES:          0 HITS:          0 MISSES:          0
L1I RQ ACCESS:  500000057
L1I RQ TO_CACHE:  128389866
L1I RQ MERGED:  371610191
L1I RQ FORWARD:          0
L1I WQ ACCESS:          0
L1I WQ TO_CACHE:          0
L1I WQ MERGED:          0
L1I WQ FORWARD:          0
L2C TOTAL     ACCESS:   14904203  HIT:   11157760  MISS:    3746443
L2C LOAD      ACCESS:    7418851  HIT:    5098639  MISS:    2320212
L2C RFO       ACCESS:     878696  HIT:     409902  MISS:     468794
L2C PREFETCH  ACCESS:    4567421  HIT:    3627235  MISS:     940186
L2C WRITEBACK ACCESS:    2039235  HIT:    2021984  MISS:      17251
L2C PREFETCH  REQUESTED:     842568  ISSUED:     842568  USEFUL:     203146  USELESS:     736746
L2C TOTAL MSHR MERGED:       7839
L2C LOAD MSHR MERGED:        988
L2C RFO MSHR MERGED:          0
L2C PREFETCH MSHR MERGED:       6851
L2C WRITEBACK MSHR MERGED:          0
L2C TOTAL ACCESSES:   14912991 HITS:   11158212 MISSES:    3754779
L2C LOAD ACCESSES:    7419060 HITS:    5098848 MISSES:    2320212
L2C RFO ACCESSES:     878794 HITS:     410000 MISSES:     468794
L2C PREFETCH ACCESSES:    4575902 HITS:    3627380 MISSES:     948522
L2C WRITEBACK ACCESSES:    2039235 HITS:    2021984 MISSES:      17251
L2C RQ ACCESS:    8297857
L2C RQ TO_CACHE:    8297550
L2C RQ MERGED:          0
L2C RQ FORWARD:          0
L2C WQ ACCESS:    2039235
L2C WQ TO_CACHE:    2039235
L2C WQ MERGED:          0
L2C WQ FORWARD:        452
LLC TOTAL     ACCESS:    4609813  HIT:    3914809  MISS:     695004
LLC LOAD      ACCESS:    2319211  HIT:    2096737  MISS:     222474
LLC RFO       ACCESS:     468783  HIT:     385002  MISS:      83781
LLC PREFETCH  ACCESS:     941528  HIT:     594095  MISS:     347433
LLC WRITEBACK ACCESS:     880291  HIT:     838975  MISS:      41316
LLC PREFETCH  REQUESTED:          0  ISSUED:          0  USEFUL:      15857  USELESS:     332216
LLC TOTAL MSHR MERGED:        124
LLC LOAD MSHR MERGED:         46
LLC RFO MSHR MERGED:          0
LLC PREFETCH MSHR MERGED:         78
LLC WRITEBACK MSHR MERGED:          0
LLC TOTAL ACCESSES:    4609971 HITS:    3914843 MISSES:     695128
LLC LOAD ACCESSES:    2319224 HITS:    2096750 MISSES:     222474
LLC RFO ACCESSES:     468794 HITS:     385013 MISSES:      83781
LLC PREFETCH ACCESSES:     941662 HITS:     594105 MISSES:     347557
LLC WRITEBACK ACCESSES:     880291 HITS:     838975 MISSES:      41316
LLC 0 RQ ACCESS:    2788018
LLC 0 RQ TO_CACHE:    2787994
LLC 0 RQ MERGED:          0
LLC 0 RQ FORWARD:          0
LLC WQ ACCESS:     880291
LLC WQ TO_CACHE:     880291
LLC WQ MERGED:          0
LLC WQ FORWARD:         34
Major fault: 0 Minor fault: 12862
CPU 0 L1D next line prefetcher final stats
CPU 0 L2C PC-based stride prefetcher final stats
All Misses: 818060
All Hits: 4608759
SD Algo Stats - Switches: 0 SRR-Repls: 259742 BRR-Repls: 0

DRAM Statistics
 CHANNEL 0
 RQ ROW_BUFFER_HIT:     123019  ROW_BUFFER_MISS:     528675
 DBUS_CONGESTED:     398940
 WQ ROW_BUFFER_HIT:      18355  ROW_BUFFER_MISS:     209368  FULL:          0

 AVG_CONGESTED_CYCLE: 13
LOADS RETIRED: 136549171
INSTR RETIRED: 500000000
