
*** ChampSim Multicore Out-of-Order Simulator ***

Warmup Instructions: 100000000
Simulation Instructions: 500000000
Number of CPUs: 1
LLC sets: 2048
LLC ways: 16
Clean RRIP Policies: 2213230222132302 Dirty RRIP Policies: 1203130212031302 PSEL Width: 10 Track Set: 4294967295 PSEL Mask: 1 Demote Mask: 3020100030201000DS Algo: 0Window size: 0
Off-chip DRAM Size: 4096 MB Channels: 1 Width: 64-bit Data Rate: 1600 MT/s

CPU 0 runs /mnt/beegfs/iconst01/spec2017/Lbm.trace.gz
NOT SORTED
TRACE STRING: /mnt/beegfs/iconst01/spec2017/Lbm.trace.gz
SORTED
TRACE STRING: /mnt/beegfs/iconst01/spec2017/Lbm.trace.gz
INITIAL
TRACE STRING: /mnt/beegfs/iconst01/spec2017/Lbm.trace.gz

champsim_seed used: 283

CPU 0 L1D next line prefetcher
CPU 0 L2C IP-based stride prefetcher
Initialize DRRIP state
Assign rand_sets[0]: 454  LLC: 2048
rand_sets[0]: 454
Assign rand_sets[1]: 1662  LLC: 2048
rand_sets[1]: 1662
Assign rand_sets[2]: 1921  LLC: 2048
rand_sets[2]: 1921
Assign rand_sets[3]: 1131  LLC: 2048
rand_sets[3]: 1131
Assign rand_sets[4]: 331  LLC: 2048
rand_sets[4]: 331
Assign rand_sets[5]: 1531  LLC: 2048
rand_sets[5]: 1531
Assign rand_sets[6]: 482  LLC: 2048
rand_sets[6]: 482
Assign rand_sets[7]: 1275  LLC: 2048
rand_sets[7]: 1275
Assign rand_sets[8]: 1876  LLC: 2048
rand_sets[8]: 1876
Assign rand_sets[9]: 2038  LLC: 2048
rand_sets[9]: 2038
Assign rand_sets[10]: 701  LLC: 2048
rand_sets[10]: 701
Assign rand_sets[11]: 479  LLC: 2048
rand_sets[11]: 479
Assign rand_sets[12]: 892  LLC: 2048
rand_sets[12]: 892
Assign rand_sets[13]: 1820  LLC: 2048
rand_sets[13]: 1820
Assign rand_sets[14]: 1505  LLC: 2048
rand_sets[14]: 1505
Assign rand_sets[15]: 1159  LLC: 2048
rand_sets[15]: 1159
Assign rand_sets[16]: 513  LLC: 2048
rand_sets[16]: 513
Assign rand_sets[17]: 703  LLC: 2048
rand_sets[17]: 703
Assign rand_sets[18]: 561  LLC: 2048
rand_sets[18]: 561
Assign rand_sets[19]: 990  LLC: 2048
rand_sets[19]: 990
Assign rand_sets[20]: 342  LLC: 2048
rand_sets[20]: 342
Assign rand_sets[21]: 882  LLC: 2048
rand_sets[21]: 882
Assign rand_sets[22]: 15  LLC: 2048
rand_sets[22]: 15
Assign rand_sets[23]: 71  LLC: 2048
rand_sets[23]: 71
Assign rand_sets[24]: 1127  LLC: 2048
rand_sets[24]: 1127
Assign rand_sets[25]: 1382  LLC: 2048
rand_sets[25]: 1382
Assign rand_sets[26]: 647  LLC: 2048
rand_sets[26]: 647
Assign rand_sets[27]: 857  LLC: 2048
rand_sets[27]: 857
Assign rand_sets[28]: 1450  LLC: 2048
rand_sets[28]: 1450
Assign rand_sets[29]: 1160  LLC: 2048
rand_sets[29]: 1160
Assign rand_sets[30]: 1852  LLC: 2048
rand_sets[30]: 1852
Assign rand_sets[31]: 1881  LLC: 2048
rand_sets[31]: 1881
Assign rand_sets[32]: 1770  LLC: 2048
rand_sets[32]: 1770
Assign rand_sets[33]: 1622  LLC: 2048
rand_sets[33]: 1622
Assign rand_sets[34]: 275  LLC: 2048
rand_sets[34]: 275
Assign rand_sets[35]: 635  LLC: 2048
rand_sets[35]: 635
Assign rand_sets[36]: 466  LLC: 2048
rand_sets[36]: 466
Assign rand_sets[37]: 1413  LLC: 2048
rand_sets[37]: 1413
Assign rand_sets[38]: 417  LLC: 2048
rand_sets[38]: 417
Assign rand_sets[39]: 472  LLC: 2048
rand_sets[39]: 472
Assign rand_sets[40]: 1340  LLC: 2048
rand_sets[40]: 1340
Assign rand_sets[41]: 852  LLC: 2048
rand_sets[41]: 852
Assign rand_sets[42]: 1365  LLC: 2048
rand_sets[42]: 1365
Assign rand_sets[43]: 47  LLC: 2048
rand_sets[43]: 47
Assign rand_sets[44]: 823  LLC: 2048
rand_sets[44]: 823
Assign rand_sets[45]: 686  LLC: 2048
rand_sets[45]: 686
Assign rand_sets[46]: 1637  LLC: 2048
rand_sets[46]: 1637
Assign rand_sets[47]: 1115  LLC: 2048
rand_sets[47]: 1115
Assign rand_sets[48]: 986  LLC: 2048
rand_sets[48]: 986
Assign rand_sets[49]: 258  LLC: 2048
rand_sets[49]: 258
Assign rand_sets[50]: 633  LLC: 2048
rand_sets[50]: 633
Assign rand_sets[51]: 920  LLC: 2048
rand_sets[51]: 920
Assign rand_sets[52]: 204  LLC: 2048
rand_sets[52]: 204
Assign rand_sets[53]: 227  LLC: 2048
rand_sets[53]: 227
Assign rand_sets[54]: 1818  LLC: 2048
rand_sets[54]: 1818
Assign rand_sets[55]: 886  LLC: 2048
rand_sets[55]: 886
Assign rand_sets[56]: 1422  LLC: 2048
rand_sets[56]: 1422
Assign rand_sets[57]: 607  LLC: 2048
rand_sets[57]: 607
Assign rand_sets[58]: 217  LLC: 2048
rand_sets[58]: 217
Assign rand_sets[59]: 1945  LLC: 2048
rand_sets[59]: 1945
Assign rand_sets[60]: 143  LLC: 2048
rand_sets[60]: 143
Assign rand_sets[61]: 1311  LLC: 2048
rand_sets[61]: 1311
Assign rand_sets[62]: 319  LLC: 2048
rand_sets[62]: 319
Assign rand_sets[63]: 1846  LLC: 2048
rand_sets[63]: 1846
 CLEAN-RRIP-POLICY-1: 2-2-1-3-2-3-0-2- CLEAN-RRIP-POLICY-2: 2-2-1-3-2-3-0-2-
 DIRTY-RRIP-POLICY-1: 1-2-0-3-1-3-0-2- DIRTY-RRIP-POLICY-2: 1-2-0-3-1-3-0-2-
 PSEL width: 10
Heartbeat CPU 0 instructions: 10000000 cycles: 4321583 heartbeat IPC: 2.31397 cumulative IPC: 2.31397 (Simulation time: 0 hr 0 min 17 sec) 
Heartbeat CPU 0 instructions: 20000000 cycles: 8643663 heartbeat IPC: 2.3137 cumulative IPC: 2.31383 (Simulation time: 0 hr 0 min 34 sec) 
Heartbeat CPU 0 instructions: 30000000 cycles: 12965427 heartbeat IPC: 2.31387 cumulative IPC: 2.31385 (Simulation time: 0 hr 0 min 52 sec) 
Heartbeat CPU 0 instructions: 40000000 cycles: 17291280 heartbeat IPC: 2.31168 cumulative IPC: 2.3133 (Simulation time: 0 hr 1 min 9 sec) 
Heartbeat CPU 0 instructions: 50000000 cycles: 21613129 heartbeat IPC: 2.31382 cumulative IPC: 2.31341 (Simulation time: 0 hr 1 min 27 sec) 
Heartbeat CPU 0 instructions: 60000000 cycles: 25935045 heartbeat IPC: 2.31379 cumulative IPC: 2.31347 (Simulation time: 0 hr 1 min 44 sec) 
Heartbeat CPU 0 instructions: 70000000 cycles: 30256575 heartbeat IPC: 2.314 cumulative IPC: 2.31355 (Simulation time: 0 hr 2 min 1 sec) 
Heartbeat CPU 0 instructions: 80000000 cycles: 34582796 heartbeat IPC: 2.31149 cumulative IPC: 2.31329 (Simulation time: 0 hr 2 min 19 sec) 
Heartbeat CPU 0 instructions: 90000003 cycles: 38904912 heartbeat IPC: 2.31368 cumulative IPC: 2.31333 (Simulation time: 0 hr 2 min 36 sec) 
Heartbeat CPU 0 instructions: 100000000 cycles: 43226401 heartbeat IPC: 2.31402 cumulative IPC: 2.3134 (Simulation time: 0 hr 2 min 53 sec) 

Warmup complete CPU 0 instructions: 100000001 cycles: 43226402 (Simulation time: 0 hr 2 min 53 sec) 

Heartbeat CPU 0 instructions: 110000000 cycles: 57560380 heartbeat IPC: 0.697643 cumulative IPC: 0.697643 (Simulation time: 0 hr 3 min 18 sec) 
Heartbeat CPU 0 instructions: 120000000 cycles: 71861836 heartbeat IPC: 0.699229 cumulative IPC: 0.698435 (Simulation time: 0 hr 3 min 42 sec) 
Heartbeat CPU 0 instructions: 130000000 cycles: 86004804 heartbeat IPC: 0.707065 cumulative IPC: 0.701288 (Simulation time: 0 hr 4 min 7 sec) 
Heartbeat CPU 0 instructions: 140000000 cycles: 100128131 heartbeat IPC: 0.708048 cumulative IPC: 0.702966 (Simulation time: 0 hr 4 min 31 sec) 
Heartbeat CPU 0 instructions: 150000000 cycles: 113923246 heartbeat IPC: 0.724894 cumulative IPC: 0.707245 (Simulation time: 0 hr 4 min 55 sec) 
Heartbeat CPU 0 instructions: 160000000 cycles: 127875994 heartbeat IPC: 0.716705 cumulative IPC: 0.708804 (Simulation time: 0 hr 5 min 20 sec) 
Heartbeat CPU 0 instructions: 170000002 cycles: 142286222 heartbeat IPC: 0.693952 cumulative IPC: 0.706644 (Simulation time: 0 hr 5 min 44 sec) 
Heartbeat CPU 0 instructions: 180000000 cycles: 156267993 heartbeat IPC: 0.715217 cumulative IPC: 0.707704 (Simulation time: 0 hr 6 min 9 sec) 
Heartbeat CPU 0 instructions: 190000003 cycles: 173046157 heartbeat IPC: 0.596013 cumulative IPC: 0.693269 (Simulation time: 0 hr 6 min 36 sec) 
Heartbeat CPU 0 instructions: 200000000 cycles: 193465135 heartbeat IPC: 0.48974 cumulative IPC: 0.665607 (Simulation time: 0 hr 7 min 6 sec) 
Heartbeat CPU 0 instructions: 210000001 cycles: 207715506 heartbeat IPC: 0.701736 cumulative IPC: 0.668737 (Simulation time: 0 hr 7 min 30 sec) 
Heartbeat CPU 0 instructions: 220000000 cycles: 221534677 heartbeat IPC: 0.723632 cumulative IPC: 0.672992 (Simulation time: 0 hr 7 min 55 sec) 
Heartbeat CPU 0 instructions: 230000001 cycles: 235658272 heartbeat IPC: 0.708035 cumulative IPC: 0.675564 (Simulation time: 0 hr 8 min 19 sec) 
Heartbeat CPU 0 instructions: 240000000 cycles: 249975168 heartbeat IPC: 0.698475 cumulative IPC: 0.67715 (Simulation time: 0 hr 8 min 44 sec) 
Heartbeat CPU 0 instructions: 250000000 cycles: 264545895 heartbeat IPC: 0.686308 cumulative IPC: 0.677753 (Simulation time: 0 hr 9 min 8 sec) 
Heartbeat CPU 0 instructions: 260000000 cycles: 279373693 heartbeat IPC: 0.674409 cumulative IPC: 0.677543 (Simulation time: 0 hr 9 min 33 sec) 
Heartbeat CPU 0 instructions: 270000002 cycles: 294372838 heartbeat IPC: 0.666705 cumulative IPC: 0.676896 (Simulation time: 0 hr 9 min 59 sec) 
Heartbeat CPU 0 instructions: 280000000 cycles: 309300466 heartbeat IPC: 0.669899 cumulative IPC: 0.676503 (Simulation time: 0 hr 10 min 24 sec) 
Heartbeat CPU 0 instructions: 290000003 cycles: 325070531 heartbeat IPC: 0.634113 cumulative IPC: 0.674132 (Simulation time: 0 hr 10 min 50 sec) 
Heartbeat CPU 0 instructions: 300000000 cycles: 340284433 heartbeat IPC: 0.657293 cumulative IPC: 0.673269 (Simulation time: 0 hr 11 min 15 sec) 
Heartbeat CPU 0 instructions: 310000000 cycles: 356183308 heartbeat IPC: 0.628975 cumulative IPC: 0.671019 (Simulation time: 0 hr 11 min 41 sec) 
Heartbeat CPU 0 instructions: 320000000 cycles: 371892639 heartbeat IPC: 0.636564 cumulative IPC: 0.669372 (Simulation time: 0 hr 12 min 7 sec) 
Heartbeat CPU 0 instructions: 330000002 cycles: 386842054 heartbeat IPC: 0.668923 cumulative IPC: 0.669353 (Simulation time: 0 hr 12 min 32 sec) 
Heartbeat CPU 0 instructions: 340000000 cycles: 402882115 heartbeat IPC: 0.623439 cumulative IPC: 0.667305 (Simulation time: 0 hr 12 min 58 sec) 
Heartbeat CPU 0 instructions: 350000001 cycles: 417439626 heartbeat IPC: 0.686931 cumulative IPC: 0.668068 (Simulation time: 0 hr 13 min 22 sec) 
Heartbeat CPU 0 instructions: 360000000 cycles: 432964570 heartbeat IPC: 0.644125 cumulative IPC: 0.667115 (Simulation time: 0 hr 13 min 48 sec) 
Heartbeat CPU 0 instructions: 370000000 cycles: 447725340 heartbeat IPC: 0.677471 cumulative IPC: 0.667493 (Simulation time: 0 hr 14 min 13 sec) 
Heartbeat CPU 0 instructions: 380000000 cycles: 462856365 heartbeat IPC: 0.660894 cumulative IPC: 0.667255 (Simulation time: 0 hr 14 min 38 sec) 
Heartbeat CPU 0 instructions: 390000000 cycles: 477247695 heartbeat IPC: 0.694863 cumulative IPC: 0.66817 (Simulation time: 0 hr 15 min 3 sec) 
Heartbeat CPU 0 instructions: 400000000 cycles: 491481709 heartbeat IPC: 0.702543 cumulative IPC: 0.669261 (Simulation time: 0 hr 15 min 27 sec) 
Heartbeat CPU 0 instructions: 410000000 cycles: 505267644 heartbeat IPC: 0.725377 cumulative IPC: 0.670936 (Simulation time: 0 hr 15 min 52 sec) 
Heartbeat CPU 0 instructions: 420000000 cycles: 519466437 heartbeat IPC: 0.704285 cumulative IPC: 0.67193 (Simulation time: 0 hr 16 min 16 sec) 
Heartbeat CPU 0 instructions: 430000002 cycles: 533130641 heartbeat IPC: 0.731839 cumulative IPC: 0.673601 (Simulation time: 0 hr 16 min 40 sec) 
Heartbeat CPU 0 instructions: 440000000 cycles: 546886565 heartbeat IPC: 0.726959 cumulative IPC: 0.675058 (Simulation time: 0 hr 17 min 4 sec) 
Heartbeat CPU 0 instructions: 450000000 cycles: 560594787 heartbeat IPC: 0.729489 cumulative IPC: 0.676501 (Simulation time: 0 hr 17 min 29 sec) 
Heartbeat CPU 0 instructions: 460000000 cycles: 575281223 heartbeat IPC: 0.6809 cumulative IPC: 0.676622 (Simulation time: 0 hr 17 min 53 sec) 
Heartbeat CPU 0 instructions: 470000000 cycles: 589446819 heartbeat IPC: 0.705936 cumulative IPC: 0.677382 (Simulation time: 0 hr 18 min 18 sec) 
Heartbeat CPU 0 instructions: 480000000 cycles: 603481595 heartbeat IPC: 0.712516 cumulative IPC: 0.678262 (Simulation time: 0 hr 18 min 42 sec) 
Heartbeat CPU 0 instructions: 490000001 cycles: 617941190 heartbeat IPC: 0.691582 cumulative IPC: 0.678597 (Simulation time: 0 hr 19 min 7 sec) 
Heartbeat CPU 0 instructions: 500000000 cycles: 632341005 heartbeat IPC: 0.694453 cumulative IPC: 0.678985 (Simulation time: 0 hr 19 min 32 sec) 
Heartbeat CPU 0 instructions: 510000002 cycles: 646323567 heartbeat IPC: 0.715177 cumulative IPC: 0.679824 (Simulation time: 0 hr 19 min 56 sec) 
Heartbeat CPU 0 instructions: 520000000 cycles: 660152458 heartbeat IPC: 0.723124 cumulative IPC: 0.680795 (Simulation time: 0 hr 20 min 20 sec) 
Heartbeat CPU 0 instructions: 530000001 cycles: 674074067 heartbeat IPC: 0.718308 cumulative IPC: 0.681623 (Simulation time: 0 hr 20 min 44 sec) 
Heartbeat CPU 0 instructions: 540000000 cycles: 688482355 heartbeat IPC: 0.694045 cumulative IPC: 0.6819 (Simulation time: 0 hr 21 min 9 sec) 
Heartbeat CPU 0 instructions: 550000003 cycles: 702380774 heartbeat IPC: 0.719507 cumulative IPC: 0.682693 (Simulation time: 0 hr 21 min 33 sec) 
Heartbeat CPU 0 instructions: 560000000 cycles: 716912233 heartbeat IPC: 0.688162 cumulative IPC: 0.682811 (Simulation time: 0 hr 21 min 58 sec) 
Heartbeat CPU 0 instructions: 570000001 cycles: 731101370 heartbeat IPC: 0.704765 cumulative IPC: 0.683264 (Simulation time: 0 hr 22 min 23 sec) 
Heartbeat CPU 0 instructions: 580000000 cycles: 744865138 heartbeat IPC: 0.726545 cumulative IPC: 0.684113 (Simulation time: 0 hr 22 min 47 sec) 
Heartbeat CPU 0 instructions: 590000003 cycles: 758205381 heartbeat IPC: 0.749612 cumulative IPC: 0.685335 (Simulation time: 0 hr 23 min 11 sec) 
Heartbeat CPU 0 instructions: 600000000 cycles: 772068927 heartbeat IPC: 0.721316 cumulative IPC: 0.686019 (Simulation time: 0 hr 23 min 35 sec) 
Finished CPU 0 instructions: 500000000 cycles: 728842533 cumulative IPC: 0.686019 (Simulation time: 0 hr 23 min 35 sec) 

CPU 0 Branch Prediction Accuracy: 99.5915% MPKI: 0.037126
Number of Branches: 4544106 Number of Mispredictions: 18563
Number of LOAD Instructions: 149787067
Number of LOAD Instructions (ROI): 149787067
Number of STORE Instructions: 77239062
Number of STORE Instructions (ROI): 77239062
Total Destination Memory Operands: 77239062
Total Destination Memory Operands (ROI): 77239062
Total Source Memory Operands: 149787067
Total Source Memory Operands (ROI): 149787067
Number of DEPENDED LOADS: 19247898
Number of DEPENDED LOADS (ROI): 19247898
Number of SQ_ADDED: 77239036
Number of SQ_ADDED (ROI): 77239036
Number of LQ_ADDED: 149787020
Number of LQ_ADDED (ROI): 149787020
Number of Instructions read from trace: 600000256

ChampSim completed all CPUs

Region of Interest Statistics

CPU 0 cumulative IPC: 0.686019 instructions: 500000000 cycles: 728842533
ITLB TOTAL     ACCESS:   86454059  HIT:   86454058  MISS:          1
ITLB LOAD      ACCESS:   86454059  HIT:   86454058  MISS:          1
ITLB RFO       ACCESS:          0  HIT:          0  MISS:          0
ITLB PREFETCH  ACCESS:          0  HIT:          0  MISS:          0
ITLB WRITEBACK ACCESS:          0  HIT:          0  MISS:          0
ITLB PREFETCH  REQUESTED:          0  ISSUED:          0  USEFUL:          0  USELESS:          0
ITLB TOTAL MSHR MERGED:          1
ITLB LOAD MSHR MERGED:          1
ITLB RFO MSHR MERGED:          0
ITLB PREFETCH MSHR MERGED:          0
ITLB WRITEBACK MSHR MERGED:          0
ITLB TOTAL ACCESSES:   86454060 HITS:   86454058 MISSES:          2
ITLB LOAD ACCESSES:   86454060 HITS:   86454058 MISSES:          2
ITLB RFO ACCESSES:          0 HITS:          0 MISSES:          0
ITLB PREFETCH ACCESSES:          0 HITS:          0 MISSES:          0
ITLB WRITEBACK ACCESSES:          0 HITS:          0 MISSES:          0
ITLB RQ ACCESS:  500000002
ITLB RQ TO_CACHE:   86454060
ITLB RQ MERGED:  413545942
ITLB RQ FORWARD:          0
ITLB WQ ACCESS:          0
ITLB WQ TO_CACHE:          0
ITLB WQ MERGED:          0
ITLB WQ FORWARD:          0
DTLB TOTAL     ACCESS:   98106976  HIT:   97921715  MISS:     185261
DTLB LOAD      ACCESS:   55040115  HIT:   54993804  MISS:      46311
DTLB RFO       ACCESS:   43066861  HIT:   42927911  MISS:     138950
DTLB PREFETCH  ACCESS:          0  HIT:          0  MISS:          0
DTLB WRITEBACK ACCESS:          0  HIT:          0  MISS:          0
DTLB PREFETCH  REQUESTED:          0  ISSUED:          0  USEFUL:          0  USELESS:          0
DTLB TOTAL MSHR MERGED:      83579
DTLB LOAD MSHR MERGED:      83572
DTLB RFO MSHR MERGED:          7
DTLB PREFETCH MSHR MERGED:          0
DTLB WRITEBACK MSHR MERGED:          0
DTLB TOTAL ACCESSES:   98190555 HITS:   97921715 MISSES:     268840
DTLB LOAD ACCESSES:   55123687 HITS:   54993804 MISSES:     129883
DTLB RFO ACCESSES:   43066868 HITS:   42927911 MISSES:     138957
DTLB PREFETCH ACCESSES:          0 HITS:          0 MISSES:          0
DTLB WRITEBACK ACCESSES:          0 HITS:          0 MISSES:          0
DTLB RQ ACCESS:  173634629
DTLB RQ TO_CACHE:   98190555
DTLB RQ MERGED:   75444074
DTLB RQ FORWARD:          0
DTLB WQ ACCESS:          0
DTLB WQ TO_CACHE:          0
DTLB WQ MERGED:          0
DTLB WQ FORWARD:          0
L1D TOTAL     ACCESS:  164581350  HIT:  145008783  MISS:   19572567
L1D LOAD      ACCESS:   60548364  HIT:   58696511  MISS:    1851853
L1D RFO       ACCESS:   64513806  HIT:   47911673  MISS:   16602133
L1D PREFETCH  ACCESS:   39519180  HIT:   38400599  MISS:    1118581
L1D WRITEBACK ACCESS:          0  HIT:          0  MISS:          0
L1D PREFETCH  REQUESTED:   61736672  ISSUED:   61444325  USEFUL:    1116656  USELESS:       1926
L1D TOTAL MSHR MERGED:    3533152
L1D LOAD MSHR MERGED:    1259861
L1D RFO MSHR MERGED:      11579
L1D PREFETCH MSHR MERGED:    2261712
L1D WRITEBACK MSHR MERGED:          0
L1D TOTAL ACCESSES:  168677573 HITS:  145571854 MISSES:   23105719
L1D LOAD ACCESSES:   61992691 HITS:   58952530 MISSES:    3040161
L1D RFO ACCESSES:   64525348 HITS:   47911673 MISSES:   16613675
L1D PREFETCH ACCESSES:   42159534 HITS:   38707651 MISSES:    3451883
L1D WRITEBACK ACCESSES:          0 HITS:          0 MISSES:          0
L1D RQ ACCESS:  109093314
L1D RQ TO_CACHE:   61736672
L1D RQ MERGED:   47100623
L1D RQ FORWARD:          0
L1D WQ ACCESS:   64541313
L1D WQ TO_CACHE:   64525349
L1D WQ MERGED:      15964
L1D WQ FORWARD:     563071
L1I TOTAL     ACCESS:  107763186  HIT:  107763178  MISS:          8
L1I LOAD      ACCESS:  107763186  HIT:  107763178  MISS:          8
L1I RFO       ACCESS:          0  HIT:          0  MISS:          0
L1I PREFETCH  ACCESS:          0  HIT:          0  MISS:          0
L1I WRITEBACK ACCESS:          0  HIT:          0  MISS:          0
L1I PREFETCH  REQUESTED:          0  ISSUED:          0  USEFUL:          0  USELESS:          0
L1I TOTAL MSHR MERGED:          3
L1I LOAD MSHR MERGED:          3
L1I RFO MSHR MERGED:          0
L1I PREFETCH MSHR MERGED:          0
L1I WRITEBACK MSHR MERGED:          0
L1I TOTAL ACCESSES:  107763189 HITS:  107763178 MISSES:         11
L1I LOAD ACCESSES:  107763189 HITS:  107763178 MISSES:         11
L1I RFO ACCESSES:          0 HITS:          0 MISSES:          0
L1I PREFETCH ACCESSES:          0 HITS:          0 MISSES:          0
L1I WRITEBACK ACCESSES:          0 HITS:          0 MISSES:          0
L1I RQ ACCESS:  500000007
L1I RQ TO_CACHE:  107763189
L1I RQ MERGED:  392236818
L1I RQ FORWARD:          0
L1I WQ ACCESS:          0
L1I WQ TO_CACHE:          0
L1I WQ MERGED:          0
L1I WQ FORWARD:          0
L2C TOTAL     ACCESS:   36808418  HIT:   24850838  MISS:   11957580
L2C LOAD      ACCESS:    1780308  HIT:     255703  MISS:    1524605
L2C RFO       ACCESS:   16602094  HIT:    7610734  MISS:    8991360
L2C PREFETCH  ACCESS:    1823829  HIT:     383444  MISS:    1440385
L2C WRITEBACK ACCESS:   16602187  HIT:   16600957  MISS:       1230
L2C PREFETCH  REQUESTED:     814812  ISSUED:     814812  USEFUL:     253390  USELESS:    1187277
L2C TOTAL MSHR MERGED:       2662
L2C LOAD MSHR MERGED:        581
L2C RFO MSHR MERGED:          0
L2C PREFETCH MSHR MERGED:       2081
L2C WRITEBACK MSHR MERGED:          0
L2C TOTAL ACCESSES:   36989508 HITS:   24850841 MISSES:   12138667
L2C LOAD ACCESSES:    1780308 HITS:     255703 MISSES:    1524605
L2C RFO ACCESSES:   16602096 HITS:    7610737 MISSES:    8991359
L2C PREFETCH ACCESSES:    2004917 HITS:     383444 MISSES:    1621473
L2C WRITEBACK ACCESSES:   16602187 HITS:   16600957 MISSES:       1230
L2C RQ ACCESS:   18382404
L2C RQ TO_CACHE:   18382401
L2C RQ MERGED:          0
L2C RQ FORWARD:          0
L2C WQ ACCESS:   16602187
L2C WQ TO_CACHE:   16602187
L2C WQ MERGED:          0
L2C WQ FORWARD:          3
LLC TOTAL     ACCESS:   21123890  HIT:    1786267  MISS:   19337623
LLC LOAD      ACCESS:    1524024  HIT:      64463  MISS:    1459561
LLC RFO       ACCESS:    8991346  HIT:     722955  MISS:    8268391
LLC PREFETCH  ACCESS:    1616333  HIT:     110560  MISS:    1505773
LLC WRITEBACK ACCESS:    8992187  HIT:     888289  MISS:    8103898
LLC PREFETCH  REQUESTED:          0  ISSUED:          0  USEFUL:      64312  USELESS:    1441284
LLC TOTAL MSHR MERGED:       2670
LLC LOAD MSHR MERGED:        223
LLC RFO MSHR MERGED:          0
LLC PREFETCH MSHR MERGED:       2447
LLC WRITEBACK MSHR MERGED:          0
LLC TOTAL ACCESSES:   21126573 HITS:    1786281 MISSES:   19340292
LLC LOAD ACCESSES:    1524024 HITS:      64463 MISSES:    1459561
LLC RFO ACCESSES:    8991359 HITS:     722969 MISSES:    8268390
LLC PREFETCH ACCESSES:    1619003 HITS:     110560 MISSES:    1508443
LLC WRITEBACK ACCESSES:    8992187 HITS:     888289 MISSES:    8103898
LLC 0 RQ ACCESS:   10515383
LLC 0 RQ TO_CACHE:   10515369
LLC 0 RQ MERGED:          0
LLC 0 RQ FORWARD:          0
LLC WQ ACCESS:    8992187
LLC WQ TO_CACHE:    8992187
LLC WQ MERGED:          0
LLC WQ FORWARD:         14
Major fault: 0 Minor fault: 102360
CPU 0 L1D next line prefetcher final stats
CPU 0 L2C PC-based stride prefetcher final stats
All Misses: 23028140
All Hits: 2071261
SD Algo Stats - Switches: 0 SRR-Repls: 1638162 BRR-Repls: 0

DRAM Statistics
 CHANNEL 0
 RQ ROW_BUFFER_HIT:    3735928  ROW_BUFFER_MISS:    7496027
 DBUS_CONGESTED:   13372945
 WQ ROW_BUFFER_HIT:    1303289  ROW_BUFFER_MISS:    6994497  FULL:          0

 AVG_CONGESTED_CYCLE: 13
LOADS RETIRED: 124982196
INSTR RETIRED: 500000000
