
*** ChampSim Multicore Out-of-Order Simulator ***

Warmup Instructions: 100000000
Simulation Instructions: 500000000
Number of CPUs: 1
LLC sets: 2048
LLC ways: 16
Clean RRIP Policies: 1213131112131311 Dirty RRIP Policies: 2203130122031301 PSEL Width: 10 Track Set: 4294967295 PSEL Mask: 1 Demote Mask: 3040102030401020DS Algo: 0Window size: 0
Off-chip DRAM Size: 4096 MB Channels: 1 Width: 64-bit Data Rate: 1600 MT/s

CPU 0 runs /mnt/beegfs/iconst01/spec2017/Cam4.trace.gz
NOT SORTED
TRACE STRING: /mnt/beegfs/iconst01/spec2017/Cam4.trace.gz
SORTED
TRACE STRING: /mnt/beegfs/iconst01/spec2017/Cam4.trace.gz
INITIAL
TRACE STRING: /mnt/beegfs/iconst01/spec2017/Cam4.trace.gz

champsim_seed used: 325

CPU 0 L1D next line prefetcher
CPU 0 L2C IP-based stride prefetcher
Initialize DRRIP state
Assign rand_sets[0]: 454  LLC: 2048
rand_sets[0]: 454
Assign rand_sets[1]: 1662  LLC: 2048
rand_sets[1]: 1662
Assign rand_sets[2]: 1921  LLC: 2048
rand_sets[2]: 1921
Assign rand_sets[3]: 1131  LLC: 2048
rand_sets[3]: 1131
Assign rand_sets[4]: 331  LLC: 2048
rand_sets[4]: 331
Assign rand_sets[5]: 1531  LLC: 2048
rand_sets[5]: 1531
Assign rand_sets[6]: 482  LLC: 2048
rand_sets[6]: 482
Assign rand_sets[7]: 1275  LLC: 2048
rand_sets[7]: 1275
Assign rand_sets[8]: 1876  LLC: 2048
rand_sets[8]: 1876
Assign rand_sets[9]: 2038  LLC: 2048
rand_sets[9]: 2038
Assign rand_sets[10]: 701  LLC: 2048
rand_sets[10]: 701
Assign rand_sets[11]: 479  LLC: 2048
rand_sets[11]: 479
Assign rand_sets[12]: 892  LLC: 2048
rand_sets[12]: 892
Assign rand_sets[13]: 1820  LLC: 2048
rand_sets[13]: 1820
Assign rand_sets[14]: 1505  LLC: 2048
rand_sets[14]: 1505
Assign rand_sets[15]: 1159  LLC: 2048
rand_sets[15]: 1159
Assign rand_sets[16]: 513  LLC: 2048
rand_sets[16]: 513
Assign rand_sets[17]: 703  LLC: 2048
rand_sets[17]: 703
Assign rand_sets[18]: 561  LLC: 2048
rand_sets[18]: 561
Assign rand_sets[19]: 990  LLC: 2048
rand_sets[19]: 990
Assign rand_sets[20]: 342  LLC: 2048
rand_sets[20]: 342
Assign rand_sets[21]: 882  LLC: 2048
rand_sets[21]: 882
Assign rand_sets[22]: 15  LLC: 2048
rand_sets[22]: 15
Assign rand_sets[23]: 71  LLC: 2048
rand_sets[23]: 71
Assign rand_sets[24]: 1127  LLC: 2048
rand_sets[24]: 1127
Assign rand_sets[25]: 1382  LLC: 2048
rand_sets[25]: 1382
Assign rand_sets[26]: 647  LLC: 2048
rand_sets[26]: 647
Assign rand_sets[27]: 857  LLC: 2048
rand_sets[27]: 857
Assign rand_sets[28]: 1450  LLC: 2048
rand_sets[28]: 1450
Assign rand_sets[29]: 1160  LLC: 2048
rand_sets[29]: 1160
Assign rand_sets[30]: 1852  LLC: 2048
rand_sets[30]: 1852
Assign rand_sets[31]: 1881  LLC: 2048
rand_sets[31]: 1881
Assign rand_sets[32]: 1770  LLC: 2048
rand_sets[32]: 1770
Assign rand_sets[33]: 1622  LLC: 2048
rand_sets[33]: 1622
Assign rand_sets[34]: 275  LLC: 2048
rand_sets[34]: 275
Assign rand_sets[35]: 635  LLC: 2048
rand_sets[35]: 635
Assign rand_sets[36]: 466  LLC: 2048
rand_sets[36]: 466
Assign rand_sets[37]: 1413  LLC: 2048
rand_sets[37]: 1413
Assign rand_sets[38]: 417  LLC: 2048
rand_sets[38]: 417
Assign rand_sets[39]: 472  LLC: 2048
rand_sets[39]: 472
Assign rand_sets[40]: 1340  LLC: 2048
rand_sets[40]: 1340
Assign rand_sets[41]: 852  LLC: 2048
rand_sets[41]: 852
Assign rand_sets[42]: 1365  LLC: 2048
rand_sets[42]: 1365
Assign rand_sets[43]: 47  LLC: 2048
rand_sets[43]: 47
Assign rand_sets[44]: 823  LLC: 2048
rand_sets[44]: 823
Assign rand_sets[45]: 686  LLC: 2048
rand_sets[45]: 686
Assign rand_sets[46]: 1637  LLC: 2048
rand_sets[46]: 1637
Assign rand_sets[47]: 1115  LLC: 2048
rand_sets[47]: 1115
Assign rand_sets[48]: 986  LLC: 2048
rand_sets[48]: 986
Assign rand_sets[49]: 258  LLC: 2048
rand_sets[49]: 258
Assign rand_sets[50]: 633  LLC: 2048
rand_sets[50]: 633
Assign rand_sets[51]: 920  LLC: 2048
rand_sets[51]: 920
Assign rand_sets[52]: 204  LLC: 2048
rand_sets[52]: 204
Assign rand_sets[53]: 227  LLC: 2048
rand_sets[53]: 227
Assign rand_sets[54]: 1818  LLC: 2048
rand_sets[54]: 1818
Assign rand_sets[55]: 886  LLC: 2048
rand_sets[55]: 886
Assign rand_sets[56]: 1422  LLC: 2048
rand_sets[56]: 1422
Assign rand_sets[57]: 607  LLC: 2048
rand_sets[57]: 607
Assign rand_sets[58]: 217  LLC: 2048
rand_sets[58]: 217
Assign rand_sets[59]: 1945  LLC: 2048
rand_sets[59]: 1945
Assign rand_sets[60]: 143  LLC: 2048
rand_sets[60]: 143
Assign rand_sets[61]: 1311  LLC: 2048
rand_sets[61]: 1311
Assign rand_sets[62]: 319  LLC: 2048
rand_sets[62]: 319
Assign rand_sets[63]: 1846  LLC: 2048
rand_sets[63]: 1846
 CLEAN-RRIP-POLICY-1: 1-2-1-3-1-3-1-1- CLEAN-RRIP-POLICY-2: 1-2-1-3-1-3-1-1-
 DIRTY-RRIP-POLICY-1: 2-2-0-3-1-3-0-1- DIRTY-RRIP-POLICY-2: 2-2-0-3-1-3-0-1-
 PSEL width: 10
Heartbeat CPU 0 instructions: 10000000 cycles: 4859184 heartbeat IPC: 2.05796 cumulative IPC: 2.05796 (Simulation time: 0 hr 0 min 17 sec) 
Heartbeat CPU 0 instructions: 20000000 cycles: 9790786 heartbeat IPC: 2.02774 cumulative IPC: 2.04274 (Simulation time: 0 hr 0 min 33 sec) 
Heartbeat CPU 0 instructions: 30000001 cycles: 14563045 heartbeat IPC: 2.09544 cumulative IPC: 2.06001 (Simulation time: 0 hr 0 min 48 sec) 
Heartbeat CPU 0 instructions: 40000000 cycles: 19400052 heartbeat IPC: 2.06739 cumulative IPC: 2.06185 (Simulation time: 0 hr 1 min 5 sec) 
Heartbeat CPU 0 instructions: 50000000 cycles: 24256615 heartbeat IPC: 2.05907 cumulative IPC: 2.06129 (Simulation time: 0 hr 1 min 22 sec) 
Heartbeat CPU 0 instructions: 60000000 cycles: 29182121 heartbeat IPC: 2.03025 cumulative IPC: 2.05605 (Simulation time: 0 hr 1 min 39 sec) 
Heartbeat CPU 0 instructions: 70000001 cycles: 33956965 heartbeat IPC: 2.09431 cumulative IPC: 2.06143 (Simulation time: 0 hr 1 min 54 sec) 
Heartbeat CPU 0 instructions: 80000000 cycles: 38793261 heartbeat IPC: 2.0677 cumulative IPC: 2.06221 (Simulation time: 0 hr 2 min 11 sec) 
Heartbeat CPU 0 instructions: 90000002 cycles: 43647309 heartbeat IPC: 2.06014 cumulative IPC: 2.06198 (Simulation time: 0 hr 2 min 29 sec) 
Heartbeat CPU 0 instructions: 100000000 cycles: 48566168 heartbeat IPC: 2.03299 cumulative IPC: 2.05905 (Simulation time: 0 hr 2 min 46 sec) 

Warmup complete CPU 0 instructions: 100000001 cycles: 48566169 (Simulation time: 0 hr 2 min 46 sec) 

Heartbeat CPU 0 instructions: 110000000 cycles: 61792710 heartbeat IPC: 0.756056 cumulative IPC: 0.756055 (Simulation time: 0 hr 3 min 9 sec) 
Heartbeat CPU 0 instructions: 120000000 cycles: 75565851 heartbeat IPC: 0.726051 cumulative IPC: 0.740749 (Simulation time: 0 hr 3 min 34 sec) 
Heartbeat CPU 0 instructions: 130000000 cycles: 89331441 heartbeat IPC: 0.726449 cumulative IPC: 0.73592 (Simulation time: 0 hr 4 min 0 sec) 
Heartbeat CPU 0 instructions: 140000000 cycles: 103612658 heartbeat IPC: 0.70022 cumulative IPC: 0.726659 (Simulation time: 0 hr 4 min 25 sec) 
Heartbeat CPU 0 instructions: 150000003 cycles: 116907631 heartbeat IPC: 0.752164 cumulative IPC: 0.73162 (Simulation time: 0 hr 4 min 49 sec) 
Heartbeat CPU 0 instructions: 160000000 cycles: 130681844 heartbeat IPC: 0.725994 cumulative IPC: 0.730677 (Simulation time: 0 hr 5 min 14 sec) 
Heartbeat CPU 0 instructions: 170000001 cycles: 144484517 heartbeat IPC: 0.724497 cumulative IPC: 0.729787 (Simulation time: 0 hr 5 min 40 sec) 
Heartbeat CPU 0 instructions: 180000000 cycles: 158756581 heartbeat IPC: 0.700669 cumulative IPC: 0.726016 (Simulation time: 0 hr 6 min 6 sec) 
Heartbeat CPU 0 instructions: 190000003 cycles: 172003111 heartbeat IPC: 0.754915 cumulative IPC: 0.729117 (Simulation time: 0 hr 6 min 29 sec) 
Heartbeat CPU 0 instructions: 200000000 cycles: 185773828 heartbeat IPC: 0.726178 cumulative IPC: 0.728822 (Simulation time: 0 hr 6 min 55 sec) 
Heartbeat CPU 0 instructions: 210000002 cycles: 199573701 heartbeat IPC: 0.724644 cumulative IPC: 0.72844 (Simulation time: 0 hr 7 min 20 sec) 
Heartbeat CPU 0 instructions: 220000000 cycles: 213843933 heartbeat IPC: 0.700759 cumulative IPC: 0.72605 (Simulation time: 0 hr 7 min 46 sec) 
Heartbeat CPU 0 instructions: 230000001 cycles: 227011791 heartbeat IPC: 0.759425 cumulative IPC: 0.728513 (Simulation time: 0 hr 8 min 9 sec) 
Heartbeat CPU 0 instructions: 240000000 cycles: 240778763 heartbeat IPC: 0.726376 cumulative IPC: 0.72836 (Simulation time: 0 hr 8 min 35 sec) 
Heartbeat CPU 0 instructions: 250000001 cycles: 254528873 heartbeat IPC: 0.727267 cumulative IPC: 0.728287 (Simulation time: 0 hr 9 min 0 sec) 
Heartbeat CPU 0 instructions: 260000000 cycles: 268683090 heartbeat IPC: 0.706503 cumulative IPC: 0.726886 (Simulation time: 0 hr 9 min 26 sec) 
Heartbeat CPU 0 instructions: 270000003 cycles: 281985403 heartbeat IPC: 0.751749 cumulative IPC: 0.728303 (Simulation time: 0 hr 9 min 49 sec) 
Heartbeat CPU 0 instructions: 280000000 cycles: 295766054 heartbeat IPC: 0.725655 cumulative IPC: 0.728156 (Simulation time: 0 hr 10 min 15 sec) 
Heartbeat CPU 0 instructions: 290000001 cycles: 309558183 heartbeat IPC: 0.725051 cumulative IPC: 0.727992 (Simulation time: 0 hr 10 min 40 sec) 
Heartbeat CPU 0 instructions: 300000000 cycles: 323646464 heartbeat IPC: 0.70981 cumulative IPC: 0.72706 (Simulation time: 0 hr 11 min 6 sec) 
Heartbeat CPU 0 instructions: 310000000 cycles: 336957107 heartbeat IPC: 0.751279 cumulative IPC: 0.728178 (Simulation time: 0 hr 11 min 29 sec) 
Heartbeat CPU 0 instructions: 320000000 cycles: 350777686 heartbeat IPC: 0.723559 cumulative IPC: 0.727967 (Simulation time: 0 hr 11 min 54 sec) 
Heartbeat CPU 0 instructions: 330000000 cycles: 364587910 heartbeat IPC: 0.724101 cumulative IPC: 0.727798 (Simulation time: 0 hr 12 min 20 sec) 
Heartbeat CPU 0 instructions: 340000000 cycles: 378647429 heartbeat IPC: 0.711262 cumulative IPC: 0.727094 (Simulation time: 0 hr 12 min 45 sec) 
Heartbeat CPU 0 instructions: 350000000 cycles: 392013438 heartbeat IPC: 0.748167 cumulative IPC: 0.727914 (Simulation time: 0 hr 13 min 8 sec) 
Heartbeat CPU 0 instructions: 360000000 cycles: 405876028 heartbeat IPC: 0.721366 cumulative IPC: 0.72766 (Simulation time: 0 hr 13 min 33 sec) 
Heartbeat CPU 0 instructions: 370000003 cycles: 419685015 heartbeat IPC: 0.724166 cumulative IPC: 0.72753 (Simulation time: 0 hr 13 min 58 sec) 
Heartbeat CPU 0 instructions: 380000000 cycles: 433716995 heartbeat IPC: 0.712658 cumulative IPC: 0.726988 (Simulation time: 0 hr 14 min 23 sec) 
Heartbeat CPU 0 instructions: 390000003 cycles: 447114426 heartbeat IPC: 0.746412 cumulative IPC: 0.727641 (Simulation time: 0 hr 14 min 46 sec) 
Heartbeat CPU 0 instructions: 400000000 cycles: 460965574 heartbeat IPC: 0.721962 cumulative IPC: 0.72745 (Simulation time: 0 hr 15 min 11 sec) 
Heartbeat CPU 0 instructions: 410000000 cycles: 474743848 heartbeat IPC: 0.72578 cumulative IPC: 0.727396 (Simulation time: 0 hr 15 min 36 sec) 
Heartbeat CPU 0 instructions: 420000000 cycles: 488760681 heartbeat IPC: 0.713428 cumulative IPC: 0.726951 (Simulation time: 0 hr 16 min 2 sec) 
Heartbeat CPU 0 instructions: 430000003 cycles: 502168382 heartbeat IPC: 0.74584 cumulative IPC: 0.72751 (Simulation time: 0 hr 16 min 24 sec) 
Heartbeat CPU 0 instructions: 440000000 cycles: 516023145 heartbeat IPC: 0.721773 cumulative IPC: 0.72734 (Simulation time: 0 hr 16 min 49 sec) 
Heartbeat CPU 0 instructions: 450000000 cycles: 529824547 heartbeat IPC: 0.724564 cumulative IPC: 0.72726 (Simulation time: 0 hr 17 min 14 sec) 
Heartbeat CPU 0 instructions: 460000000 cycles: 543821911 heartbeat IPC: 0.71442 cumulative IPC: 0.726897 (Simulation time: 0 hr 17 min 39 sec) 
Heartbeat CPU 0 instructions: 470000001 cycles: 557211521 heartbeat IPC: 0.746848 cumulative IPC: 0.727422 (Simulation time: 0 hr 18 min 1 sec) 
Heartbeat CPU 0 instructions: 480000000 cycles: 571041738 heartbeat IPC: 0.723054 cumulative IPC: 0.727307 (Simulation time: 0 hr 18 min 26 sec) 
Heartbeat CPU 0 instructions: 490000002 cycles: 584819069 heartbeat IPC: 0.72583 cumulative IPC: 0.727269 (Simulation time: 0 hr 18 min 51 sec) 
Heartbeat CPU 0 instructions: 500000000 cycles: 598821388 heartbeat IPC: 0.714167 cumulative IPC: 0.726935 (Simulation time: 0 hr 19 min 16 sec) 
Heartbeat CPU 0 instructions: 510000002 cycles: 612246853 heartbeat IPC: 0.744853 cumulative IPC: 0.727362 (Simulation time: 0 hr 19 min 38 sec) 
Heartbeat CPU 0 instructions: 520000000 cycles: 626065948 heartbeat IPC: 0.723636 cumulative IPC: 0.727273 (Simulation time: 0 hr 20 min 3 sec) 
Heartbeat CPU 0 instructions: 530000003 cycles: 639822110 heartbeat IPC: 0.726947 cumulative IPC: 0.727265 (Simulation time: 0 hr 20 min 28 sec) 
Heartbeat CPU 0 instructions: 540000000 cycles: 653845039 heartbeat IPC: 0.713118 cumulative IPC: 0.726938 (Simulation time: 0 hr 20 min 52 sec) 
Heartbeat CPU 0 instructions: 550000003 cycles: 667252418 heartbeat IPC: 0.745858 cumulative IPC: 0.727348 (Simulation time: 0 hr 21 min 15 sec) 
Heartbeat CPU 0 instructions: 560000000 cycles: 681049307 heartbeat IPC: 0.724801 cumulative IPC: 0.727292 (Simulation time: 0 hr 21 min 40 sec) 
Heartbeat CPU 0 instructions: 570000001 cycles: 694834357 heartbeat IPC: 0.725424 cumulative IPC: 0.727252 (Simulation time: 0 hr 22 min 4 sec) 
Heartbeat CPU 0 instructions: 580000000 cycles: 708879266 heartbeat IPC: 0.712002 cumulative IPC: 0.726928 (Simulation time: 0 hr 22 min 29 sec) 
Heartbeat CPU 0 instructions: 590000000 cycles: 722226815 heartbeat IPC: 0.749201 cumulative IPC: 0.727369 (Simulation time: 0 hr 22 min 52 sec) 
Heartbeat CPU 0 instructions: 600000000 cycles: 736023391 heartbeat IPC: 0.724818 cumulative IPC: 0.727318 (Simulation time: 0 hr 23 min 16 sec) 
Finished CPU 0 instructions: 500000001 cycles: 687457230 cumulative IPC: 0.727318 (Simulation time: 0 hr 23 min 16 sec) 

CPU 0 Branch Prediction Accuracy: 97.5275% MPKI: 2.1997
Number of Branches: 44482865 Number of Mispredictions: 1099852
Number of LOAD Instructions: 144955155
Number of LOAD Instructions (ROI): 144955155
Number of STORE Instructions: 55921098
Number of STORE Instructions (ROI): 55921098
Total Destination Memory Operands: 57111147
Total Destination Memory Operands (ROI): 57111147
Total Source Memory Operands: 144955155
Total Source Memory Operands (ROI): 144955155
Number of DEPENDED LOADS: 13454954
Number of DEPENDED LOADS (ROI): 13454954
Number of SQ_ADDED: 57111126
Number of SQ_ADDED (ROI): 57111126
Number of LQ_ADDED: 174558414
Number of LQ_ADDED (ROI): 174558414
Number of Instructions read from trace: 600000256

ChampSim completed all CPUs

Region of Interest Statistics

CPU 0 cumulative IPC: 0.727318 instructions: 500000001 cycles: 687457230
ITLB TOTAL     ACCESS:  136067840  HIT:  136065287  MISS:       2553
ITLB LOAD      ACCESS:  136067840  HIT:  136065287  MISS:       2553
ITLB RFO       ACCESS:          0  HIT:          0  MISS:          0
ITLB PREFETCH  ACCESS:          0  HIT:          0  MISS:          0
ITLB WRITEBACK ACCESS:          0  HIT:          0  MISS:          0
ITLB PREFETCH  REQUESTED:          0  ISSUED:          0  USEFUL:          0  USELESS:          0
ITLB TOTAL MSHR MERGED:       4404
ITLB LOAD MSHR MERGED:       4404
ITLB RFO MSHR MERGED:          0
ITLB PREFETCH MSHR MERGED:          0
ITLB WRITEBACK MSHR MERGED:          0
ITLB TOTAL ACCESSES:  136072244 HITS:  136065287 MISSES:       6957
ITLB LOAD ACCESSES:  136072244 HITS:  136065287 MISSES:       6957
ITLB RFO ACCESSES:          0 HITS:          0 MISSES:          0
ITLB PREFETCH ACCESSES:          0 HITS:          0 MISSES:          0
ITLB WRITEBACK ACCESSES:          0 HITS:          0 MISSES:          0
ITLB RQ ACCESS:  500000202
ITLB RQ TO_CACHE:  136072244
ITLB RQ MERGED:  363927958
ITLB RQ FORWARD:          0
ITLB WQ ACCESS:          0
ITLB WQ TO_CACHE:          0
ITLB WQ MERGED:          0
ITLB WQ FORWARD:          0
DTLB TOTAL     ACCESS:  111543904  HIT:  111407711  MISS:     136193
DTLB LOAD      ACCESS:   78948436  HIT:   78822811  MISS:     125625
DTLB RFO       ACCESS:   32595468  HIT:   32584900  MISS:      10568
DTLB PREFETCH  ACCESS:          0  HIT:          0  MISS:          0
DTLB WRITEBACK ACCESS:          0  HIT:          0  MISS:          0
DTLB PREFETCH  REQUESTED:          0  ISSUED:          0  USEFUL:          0  USELESS:          0
DTLB TOTAL MSHR MERGED:      63391
DTLB LOAD MSHR MERGED:      50923
DTLB RFO MSHR MERGED:      12468
DTLB PREFETCH MSHR MERGED:          0
DTLB WRITEBACK MSHR MERGED:          0
DTLB TOTAL ACCESSES:  111607295 HITS:  111407711 MISSES:     199584
DTLB LOAD ACCESSES:   78999359 HITS:   78822811 MISSES:     176548
DTLB RFO ACCESSES:   32607936 HITS:   32584900 MISSES:      23036
DTLB PREFETCH ACCESSES:          0 HITS:          0 MISSES:          0
DTLB WRITEBACK ACCESSES:          0 HITS:          0 MISSES:          0
DTLB RQ ACCESS:  157180480
DTLB RQ TO_CACHE:  111607295
DTLB RQ MERGED:   45573185
DTLB RQ FORWARD:          0
DTLB WQ ACCESS:          0
DTLB WQ TO_CACHE:          0
DTLB WQ MERGED:          0
DTLB WQ FORWARD:          0
L1D TOTAL     ACCESS:  198179824  HIT:  188338804  MISS:    9841020
L1D LOAD      ACCESS:   79942649  HIT:   75676352  MISS:    4266297
L1D RFO       ACCESS:   44500263  HIT:   43599715  MISS:     900548
L1D PREFETCH  ACCESS:   73736912  HIT:   69062737  MISS:    4674175
L1D WRITEBACK ACCESS:          0  HIT:          0  MISS:          0
L1D PREFETCH  REQUESTED:   80344711  ISSUED:   79888958  USEFUL:    1815908  USELESS:    2858176
L1D TOTAL MSHR MERGED:    2550273
L1D LOAD MSHR MERGED:     529495
L1D RFO MSHR MERGED:    1452336
L1D PREFETCH MSHR MERGED:     568442
L1D WRITEBACK MSHR MERGED:          0
L1D TOTAL ACCESSES:  200751525 HITS:  188360232 MISSES:   12391293
L1D LOAD ACCESSES:   80357495 HITS:   75689136 MISSES:    4668359
L1D RFO ACCESSES:   45949462 HITS:   43599715 MISSES:    2349747
L1D PREFETCH ACCESSES:   74444568 HITS:   69071381 MISSES:    5373187
L1D WRITEBACK ACCESSES:          0 HITS:          0 MISSES:          0
L1D RQ ACCESS:  109538510
L1D RQ TO_CACHE:   80344711
L1D RQ MERGED:   29181015
L1D RQ FORWARD:          0
L1D WQ ACCESS:   47641970
L1D WQ TO_CACHE:   45949462
L1D WQ MERGED:    1692508
L1D WQ FORWARD:      21428
L1I TOTAL     ACCESS:  161538297  HIT:  161274329  MISS:     263968
L1I LOAD      ACCESS:  161538297  HIT:  161274329  MISS:     263968
L1I RFO       ACCESS:          0  HIT:          0  MISS:          0
L1I PREFETCH  ACCESS:          0  HIT:          0  MISS:          0
L1I WRITEBACK ACCESS:          0  HIT:          0  MISS:          0
L1I PREFETCH  REQUESTED:          0  ISSUED:          0  USEFUL:          0  USELESS:          0
L1I TOTAL MSHR MERGED:     260614
L1I LOAD MSHR MERGED:     260614
L1I RFO MSHR MERGED:          0
L1I PREFETCH MSHR MERGED:          0
L1I WRITEBACK MSHR MERGED:          0
L1I TOTAL ACCESSES:  161798911 HITS:  161274329 MISSES:     524582
L1I LOAD ACCESSES:  161798911 HITS:  161274329 MISSES:     524582
L1I RFO ACCESSES:          0 HITS:          0 MISSES:          0
L1I PREFETCH ACCESSES:          0 HITS:          0 MISSES:          0
L1I WRITEBACK ACCESSES:          0 HITS:          0 MISSES:          0
L1I RQ ACCESS:  500000202
L1I RQ TO_CACHE:  161798911
L1I RQ MERGED:  338201291
L1I RQ FORWARD:          0
L1I WQ ACCESS:          0
L1I WQ TO_CACHE:          0
L1I WQ MERGED:          0
L1I WQ FORWARD:          0
L2C TOTAL     ACCESS:   11771689  HIT:   10382387  MISS:    1389302
L2C LOAD      ACCESS:    4402768  HIT:    3906087  MISS:     496681
L2C RFO       ACCESS:     897346  HIT:     536307  MISS:     361039
L2C PREFETCH  ACCESS:    5284057  HIT:    4755419  MISS:     528638
L2C WRITEBACK ACCESS:    1187518  HIT:    1184574  MISS:       2944
L2C PREFETCH  REQUESTED:     504586  ISSUED:     504586  USEFUL:     114975  USELESS:     413855
L2C TOTAL MSHR MERGED:       2093
L2C LOAD MSHR MERGED:        412
L2C RFO MSHR MERGED:          0
L2C PREFETCH MSHR MERGED:       1681
L2C WRITEBACK MSHR MERGED:          0
L2C TOTAL ACCESSES:   11776444 HITS:   10382600 MISSES:    1393844
L2C LOAD ACCESSES:    4402832 HITS:    3906151 MISSES:     496681
L2C RFO ACCESSES:     897411 HITS:     536372 MISSES:     361039
L2C PREFETCH ACCESSES:    5288683 HITS:    4755503 MISSES:     533180
L2C WRITEBACK ACCESSES:    1187518 HITS:    1184574 MISSES:       2944
L2C RQ ACCESS:    5300243
L2C RQ TO_CACHE:    5300114
L2C RQ MERGED:          0
L2C RQ FORWARD:          0
L2C WQ ACCESS:    1187518
L2C WQ TO_CACHE:    1187518
L2C WQ MERGED:          0
L2C WQ FORWARD:        213
LLC TOTAL     ACCESS:    1849425  HIT:    1016358  MISS:     833067
LLC LOAD      ACCESS:     496267  HIT:     240806  MISS:     255461
LLC RFO       ACCESS:     361035  HIT:     181651  MISS:     179384
LLC PREFETCH  ACCESS:     531388  HIT:     298689  MISS:     232699
LLC WRITEBACK ACCESS:     460735  HIT:     295212  MISS:     165523
LLC PREFETCH  REQUESTED:          0  ISSUED:          0  USEFUL:       4492  USELESS:     228349
LLC TOTAL MSHR MERGED:         78
LLC LOAD MSHR MERGED:         31
LLC RFO MSHR MERGED:          0
LLC PREFETCH MSHR MERGED:         47
LLC WRITEBACK MSHR MERGED:          0
LLC TOTAL ACCESSES:    1849529 HITS:    1016384 MISSES:     833145
LLC LOAD ACCESSES:     496269 HITS:     240808 MISSES:     255461
LLC RFO ACCESSES:     361039 HITS:     181655 MISSES:     179384
LLC PREFETCH ACCESSES:     531486 HITS:     298709 MISSES:     232777
LLC WRITEBACK ACCESSES:     460735 HITS:     295212 MISSES:     165523
LLC 0 RQ ACCESS:     857308
LLC 0 RQ TO_CACHE:     857302
LLC 0 RQ MERGED:          0
LLC 0 RQ FORWARD:          0
LLC WQ ACCESS:     460735
LLC WQ TO_CACHE:     460735
LLC WQ MERGED:          0
LLC WQ FORWARD:         26
Major fault: 0 Minor fault: 3073
CPU 0 L1D next line prefetcher final stats
CPU 0 L2C PC-based stride prefetcher final stats
All Misses: 1005014
All Hits: 1171103
SD Algo Stats - Switches: 0 SRR-Repls: 294583 BRR-Repls: 0

DRAM Statistics
 CHANNEL 0
 RQ ROW_BUFFER_HIT:     426568  ROW_BUFFER_MISS:     240559
 DBUS_CONGESTED:     518589
 WQ ROW_BUFFER_HIT:      32668  ROW_BUFFER_MISS:     161074  FULL:         25

 AVG_CONGESTED_CYCLE: 13
LOADS RETIRED: 120673965
INSTR RETIRED: 500000000
