
*** ChampSim Multicore Out-of-Order Simulator ***

Warmup Instructions: 100000000
Simulation Instructions: 500000000
Number of CPUs: 1
LLC sets: 2048
LLC ways: 16
Clean RRIP Policies: 1213131112131311 Dirty RRIP Policies: 2203130122031301 PSEL Width: 10 Track Set: 4294967295 PSEL Mask: 1 Demote Mask: 3040102030401020DS Algo: 0Window size: 0
Off-chip DRAM Size: 4096 MB Channels: 1 Width: 64-bit Data Rate: 1600 MT/s

CPU 0 runs /mnt/beegfs/iconst01/spec2017/Parest.trace.gz
NOT SORTED
TRACE STRING: /mnt/beegfs/iconst01/spec2017/Parest.trace.gz
SORTED
TRACE STRING: /mnt/beegfs/iconst01/spec2017/Parest.trace.gz
INITIAL
TRACE STRING: /mnt/beegfs/iconst01/spec2017/Parest.trace.gz

champsim_seed used: 623

CPU 0 L1D next line prefetcher
CPU 0 L2C IP-based stride prefetcher
Initialize DRRIP state
Assign rand_sets[0]: 454  LLC: 2048
rand_sets[0]: 454
Assign rand_sets[1]: 1662  LLC: 2048
rand_sets[1]: 1662
Assign rand_sets[2]: 1921  LLC: 2048
rand_sets[2]: 1921
Assign rand_sets[3]: 1131  LLC: 2048
rand_sets[3]: 1131
Assign rand_sets[4]: 331  LLC: 2048
rand_sets[4]: 331
Assign rand_sets[5]: 1531  LLC: 2048
rand_sets[5]: 1531
Assign rand_sets[6]: 482  LLC: 2048
rand_sets[6]: 482
Assign rand_sets[7]: 1275  LLC: 2048
rand_sets[7]: 1275
Assign rand_sets[8]: 1876  LLC: 2048
rand_sets[8]: 1876
Assign rand_sets[9]: 2038  LLC: 2048
rand_sets[9]: 2038
Assign rand_sets[10]: 701  LLC: 2048
rand_sets[10]: 701
Assign rand_sets[11]: 479  LLC: 2048
rand_sets[11]: 479
Assign rand_sets[12]: 892  LLC: 2048
rand_sets[12]: 892
Assign rand_sets[13]: 1820  LLC: 2048
rand_sets[13]: 1820
Assign rand_sets[14]: 1505  LLC: 2048
rand_sets[14]: 1505
Assign rand_sets[15]: 1159  LLC: 2048
rand_sets[15]: 1159
Assign rand_sets[16]: 513  LLC: 2048
rand_sets[16]: 513
Assign rand_sets[17]: 703  LLC: 2048
rand_sets[17]: 703
Assign rand_sets[18]: 561  LLC: 2048
rand_sets[18]: 561
Assign rand_sets[19]: 990  LLC: 2048
rand_sets[19]: 990
Assign rand_sets[20]: 342  LLC: 2048
rand_sets[20]: 342
Assign rand_sets[21]: 882  LLC: 2048
rand_sets[21]: 882
Assign rand_sets[22]: 15  LLC: 2048
rand_sets[22]: 15
Assign rand_sets[23]: 71  LLC: 2048
rand_sets[23]: 71
Assign rand_sets[24]: 1127  LLC: 2048
rand_sets[24]: 1127
Assign rand_sets[25]: 1382  LLC: 2048
rand_sets[25]: 1382
Assign rand_sets[26]: 647  LLC: 2048
rand_sets[26]: 647
Assign rand_sets[27]: 857  LLC: 2048
rand_sets[27]: 857
Assign rand_sets[28]: 1450  LLC: 2048
rand_sets[28]: 1450
Assign rand_sets[29]: 1160  LLC: 2048
rand_sets[29]: 1160
Assign rand_sets[30]: 1852  LLC: 2048
rand_sets[30]: 1852
Assign rand_sets[31]: 1881  LLC: 2048
rand_sets[31]: 1881
Assign rand_sets[32]: 1770  LLC: 2048
rand_sets[32]: 1770
Assign rand_sets[33]: 1622  LLC: 2048
rand_sets[33]: 1622
Assign rand_sets[34]: 275  LLC: 2048
rand_sets[34]: 275
Assign rand_sets[35]: 635  LLC: 2048
rand_sets[35]: 635
Assign rand_sets[36]: 466  LLC: 2048
rand_sets[36]: 466
Assign rand_sets[37]: 1413  LLC: 2048
rand_sets[37]: 1413
Assign rand_sets[38]: 417  LLC: 2048
rand_sets[38]: 417
Assign rand_sets[39]: 472  LLC: 2048
rand_sets[39]: 472
Assign rand_sets[40]: 1340  LLC: 2048
rand_sets[40]: 1340
Assign rand_sets[41]: 852  LLC: 2048
rand_sets[41]: 852
Assign rand_sets[42]: 1365  LLC: 2048
rand_sets[42]: 1365
Assign rand_sets[43]: 47  LLC: 2048
rand_sets[43]: 47
Assign rand_sets[44]: 823  LLC: 2048
rand_sets[44]: 823
Assign rand_sets[45]: 686  LLC: 2048
rand_sets[45]: 686
Assign rand_sets[46]: 1637  LLC: 2048
rand_sets[46]: 1637
Assign rand_sets[47]: 1115  LLC: 2048
rand_sets[47]: 1115
Assign rand_sets[48]: 986  LLC: 2048
rand_sets[48]: 986
Assign rand_sets[49]: 258  LLC: 2048
rand_sets[49]: 258
Assign rand_sets[50]: 633  LLC: 2048
rand_sets[50]: 633
Assign rand_sets[51]: 920  LLC: 2048
rand_sets[51]: 920
Assign rand_sets[52]: 204  LLC: 2048
rand_sets[52]: 204
Assign rand_sets[53]: 227  LLC: 2048
rand_sets[53]: 227
Assign rand_sets[54]: 1818  LLC: 2048
rand_sets[54]: 1818
Assign rand_sets[55]: 886  LLC: 2048
rand_sets[55]: 886
Assign rand_sets[56]: 1422  LLC: 2048
rand_sets[56]: 1422
Assign rand_sets[57]: 607  LLC: 2048
rand_sets[57]: 607
Assign rand_sets[58]: 217  LLC: 2048
rand_sets[58]: 217
Assign rand_sets[59]: 1945  LLC: 2048
rand_sets[59]: 1945
Assign rand_sets[60]: 143  LLC: 2048
rand_sets[60]: 143
Assign rand_sets[61]: 1311  LLC: 2048
rand_sets[61]: 1311
Assign rand_sets[62]: 319  LLC: 2048
rand_sets[62]: 319
Assign rand_sets[63]: 1846  LLC: 2048
rand_sets[63]: 1846
 CLEAN-RRIP-POLICY-1: 1-2-1-3-1-3-1-1- CLEAN-RRIP-POLICY-2: 1-2-1-3-1-3-1-1-
 DIRTY-RRIP-POLICY-1: 2-2-0-3-1-3-0-1- DIRTY-RRIP-POLICY-2: 2-2-0-3-1-3-0-1-
 PSEL width: 10
Heartbeat CPU 0 instructions: 10000001 cycles: 4387120 heartbeat IPC: 2.2794 cumulative IPC: 2.2794 (Simulation time: 0 hr 0 min 15 sec) 
Heartbeat CPU 0 instructions: 20000000 cycles: 8781233 heartbeat IPC: 2.27577 cumulative IPC: 2.27758 (Simulation time: 0 hr 0 min 29 sec) 
Heartbeat CPU 0 instructions: 30000003 cycles: 13213164 heartbeat IPC: 2.25635 cumulative IPC: 2.27046 (Simulation time: 0 hr 0 min 44 sec) 
Heartbeat CPU 0 instructions: 40000000 cycles: 17643775 heartbeat IPC: 2.25702 cumulative IPC: 2.26709 (Simulation time: 0 hr 0 min 58 sec) 
Heartbeat CPU 0 instructions: 50000000 cycles: 22051973 heartbeat IPC: 2.2685 cumulative IPC: 2.26737 (Simulation time: 0 hr 1 min 12 sec) 
Heartbeat CPU 0 instructions: 60000000 cycles: 26457658 heartbeat IPC: 2.26979 cumulative IPC: 2.26777 (Simulation time: 0 hr 1 min 26 sec) 
Heartbeat CPU 0 instructions: 70000000 cycles: 30858484 heartbeat IPC: 2.2723 cumulative IPC: 2.26842 (Simulation time: 0 hr 1 min 41 sec) 
Heartbeat CPU 0 instructions: 80000000 cycles: 35254043 heartbeat IPC: 2.27502 cumulative IPC: 2.26924 (Simulation time: 0 hr 1 min 55 sec) 
Heartbeat CPU 0 instructions: 90000000 cycles: 39648300 heartbeat IPC: 2.2757 cumulative IPC: 2.26996 (Simulation time: 0 hr 2 min 10 sec) 
Heartbeat CPU 0 instructions: 100000000 cycles: 44045606 heartbeat IPC: 2.27412 cumulative IPC: 2.27037 (Simulation time: 0 hr 2 min 24 sec) 

Warmup complete CPU 0 instructions: 100000002 cycles: 44045616 (Simulation time: 0 hr 2 min 24 sec) 

Heartbeat CPU 0 instructions: 110000000 cycles: 54043601 heartbeat IPC: 1.0002 cumulative IPC: 1.0002 (Simulation time: 0 hr 2 min 43 sec) 
Heartbeat CPU 0 instructions: 120000000 cycles: 63250742 heartbeat IPC: 1.08611 cumulative IPC: 1.04139 (Simulation time: 0 hr 3 min 1 sec) 
Heartbeat CPU 0 instructions: 130000000 cycles: 72534712 heartbeat IPC: 1.07713 cumulative IPC: 1.05303 (Simulation time: 0 hr 3 min 19 sec) 
Heartbeat CPU 0 instructions: 140000000 cycles: 82006457 heartbeat IPC: 1.05577 cumulative IPC: 1.05372 (Simulation time: 0 hr 3 min 38 sec) 
Heartbeat CPU 0 instructions: 150000000 cycles: 93146786 heartbeat IPC: 0.89764 cumulative IPC: 1.01831 (Simulation time: 0 hr 3 min 57 sec) 
Heartbeat CPU 0 instructions: 160000000 cycles: 103213687 heartbeat IPC: 0.993354 cumulative IPC: 1.01406 (Simulation time: 0 hr 4 min 15 sec) 
Heartbeat CPU 0 instructions: 170000000 cycles: 113123622 heartbeat IPC: 1.00909 cumulative IPC: 1.01335 (Simulation time: 0 hr 4 min 33 sec) 
Heartbeat CPU 0 instructions: 180000000 cycles: 122944699 heartbeat IPC: 1.01822 cumulative IPC: 1.01395 (Simulation time: 0 hr 4 min 52 sec) 
Heartbeat CPU 0 instructions: 190000002 cycles: 132913989 heartbeat IPC: 1.00308 cumulative IPC: 1.01273 (Simulation time: 0 hr 5 min 10 sec) 
Heartbeat CPU 0 instructions: 200000000 cycles: 142381785 heartbeat IPC: 1.05621 cumulative IPC: 1.01692 (Simulation time: 0 hr 5 min 28 sec) 
Heartbeat CPU 0 instructions: 210000000 cycles: 152252514 heartbeat IPC: 1.0131 cumulative IPC: 1.01657 (Simulation time: 0 hr 5 min 47 sec) 
Heartbeat CPU 0 instructions: 220000000 cycles: 161502792 heartbeat IPC: 1.08105 cumulative IPC: 1.02165 (Simulation time: 0 hr 6 min 5 sec) 
Heartbeat CPU 0 instructions: 230000001 cycles: 173711394 heartbeat IPC: 0.819095 cumulative IPC: 1.00258 (Simulation time: 0 hr 6 min 25 sec) 
Heartbeat CPU 0 instructions: 240000000 cycles: 184188706 heartbeat IPC: 0.954443 cumulative IPC: 0.998979 (Simulation time: 0 hr 6 min 44 sec) 
Heartbeat CPU 0 instructions: 250000002 cycles: 194148556 heartbeat IPC: 1.00403 cumulative IPC: 0.999314 (Simulation time: 0 hr 7 min 2 sec) 
Heartbeat CPU 0 instructions: 260000000 cycles: 203907811 heartbeat IPC: 1.02467 cumulative IPC: 1.00086 (Simulation time: 0 hr 7 min 20 sec) 
Heartbeat CPU 0 instructions: 270000001 cycles: 213543832 heartbeat IPC: 1.03777 cumulative IPC: 1.00296 (Simulation time: 0 hr 7 min 39 sec) 
Heartbeat CPU 0 instructions: 280000000 cycles: 223507530 heartbeat IPC: 1.00364 cumulative IPC: 1.003 (Simulation time: 0 hr 7 min 57 sec) 
Heartbeat CPU 0 instructions: 290000002 cycles: 232878711 heartbeat IPC: 1.0671 cumulative IPC: 1.00618 (Simulation time: 0 hr 8 min 15 sec) 
Heartbeat CPU 0 instructions: 300000000 cycles: 242702898 heartbeat IPC: 1.0179 cumulative IPC: 1.00676 (Simulation time: 0 hr 8 min 34 sec) 
Heartbeat CPU 0 instructions: 310000000 cycles: 252031197 heartbeat IPC: 1.07201 cumulative IPC: 1.00969 (Simulation time: 0 hr 8 min 52 sec) 
Heartbeat CPU 0 instructions: 320000000 cycles: 261431217 heartbeat IPC: 1.06383 cumulative IPC: 1.01203 (Simulation time: 0 hr 9 min 10 sec) 
Heartbeat CPU 0 instructions: 330000003 cycles: 270979497 heartbeat IPC: 1.04731 cumulative IPC: 1.01351 (Simulation time: 0 hr 9 min 29 sec) 
Heartbeat CPU 0 instructions: 340000000 cycles: 281119466 heartbeat IPC: 0.986196 cumulative IPC: 1.01234 (Simulation time: 0 hr 9 min 47 sec) 
Heartbeat CPU 0 instructions: 350000000 cycles: 291420388 heartbeat IPC: 0.970787 cumulative IPC: 1.01061 (Simulation time: 0 hr 10 min 6 sec) 
Heartbeat CPU 0 instructions: 360000000 cycles: 301240883 heartbeat IPC: 1.01828 cumulative IPC: 1.01091 (Simulation time: 0 hr 10 min 24 sec) 
Heartbeat CPU 0 instructions: 370000000 cycles: 310863670 heartbeat IPC: 1.0392 cumulative IPC: 1.01193 (Simulation time: 0 hr 10 min 42 sec) 
Heartbeat CPU 0 instructions: 380000000 cycles: 320373621 heartbeat IPC: 1.05153 cumulative IPC: 1.01329 (Simulation time: 0 hr 11 min 0 sec) 
Heartbeat CPU 0 instructions: 390000002 cycles: 329707874 heartbeat IPC: 1.07132 cumulative IPC: 1.01518 (Simulation time: 0 hr 11 min 18 sec) 
Heartbeat CPU 0 instructions: 400000000 cycles: 339450916 heartbeat IPC: 1.02637 cumulative IPC: 1.01555 (Simulation time: 0 hr 11 min 37 sec) 
Heartbeat CPU 0 instructions: 410000000 cycles: 348649086 heartbeat IPC: 1.08717 cumulative IPC: 1.01772 (Simulation time: 0 hr 11 min 55 sec) 
Heartbeat CPU 0 instructions: 420000000 cycles: 359558131 heartbeat IPC: 0.916671 cumulative IPC: 1.01422 (Simulation time: 0 hr 12 min 14 sec) 
Heartbeat CPU 0 instructions: 430000000 cycles: 370404989 heartbeat IPC: 0.921926 cumulative IPC: 1.01116 (Simulation time: 0 hr 12 min 33 sec) 
Heartbeat CPU 0 instructions: 440000000 cycles: 380411203 heartbeat IPC: 0.999379 cumulative IPC: 1.0108 (Simulation time: 0 hr 12 min 51 sec) 
Heartbeat CPU 0 instructions: 450000000 cycles: 390340998 heartbeat IPC: 1.00707 cumulative IPC: 1.0107 (Simulation time: 0 hr 13 min 9 sec) 
Heartbeat CPU 0 instructions: 460000000 cycles: 400216447 heartbeat IPC: 1.01261 cumulative IPC: 1.01075 (Simulation time: 0 hr 13 min 28 sec) 
Heartbeat CPU 0 instructions: 470000001 cycles: 410188061 heartbeat IPC: 1.00285 cumulative IPC: 1.01054 (Simulation time: 0 hr 13 min 46 sec) 
Heartbeat CPU 0 instructions: 480000000 cycles: 419618838 heartbeat IPC: 1.06036 cumulative IPC: 1.01179 (Simulation time: 0 hr 14 min 4 sec) 
Heartbeat CPU 0 instructions: 490000002 cycles: 429550922 heartbeat IPC: 1.00684 cumulative IPC: 1.01166 (Simulation time: 0 hr 14 min 22 sec) 
Heartbeat CPU 0 instructions: 500000000 cycles: 439142884 heartbeat IPC: 1.04254 cumulative IPC: 1.01241 (Simulation time: 0 hr 14 min 41 sec) 
Heartbeat CPU 0 instructions: 510000000 cycles: 448533581 heartbeat IPC: 1.06488 cumulative IPC: 1.01363 (Simulation time: 0 hr 14 min 59 sec) 
Heartbeat CPU 0 instructions: 520000000 cycles: 458177011 heartbeat IPC: 1.03698 cumulative IPC: 1.01417 (Simulation time: 0 hr 15 min 17 sec) 
Heartbeat CPU 0 instructions: 530000001 cycles: 468546752 heartbeat IPC: 0.964344 cumulative IPC: 1.01295 (Simulation time: 0 hr 15 min 36 sec) 
Heartbeat CPU 0 instructions: 540000000 cycles: 479004595 heartbeat IPC: 0.95622 cumulative IPC: 1.01159 (Simulation time: 0 hr 15 min 54 sec) 
Heartbeat CPU 0 instructions: 550000003 cycles: 489032565 heartbeat IPC: 0.997211 cumulative IPC: 1.01127 (Simulation time: 0 hr 16 min 13 sec) 
Heartbeat CPU 0 instructions: 560000000 cycles: 498842251 heartbeat IPC: 1.0194 cumulative IPC: 1.01144 (Simulation time: 0 hr 16 min 31 sec) 
Heartbeat CPU 0 instructions: 570000002 cycles: 508518618 heartbeat IPC: 1.03345 cumulative IPC: 1.0119 (Simulation time: 0 hr 16 min 49 sec) 
Heartbeat CPU 0 instructions: 580000000 cycles: 518023416 heartbeat IPC: 1.0521 cumulative IPC: 1.01271 (Simulation time: 0 hr 17 min 7 sec) 
Heartbeat CPU 0 instructions: 590000002 cycles: 527857959 heartbeat IPC: 1.01682 cumulative IPC: 1.01279 (Simulation time: 0 hr 17 min 25 sec) 
Heartbeat CPU 0 instructions: 600000000 cycles: 537318599 heartbeat IPC: 1.05701 cumulative IPC: 1.01364 (Simulation time: 0 hr 17 min 43 sec) 
Finished CPU 0 instructions: 500000000 cycles: 493272997 cumulative IPC: 1.01364 (Simulation time: 0 hr 17 min 43 sec) 

CPU 0 Branch Prediction Accuracy: 97.8526% MPKI: 2.66709
Number of Branches: 62099103 Number of Mispredictions: 1333545
Number of LOAD Instructions: 210576465
Number of LOAD Instructions (ROI): 210576465
Number of STORE Instructions: 16915507
Number of STORE Instructions (ROI): 16915507
Total Destination Memory Operands: 16918869
Total Destination Memory Operands (ROI): 16918869
Total Source Memory Operands: 210576465
Total Source Memory Operands (ROI): 210576465
Number of DEPENDED LOADS: 343278
Number of DEPENDED LOADS (ROI): 343278
Number of SQ_ADDED: 16918826
Number of SQ_ADDED (ROI): 16918826
Number of LQ_ADDED: 210615007
Number of LQ_ADDED (ROI): 210615007
Number of Instructions read from trace: 600000257

ChampSim completed all CPUs

Region of Interest Statistics

CPU 0 cumulative IPC: 1.01364 instructions: 500000000 cycles: 493272997
ITLB TOTAL     ACCESS:   76331150  HIT:   76331112  MISS:         38
ITLB LOAD      ACCESS:   76331150  HIT:   76331112  MISS:         38
ITLB RFO       ACCESS:          0  HIT:          0  MISS:          0
ITLB PREFETCH  ACCESS:          0  HIT:          0  MISS:          0
ITLB WRITEBACK ACCESS:          0  HIT:          0  MISS:          0
ITLB PREFETCH  REQUESTED:          0  ISSUED:          0  USEFUL:          0  USELESS:          0
ITLB TOTAL MSHR MERGED:         37
ITLB LOAD MSHR MERGED:         37
ITLB RFO MSHR MERGED:          0
ITLB PREFETCH MSHR MERGED:          0
ITLB WRITEBACK MSHR MERGED:          0
ITLB TOTAL ACCESSES:   76331187 HITS:   76331112 MISSES:         75
ITLB LOAD ACCESSES:   76331187 HITS:   76331112 MISSES:         75
ITLB RFO ACCESSES:          0 HITS:          0 MISSES:          0
ITLB PREFETCH ACCESSES:          0 HITS:          0 MISSES:          0
ITLB WRITEBACK ACCESSES:          0 HITS:          0 MISSES:          0
ITLB RQ ACCESS:  500000188
ITLB RQ TO_CACHE:   76331188
ITLB RQ MERGED:  423669000
ITLB RQ FORWARD:          0
ITLB WQ ACCESS:          0
ITLB WQ TO_CACHE:          0
ITLB WQ MERGED:          0
ITLB WQ FORWARD:          0
DTLB TOTAL     ACCESS:  136770524  HIT:  136567727  MISS:     202797
DTLB LOAD      ACCESS:  128708148  HIT:  128508072  MISS:     200076
DTLB RFO       ACCESS:    8062376  HIT:    8059655  MISS:       2721
DTLB PREFETCH  ACCESS:          0  HIT:          0  MISS:          0
DTLB WRITEBACK ACCESS:          0  HIT:          0  MISS:          0
DTLB PREFETCH  REQUESTED:          0  ISSUED:          0  USEFUL:          0  USELESS:          0
DTLB TOTAL MSHR MERGED:     447803
DTLB LOAD MSHR MERGED:     444058
DTLB RFO MSHR MERGED:       3745
DTLB PREFETCH MSHR MERGED:          0
DTLB WRITEBACK MSHR MERGED:          0
DTLB TOTAL ACCESSES:  137218327 HITS:  136567727 MISSES:     650600
DTLB LOAD ACCESSES:  129152206 HITS:  128508072 MISSES:     644134
DTLB RFO ACCESSES:    8066121 HITS:    8059655 MISSES:       6466
DTLB PREFETCH ACCESSES:          0 HITS:          0 MISSES:          0
DTLB WRITEBACK ACCESSES:          0 HITS:          0 MISSES:          0
DTLB RQ ACCESS:  189421288
DTLB RQ TO_CACHE:  137218327
DTLB RQ MERGED:   52202961
DTLB RQ FORWARD:          0
DTLB WQ ACCESS:          0
DTLB WQ TO_CACHE:          0
DTLB WQ MERGED:          0
DTLB WQ FORWARD:          0
L1D TOTAL     ACCESS:  125420184  HIT:  107863242  MISS:   17556942
L1D LOAD      ACCESS:   72359487  HIT:   62102093  MISS:   10257394
L1D RFO       ACCESS:   14013719  HIT:   13860884  MISS:     152835
L1D PREFETCH  ACCESS:   39046978  HIT:   31900265  MISS:    7146713
L1D WRITEBACK ACCESS:          0  HIT:          0  MISS:          0
L1D PREFETCH  REQUESTED:   85526148  ISSUED:   84204626  USEFUL:    5887335  USELESS:    1259389
L1D TOTAL MSHR MERGED:   31508520
L1D LOAD MSHR MERGED:   18317042
L1D RFO MSHR MERGED:     266435
L1D PREFETCH MSHR MERGED:   12925043
L1D WRITEBACK MSHR MERGED:          0
L1D TOTAL ACCESSES:  156929214 HITS:  107863753 MISSES:   49065461
L1D LOAD ACCESSES:   85526161 HITS:   62102106 MISSES:   23424055
L1D RFO ACCESSES:   14280128 HITS:   13860884 MISSES:     419244
L1D PREFETCH ACCESSES:   57122925 HITS:   31900763 MISSES:   25222162
L1D WRITEBACK ACCESSES:          0 HITS:          0 MISSES:          0
L1D RQ ACCESS:  175132266
L1D RQ TO_CACHE:   85526148
L1D RQ MERGED:   89606105
L1D RQ FORWARD:          0
L1D WQ ACCESS:   14289037
L1D WQ TO_CACHE:   14280128
L1D WQ MERGED:       8909
L1D WQ FORWARD:        511
L1I TOTAL     ACCESS:   93358712  HIT:   93356916  MISS:       1796
L1I LOAD      ACCESS:   93358712  HIT:   93356916  MISS:       1796
L1I RFO       ACCESS:          0  HIT:          0  MISS:          0
L1I PREFETCH  ACCESS:          0  HIT:          0  MISS:          0
L1I WRITEBACK ACCESS:          0  HIT:          0  MISS:          0
L1I PREFETCH  REQUESTED:          0  ISSUED:          0  USEFUL:          0  USELESS:          0
L1I TOTAL MSHR MERGED:       2275
L1I LOAD MSHR MERGED:       2275
L1I RFO MSHR MERGED:          0
L1I PREFETCH MSHR MERGED:          0
L1I WRITEBACK MSHR MERGED:          0
L1I TOTAL ACCESSES:   93360987 HITS:   93356916 MISSES:       4071
L1I LOAD ACCESSES:   93360987 HITS:   93356916 MISSES:       4071
L1I RFO ACCESSES:          0 HITS:          0 MISSES:          0
L1I PREFETCH ACCESSES:          0 HITS:          0 MISSES:          0
L1I WRITEBACK ACCESSES:          0 HITS:          0 MISSES:          0
L1I RQ ACCESS:  500000187
L1I RQ TO_CACHE:   93360987
L1I RQ MERGED:  406639200
L1I RQ FORWARD:          0
L1I WQ ACCESS:          0
L1I WQ TO_CACHE:          0
L1I WQ MERGED:          0
L1I WQ FORWARD:          0
L2C TOTAL     ACCESS:   20903357  HIT:    8674105  MISS:   12229252
L2C LOAD      ACCESS:    5108788  HIT:    2145954  MISS:    2962834
L2C RFO       ACCESS:     152809  HIT:       6515  MISS:     146294
L2C PREFETCH  ACCESS:   13869007  HIT:    4748992  MISS:    9120015
L2C WRITEBACK ACCESS:    1772753  HIT:    1772644  MISS:        109
L2C PREFETCH  REQUESTED:    1806148  ISSUED:    1806148  USEFUL:    1066984  USELESS:    8054666
L2C TOTAL MSHR MERGED:      92705
L2C LOAD MSHR MERGED:      20691
L2C RFO MSHR MERGED:          0
L2C PREFETCH MSHR MERGED:      72014
L2C WRITEBACK MSHR MERGED:          0
L2C TOTAL ACCESSES:   21020077 HITS:    8674143 MISSES:   12345934
L2C LOAD ACCESSES:    5108809 HITS:    2145975 MISSES:    2962834
L2C RFO ACCESSES:     152809 HITS:       6515 MISSES:     146294
L2C PREFETCH ACCESSES:   13985706 HITS:    4749009 MISSES:    9236697
L2C WRITEBACK ACCESSES:    1772753 HITS:    1772644 MISSES:        109
L2C RQ ACCESS:    5261618
L2C RQ TO_CACHE:    5261597
L2C RQ MERGED:          0
L2C RQ FORWARD:          0
L2C WQ ACCESS:    1772753
L2C WQ TO_CACHE:    1772753
L2C WQ MERGED:          0
L2C WQ FORWARD:         38
LLC TOTAL     ACCESS:   12533333  HIT:    6682126  MISS:    5851207
LLC LOAD      ACCESS:    2942122  HIT:    2402962  MISS:     539160
LLC RFO       ACCESS:     146294  HIT:      71965  MISS:      74329
LLC PREFETCH  ACCESS:    9158931  HIT:    3976255  MISS:    5182676
LLC WRITEBACK ACCESS:     285986  HIT:     230944  MISS:      55042
LLC PREFETCH  REQUESTED:          0  ISSUED:          0  USEFUL:      10078  USELESS:    5172611
LLC TOTAL MSHR MERGED:       1553
LLC LOAD MSHR MERGED:        377
LLC RFO MSHR MERGED:          0
LLC PREFETCH MSHR MERGED:       1176
LLC WRITEBACK MSHR MERGED:          0
LLC TOTAL ACCESSES:   12534921 HITS:    6682161 MISSES:    5852760
LLC LOAD ACCESSES:    2942143 HITS:    2402983 MISSES:     539160
LLC RFO ACCESSES:     146294 HITS:      71965 MISSES:      74329
LLC PREFETCH ACCESSES:    9160498 HITS:    3976269 MISSES:    5184229
LLC WRITEBACK ACCESSES:     285986 HITS:     230944 MISSES:      55042
LLC 0 RQ ACCESS:    3088437
LLC 0 RQ TO_CACHE:    3088416
LLC 0 RQ MERGED:          0
LLC 0 RQ FORWARD:          0
LLC WQ ACCESS:     285986
LLC WQ TO_CACHE:     285986
LLC WQ MERGED:          0
LLC WQ FORWARD:         35
Major fault: 0 Minor fault: 6524
CPU 0 L1D next line prefetcher final stats
CPU 0 L2C PC-based stride prefetcher final stats
All Misses: 7652022
All Hits: 7406324
SD Algo Stats - Switches: 0 SRR-Repls: 570172 BRR-Repls: 0

DRAM Statistics
 CHANNEL 0
 RQ ROW_BUFFER_HIT:    4962686  ROW_BUFFER_MISS:     824072
 DBUS_CONGESTED:    2072295
 WQ ROW_BUFFER_HIT:      12973  ROW_BUFFER_MISS:      79779  FULL:          0

 AVG_CONGESTED_CYCLE: 12
LOADS RETIRED: 175418235
INSTR RETIRED: 500000000
