
*** ChampSim Multicore Out-of-Order Simulator ***

Warmup Instructions: 100000000
Simulation Instructions: 500000000
Number of CPUs: 1
LLC sets: 2048
LLC ways: 16
Clean RRIP Policies: 1203030112030301 Dirty RRIP Policies: 213130102131301 PSEL Width: 10 Track Set: 4294967295 PSEL Mask: 1 Demote Mask: 1340201013402010DS Algo: 0Window size: 0
Off-chip DRAM Size: 4096 MB Channels: 1 Width: 64-bit Data Rate: 1600 MT/s

CPU 0 runs /mnt/beegfs/iconst01/spec2017/Xz.trace.gz
NOT SORTED
TRACE STRING: /mnt/beegfs/iconst01/spec2017/Xz.trace.gz
SORTED
TRACE STRING: /mnt/beegfs/iconst01/spec2017/Xz.trace.gz
INITIAL
TRACE STRING: /mnt/beegfs/iconst01/spec2017/Xz.trace.gz

champsim_seed used: 210

CPU 0 L1D next line prefetcher
CPU 0 L2C IP-based stride prefetcher
Initialize DRRIP state
Assign rand_sets[0]: 454  LLC: 2048
rand_sets[0]: 454
Assign rand_sets[1]: 1662  LLC: 2048
rand_sets[1]: 1662
Assign rand_sets[2]: 1921  LLC: 2048
rand_sets[2]: 1921
Assign rand_sets[3]: 1131  LLC: 2048
rand_sets[3]: 1131
Assign rand_sets[4]: 331  LLC: 2048
rand_sets[4]: 331
Assign rand_sets[5]: 1531  LLC: 2048
rand_sets[5]: 1531
Assign rand_sets[6]: 482  LLC: 2048
rand_sets[6]: 482
Assign rand_sets[7]: 1275  LLC: 2048
rand_sets[7]: 1275
Assign rand_sets[8]: 1876  LLC: 2048
rand_sets[8]: 1876
Assign rand_sets[9]: 2038  LLC: 2048
rand_sets[9]: 2038
Assign rand_sets[10]: 701  LLC: 2048
rand_sets[10]: 701
Assign rand_sets[11]: 479  LLC: 2048
rand_sets[11]: 479
Assign rand_sets[12]: 892  LLC: 2048
rand_sets[12]: 892
Assign rand_sets[13]: 1820  LLC: 2048
rand_sets[13]: 1820
Assign rand_sets[14]: 1505  LLC: 2048
rand_sets[14]: 1505
Assign rand_sets[15]: 1159  LLC: 2048
rand_sets[15]: 1159
Assign rand_sets[16]: 513  LLC: 2048
rand_sets[16]: 513
Assign rand_sets[17]: 703  LLC: 2048
rand_sets[17]: 703
Assign rand_sets[18]: 561  LLC: 2048
rand_sets[18]: 561
Assign rand_sets[19]: 990  LLC: 2048
rand_sets[19]: 990
Assign rand_sets[20]: 342  LLC: 2048
rand_sets[20]: 342
Assign rand_sets[21]: 882  LLC: 2048
rand_sets[21]: 882
Assign rand_sets[22]: 15  LLC: 2048
rand_sets[22]: 15
Assign rand_sets[23]: 71  LLC: 2048
rand_sets[23]: 71
Assign rand_sets[24]: 1127  LLC: 2048
rand_sets[24]: 1127
Assign rand_sets[25]: 1382  LLC: 2048
rand_sets[25]: 1382
Assign rand_sets[26]: 647  LLC: 2048
rand_sets[26]: 647
Assign rand_sets[27]: 857  LLC: 2048
rand_sets[27]: 857
Assign rand_sets[28]: 1450  LLC: 2048
rand_sets[28]: 1450
Assign rand_sets[29]: 1160  LLC: 2048
rand_sets[29]: 1160
Assign rand_sets[30]: 1852  LLC: 2048
rand_sets[30]: 1852
Assign rand_sets[31]: 1881  LLC: 2048
rand_sets[31]: 1881
Assign rand_sets[32]: 1770  LLC: 2048
rand_sets[32]: 1770
Assign rand_sets[33]: 1622  LLC: 2048
rand_sets[33]: 1622
Assign rand_sets[34]: 275  LLC: 2048
rand_sets[34]: 275
Assign rand_sets[35]: 635  LLC: 2048
rand_sets[35]: 635
Assign rand_sets[36]: 466  LLC: 2048
rand_sets[36]: 466
Assign rand_sets[37]: 1413  LLC: 2048
rand_sets[37]: 1413
Assign rand_sets[38]: 417  LLC: 2048
rand_sets[38]: 417
Assign rand_sets[39]: 472  LLC: 2048
rand_sets[39]: 472
Assign rand_sets[40]: 1340  LLC: 2048
rand_sets[40]: 1340
Assign rand_sets[41]: 852  LLC: 2048
rand_sets[41]: 852
Assign rand_sets[42]: 1365  LLC: 2048
rand_sets[42]: 1365
Assign rand_sets[43]: 47  LLC: 2048
rand_sets[43]: 47
Assign rand_sets[44]: 823  LLC: 2048
rand_sets[44]: 823
Assign rand_sets[45]: 686  LLC: 2048
rand_sets[45]: 686
Assign rand_sets[46]: 1637  LLC: 2048
rand_sets[46]: 1637
Assign rand_sets[47]: 1115  LLC: 2048
rand_sets[47]: 1115
Assign rand_sets[48]: 986  LLC: 2048
rand_sets[48]: 986
Assign rand_sets[49]: 258  LLC: 2048
rand_sets[49]: 258
Assign rand_sets[50]: 633  LLC: 2048
rand_sets[50]: 633
Assign rand_sets[51]: 920  LLC: 2048
rand_sets[51]: 920
Assign rand_sets[52]: 204  LLC: 2048
rand_sets[52]: 204
Assign rand_sets[53]: 227  LLC: 2048
rand_sets[53]: 227
Assign rand_sets[54]: 1818  LLC: 2048
rand_sets[54]: 1818
Assign rand_sets[55]: 886  LLC: 2048
rand_sets[55]: 886
Assign rand_sets[56]: 1422  LLC: 2048
rand_sets[56]: 1422
Assign rand_sets[57]: 607  LLC: 2048
rand_sets[57]: 607
Assign rand_sets[58]: 217  LLC: 2048
rand_sets[58]: 217
Assign rand_sets[59]: 1945  LLC: 2048
rand_sets[59]: 1945
Assign rand_sets[60]: 143  LLC: 2048
rand_sets[60]: 143
Assign rand_sets[61]: 1311  LLC: 2048
rand_sets[61]: 1311
Assign rand_sets[62]: 319  LLC: 2048
rand_sets[62]: 319
Assign rand_sets[63]: 1846  LLC: 2048
rand_sets[63]: 1846
 CLEAN-RRIP-POLICY-1: 1-2-0-3-0-3-0-1- CLEAN-RRIP-POLICY-2: 1-2-0-3-0-3-0-1-
 DIRTY-RRIP-POLICY-1: 0-2-1-3-1-3-0-1- DIRTY-RRIP-POLICY-2: 0-2-1-3-1-3-0-1-
 PSEL width: 10
Heartbeat CPU 0 instructions: 10000000 cycles: 4305270 heartbeat IPC: 2.32273 cumulative IPC: 2.32273 (Simulation time: 0 hr 0 min 12 sec) 
Heartbeat CPU 0 instructions: 20000000 cycles: 8617101 heartbeat IPC: 2.3192 cumulative IPC: 2.32097 (Simulation time: 0 hr 0 min 24 sec) 
Heartbeat CPU 0 instructions: 30000003 cycles: 13160979 heartbeat IPC: 2.20076 cumulative IPC: 2.27947 (Simulation time: 0 hr 0 min 36 sec) 
Heartbeat CPU 0 instructions: 40000000 cycles: 17515469 heartbeat IPC: 2.29648 cumulative IPC: 2.2837 (Simulation time: 0 hr 0 min 48 sec) 
Heartbeat CPU 0 instructions: 50000001 cycles: 21878269 heartbeat IPC: 2.29211 cumulative IPC: 2.28537 (Simulation time: 0 hr 1 min 0 sec) 
Heartbeat CPU 0 instructions: 60000000 cycles: 26178478 heartbeat IPC: 2.32547 cumulative IPC: 2.29196 (Simulation time: 0 hr 1 min 11 sec) 
Heartbeat CPU 0 instructions: 70000001 cycles: 30244366 heartbeat IPC: 2.45949 cumulative IPC: 2.31448 (Simulation time: 0 hr 1 min 22 sec) 
Heartbeat CPU 0 instructions: 80000000 cycles: 34523159 heartbeat IPC: 2.33711 cumulative IPC: 2.31729 (Simulation time: 0 hr 1 min 33 sec) 
Heartbeat CPU 0 instructions: 90000001 cycles: 38739799 heartbeat IPC: 2.37156 cumulative IPC: 2.32319 (Simulation time: 0 hr 1 min 44 sec) 
Heartbeat CPU 0 instructions: 100000000 cycles: 42980219 heartbeat IPC: 2.35826 cumulative IPC: 2.32665 (Simulation time: 0 hr 1 min 55 sec) 

Warmup complete CPU 0 instructions: 100000001 cycles: 42980220 (Simulation time: 0 hr 1 min 55 sec) 

Heartbeat CPU 0 instructions: 110000000 cycles: 53103776 heartbeat IPC: 0.987795 cumulative IPC: 0.987795 (Simulation time: 0 hr 2 min 12 sec) 
Heartbeat CPU 0 instructions: 120000000 cycles: 63721333 heartbeat IPC: 0.941836 cumulative IPC: 0.964268 (Simulation time: 0 hr 2 min 29 sec) 
Heartbeat CPU 0 instructions: 130000001 cycles: 74309044 heartbeat IPC: 0.944491 cumulative IPC: 0.957585 (Simulation time: 0 hr 2 min 47 sec) 
Heartbeat CPU 0 instructions: 140000000 cycles: 83986829 heartbeat IPC: 1.03329 cumulative IPC: 0.975452 (Simulation time: 0 hr 3 min 3 sec) 
Heartbeat CPU 0 instructions: 150000001 cycles: 94282780 heartbeat IPC: 0.971256 cumulative IPC: 0.97461 (Simulation time: 0 hr 3 min 20 sec) 
Heartbeat CPU 0 instructions: 160000000 cycles: 104321117 heartbeat IPC: 0.996181 cumulative IPC: 0.97814 (Simulation time: 0 hr 3 min 37 sec) 
Heartbeat CPU 0 instructions: 170000000 cycles: 113977624 heartbeat IPC: 1.03557 cumulative IPC: 0.985952 (Simulation time: 0 hr 3 min 54 sec) 
Heartbeat CPU 0 instructions: 180000000 cycles: 124511578 heartbeat IPC: 0.949311 cumulative IPC: 0.981218 (Simulation time: 0 hr 4 min 11 sec) 
Heartbeat CPU 0 instructions: 190000001 cycles: 134752607 heartbeat IPC: 0.976464 cumulative IPC: 0.980687 (Simulation time: 0 hr 4 min 28 sec) 
Heartbeat CPU 0 instructions: 200000000 cycles: 145308350 heartbeat IPC: 0.947352 cumulative IPC: 0.977248 (Simulation time: 0 hr 4 min 45 sec) 
Heartbeat CPU 0 instructions: 210000002 cycles: 157731177 heartbeat IPC: 0.80497 cumulative IPC: 0.958598 (Simulation time: 0 hr 5 min 3 sec) 
Heartbeat CPU 0 instructions: 220000000 cycles: 170244067 heartbeat IPC: 0.799176 cumulative IPC: 0.942923 (Simulation time: 0 hr 5 min 21 sec) 
Heartbeat CPU 0 instructions: 230000000 cycles: 182380957 heartbeat IPC: 0.823934 cumulative IPC: 0.932563 (Simulation time: 0 hr 5 min 40 sec) 
Heartbeat CPU 0 instructions: 240000000 cycles: 194474617 heartbeat IPC: 0.82688 cumulative IPC: 0.924127 (Simulation time: 0 hr 5 min 58 sec) 
Heartbeat CPU 0 instructions: 250000000 cycles: 206413589 heartbeat IPC: 0.837593 cumulative IPC: 0.917805 (Simulation time: 0 hr 6 min 15 sec) 
Heartbeat CPU 0 instructions: 260000000 cycles: 217939066 heartbeat IPC: 0.867643 cumulative IPC: 0.914501 (Simulation time: 0 hr 6 min 33 sec) 
Heartbeat CPU 0 instructions: 270000003 cycles: 229772651 heartbeat IPC: 0.845053 cumulative IPC: 0.910101 (Simulation time: 0 hr 6 min 51 sec) 
Heartbeat CPU 0 instructions: 280000000 cycles: 241282231 heartbeat IPC: 0.868841 cumulative IPC: 0.907706 (Simulation time: 0 hr 7 min 9 sec) 
Heartbeat CPU 0 instructions: 290000002 cycles: 252763418 heartbeat IPC: 0.87099 cumulative IPC: 0.905697 (Simulation time: 0 hr 7 min 26 sec) 
Heartbeat CPU 0 instructions: 300000000 cycles: 265182792 heartbeat IPC: 0.805193 cumulative IPC: 0.90008 (Simulation time: 0 hr 7 min 45 sec) 
Heartbeat CPU 0 instructions: 310000000 cycles: 277296264 heartbeat IPC: 0.825527 cumulative IPC: 0.896225 (Simulation time: 0 hr 8 min 3 sec) 
Heartbeat CPU 0 instructions: 320000000 cycles: 289910781 heartbeat IPC: 0.792737 cumulative IPC: 0.890939 (Simulation time: 0 hr 8 min 21 sec) 
Heartbeat CPU 0 instructions: 330000003 cycles: 301814879 heartbeat IPC: 0.840047 cumulative IPC: 0.888598 (Simulation time: 0 hr 8 min 39 sec) 
Heartbeat CPU 0 instructions: 340000000 cycles: 313878584 heartbeat IPC: 0.828932 cumulative IPC: 0.885941 (Simulation time: 0 hr 8 min 57 sec) 
Heartbeat CPU 0 instructions: 350000001 cycles: 324844225 heartbeat IPC: 0.91194 cumulative IPC: 0.886953 (Simulation time: 0 hr 9 min 14 sec) 
Heartbeat CPU 0 instructions: 360000000 cycles: 336602038 heartbeat IPC: 0.850498 cumulative IPC: 0.885493 (Simulation time: 0 hr 9 min 32 sec) 
Heartbeat CPU 0 instructions: 370000001 cycles: 348012704 heartbeat IPC: 0.876373 cumulative IPC: 0.885152 (Simulation time: 0 hr 9 min 49 sec) 
Heartbeat CPU 0 instructions: 380000000 cycles: 358996436 heartbeat IPC: 0.910437 cumulative IPC: 0.88603 (Simulation time: 0 hr 10 min 7 sec) 
Heartbeat CPU 0 instructions: 390000003 cycles: 369599567 heartbeat IPC: 0.943118 cumulative IPC: 0.887884 (Simulation time: 0 hr 10 min 24 sec) 
Heartbeat CPU 0 instructions: 400000000 cycles: 379813188 heartbeat IPC: 0.979084 cumulative IPC: 0.890649 (Simulation time: 0 hr 10 min 42 sec) 
Heartbeat CPU 0 instructions: 410000000 cycles: 390310218 heartbeat IPC: 0.95265 cumulative IPC: 0.892523 (Simulation time: 0 hr 10 min 59 sec) 
Heartbeat CPU 0 instructions: 420000000 cycles: 399687594 heartbeat IPC: 1.0664 cumulative IPC: 0.897094 (Simulation time: 0 hr 11 min 16 sec) 
Heartbeat CPU 0 instructions: 430000002 cycles: 408776933 heartbeat IPC: 1.10019 cumulative IPC: 0.90214 (Simulation time: 0 hr 11 min 32 sec) 
Heartbeat CPU 0 instructions: 440000000 cycles: 419026489 heartbeat IPC: 0.975652 cumulative IPC: 0.904144 (Simulation time: 0 hr 11 min 50 sec) 
Heartbeat CPU 0 instructions: 450000002 cycles: 430081645 heartbeat IPC: 0.904555 cumulative IPC: 0.904156 (Simulation time: 0 hr 12 min 7 sec) 
Heartbeat CPU 0 instructions: 460000000 cycles: 441615202 heartbeat IPC: 0.867035 cumulative IPC: 0.903082 (Simulation time: 0 hr 12 min 24 sec) 
Heartbeat CPU 0 instructions: 470000003 cycles: 451795245 heartbeat IPC: 0.982314 cumulative IPC: 0.905055 (Simulation time: 0 hr 12 min 41 sec) 
Heartbeat CPU 0 instructions: 480000000 cycles: 462312575 heartbeat IPC: 0.950811 cumulative IPC: 0.906202 (Simulation time: 0 hr 12 min 58 sec) 
Heartbeat CPU 0 instructions: 490000000 cycles: 472254118 heartbeat IPC: 1.00588 cumulative IPC: 0.908511 (Simulation time: 0 hr 13 min 15 sec) 
Heartbeat CPU 0 instructions: 500000000 cycles: 484031582 heartbeat IPC: 0.849079 cumulative IPC: 0.906924 (Simulation time: 0 hr 13 min 33 sec) 
Heartbeat CPU 0 instructions: 510000002 cycles: 496443860 heartbeat IPC: 0.805654 cumulative IPC: 0.904152 (Simulation time: 0 hr 13 min 51 sec) 
Heartbeat CPU 0 instructions: 520000000 cycles: 508290932 heartbeat IPC: 0.84409 cumulative IPC: 0.902623 (Simulation time: 0 hr 14 min 9 sec) 
Heartbeat CPU 0 instructions: 530000001 cycles: 520110794 heartbeat IPC: 0.846034 cumulative IPC: 0.901221 (Simulation time: 0 hr 14 min 26 sec) 
Heartbeat CPU 0 instructions: 540000000 cycles: 531684651 heartbeat IPC: 0.864016 cumulative IPC: 0.90034 (Simulation time: 0 hr 14 min 44 sec) 
Heartbeat CPU 0 instructions: 550000001 cycles: 543041745 heartbeat IPC: 0.880507 cumulative IPC: 0.899889 (Simulation time: 0 hr 15 min 1 sec) 
Heartbeat CPU 0 instructions: 560000000 cycles: 554574482 heartbeat IPC: 0.867097 cumulative IPC: 0.89915 (Simulation time: 0 hr 15 min 19 sec) 
Heartbeat CPU 0 instructions: 570000000 cycles: 565953140 heartbeat IPC: 0.878838 cumulative IPC: 0.898708 (Simulation time: 0 hr 15 min 36 sec) 
Heartbeat CPU 0 instructions: 580000000 cycles: 576695978 heartbeat IPC: 0.930853 cumulative IPC: 0.899355 (Simulation time: 0 hr 15 min 53 sec) 
Heartbeat CPU 0 instructions: 590000003 cycles: 588081204 heartbeat IPC: 0.878332 cumulative IPC: 0.898916 (Simulation time: 0 hr 16 min 10 sec) 
Heartbeat CPU 0 instructions: 600000000 cycles: 598655635 heartbeat IPC: 0.945677 cumulative IPC: 0.899806 (Simulation time: 0 hr 16 min 27 sec) 
Finished CPU 0 instructions: 500000001 cycles: 555675423 cumulative IPC: 0.899806 (Simulation time: 0 hr 16 min 27 sec) 

CPU 0 Branch Prediction Accuracy: 93.0095% MPKI: 10.0046
Number of Branches: 71558147 Number of Mispredictions: 5002285
Number of LOAD Instructions: 145708893
Number of LOAD Instructions (ROI): 145708893
Number of STORE Instructions: 40463820
Number of STORE Instructions (ROI): 40463820
Total Destination Memory Operands: 45240498
Total Destination Memory Operands (ROI): 45240498
Total Source Memory Operands: 145708893
Total Source Memory Operands (ROI): 145708893
Number of DEPENDED LOADS: 10661605
Number of DEPENDED LOADS (ROI): 10661605
Number of SQ_ADDED: 45240498
Number of SQ_ADDED (ROI): 45240498
Number of LQ_ADDED: 193325589
Number of LQ_ADDED (ROI): 193325589
Number of Instructions read from trace: 600000002

ChampSim completed all CPUs

Region of Interest Statistics

CPU 0 cumulative IPC: 0.899806 instructions: 500000001 cycles: 555675423
ITLB TOTAL     ACCESS:   77993336  HIT:   77993335  MISS:          1
ITLB LOAD      ACCESS:   77993336  HIT:   77993335  MISS:          1
ITLB RFO       ACCESS:          0  HIT:          0  MISS:          0
ITLB PREFETCH  ACCESS:          0  HIT:          0  MISS:          0
ITLB WRITEBACK ACCESS:          0  HIT:          0  MISS:          0
ITLB PREFETCH  REQUESTED:          0  ISSUED:          0  USEFUL:          0  USELESS:          0
ITLB TOTAL MSHR MERGED:          0
ITLB LOAD MSHR MERGED:          0
ITLB RFO MSHR MERGED:          0
ITLB PREFETCH MSHR MERGED:          0
ITLB WRITEBACK MSHR MERGED:          0
ITLB TOTAL ACCESSES:   77993336 HITS:   77993335 MISSES:          1
ITLB LOAD ACCESSES:   77993336 HITS:   77993335 MISSES:          1
ITLB RFO ACCESSES:          0 HITS:          0 MISSES:          0
ITLB PREFETCH ACCESSES:          0 HITS:          0 MISSES:          0
ITLB WRITEBACK ACCESSES:          0 HITS:          0 MISSES:          0
ITLB RQ ACCESS:  499999995
ITLB RQ TO_CACHE:   77993336
ITLB RQ MERGED:  422006659
ITLB RQ FORWARD:          0
ITLB WQ ACCESS:          0
ITLB WQ TO_CACHE:          0
ITLB WQ MERGED:          0
ITLB WQ FORWARD:          0
DTLB TOTAL     ACCESS:   98670261  HIT:   97788925  MISS:     881336
DTLB LOAD      ACCESS:   70890844  HIT:   70029311  MISS:     861533
DTLB RFO       ACCESS:   27779417  HIT:   27759614  MISS:      19803
DTLB PREFETCH  ACCESS:          0  HIT:          0  MISS:          0
DTLB WRITEBACK ACCESS:          0  HIT:          0  MISS:          0
DTLB PREFETCH  REQUESTED:          0  ISSUED:          0  USEFUL:          0  USELESS:          0
DTLB TOTAL MSHR MERGED:      87346
DTLB LOAD MSHR MERGED:      65603
DTLB RFO MSHR MERGED:      21743
DTLB PREFETCH MSHR MERGED:          0
DTLB WRITEBACK MSHR MERGED:          0
DTLB TOTAL ACCESSES:   98757607 HITS:   97788925 MISSES:     968682
DTLB LOAD ACCESSES:   70956447 HITS:   70029311 MISSES:     927136
DTLB RFO ACCESSES:   27801160 HITS:   27759614 MISSES:      41546
DTLB PREFETCH ACCESSES:          0 HITS:          0 MISSES:          0
DTLB WRITEBACK ACCESSES:          0 HITS:          0 MISSES:          0
DTLB RQ ACCESS:  150283448
DTLB RQ TO_CACHE:   98757607
DTLB RQ MERGED:   51525841
DTLB RQ FORWARD:          0
DTLB WQ ACCESS:          0
DTLB WQ TO_CACHE:          0
DTLB WQ MERGED:          0
DTLB WQ FORWARD:          0
L1D TOTAL     ACCESS:  173348289  HIT:  169179683  MISS:    4168606
L1D LOAD      ACCESS:   75291520  HIT:   73410154  MISS:    1881366
L1D RFO       ACCESS:   36778643  HIT:   36572054  MISS:     206589
L1D PREFETCH  ACCESS:   61278126  HIT:   59197475  MISS:    2080651
L1D WRITEBACK ACCESS:          0  HIT:          0  MISS:          0
L1D PREFETCH  REQUESTED:   75395178  ISSUED:   74830996  USEFUL:     415110  USELESS:    1665530
L1D TOTAL MSHR MERGED:     375806
L1D LOAD MSHR MERGED:     112462
L1D RFO MSHR MERGED:     132828
L1D PREFETCH MSHR MERGED:     130516
L1D WRITEBACK MSHR MERGED:          0
L1D TOTAL ACCESSES:  173875355 HITS:  169330943 MISSES:    4544412
L1D LOAD ACCESSES:   75397849 HITS:   73412825 MISSES:    1985024
L1D RFO ACCESSES:   36910091 HITS:   36572054 MISSES:     338037
L1D PREFETCH ACCESSES:   61567415 HITS:   59346064 MISSES:    2221351
L1D WRITEBACK ACCESSES:          0 HITS:          0 MISSES:          0
L1D RQ ACCESS:  112621045
L1D RQ TO_CACHE:   75395178
L1D RQ MERGED:   37223196
L1D RQ FORWARD:          0
L1D WQ ACCESS:   37662403
L1D WQ TO_CACHE:   36910091
L1D WQ MERGED:     752312
L1D WQ FORWARD:     151260
L1I TOTAL     ACCESS:  100701317  HIT:  100701292  MISS:         25
L1I LOAD      ACCESS:  100701317  HIT:  100701292  MISS:         25
L1I RFO       ACCESS:          0  HIT:          0  MISS:          0
L1I PREFETCH  ACCESS:          0  HIT:          0  MISS:          0
L1I WRITEBACK ACCESS:          0  HIT:          0  MISS:          0
L1I PREFETCH  REQUESTED:          0  ISSUED:          0  USEFUL:          0  USELESS:          0
L1I TOTAL MSHR MERGED:         10
L1I LOAD MSHR MERGED:         10
L1I RFO MSHR MERGED:          0
L1I PREFETCH MSHR MERGED:          0
L1I WRITEBACK MSHR MERGED:          0
L1I TOTAL ACCESSES:  100701327 HITS:  100701292 MISSES:         35
L1I LOAD ACCESSES:  100701327 HITS:  100701292 MISSES:         35
L1I RFO ACCESSES:          0 HITS:          0 MISSES:          0
L1I PREFETCH ACCESSES:          0 HITS:          0 MISSES:          0
L1I WRITEBACK ACCESSES:          0 HITS:          0 MISSES:          0
L1I RQ ACCESS:  499999995
L1I RQ TO_CACHE:  100701327
L1I RQ MERGED:  399298668
L1I RQ FORWARD:          0
L1I WQ ACCESS:          0
L1I WQ TO_CACHE:          0
L1I WQ MERGED:          0
L1I WQ FORWARD:          0
L2C TOTAL     ACCESS:    5852519  HIT:    4009343  MISS:    1843176
L2C LOAD      ACCESS:    1872463  HIT:    1061497  MISS:     810966
L2C RFO       ACCESS:     205203  HIT:     100562  MISS:     104641
L2C PREFETCH  ACCESS:    2169221  HIT:    1246071  MISS:     923150
L2C WRITEBACK ACCESS:    1605632  HIT:    1601213  MISS:       4419
L2C PREFETCH  REQUESTED:      91712  ISSUED:      91712  USEFUL:      86447  USELESS:     836726
L2C TOTAL MSHR MERGED:       1029
L2C LOAD MSHR MERGED:        251
L2C RFO MSHR MERGED:          0
L2C PREFETCH MSHR MERGED:        778
L2C WRITEBACK MSHR MERGED:          0
L2C TOTAL ACCESSES:    5853912 HITS:    4009510 MISSES:    1844402
L2C LOAD ACCESSES:    1872587 HITS:    1061621 MISSES:     810966
L2C RFO ACCESSES:     205209 HITS:     100568 MISSES:     104641
L2C PREFETCH ACCESSES:    2170484 HITS:    1246108 MISSES:     924376
L2C WRITEBACK ACCESSES:    1605632 HITS:    1601213 MISSES:       4419
L2C RQ ACCESS:    2077796
L2C RQ TO_CACHE:    2077666
L2C RQ MERGED:          0
L2C RQ FORWARD:          0
L2C WQ ACCESS:    1605632
L2C WQ TO_CACHE:    1605632
L2C WQ MERGED:          0
L2C WQ FORWARD:        167
LLC TOTAL     ACCESS:    2673596  HIT:    2169239  MISS:     504357
LLC LOAD      ACCESS:     810705  HIT:     642698  MISS:     168007
LLC RFO       ACCESS:     104641  HIT:      60843  MISS:      43798
LLC PREFETCH  ACCESS:     923573  HIT:     660946  MISS:     262627
LLC WRITEBACK ACCESS:     834677  HIT:     804752  MISS:      29925
LLC PREFETCH  REQUESTED:          0  ISSUED:          0  USEFUL:       8690  USELESS:     254063
LLC TOTAL MSHR MERGED:         11
LLC LOAD MSHR MERGED:          1
LLC RFO MSHR MERGED:          0
LLC PREFETCH MSHR MERGED:         10
LLC WRITEBACK MSHR MERGED:          0
LLC TOTAL ACCESSES:    2673619 HITS:    2169251 MISSES:     504368
LLC LOAD ACCESSES:     810715 HITS:     642708 MISSES:     168007
LLC RFO ACCESSES:     104641 HITS:      60843 MISSES:      43798
LLC PREFETCH ACCESSES:     923586 HITS:     660948 MISSES:     262638
LLC WRITEBACK ACCESSES:     834677 HITS:     804752 MISSES:      29925
LLC 0 RQ ACCESS:     915356
LLC 0 RQ TO_CACHE:     915346
LLC 0 RQ MERGED:          0
LLC 0 RQ FORWARD:          0
LLC WQ ACCESS:     834677
LLC WQ TO_CACHE:     834677
LLC WQ MERGED:          0
LLC WQ FORWARD:         12
Major fault: 0 Minor fault: 11278
CPU 0 L1D next line prefetcher final stats
CPU 0 L2C PC-based stride prefetcher final stats
All Misses: 618171
All Hits: 2436445
SD Algo Stats - Switches: 0 SRR-Repls: 201100 BRR-Repls: 0

DRAM Statistics
 CHANNEL 0
 RQ ROW_BUFFER_HIT:      29936  ROW_BUFFER_MISS:     444081
 DBUS_CONGESTED:     344672
 WQ ROW_BUFFER_HIT:      12850  ROW_BUFFER_MISS:     194351  FULL:          0

 AVG_CONGESTED_CYCLE: 13
LOADS RETIRED: 121769268
INSTR RETIRED: 500000000
