
*** ChampSim Multicore Out-of-Order Simulator ***

Warmup Instructions: 100000000
Simulation Instructions: 500000000
Number of CPUs: 1
LLC sets: 2048
LLC ways: 16
Clean RRIP Policies: 1213230112132301 Dirty RRIP Policies: 2213031122130311 PSEL Width: 10 Track Set: 4294967295 PSEL Mask: 1 Demote Mask: 3343011033430110DS Algo: 0Window size: 0
Off-chip DRAM Size: 4096 MB Channels: 1 Width: 64-bit Data Rate: 1600 MT/s

CPU 0 runs /mnt/beegfs/iconst01/spec2017/Cam4.trace.gz
NOT SORTED
TRACE STRING: /mnt/beegfs/iconst01/spec2017/Cam4.trace.gz
SORTED
TRACE STRING: /mnt/beegfs/iconst01/spec2017/Cam4.trace.gz
INITIAL
TRACE STRING: /mnt/beegfs/iconst01/spec2017/Cam4.trace.gz

champsim_seed used: 325

CPU 0 L1D next line prefetcher
CPU 0 L2C IP-based stride prefetcher
Initialize DRRIP state
Assign rand_sets[0]: 454  LLC: 2048
rand_sets[0]: 454
Assign rand_sets[1]: 1662  LLC: 2048
rand_sets[1]: 1662
Assign rand_sets[2]: 1921  LLC: 2048
rand_sets[2]: 1921
Assign rand_sets[3]: 1131  LLC: 2048
rand_sets[3]: 1131
Assign rand_sets[4]: 331  LLC: 2048
rand_sets[4]: 331
Assign rand_sets[5]: 1531  LLC: 2048
rand_sets[5]: 1531
Assign rand_sets[6]: 482  LLC: 2048
rand_sets[6]: 482
Assign rand_sets[7]: 1275  LLC: 2048
rand_sets[7]: 1275
Assign rand_sets[8]: 1876  LLC: 2048
rand_sets[8]: 1876
Assign rand_sets[9]: 2038  LLC: 2048
rand_sets[9]: 2038
Assign rand_sets[10]: 701  LLC: 2048
rand_sets[10]: 701
Assign rand_sets[11]: 479  LLC: 2048
rand_sets[11]: 479
Assign rand_sets[12]: 892  LLC: 2048
rand_sets[12]: 892
Assign rand_sets[13]: 1820  LLC: 2048
rand_sets[13]: 1820
Assign rand_sets[14]: 1505  LLC: 2048
rand_sets[14]: 1505
Assign rand_sets[15]: 1159  LLC: 2048
rand_sets[15]: 1159
Assign rand_sets[16]: 513  LLC: 2048
rand_sets[16]: 513
Assign rand_sets[17]: 703  LLC: 2048
rand_sets[17]: 703
Assign rand_sets[18]: 561  LLC: 2048
rand_sets[18]: 561
Assign rand_sets[19]: 990  LLC: 2048
rand_sets[19]: 990
Assign rand_sets[20]: 342  LLC: 2048
rand_sets[20]: 342
Assign rand_sets[21]: 882  LLC: 2048
rand_sets[21]: 882
Assign rand_sets[22]: 15  LLC: 2048
rand_sets[22]: 15
Assign rand_sets[23]: 71  LLC: 2048
rand_sets[23]: 71
Assign rand_sets[24]: 1127  LLC: 2048
rand_sets[24]: 1127
Assign rand_sets[25]: 1382  LLC: 2048
rand_sets[25]: 1382
Assign rand_sets[26]: 647  LLC: 2048
rand_sets[26]: 647
Assign rand_sets[27]: 857  LLC: 2048
rand_sets[27]: 857
Assign rand_sets[28]: 1450  LLC: 2048
rand_sets[28]: 1450
Assign rand_sets[29]: 1160  LLC: 2048
rand_sets[29]: 1160
Assign rand_sets[30]: 1852  LLC: 2048
rand_sets[30]: 1852
Assign rand_sets[31]: 1881  LLC: 2048
rand_sets[31]: 1881
Assign rand_sets[32]: 1770  LLC: 2048
rand_sets[32]: 1770
Assign rand_sets[33]: 1622  LLC: 2048
rand_sets[33]: 1622
Assign rand_sets[34]: 275  LLC: 2048
rand_sets[34]: 275
Assign rand_sets[35]: 635  LLC: 2048
rand_sets[35]: 635
Assign rand_sets[36]: 466  LLC: 2048
rand_sets[36]: 466
Assign rand_sets[37]: 1413  LLC: 2048
rand_sets[37]: 1413
Assign rand_sets[38]: 417  LLC: 2048
rand_sets[38]: 417
Assign rand_sets[39]: 472  LLC: 2048
rand_sets[39]: 472
Assign rand_sets[40]: 1340  LLC: 2048
rand_sets[40]: 1340
Assign rand_sets[41]: 852  LLC: 2048
rand_sets[41]: 852
Assign rand_sets[42]: 1365  LLC: 2048
rand_sets[42]: 1365
Assign rand_sets[43]: 47  LLC: 2048
rand_sets[43]: 47
Assign rand_sets[44]: 823  LLC: 2048
rand_sets[44]: 823
Assign rand_sets[45]: 686  LLC: 2048
rand_sets[45]: 686
Assign rand_sets[46]: 1637  LLC: 2048
rand_sets[46]: 1637
Assign rand_sets[47]: 1115  LLC: 2048
rand_sets[47]: 1115
Assign rand_sets[48]: 986  LLC: 2048
rand_sets[48]: 986
Assign rand_sets[49]: 258  LLC: 2048
rand_sets[49]: 258
Assign rand_sets[50]: 633  LLC: 2048
rand_sets[50]: 633
Assign rand_sets[51]: 920  LLC: 2048
rand_sets[51]: 920
Assign rand_sets[52]: 204  LLC: 2048
rand_sets[52]: 204
Assign rand_sets[53]: 227  LLC: 2048
rand_sets[53]: 227
Assign rand_sets[54]: 1818  LLC: 2048
rand_sets[54]: 1818
Assign rand_sets[55]: 886  LLC: 2048
rand_sets[55]: 886
Assign rand_sets[56]: 1422  LLC: 2048
rand_sets[56]: 1422
Assign rand_sets[57]: 607  LLC: 2048
rand_sets[57]: 607
Assign rand_sets[58]: 217  LLC: 2048
rand_sets[58]: 217
Assign rand_sets[59]: 1945  LLC: 2048
rand_sets[59]: 1945
Assign rand_sets[60]: 143  LLC: 2048
rand_sets[60]: 143
Assign rand_sets[61]: 1311  LLC: 2048
rand_sets[61]: 1311
Assign rand_sets[62]: 319  LLC: 2048
rand_sets[62]: 319
Assign rand_sets[63]: 1846  LLC: 2048
rand_sets[63]: 1846
 CLEAN-RRIP-POLICY-1: 1-2-1-3-2-3-0-1- CLEAN-RRIP-POLICY-2: 1-2-1-3-2-3-0-1-
 DIRTY-RRIP-POLICY-1: 2-2-1-3-0-3-1-1- DIRTY-RRIP-POLICY-2: 2-2-1-3-0-3-1-1-
 PSEL width: 10
Heartbeat CPU 0 instructions: 10000000 cycles: 4859184 heartbeat IPC: 2.05796 cumulative IPC: 2.05796 (Simulation time: 0 hr 0 min 17 sec) 
Heartbeat CPU 0 instructions: 20000000 cycles: 9790786 heartbeat IPC: 2.02774 cumulative IPC: 2.04274 (Simulation time: 0 hr 0 min 33 sec) 
Heartbeat CPU 0 instructions: 30000001 cycles: 14562993 heartbeat IPC: 2.09547 cumulative IPC: 2.06002 (Simulation time: 0 hr 0 min 47 sec) 
Heartbeat CPU 0 instructions: 40000000 cycles: 19399993 heartbeat IPC: 2.0674 cumulative IPC: 2.06186 (Simulation time: 0 hr 1 min 4 sec) 
Heartbeat CPU 0 instructions: 50000000 cycles: 24256509 heartbeat IPC: 2.05909 cumulative IPC: 2.0613 (Simulation time: 0 hr 1 min 20 sec) 
Heartbeat CPU 0 instructions: 60000000 cycles: 29181942 heartbeat IPC: 2.03028 cumulative IPC: 2.05607 (Simulation time: 0 hr 1 min 36 sec) 
Heartbeat CPU 0 instructions: 70000001 cycles: 33956905 heartbeat IPC: 2.09426 cumulative IPC: 2.06144 (Simulation time: 0 hr 1 min 51 sec) 
Heartbeat CPU 0 instructions: 80000000 cycles: 38793204 heartbeat IPC: 2.0677 cumulative IPC: 2.06222 (Simulation time: 0 hr 2 min 7 sec) 
Heartbeat CPU 0 instructions: 90000002 cycles: 43647267 heartbeat IPC: 2.06013 cumulative IPC: 2.06198 (Simulation time: 0 hr 2 min 24 sec) 
Heartbeat CPU 0 instructions: 100000000 cycles: 48566139 heartbeat IPC: 2.03299 cumulative IPC: 2.05905 (Simulation time: 0 hr 2 min 40 sec) 

Warmup complete CPU 0 instructions: 100000001 cycles: 48566140 (Simulation time: 0 hr 2 min 40 sec) 

Heartbeat CPU 0 instructions: 110000000 cycles: 61616639 heartbeat IPC: 0.766254 cumulative IPC: 0.766254 (Simulation time: 0 hr 3 min 2 sec) 
Heartbeat CPU 0 instructions: 120000000 cycles: 75395993 heartbeat IPC: 0.725723 cumulative IPC: 0.745438 (Simulation time: 0 hr 3 min 26 sec) 
Heartbeat CPU 0 instructions: 130000000 cycles: 89161406 heartbeat IPC: 0.726458 cumulative IPC: 0.739002 (Simulation time: 0 hr 3 min 51 sec) 
Heartbeat CPU 0 instructions: 140000000 cycles: 103452532 heartbeat IPC: 0.699735 cumulative IPC: 0.728778 (Simulation time: 0 hr 4 min 15 sec) 
Heartbeat CPU 0 instructions: 150000003 cycles: 116570769 heartbeat IPC: 0.762298 cumulative IPC: 0.735244 (Simulation time: 0 hr 4 min 37 sec) 
Heartbeat CPU 0 instructions: 160000000 cycles: 130355412 heartbeat IPC: 0.725445 cumulative IPC: 0.733593 (Simulation time: 0 hr 5 min 2 sec) 
Heartbeat CPU 0 instructions: 170000001 cycles: 144159586 heartbeat IPC: 0.724419 cumulative IPC: 0.732268 (Simulation time: 0 hr 5 min 26 sec) 
Heartbeat CPU 0 instructions: 180000000 cycles: 158440320 heartbeat IPC: 0.700244 cumulative IPC: 0.728106 (Simulation time: 0 hr 5 min 50 sec) 
Heartbeat CPU 0 instructions: 190000003 cycles: 171526776 heartbeat IPC: 0.764149 cumulative IPC: 0.731942 (Simulation time: 0 hr 6 min 13 sec) 
Heartbeat CPU 0 instructions: 200000000 cycles: 185315924 heartbeat IPC: 0.725208 cumulative IPC: 0.731263 (Simulation time: 0 hr 6 min 37 sec) 
Heartbeat CPU 0 instructions: 210000002 cycles: 199127762 heartbeat IPC: 0.724017 cumulative IPC: 0.730598 (Simulation time: 0 hr 7 min 1 sec) 
Heartbeat CPU 0 instructions: 220000000 cycles: 213423049 heartbeat IPC: 0.699531 cumulative IPC: 0.727904 (Simulation time: 0 hr 7 min 26 sec) 
Heartbeat CPU 0 instructions: 230000001 cycles: 226471136 heartbeat IPC: 0.766396 cumulative IPC: 0.730727 (Simulation time: 0 hr 7 min 48 sec) 
Heartbeat CPU 0 instructions: 240000000 cycles: 240248114 heartbeat IPC: 0.725848 cumulative IPC: 0.730376 (Simulation time: 0 hr 8 min 12 sec) 
Heartbeat CPU 0 instructions: 250000001 cycles: 254009543 heartbeat IPC: 0.726669 cumulative IPC: 0.730128 (Simulation time: 0 hr 8 min 36 sec) 
Heartbeat CPU 0 instructions: 260000000 cycles: 268189486 heartbeat IPC: 0.705221 cumulative IPC: 0.72852 (Simulation time: 0 hr 9 min 1 sec) 
Heartbeat CPU 0 instructions: 270000003 cycles: 281371913 heartbeat IPC: 0.758586 cumulative IPC: 0.730222 (Simulation time: 0 hr 9 min 23 sec) 
Heartbeat CPU 0 instructions: 280000000 cycles: 295169798 heartbeat IPC: 0.724749 cumulative IPC: 0.729916 (Simulation time: 0 hr 9 min 47 sec) 
Heartbeat CPU 0 instructions: 290000001 cycles: 308973726 heartbeat IPC: 0.724432 cumulative IPC: 0.729625 (Simulation time: 0 hr 10 min 11 sec) 
Heartbeat CPU 0 instructions: 300000000 cycles: 323087080 heartbeat IPC: 0.708549 cumulative IPC: 0.728542 (Simulation time: 0 hr 10 min 36 sec) 
Heartbeat CPU 0 instructions: 310000000 cycles: 336303635 heartbeat IPC: 0.756627 cumulative IPC: 0.729832 (Simulation time: 0 hr 10 min 58 sec) 
Heartbeat CPU 0 instructions: 320000000 cycles: 350144746 heartbeat IPC: 0.722485 cumulative IPC: 0.729495 (Simulation time: 0 hr 11 min 22 sec) 
Heartbeat CPU 0 instructions: 330000000 cycles: 363966861 heartbeat IPC: 0.723478 cumulative IPC: 0.729231 (Simulation time: 0 hr 11 min 46 sec) 
Heartbeat CPU 0 instructions: 340000000 cycles: 378045126 heartbeat IPC: 0.710315 cumulative IPC: 0.728423 (Simulation time: 0 hr 12 min 11 sec) 
Heartbeat CPU 0 instructions: 350000000 cycles: 391304124 heartbeat IPC: 0.754205 cumulative IPC: 0.72942 (Simulation time: 0 hr 12 min 33 sec) 
Heartbeat CPU 0 instructions: 360000000 cycles: 405175877 heartbeat IPC: 0.720889 cumulative IPC: 0.729088 (Simulation time: 0 hr 12 min 57 sec) 
Heartbeat CPU 0 instructions: 370000003 cycles: 419002260 heartbeat IPC: 0.723255 cumulative IPC: 0.728871 (Simulation time: 0 hr 13 min 21 sec) 
Heartbeat CPU 0 instructions: 380000000 cycles: 433052541 heartbeat IPC: 0.711729 cumulative IPC: 0.728244 (Simulation time: 0 hr 13 min 46 sec) 
Heartbeat CPU 0 instructions: 390000003 cycles: 446305907 heartbeat IPC: 0.754526 cumulative IPC: 0.72912 (Simulation time: 0 hr 14 min 7 sec) 
Heartbeat CPU 0 instructions: 400000000 cycles: 460173689 heartbeat IPC: 0.721096 cumulative IPC: 0.72885 (Simulation time: 0 hr 14 min 32 sec) 
Heartbeat CPU 0 instructions: 410000000 cycles: 473963645 heartbeat IPC: 0.725165 cumulative IPC: 0.72873 (Simulation time: 0 hr 14 min 56 sec) 
Heartbeat CPU 0 instructions: 420000000 cycles: 487996763 heartbeat IPC: 0.7126 cumulative IPC: 0.728215 (Simulation time: 0 hr 15 min 20 sec) 
Heartbeat CPU 0 instructions: 430000003 cycles: 501265809 heartbeat IPC: 0.753634 cumulative IPC: 0.72896 (Simulation time: 0 hr 15 min 42 sec) 
Heartbeat CPU 0 instructions: 440000000 cycles: 515130569 heartbeat IPC: 0.721253 cumulative IPC: 0.728731 (Simulation time: 0 hr 16 min 6 sec) 
Heartbeat CPU 0 instructions: 450000000 cycles: 528940973 heartbeat IPC: 0.724092 cumulative IPC: 0.728598 (Simulation time: 0 hr 16 min 31 sec) 
Heartbeat CPU 0 instructions: 460000000 cycles: 542957518 heartbeat IPC: 0.713443 cumulative IPC: 0.728168 (Simulation time: 0 hr 16 min 55 sec) 
Heartbeat CPU 0 instructions: 470000001 cycles: 556221101 heartbeat IPC: 0.753944 cumulative IPC: 0.728841 (Simulation time: 0 hr 17 min 17 sec) 
Heartbeat CPU 0 instructions: 480000000 cycles: 570058224 heartbeat IPC: 0.722694 cumulative IPC: 0.728678 (Simulation time: 0 hr 17 min 41 sec) 
Heartbeat CPU 0 instructions: 490000002 cycles: 583841676 heartbeat IPC: 0.725508 cumulative IPC: 0.728597 (Simulation time: 0 hr 18 min 5 sec) 
Heartbeat CPU 0 instructions: 500000000 cycles: 597855797 heartbeat IPC: 0.713566 cumulative IPC: 0.728213 (Simulation time: 0 hr 18 min 30 sec) 
Heartbeat CPU 0 instructions: 510000002 cycles: 611137919 heartbeat IPC: 0.752892 cumulative IPC: 0.728796 (Simulation time: 0 hr 18 min 51 sec) 
Heartbeat CPU 0 instructions: 520000000 cycles: 624964258 heartbeat IPC: 0.723257 cumulative IPC: 0.728663 (Simulation time: 0 hr 19 min 16 sec) 
Heartbeat CPU 0 instructions: 530000003 cycles: 638728893 heartbeat IPC: 0.7265 cumulative IPC: 0.728613 (Simulation time: 0 hr 19 min 40 sec) 
Heartbeat CPU 0 instructions: 540000000 cycles: 652766578 heartbeat IPC: 0.712368 cumulative IPC: 0.728235 (Simulation time: 0 hr 20 min 4 sec) 
Heartbeat CPU 0 instructions: 550000003 cycles: 666057715 heartbeat IPC: 0.752381 cumulative IPC: 0.728755 (Simulation time: 0 hr 20 min 26 sec) 
Heartbeat CPU 0 instructions: 560000000 cycles: 679867174 heartbeat IPC: 0.724141 cumulative IPC: 0.728654 (Simulation time: 0 hr 20 min 50 sec) 
Heartbeat CPU 0 instructions: 570000001 cycles: 693666265 heartbeat IPC: 0.724685 cumulative IPC: 0.728569 (Simulation time: 0 hr 21 min 15 sec) 
Heartbeat CPU 0 instructions: 580000000 cycles: 707726188 heartbeat IPC: 0.711241 cumulative IPC: 0.728199 (Simulation time: 0 hr 21 min 39 sec) 
Heartbeat CPU 0 instructions: 590000000 cycles: 720978995 heartbeat IPC: 0.754557 cumulative IPC: 0.728719 (Simulation time: 0 hr 22 min 1 sec) 
Heartbeat CPU 0 instructions: 600000000 cycles: 734798700 heartbeat IPC: 0.723604 cumulative IPC: 0.728616 (Simulation time: 0 hr 22 min 25 sec) 
Finished CPU 0 instructions: 500000001 cycles: 686232568 cumulative IPC: 0.728616 (Simulation time: 0 hr 22 min 25 sec) 

CPU 0 Branch Prediction Accuracy: 97.5275% MPKI: 2.1997
Number of Branches: 44482865 Number of Mispredictions: 1099852
Number of LOAD Instructions: 144955155
Number of LOAD Instructions (ROI): 144955155
Number of STORE Instructions: 55921098
Number of STORE Instructions (ROI): 55921098
Total Destination Memory Operands: 57111147
Total Destination Memory Operands (ROI): 57111147
Total Source Memory Operands: 144955155
Total Source Memory Operands (ROI): 144955155
Number of DEPENDED LOADS: 13454890
Number of DEPENDED LOADS (ROI): 13454890
Number of SQ_ADDED: 57111126
Number of SQ_ADDED (ROI): 57111126
Number of LQ_ADDED: 174478182
Number of LQ_ADDED (ROI): 174478182
Number of Instructions read from trace: 600000256

ChampSim completed all CPUs

Region of Interest Statistics

CPU 0 cumulative IPC: 0.728616 instructions: 500000001 cycles: 686232568
ITLB TOTAL     ACCESS:  136074061  HIT:  136071508  MISS:       2553
ITLB LOAD      ACCESS:  136074061  HIT:  136071508  MISS:       2553
ITLB RFO       ACCESS:          0  HIT:          0  MISS:          0
ITLB PREFETCH  ACCESS:          0  HIT:          0  MISS:          0
ITLB WRITEBACK ACCESS:          0  HIT:          0  MISS:          0
ITLB PREFETCH  REQUESTED:          0  ISSUED:          0  USEFUL:          0  USELESS:          0
ITLB TOTAL MSHR MERGED:       4385
ITLB LOAD MSHR MERGED:       4385
ITLB RFO MSHR MERGED:          0
ITLB PREFETCH MSHR MERGED:          0
ITLB WRITEBACK MSHR MERGED:          0
ITLB TOTAL ACCESSES:  136078446 HITS:  136071508 MISSES:       6938
ITLB LOAD ACCESSES:  136078446 HITS:  136071508 MISSES:       6938
ITLB RFO ACCESSES:          0 HITS:          0 MISSES:          0
ITLB PREFETCH ACCESSES:          0 HITS:          0 MISSES:          0
ITLB WRITEBACK ACCESSES:          0 HITS:          0 MISSES:          0
ITLB RQ ACCESS:  500000202
ITLB RQ TO_CACHE:  136078446
ITLB RQ MERGED:  363921756
ITLB RQ FORWARD:          0
ITLB WQ ACCESS:          0
ITLB WQ TO_CACHE:          0
ITLB WQ MERGED:          0
ITLB WQ FORWARD:          0
DTLB TOTAL     ACCESS:  111555626  HIT:  111419432  MISS:     136194
DTLB LOAD      ACCESS:   78953291  HIT:   78827665  MISS:     125626
DTLB RFO       ACCESS:   32602335  HIT:   32591767  MISS:      10568
DTLB PREFETCH  ACCESS:          0  HIT:          0  MISS:          0
DTLB WRITEBACK ACCESS:          0  HIT:          0  MISS:          0
DTLB PREFETCH  REQUESTED:          0  ISSUED:          0  USEFUL:          0  USELESS:          0
DTLB TOTAL MSHR MERGED:      64144
DTLB LOAD MSHR MERGED:      50901
DTLB RFO MSHR MERGED:      13243
DTLB PREFETCH MSHR MERGED:          0
DTLB WRITEBACK MSHR MERGED:          0
DTLB TOTAL ACCESSES:  111619770 HITS:  111419432 MISSES:     200338
DTLB LOAD ACCESSES:   79004192 HITS:   78827665 MISSES:     176527
DTLB RFO ACCESSES:   32615578 HITS:   32591767 MISSES:      23811
DTLB PREFETCH ACCESSES:          0 HITS:          0 MISSES:          0
DTLB WRITEBACK ACCESSES:          0 HITS:          0 MISSES:          0
DTLB RQ ACCESS:  157180527
DTLB RQ TO_CACHE:  111619770
DTLB RQ MERGED:   45560757
DTLB RQ FORWARD:          0
DTLB WQ ACCESS:          0
DTLB WQ TO_CACHE:          0
DTLB WQ MERGED:          0
DTLB WQ FORWARD:          0
L1D TOTAL     ACCESS:  198238428  HIT:  188397395  MISS:    9841033
L1D LOAD      ACCESS:   79945894  HIT:   75680979  MISS:    4264915
L1D RFO       ACCESS:   44544744  HIT:   43644705  MISS:     900039
L1D PREFETCH  ACCESS:   73747790  HIT:   69071711  MISS:    4676079
L1D WRITEBACK ACCESS:          0  HIT:          0  MISS:          0
L1D PREFETCH  REQUESTED:   80349642  ISSUED:   79894021  USEFUL:    1817763  USELESS:    2858225
L1D TOTAL MSHR MERGED:    2500643
L1D LOAD MSHR MERGED:     529640
L1D RFO MSHR MERGED:    1407981
L1D PREFETCH MSHR MERGED:     563022
L1D WRITEBACK MSHR MERGED:          0
L1D TOTAL ACCESSES:  200760076 HITS:  188418400 MISSES:   12341676
L1D LOAD ACCESSES:   80362038 HITS:   75693375 MISSES:    4668663
L1D RFO ACCESSES:   45950027 HITS:   43644705 MISSES:    2305322
L1D PREFETCH ACCESSES:   74448011 HITS:   69080320 MISSES:    5367691
L1D WRITEBACK ACCESSES:          0 HITS:          0 MISSES:          0
L1D RQ ACCESS:  109538557
L1D RQ TO_CACHE:   80349642
L1D RQ MERGED:   29176519
L1D RQ FORWARD:          0
L1D WQ ACCESS:   47641970
L1D WQ TO_CACHE:   45950027
L1D WQ MERGED:    1691943
L1D WQ FORWARD:      21005
L1I TOTAL     ACCESS:  161543754  HIT:  161279789  MISS:     263965
L1I LOAD      ACCESS:  161543754  HIT:  161279789  MISS:     263965
L1I RFO       ACCESS:          0  HIT:          0  MISS:          0
L1I PREFETCH  ACCESS:          0  HIT:          0  MISS:          0
L1I WRITEBACK ACCESS:          0  HIT:          0  MISS:          0
L1I PREFETCH  REQUESTED:          0  ISSUED:          0  USEFUL:          0  USELESS:          0
L1I TOTAL MSHR MERGED:     261146
L1I LOAD MSHR MERGED:     261146
L1I RFO MSHR MERGED:          0
L1I PREFETCH MSHR MERGED:          0
L1I WRITEBACK MSHR MERGED:          0
L1I TOTAL ACCESSES:  161804900 HITS:  161279789 MISSES:     525111
L1I LOAD ACCESSES:  161804900 HITS:  161279789 MISSES:     525111
L1I RFO ACCESSES:          0 HITS:          0 MISSES:          0
L1I PREFETCH ACCESSES:          0 HITS:          0 MISSES:          0
L1I WRITEBACK ACCESSES:          0 HITS:          0 MISSES:          0
L1I RQ ACCESS:  500000202
L1I RQ TO_CACHE:  161804900
L1I RQ MERGED:  338195302
L1I RQ FORWARD:          0
L1I WQ ACCESS:          0
L1I WQ TO_CACHE:          0
L1I WQ MERGED:          0
L1I WQ FORWARD:          0
L2C TOTAL     ACCESS:   11771082  HIT:   10381816  MISS:    1389266
L2C LOAD      ACCESS:    4402923  HIT:    3906015  MISS:     496908
L2C RFO       ACCESS:     897276  HIT:     536263  MISS:     361013
L2C PREFETCH  ACCESS:    5283331  HIT:    4754932  MISS:     528399
L2C WRITEBACK ACCESS:    1187552  HIT:    1184606  MISS:       2946
L2C PREFETCH  REQUESTED:     504097  ISSUED:     504097  USEFUL:     114652  USELESS:     413940
L2C TOTAL MSHR MERGED:       2205
L2C LOAD MSHR MERGED:        442
L2C RFO MSHR MERGED:          0
L2C PREFETCH MSHR MERGED:       1763
L2C WRITEBACK MSHR MERGED:          0
L2C TOTAL ACCESSES:   11776121 HITS:   10382027 MISSES:    1394094
L2C LOAD ACCESSES:    4402988 HITS:    3906080 MISSES:     496908
L2C RFO ACCESSES:     897341 HITS:     536328 MISSES:     361013
L2C PREFETCH ACCESSES:    5288240 HITS:    4755013 MISSES:     533227
L2C WRITEBACK ACCESSES:    1187552 HITS:    1184606 MISSES:       2946
L2C RQ ACCESS:    5300329
L2C RQ TO_CACHE:    5300199
L2C RQ MERGED:          0
L2C RQ FORWARD:          0
L2C WQ ACCESS:    1187552
L2C WQ TO_CACHE:    1187552
L2C WQ MERGED:          0
L2C WQ FORWARD:        211
LLC TOTAL     ACCESS:    1849526  HIT:    1167695  MISS:     681831
LLC LOAD      ACCESS:     496463  HIT:     203511  MISS:     292952
LLC RFO       ACCESS:     361009  HIT:     277429  MISS:      83580
LLC PREFETCH  ACCESS:     531331  HIT:     290758  MISS:     240573
LLC WRITEBACK ACCESS:     460723  HIT:     395997  MISS:      64726
LLC PREFETCH  REQUESTED:          0  ISSUED:          0  USEFUL:       4881  USELESS:     236045
LLC TOTAL MSHR MERGED:         98
LLC LOAD MSHR MERGED:         39
LLC RFO MSHR MERGED:          0
LLC PREFETCH MSHR MERGED:         59
LLC WRITEBACK MSHR MERGED:          0
LLC TOTAL ACCESSES:    1849649 HITS:    1167720 MISSES:     681929
LLC LOAD ACCESSES:     496466 HITS:     203514 MISSES:     292952
LLC RFO ACCESSES:     361013 HITS:     277433 MISSES:      83580
LLC PREFETCH ACCESSES:     531447 HITS:     290776 MISSES:     240671
LLC WRITEBACK ACCESSES:     460723 HITS:     395997 MISSES:      64726
LLC 0 RQ ACCESS:     857479
LLC 0 RQ TO_CACHE:     857472
LLC 0 RQ MERGED:          0
LLC 0 RQ FORWARD:          0
LLC WQ ACCESS:     460723
LLC WQ TO_CACHE:     460723
LLC WQ MERGED:          0
LLC WQ FORWARD:         25
Major fault: 0 Minor fault: 3073
CPU 0 L1D next line prefetcher final stats
CPU 0 L2C PC-based stride prefetcher final stats
All Misses: 843509
All Hits: 1332708
SD Algo Stats - Switches: 0 SRR-Repls: 330963 BRR-Repls: 0

DRAM Statistics
 CHANNEL 0
 RQ ROW_BUFFER_HIT:     397331  ROW_BUFFER_MISS:     219079
 DBUS_CONGESTED:     378838
 WQ ROW_BUFFER_HIT:      10775  ROW_BUFFER_MISS:      80698  FULL:          0

 AVG_CONGESTED_CYCLE: 13
LOADS RETIRED: 120673965
INSTR RETIRED: 500000000
