
*** ChampSim Multicore Out-of-Order Simulator ***

Warmup Instructions: 100000000
Simulation Instructions: 500000000
Number of CPUs: 1
LLC sets: 2048
LLC ways: 16
Clean RRIP Policies: 1213230112132301 Dirty RRIP Policies: 2213031122130311 PSEL Width: 10 Track Set: 4294967295 PSEL Mask: 1 Demote Mask: 3343011033430110DS Algo: 0Window size: 0
Off-chip DRAM Size: 4096 MB Channels: 1 Width: 64-bit Data Rate: 1600 MT/s

CPU 0 runs /mnt/beegfs/iconst01/spec2017/Omnetpp.trace.gz
NOT SORTED
TRACE STRING: /mnt/beegfs/iconst01/spec2017/Omnetpp.trace.gz
SORTED
TRACE STRING: /mnt/beegfs/iconst01/spec2017/Omnetpp.trace.gz
INITIAL
TRACE STRING: /mnt/beegfs/iconst01/spec2017/Omnetpp.trace.gz

champsim_seed used: 739

CPU 0 L1D next line prefetcher
CPU 0 L2C IP-based stride prefetcher
Initialize DRRIP state
Assign rand_sets[0]: 454  LLC: 2048
rand_sets[0]: 454
Assign rand_sets[1]: 1662  LLC: 2048
rand_sets[1]: 1662
Assign rand_sets[2]: 1921  LLC: 2048
rand_sets[2]: 1921
Assign rand_sets[3]: 1131  LLC: 2048
rand_sets[3]: 1131
Assign rand_sets[4]: 331  LLC: 2048
rand_sets[4]: 331
Assign rand_sets[5]: 1531  LLC: 2048
rand_sets[5]: 1531
Assign rand_sets[6]: 482  LLC: 2048
rand_sets[6]: 482
Assign rand_sets[7]: 1275  LLC: 2048
rand_sets[7]: 1275
Assign rand_sets[8]: 1876  LLC: 2048
rand_sets[8]: 1876
Assign rand_sets[9]: 2038  LLC: 2048
rand_sets[9]: 2038
Assign rand_sets[10]: 701  LLC: 2048
rand_sets[10]: 701
Assign rand_sets[11]: 479  LLC: 2048
rand_sets[11]: 479
Assign rand_sets[12]: 892  LLC: 2048
rand_sets[12]: 892
Assign rand_sets[13]: 1820  LLC: 2048
rand_sets[13]: 1820
Assign rand_sets[14]: 1505  LLC: 2048
rand_sets[14]: 1505
Assign rand_sets[15]: 1159  LLC: 2048
rand_sets[15]: 1159
Assign rand_sets[16]: 513  LLC: 2048
rand_sets[16]: 513
Assign rand_sets[17]: 703  LLC: 2048
rand_sets[17]: 703
Assign rand_sets[18]: 561  LLC: 2048
rand_sets[18]: 561
Assign rand_sets[19]: 990  LLC: 2048
rand_sets[19]: 990
Assign rand_sets[20]: 342  LLC: 2048
rand_sets[20]: 342
Assign rand_sets[21]: 882  LLC: 2048
rand_sets[21]: 882
Assign rand_sets[22]: 15  LLC: 2048
rand_sets[22]: 15
Assign rand_sets[23]: 71  LLC: 2048
rand_sets[23]: 71
Assign rand_sets[24]: 1127  LLC: 2048
rand_sets[24]: 1127
Assign rand_sets[25]: 1382  LLC: 2048
rand_sets[25]: 1382
Assign rand_sets[26]: 647  LLC: 2048
rand_sets[26]: 647
Assign rand_sets[27]: 857  LLC: 2048
rand_sets[27]: 857
Assign rand_sets[28]: 1450  LLC: 2048
rand_sets[28]: 1450
Assign rand_sets[29]: 1160  LLC: 2048
rand_sets[29]: 1160
Assign rand_sets[30]: 1852  LLC: 2048
rand_sets[30]: 1852
Assign rand_sets[31]: 1881  LLC: 2048
rand_sets[31]: 1881
Assign rand_sets[32]: 1770  LLC: 2048
rand_sets[32]: 1770
Assign rand_sets[33]: 1622  LLC: 2048
rand_sets[33]: 1622
Assign rand_sets[34]: 275  LLC: 2048
rand_sets[34]: 275
Assign rand_sets[35]: 635  LLC: 2048
rand_sets[35]: 635
Assign rand_sets[36]: 466  LLC: 2048
rand_sets[36]: 466
Assign rand_sets[37]: 1413  LLC: 2048
rand_sets[37]: 1413
Assign rand_sets[38]: 417  LLC: 2048
rand_sets[38]: 417
Assign rand_sets[39]: 472  LLC: 2048
rand_sets[39]: 472
Assign rand_sets[40]: 1340  LLC: 2048
rand_sets[40]: 1340
Assign rand_sets[41]: 852  LLC: 2048
rand_sets[41]: 852
Assign rand_sets[42]: 1365  LLC: 2048
rand_sets[42]: 1365
Assign rand_sets[43]: 47  LLC: 2048
rand_sets[43]: 47
Assign rand_sets[44]: 823  LLC: 2048
rand_sets[44]: 823
Assign rand_sets[45]: 686  LLC: 2048
rand_sets[45]: 686
Assign rand_sets[46]: 1637  LLC: 2048
rand_sets[46]: 1637
Assign rand_sets[47]: 1115  LLC: 2048
rand_sets[47]: 1115
Assign rand_sets[48]: 986  LLC: 2048
rand_sets[48]: 986
Assign rand_sets[49]: 258  LLC: 2048
rand_sets[49]: 258
Assign rand_sets[50]: 633  LLC: 2048
rand_sets[50]: 633
Assign rand_sets[51]: 920  LLC: 2048
rand_sets[51]: 920
Assign rand_sets[52]: 204  LLC: 2048
rand_sets[52]: 204
Assign rand_sets[53]: 227  LLC: 2048
rand_sets[53]: 227
Assign rand_sets[54]: 1818  LLC: 2048
rand_sets[54]: 1818
Assign rand_sets[55]: 886  LLC: 2048
rand_sets[55]: 886
Assign rand_sets[56]: 1422  LLC: 2048
rand_sets[56]: 1422
Assign rand_sets[57]: 607  LLC: 2048
rand_sets[57]: 607
Assign rand_sets[58]: 217  LLC: 2048
rand_sets[58]: 217
Assign rand_sets[59]: 1945  LLC: 2048
rand_sets[59]: 1945
Assign rand_sets[60]: 143  LLC: 2048
rand_sets[60]: 143
Assign rand_sets[61]: 1311  LLC: 2048
rand_sets[61]: 1311
Assign rand_sets[62]: 319  LLC: 2048
rand_sets[62]: 319
Assign rand_sets[63]: 1846  LLC: 2048
rand_sets[63]: 1846
 CLEAN-RRIP-POLICY-1: 1-2-1-3-2-3-0-1- CLEAN-RRIP-POLICY-2: 1-2-1-3-2-3-0-1-
 DIRTY-RRIP-POLICY-1: 2-2-1-3-0-3-1-1- DIRTY-RRIP-POLICY-2: 2-2-1-3-0-3-1-1-
 PSEL width: 10
Heartbeat CPU 0 instructions: 10000000 cycles: 7320574 heartbeat IPC: 1.36601 cumulative IPC: 1.36601 (Simulation time: 0 hr 0 min 19 sec) 
Heartbeat CPU 0 instructions: 20000000 cycles: 14626331 heartbeat IPC: 1.36878 cumulative IPC: 1.3674 (Simulation time: 0 hr 0 min 38 sec) 
Heartbeat CPU 0 instructions: 30000003 cycles: 21929771 heartbeat IPC: 1.36922 cumulative IPC: 1.368 (Simulation time: 0 hr 0 min 57 sec) 
Heartbeat CPU 0 instructions: 40000000 cycles: 29220401 heartbeat IPC: 1.37162 cumulative IPC: 1.36891 (Simulation time: 0 hr 1 min 16 sec) 
Heartbeat CPU 0 instructions: 50000000 cycles: 36499435 heartbeat IPC: 1.37381 cumulative IPC: 1.36988 (Simulation time: 0 hr 1 min 35 sec) 
Heartbeat CPU 0 instructions: 60000000 cycles: 43781814 heartbeat IPC: 1.37318 cumulative IPC: 1.37043 (Simulation time: 0 hr 1 min 54 sec) 
Heartbeat CPU 0 instructions: 70000001 cycles: 51069722 heartbeat IPC: 1.37214 cumulative IPC: 1.37068 (Simulation time: 0 hr 2 min 13 sec) 
Heartbeat CPU 0 instructions: 80000000 cycles: 58347095 heartbeat IPC: 1.37412 cumulative IPC: 1.37111 (Simulation time: 0 hr 2 min 32 sec) 
Heartbeat CPU 0 instructions: 90000000 cycles: 65655536 heartbeat IPC: 1.36828 cumulative IPC: 1.37079 (Simulation time: 0 hr 2 min 51 sec) 
Heartbeat CPU 0 instructions: 100000000 cycles: 72949833 heartbeat IPC: 1.37093 cumulative IPC: 1.37081 (Simulation time: 0 hr 3 min 11 sec) 

Warmup complete CPU 0 instructions: 100000002 cycles: 72949834 (Simulation time: 0 hr 3 min 11 sec) 

Heartbeat CPU 0 instructions: 110000002 cycles: 114780970 heartbeat IPC: 0.239056 cumulative IPC: 0.239056 (Simulation time: 0 hr 3 min 49 sec) 
Heartbeat CPU 0 instructions: 120000000 cycles: 156385445 heartbeat IPC: 0.240359 cumulative IPC: 0.239706 (Simulation time: 0 hr 4 min 27 sec) 
Heartbeat CPU 0 instructions: 130000002 cycles: 198067468 heartbeat IPC: 0.239912 cumulative IPC: 0.239774 (Simulation time: 0 hr 5 min 5 sec) 
Heartbeat CPU 0 instructions: 140000000 cycles: 240001918 heartbeat IPC: 0.238467 cumulative IPC: 0.239446 (Simulation time: 0 hr 5 min 43 sec) 
Heartbeat CPU 0 instructions: 150000002 cycles: 281512851 heartbeat IPC: 0.2409 cumulative IPC: 0.239736 (Simulation time: 0 hr 6 min 21 sec) 
Heartbeat CPU 0 instructions: 160000000 cycles: 322958598 heartbeat IPC: 0.241279 cumulative IPC: 0.239992 (Simulation time: 0 hr 6 min 59 sec) 
Heartbeat CPU 0 instructions: 170000001 cycles: 363542857 heartbeat IPC: 0.246401 cumulative IPC: 0.240887 (Simulation time: 0 hr 7 min 37 sec) 
Heartbeat CPU 0 instructions: 180000000 cycles: 404940058 heartbeat IPC: 0.241562 cumulative IPC: 0.240971 (Simulation time: 0 hr 8 min 15 sec) 
Heartbeat CPU 0 instructions: 190000002 cycles: 446339827 heartbeat IPC: 0.241547 cumulative IPC: 0.241035 (Simulation time: 0 hr 8 min 52 sec) 
Heartbeat CPU 0 instructions: 200000000 cycles: 489177472 heartbeat IPC: 0.233439 cumulative IPC: 0.240253 (Simulation time: 0 hr 9 min 31 sec) 
Heartbeat CPU 0 instructions: 210000003 cycles: 530678512 heartbeat IPC: 0.240958 cumulative IPC: 0.240317 (Simulation time: 0 hr 10 min 9 sec) 
Heartbeat CPU 0 instructions: 220000000 cycles: 572413004 heartbeat IPC: 0.23961 cumulative IPC: 0.240258 (Simulation time: 0 hr 10 min 47 sec) 
Heartbeat CPU 0 instructions: 230000000 cycles: 614043675 heartbeat IPC: 0.240208 cumulative IPC: 0.240254 (Simulation time: 0 hr 11 min 25 sec) 
Heartbeat CPU 0 instructions: 240000000 cycles: 655363807 heartbeat IPC: 0.242013 cumulative IPC: 0.240379 (Simulation time: 0 hr 12 min 3 sec) 
Heartbeat CPU 0 instructions: 250000000 cycles: 696787255 heartbeat IPC: 0.241409 cumulative IPC: 0.240447 (Simulation time: 0 hr 12 min 41 sec) 
Heartbeat CPU 0 instructions: 260000000 cycles: 738402346 heartbeat IPC: 0.240297 cumulative IPC: 0.240438 (Simulation time: 0 hr 13 min 19 sec) 
Heartbeat CPU 0 instructions: 270000000 cycles: 780061457 heartbeat IPC: 0.240044 cumulative IPC: 0.240415 (Simulation time: 0 hr 13 min 57 sec) 
Heartbeat CPU 0 instructions: 280000000 cycles: 822095685 heartbeat IPC: 0.237901 cumulative IPC: 0.240274 (Simulation time: 0 hr 14 min 35 sec) 
Heartbeat CPU 0 instructions: 290000001 cycles: 863221809 heartbeat IPC: 0.243154 cumulative IPC: 0.240424 (Simulation time: 0 hr 15 min 13 sec) 
Heartbeat CPU 0 instructions: 300000000 cycles: 905117458 heartbeat IPC: 0.238688 cumulative IPC: 0.240336 (Simulation time: 0 hr 15 min 51 sec) 
Heartbeat CPU 0 instructions: 310000000 cycles: 947027254 heartbeat IPC: 0.238608 cumulative IPC: 0.240253 (Simulation time: 0 hr 16 min 29 sec) 
Heartbeat CPU 0 instructions: 320000000 cycles: 988654289 heartbeat IPC: 0.240228 cumulative IPC: 0.240252 (Simulation time: 0 hr 17 min 7 sec) 
Heartbeat CPU 0 instructions: 330000000 cycles: 1030359825 heartbeat IPC: 0.239776 cumulative IPC: 0.240231 (Simulation time: 0 hr 17 min 45 sec) 
Heartbeat CPU 0 instructions: 340000000 cycles: 1072783698 heartbeat IPC: 0.235716 cumulative IPC: 0.24004 (Simulation time: 0 hr 18 min 23 sec) 
Heartbeat CPU 0 instructions: 350000001 cycles: 1114512264 heartbeat IPC: 0.239644 cumulative IPC: 0.240024 (Simulation time: 0 hr 19 min 1 sec) 
Heartbeat CPU 0 instructions: 360000000 cycles: 1156348860 heartbeat IPC: 0.239025 cumulative IPC: 0.239985 (Simulation time: 0 hr 19 min 39 sec) 
Heartbeat CPU 0 instructions: 370000000 cycles: 1197177596 heartbeat IPC: 0.244926 cumulative IPC: 0.240165 (Simulation time: 0 hr 20 min 16 sec) 
Heartbeat CPU 0 instructions: 380000000 cycles: 1239174097 heartbeat IPC: 0.238115 cumulative IPC: 0.240091 (Simulation time: 0 hr 20 min 54 sec) 
Heartbeat CPU 0 instructions: 390000001 cycles: 1280608484 heartbeat IPC: 0.241345 cumulative IPC: 0.240134 (Simulation time: 0 hr 21 min 32 sec) 
Heartbeat CPU 0 instructions: 400000000 cycles: 1322129145 heartbeat IPC: 0.240844 cumulative IPC: 0.240158 (Simulation time: 0 hr 22 min 10 sec) 
Heartbeat CPU 0 instructions: 410000000 cycles: 1363384965 heartbeat IPC: 0.24239 cumulative IPC: 0.240229 (Simulation time: 0 hr 22 min 47 sec) 
Heartbeat CPU 0 instructions: 420000000 cycles: 1404655071 heartbeat IPC: 0.242306 cumulative IPC: 0.240293 (Simulation time: 0 hr 23 min 25 sec) 
Heartbeat CPU 0 instructions: 430000000 cycles: 1446066705 heartbeat IPC: 0.241478 cumulative IPC: 0.240329 (Simulation time: 0 hr 24 min 2 sec) 
Heartbeat CPU 0 instructions: 440000000 cycles: 1487505363 heartbeat IPC: 0.241321 cumulative IPC: 0.240358 (Simulation time: 0 hr 24 min 40 sec) 
Heartbeat CPU 0 instructions: 450000002 cycles: 1528774675 heartbeat IPC: 0.242311 cumulative IPC: 0.240414 (Simulation time: 0 hr 25 min 17 sec) 
Heartbeat CPU 0 instructions: 460000000 cycles: 1569520865 heartbeat IPC: 0.245422 cumulative IPC: 0.24055 (Simulation time: 0 hr 25 min 55 sec) 
Heartbeat CPU 0 instructions: 470000000 cycles: 1611185310 heartbeat IPC: 0.240013 cumulative IPC: 0.240535 (Simulation time: 0 hr 26 min 33 sec) 
Heartbeat CPU 0 instructions: 480000000 cycles: 1652627768 heartbeat IPC: 0.241298 cumulative IPC: 0.240555 (Simulation time: 0 hr 27 min 10 sec) 
Heartbeat CPU 0 instructions: 490000001 cycles: 1694124106 heartbeat IPC: 0.240985 cumulative IPC: 0.240566 (Simulation time: 0 hr 27 min 48 sec) 
Heartbeat CPU 0 instructions: 500000000 cycles: 1735781225 heartbeat IPC: 0.240055 cumulative IPC: 0.240554 (Simulation time: 0 hr 28 min 26 sec) 
Heartbeat CPU 0 instructions: 510000000 cycles: 1776849232 heartbeat IPC: 0.243499 cumulative IPC: 0.240625 (Simulation time: 0 hr 29 min 2 sec) 
Heartbeat CPU 0 instructions: 520000000 cycles: 1818846646 heartbeat IPC: 0.23811 cumulative IPC: 0.240564 (Simulation time: 0 hr 29 min 39 sec) 
Heartbeat CPU 0 instructions: 530000000 cycles: 1860197268 heartbeat IPC: 0.241834 cumulative IPC: 0.240593 (Simulation time: 0 hr 30 min 15 sec) 
Heartbeat CPU 0 instructions: 540000000 cycles: 1901360312 heartbeat IPC: 0.242936 cumulative IPC: 0.240646 (Simulation time: 0 hr 30 min 50 sec) 
Heartbeat CPU 0 instructions: 550000001 cycles: 1943253813 heartbeat IPC: 0.238701 cumulative IPC: 0.240603 (Simulation time: 0 hr 31 min 27 sec) 
Heartbeat CPU 0 instructions: 560000000 cycles: 1985326480 heartbeat IPC: 0.237684 cumulative IPC: 0.240538 (Simulation time: 0 hr 32 min 3 sec) 
Heartbeat CPU 0 instructions: 570000003 cycles: 2027197160 heartbeat IPC: 0.238831 cumulative IPC: 0.240502 (Simulation time: 0 hr 32 min 39 sec) 
Heartbeat CPU 0 instructions: 580000000 cycles: 2068992477 heartbeat IPC: 0.239261 cumulative IPC: 0.240476 (Simulation time: 0 hr 33 min 15 sec) 
Heartbeat CPU 0 instructions: 590000001 cycles: 2111347384 heartbeat IPC: 0.2361 cumulative IPC: 0.240385 (Simulation time: 0 hr 33 min 51 sec) 
Heartbeat CPU 0 instructions: 600000000 cycles: 2153402126 heartbeat IPC: 0.237785 cumulative IPC: 0.240332 (Simulation time: 0 hr 34 min 28 sec) 
Finished CPU 0 instructions: 500000000 cycles: 2080452300 cumulative IPC: 0.240332 (Simulation time: 0 hr 34 min 28 sec) 

CPU 0 Branch Prediction Accuracy: 96.2429% MPKI: 5.85335
Number of Branches: 77897976 Number of Mispredictions: 2926674
Number of LOAD Instructions: 193081861
Number of LOAD Instructions (ROI): 193081861
Number of STORE Instructions: 97310749
Number of STORE Instructions (ROI): 97310749
Total Destination Memory Operands: 106368027
Total Destination Memory Operands (ROI): 106368027
Total Source Memory Operands: 193081861
Total Source Memory Operands (ROI): 193081861
Number of DEPENDED LOADS: 6509554
Number of DEPENDED LOADS (ROI): 6509554
Number of SQ_ADDED: 106367982
Number of SQ_ADDED (ROI): 106367982
Number of LQ_ADDED: 439654487
Number of LQ_ADDED (ROI): 439654487
Number of Instructions read from trace: 600000256

ChampSim completed all CPUs

Region of Interest Statistics

CPU 0 cumulative IPC: 0.240332 instructions: 500000000 cycles: 2080452300
ITLB TOTAL     ACCESS:  150893661  HIT:  150877830  MISS:      15831
ITLB LOAD      ACCESS:  150893661  HIT:  150877830  MISS:      15831
ITLB RFO       ACCESS:          0  HIT:          0  MISS:          0
ITLB PREFETCH  ACCESS:          0  HIT:          0  MISS:          0
ITLB WRITEBACK ACCESS:          0  HIT:          0  MISS:          0
ITLB PREFETCH  REQUESTED:          0  ISSUED:          0  USEFUL:          0  USELESS:          0
ITLB TOTAL MSHR MERGED:      18176
ITLB LOAD MSHR MERGED:      18176
ITLB RFO MSHR MERGED:          0
ITLB PREFETCH MSHR MERGED:          0
ITLB WRITEBACK MSHR MERGED:          0
ITLB TOTAL ACCESSES:  150911837 HITS:  150877830 MISSES:      34007
ITLB LOAD ACCESSES:  150911837 HITS:  150877830 MISSES:      34007
ITLB RFO ACCESSES:          0 HITS:          0 MISSES:          0
ITLB PREFETCH ACCESSES:          0 HITS:          0 MISSES:          0
ITLB WRITEBACK ACCESSES:          0 HITS:          0 MISSES:          0
ITLB RQ ACCESS:  500000242
ITLB RQ TO_CACHE:  150911837
ITLB RQ MERGED:  349088405
ITLB RQ FORWARD:          0
ITLB WQ ACCESS:          0
ITLB WQ TO_CACHE:          0
ITLB WQ MERGED:          0
ITLB WQ FORWARD:          0
DTLB TOTAL     ACCESS:  199513522  HIT:  194134478  MISS:    5379044
DTLB LOAD      ACCESS:  123094938  HIT:  118076376  MISS:    5018562
DTLB RFO       ACCESS:   76418584  HIT:   76058102  MISS:     360482
DTLB PREFETCH  ACCESS:          0  HIT:          0  MISS:          0
DTLB WRITEBACK ACCESS:          0  HIT:          0  MISS:          0
DTLB PREFETCH  REQUESTED:          0  ISSUED:          0  USEFUL:          0  USELESS:          0
DTLB TOTAL MSHR MERGED:     915797
DTLB LOAD MSHR MERGED:     807158
DTLB RFO MSHR MERGED:     108639
DTLB PREFETCH MSHR MERGED:          0
DTLB WRITEBACK MSHR MERGED:          0
DTLB TOTAL ACCESSES:  200429319 HITS:  194134478 MISSES:    6294841
DTLB LOAD ACCESSES:  123902096 HITS:  118076376 MISSES:    5825720
DTLB RFO ACCESSES:   76527223 HITS:   76058102 MISSES:     469121
DTLB PREFETCH ACCESSES:          0 HITS:          0 MISSES:          0
DTLB WRITEBACK ACCESSES:          0 HITS:          0 MISSES:          0
DTLB RQ ACCESS:  243818111
DTLB RQ TO_CACHE:  200429319
DTLB RQ MERGED:   43388792
DTLB RQ FORWARD:          0
DTLB WQ ACCESS:          0
DTLB WQ TO_CACHE:          0
DTLB WQ MERGED:          0
DTLB WQ FORWARD:          0
L1D TOTAL     ACCESS:  335322160  HIT:  317226504  MISS:   18095656
L1D LOAD      ACCESS:  127608284  HIT:  118659515  MISS:    8948769
L1D RFO       ACCESS:   86948580  HIT:   86148755  MISS:     799825
L1D PREFETCH  ACCESS:  120765296  HIT:  112418234  MISS:    8347062
L1D WRITEBACK ACCESS:          0  HIT:          0  MISS:          0
L1D PREFETCH  REQUESTED:  128435491  ISSUED:  126837297  USEFUL:    1734302  USELESS:    6612771
L1D TOTAL MSHR MERGED:    4028215
L1D LOAD MSHR MERGED:     996383
L1D RFO MSHR MERGED:    1195536
L1D PREFETCH MSHR MERGED:    1836296
L1D WRITEBACK MSHR MERGED:          0
L1D TOTAL ACCESSES:  339443961 HITS:  317320090 MISSES:   22123871
L1D LOAD ACCESSES:  128436032 HITS:  118660056 MISSES:    9775976
L1D RFO ACCESSES:   88063889 HITS:   86148755 MISSES:    1915134
L1D PREFETCH ACCESSES:  122944040 HITS:  112511279 MISSES:   10432761
L1D WRITEBACK ACCESSES:          0 HITS:          0 MISSES:          0
L1D RQ ACCESS:  155186726
L1D RQ TO_CACHE:  128435491
L1D RQ MERGED:   26750694
L1D RQ FORWARD:          0
L1D WQ ACCESS:   88631385
L1D WQ TO_CACHE:   88063888
L1D WQ MERGED:     567497
L1D WQ FORWARD:      93586
L1I TOTAL     ACCESS:  175206543  HIT:  174940226  MISS:     266317
L1I LOAD      ACCESS:  175206543  HIT:  174940226  MISS:     266317
L1I RFO       ACCESS:          0  HIT:          0  MISS:          0
L1I PREFETCH  ACCESS:          0  HIT:          0  MISS:          0
L1I WRITEBACK ACCESS:          0  HIT:          0  MISS:          0
L1I PREFETCH  REQUESTED:          0  ISSUED:          0  USEFUL:          0  USELESS:          0
L1I TOTAL MSHR MERGED:     220966
L1I LOAD MSHR MERGED:     220966
L1I RFO MSHR MERGED:          0
L1I PREFETCH MSHR MERGED:          0
L1I WRITEBACK MSHR MERGED:          0
L1I TOTAL ACCESSES:  175427509 HITS:  174940226 MISSES:     487283
L1I LOAD ACCESSES:  175427509 HITS:  174940226 MISSES:     487283
L1I RFO ACCESSES:          0 HITS:          0 MISSES:          0
L1I PREFETCH ACCESSES:          0 HITS:          0 MISSES:          0
L1I WRITEBACK ACCESSES:          0 HITS:          0 MISSES:          0
L1I RQ ACCESS:  500000242
L1I RQ TO_CACHE:  175427509
L1I RQ MERGED:  324572733
L1I RQ FORWARD:          0
L1I WQ ACCESS:          0
L1I WQ TO_CACHE:          0
L1I WQ MERGED:          0
L1I WQ FORWARD:          0
L2C TOTAL     ACCESS:   23737959  HIT:   12112325  MISS:   11625634
L2C LOAD      ACCESS:    9044750  HIT:    3565119  MISS:    5479631
L2C RFO       ACCESS:     719540  HIT:     129682  MISS:     589858
L2C PREFETCH  ACCESS:    8613488  HIT:    3086051  MISS:    5527437
L2C WRITEBACK ACCESS:    5360181  HIT:    5331473  MISS:      28708
L2C PREFETCH  REQUESTED:      18052  ISSUED:      18052  USEFUL:     322899  USELESS:    5204712
L2C TOTAL MSHR MERGED:         25
L2C LOAD MSHR MERGED:          5
L2C RFO MSHR MERGED:          0
L2C PREFETCH MSHR MERGED:         20
L2C WRITEBACK MSHR MERGED:          0
L2C TOTAL ACCESSES:   23739744 HITS:   12114079 MISSES:   11625665
L2C LOAD ACCESSES:    9045910 HITS:    3566279 MISSES:    5479631
L2C RFO ACCESSES:     719598 HITS:     129740 MISSES:     589858
L2C PREFETCH ACCESSES:    8614055 HITS:    3086587 MISSES:    5527468
L2C WRITEBACK ACCESSES:    5360181 HITS:    5331473 MISSES:      28708
L2C RQ ACCESS:    9765508
L2C RQ TO_CACHE:    9764290
L2C RQ MERGED:          0
L2C RQ FORWARD:          0
L2C WQ ACCESS:    5360181
L2C WQ TO_CACHE:    5360181
L2C WQ MERGED:          0
L2C WQ FORWARD:       1754
LLC TOTAL     ACCESS:   15448529  HIT:    4890623  MISS:   10557906
LLC LOAD      ACCESS:    5479593  HIT:    1427721  MISS:    4051872
LLC RFO       ACCESS:     589854  HIT:     173129  MISS:     416725
LLC PREFETCH  ACCESS:    5527435  HIT:     678637  MISS:    4848798
LLC WRITEBACK ACCESS:    3851647  HIT:    2611136  MISS:    1240511
LLC PREFETCH  REQUESTED:          0  ISSUED:          0  USEFUL:      12859  USELESS:    4836615
LLC TOTAL MSHR MERGED:          0
LLC LOAD MSHR MERGED:          0
LLC RFO MSHR MERGED:          0
LLC PREFETCH MSHR MERGED:          0
LLC WRITEBACK MSHR MERGED:          0
LLC TOTAL ACCESSES:   15448579 HITS:    4890673 MISSES:   10557906
LLC LOAD ACCESSES:    5479626 HITS:    1427754 MISSES:    4051872
LLC RFO ACCESSES:     589858 HITS:     173133 MISSES:     416725
LLC PREFETCH ACCESSES:    5527448 HITS:     678650 MISSES:    4848798
LLC WRITEBACK ACCESSES:    3851647 HITS:    2611136 MISSES:    1240511
LLC 0 RQ ACCESS:    6069484
LLC 0 RQ TO_CACHE:    6069447
LLC 0 RQ MERGED:          0
LLC 0 RQ FORWARD:          0
LLC WQ ACCESS:    3851647
LLC WQ TO_CACHE:    3851647
LLC WQ MERGED:          0
LLC WQ FORWARD:         50
Major fault: 0 Minor fault: 44814
CPU 0 L1D next line prefetcher final stats
CPU 0 L2C PC-based stride prefetcher final stats
All Misses: 12761738
All Hits: 5859288
SD Algo Stats - Switches: 0 SRR-Repls: 4630707 BRR-Repls: 0

DRAM Statistics
 CHANNEL 0
 RQ ROW_BUFFER_HIT:    1534601  ROW_BUFFER_MISS:    7778738
 DBUS_CONGESTED:    6485215
 WQ ROW_BUFFER_HIT:     231214  ROW_BUFFER_MISS:    2488166  FULL:          0

 AVG_CONGESTED_CYCLE: 13
LOADS RETIRED: 160808997
INSTR RETIRED: 500000000
