
*** ChampSim Multicore Out-of-Order Simulator ***

Warmup Instructions: 100000000
Simulation Instructions: 500000000
Number of CPUs: 1
LLC sets: 2048
LLC ways: 16
Clean RRIP Policies: 1000210010002100 Dirty RRIP Policies: 1000012010000120 PSEL Width: 10 Track Set: 4294967295 PSEL Mask: 1 Demote Mask: 4414410144144101DS Algo: 0Window size: 0
Off-chip DRAM Size: 4096 MB Channels: 1 Width: 64-bit Data Rate: 1600 MT/s

CPU 0 runs /mnt/beegfs/iconst01/spec2017/Gcc.trace.gz
NOT SORTED
TRACE STRING: /mnt/beegfs/iconst01/spec2017/Gcc.trace.gz
SORTED
TRACE STRING: /mnt/beegfs/iconst01/spec2017/Gcc.trace.gz
INITIAL
TRACE STRING: /mnt/beegfs/iconst01/spec2017/Gcc.trace.gz

champsim_seed used: 269

CPU 0 L1D next line prefetcher
CPU 0 L2C IP-based stride prefetcher
Initialize DRRIP state
Assign rand_sets[0]: 454  LLC: 2048
rand_sets[0]: 454
Assign rand_sets[1]: 1662  LLC: 2048
rand_sets[1]: 1662
Assign rand_sets[2]: 1921  LLC: 2048
rand_sets[2]: 1921
Assign rand_sets[3]: 1131  LLC: 2048
rand_sets[3]: 1131
Assign rand_sets[4]: 331  LLC: 2048
rand_sets[4]: 331
Assign rand_sets[5]: 1531  LLC: 2048
rand_sets[5]: 1531
Assign rand_sets[6]: 482  LLC: 2048
rand_sets[6]: 482
Assign rand_sets[7]: 1275  LLC: 2048
rand_sets[7]: 1275
Assign rand_sets[8]: 1876  LLC: 2048
rand_sets[8]: 1876
Assign rand_sets[9]: 2038  LLC: 2048
rand_sets[9]: 2038
Assign rand_sets[10]: 701  LLC: 2048
rand_sets[10]: 701
Assign rand_sets[11]: 479  LLC: 2048
rand_sets[11]: 479
Assign rand_sets[12]: 892  LLC: 2048
rand_sets[12]: 892
Assign rand_sets[13]: 1820  LLC: 2048
rand_sets[13]: 1820
Assign rand_sets[14]: 1505  LLC: 2048
rand_sets[14]: 1505
Assign rand_sets[15]: 1159  LLC: 2048
rand_sets[15]: 1159
Assign rand_sets[16]: 513  LLC: 2048
rand_sets[16]: 513
Assign rand_sets[17]: 703  LLC: 2048
rand_sets[17]: 703
Assign rand_sets[18]: 561  LLC: 2048
rand_sets[18]: 561
Assign rand_sets[19]: 990  LLC: 2048
rand_sets[19]: 990
Assign rand_sets[20]: 342  LLC: 2048
rand_sets[20]: 342
Assign rand_sets[21]: 882  LLC: 2048
rand_sets[21]: 882
Assign rand_sets[22]: 15  LLC: 2048
rand_sets[22]: 15
Assign rand_sets[23]: 71  LLC: 2048
rand_sets[23]: 71
Assign rand_sets[24]: 1127  LLC: 2048
rand_sets[24]: 1127
Assign rand_sets[25]: 1382  LLC: 2048
rand_sets[25]: 1382
Assign rand_sets[26]: 647  LLC: 2048
rand_sets[26]: 647
Assign rand_sets[27]: 857  LLC: 2048
rand_sets[27]: 857
Assign rand_sets[28]: 1450  LLC: 2048
rand_sets[28]: 1450
Assign rand_sets[29]: 1160  LLC: 2048
rand_sets[29]: 1160
Assign rand_sets[30]: 1852  LLC: 2048
rand_sets[30]: 1852
Assign rand_sets[31]: 1881  LLC: 2048
rand_sets[31]: 1881
Assign rand_sets[32]: 1770  LLC: 2048
rand_sets[32]: 1770
Assign rand_sets[33]: 1622  LLC: 2048
rand_sets[33]: 1622
Assign rand_sets[34]: 275  LLC: 2048
rand_sets[34]: 275
Assign rand_sets[35]: 635  LLC: 2048
rand_sets[35]: 635
Assign rand_sets[36]: 466  LLC: 2048
rand_sets[36]: 466
Assign rand_sets[37]: 1413  LLC: 2048
rand_sets[37]: 1413
Assign rand_sets[38]: 417  LLC: 2048
rand_sets[38]: 417
Assign rand_sets[39]: 472  LLC: 2048
rand_sets[39]: 472
Assign rand_sets[40]: 1340  LLC: 2048
rand_sets[40]: 1340
Assign rand_sets[41]: 852  LLC: 2048
rand_sets[41]: 852
Assign rand_sets[42]: 1365  LLC: 2048
rand_sets[42]: 1365
Assign rand_sets[43]: 47  LLC: 2048
rand_sets[43]: 47
Assign rand_sets[44]: 823  LLC: 2048
rand_sets[44]: 823
Assign rand_sets[45]: 686  LLC: 2048
rand_sets[45]: 686
Assign rand_sets[46]: 1637  LLC: 2048
rand_sets[46]: 1637
Assign rand_sets[47]: 1115  LLC: 2048
rand_sets[47]: 1115
Assign rand_sets[48]: 986  LLC: 2048
rand_sets[48]: 986
Assign rand_sets[49]: 258  LLC: 2048
rand_sets[49]: 258
Assign rand_sets[50]: 633  LLC: 2048
rand_sets[50]: 633
Assign rand_sets[51]: 920  LLC: 2048
rand_sets[51]: 920
Assign rand_sets[52]: 204  LLC: 2048
rand_sets[52]: 204
Assign rand_sets[53]: 227  LLC: 2048
rand_sets[53]: 227
Assign rand_sets[54]: 1818  LLC: 2048
rand_sets[54]: 1818
Assign rand_sets[55]: 886  LLC: 2048
rand_sets[55]: 886
Assign rand_sets[56]: 1422  LLC: 2048
rand_sets[56]: 1422
Assign rand_sets[57]: 607  LLC: 2048
rand_sets[57]: 607
Assign rand_sets[58]: 217  LLC: 2048
rand_sets[58]: 217
Assign rand_sets[59]: 1945  LLC: 2048
rand_sets[59]: 1945
Assign rand_sets[60]: 143  LLC: 2048
rand_sets[60]: 143
Assign rand_sets[61]: 1311  LLC: 2048
rand_sets[61]: 1311
Assign rand_sets[62]: 319  LLC: 2048
rand_sets[62]: 319
Assign rand_sets[63]: 1846  LLC: 2048
rand_sets[63]: 1846
 CLEAN-RRIP-POLICY-1: 1-0-0-0-2-1-0-0- CLEAN-RRIP-POLICY-2: 1-0-0-0-2-1-0-0-
 DIRTY-RRIP-POLICY-1: 1-0-0-0-0-1-2-0- DIRTY-RRIP-POLICY-2: 1-0-0-0-0-1-2-0-
 PSEL width: 10
Heartbeat CPU 0 instructions: 10000001 cycles: 7315913 heartbeat IPC: 1.36688 cumulative IPC: 1.36688 (Simulation time: 0 hr 0 min 15 sec) 
Heartbeat CPU 0 instructions: 20000000 cycles: 14307905 heartbeat IPC: 1.43021 cumulative IPC: 1.39783 (Simulation time: 0 hr 0 min 30 sec) 
Heartbeat CPU 0 instructions: 30000001 cycles: 21021514 heartbeat IPC: 1.48951 cumulative IPC: 1.42711 (Simulation time: 0 hr 0 min 47 sec) 
Heartbeat CPU 0 instructions: 40000000 cycles: 27482670 heartbeat IPC: 1.54771 cumulative IPC: 1.45546 (Simulation time: 0 hr 1 min 3 sec) 
Heartbeat CPU 0 instructions: 50000001 cycles: 33584946 heartbeat IPC: 1.63873 cumulative IPC: 1.48876 (Simulation time: 0 hr 1 min 19 sec) 
Heartbeat CPU 0 instructions: 60000000 cycles: 40066557 heartbeat IPC: 1.54283 cumulative IPC: 1.49751 (Simulation time: 0 hr 1 min 36 sec) 
Heartbeat CPU 0 instructions: 70000000 cycles: 47107500 heartbeat IPC: 1.42026 cumulative IPC: 1.48596 (Simulation time: 0 hr 1 min 51 sec) 
Heartbeat CPU 0 instructions: 80000000 cycles: 54198253 heartbeat IPC: 1.41029 cumulative IPC: 1.47606 (Simulation time: 0 hr 2 min 6 sec) 
Heartbeat CPU 0 instructions: 90000003 cycles: 61203704 heartbeat IPC: 1.42746 cumulative IPC: 1.4705 (Simulation time: 0 hr 2 min 21 sec) 
Heartbeat CPU 0 instructions: 100000000 cycles: 68372226 heartbeat IPC: 1.39499 cumulative IPC: 1.46258 (Simulation time: 0 hr 2 min 36 sec) 

Warmup complete CPU 0 instructions: 100000004 cycles: 68372227 (Simulation time: 0 hr 2 min 36 sec) 

Heartbeat CPU 0 instructions: 110000003 cycles: 96224788 heartbeat IPC: 0.359033 cumulative IPC: 0.359033 (Simulation time: 0 hr 3 min 7 sec) 
Heartbeat CPU 0 instructions: 120000000 cycles: 123794889 heartbeat IPC: 0.362712 cumulative IPC: 0.360863 (Simulation time: 0 hr 3 min 37 sec) 
Heartbeat CPU 0 instructions: 130000000 cycles: 148905315 heartbeat IPC: 0.398241 cumulative IPC: 0.372518 (Simulation time: 0 hr 4 min 7 sec) 
Heartbeat CPU 0 instructions: 140000000 cycles: 178774629 heartbeat IPC: 0.334792 cumulative IPC: 0.362311 (Simulation time: 0 hr 4 min 37 sec) 
Heartbeat CPU 0 instructions: 150000000 cycles: 208833711 heartbeat IPC: 0.332678 cumulative IPC: 0.355969 (Simulation time: 0 hr 5 min 8 sec) 
Heartbeat CPU 0 instructions: 160000000 cycles: 236359048 heartbeat IPC: 0.363302 cumulative IPC: 0.357171 (Simulation time: 0 hr 5 min 37 sec) 
Heartbeat CPU 0 instructions: 170000001 cycles: 264589488 heartbeat IPC: 0.354228 cumulative IPC: 0.356747 (Simulation time: 0 hr 6 min 8 sec) 
Heartbeat CPU 0 instructions: 180000000 cycles: 293217434 heartbeat IPC: 0.349309 cumulative IPC: 0.3558 (Simulation time: 0 hr 6 min 39 sec) 
Heartbeat CPU 0 instructions: 190000002 cycles: 321536291 heartbeat IPC: 0.353122 cumulative IPC: 0.355501 (Simulation time: 0 hr 7 min 10 sec) 
Heartbeat CPU 0 instructions: 200000000 cycles: 350048188 heartbeat IPC: 0.350731 cumulative IPC: 0.355018 (Simulation time: 0 hr 7 min 40 sec) 
Heartbeat CPU 0 instructions: 210000002 cycles: 378137906 heartbeat IPC: 0.356002 cumulative IPC: 0.355107 (Simulation time: 0 hr 8 min 11 sec) 
Heartbeat CPU 0 instructions: 220000000 cycles: 407529857 heartbeat IPC: 0.340229 cumulative IPC: 0.353818 (Simulation time: 0 hr 8 min 40 sec) 
Heartbeat CPU 0 instructions: 230000000 cycles: 435231498 heartbeat IPC: 0.360989 cumulative IPC: 0.354359 (Simulation time: 0 hr 9 min 10 sec) 
Heartbeat CPU 0 instructions: 240000000 cycles: 461208384 heartbeat IPC: 0.384958 cumulative IPC: 0.356383 (Simulation time: 0 hr 9 min 38 sec) 
Heartbeat CPU 0 instructions: 250000000 cycles: 491509319 heartbeat IPC: 0.330023 cumulative IPC: 0.354495 (Simulation time: 0 hr 10 min 10 sec) 
Heartbeat CPU 0 instructions: 260000000 cycles: 518746315 heartbeat IPC: 0.367148 cumulative IPC: 0.35526 (Simulation time: 0 hr 10 min 40 sec) 
Heartbeat CPU 0 instructions: 270000003 cycles: 547378216 heartbeat IPC: 0.349261 cumulative IPC: 0.354902 (Simulation time: 0 hr 11 min 11 sec) 
Heartbeat CPU 0 instructions: 280000000 cycles: 575795684 heartbeat IPC: 0.351896 cumulative IPC: 0.354733 (Simulation time: 0 hr 11 min 42 sec) 
Heartbeat CPU 0 instructions: 290000000 cycles: 604877922 heartbeat IPC: 0.343852 cumulative IPC: 0.354143 (Simulation time: 0 hr 12 min 14 sec) 
Heartbeat CPU 0 instructions: 300000000 cycles: 635274269 heartbeat IPC: 0.328987 cumulative IPC: 0.352795 (Simulation time: 0 hr 12 min 44 sec) 
