
*** ChampSim Multicore Out-of-Order Simulator ***

Warmup Instructions: 100000000
Simulation Instructions: 500000000
Number of CPUs: 1
LLC sets: 2048
LLC ways: 16
Clean RRIP Policies: 2201102322011023 Dirty RRIP Policies: 221001302210013 PSEL Width: 10 Track Set: 4294967295 PSEL Mask: 1 Demote Mask: 2002324220023242DS Algo: 0Window size: 0
Off-chip DRAM Size: 4096 MB Channels: 1 Width: 64-bit Data Rate: 1600 MT/s

CPU 0 runs /mnt/beegfs/iconst01/spec2017/Xz.trace.gz
NOT SORTED
TRACE STRING: /mnt/beegfs/iconst01/spec2017/Xz.trace.gz
SORTED
TRACE STRING: /mnt/beegfs/iconst01/spec2017/Xz.trace.gz
INITIAL
TRACE STRING: /mnt/beegfs/iconst01/spec2017/Xz.trace.gz

champsim_seed used: 210

CPU 0 L1D next line prefetcher
CPU 0 L2C IP-based stride prefetcher
Initialize DRRIP state
Assign rand_sets[0]: 454  LLC: 2048
rand_sets[0]: 454
Assign rand_sets[1]: 1662  LLC: 2048
rand_sets[1]: 1662
Assign rand_sets[2]: 1921  LLC: 2048
rand_sets[2]: 1921
Assign rand_sets[3]: 1131  LLC: 2048
rand_sets[3]: 1131
Assign rand_sets[4]: 331  LLC: 2048
rand_sets[4]: 331
Assign rand_sets[5]: 1531  LLC: 2048
rand_sets[5]: 1531
Assign rand_sets[6]: 482  LLC: 2048
rand_sets[6]: 482
Assign rand_sets[7]: 1275  LLC: 2048
rand_sets[7]: 1275
Assign rand_sets[8]: 1876  LLC: 2048
rand_sets[8]: 1876
Assign rand_sets[9]: 2038  LLC: 2048
rand_sets[9]: 2038
Assign rand_sets[10]: 701  LLC: 2048
rand_sets[10]: 701
Assign rand_sets[11]: 479  LLC: 2048
rand_sets[11]: 479
Assign rand_sets[12]: 892  LLC: 2048
rand_sets[12]: 892
Assign rand_sets[13]: 1820  LLC: 2048
rand_sets[13]: 1820
Assign rand_sets[14]: 1505  LLC: 2048
rand_sets[14]: 1505
Assign rand_sets[15]: 1159  LLC: 2048
rand_sets[15]: 1159
Assign rand_sets[16]: 513  LLC: 2048
rand_sets[16]: 513
Assign rand_sets[17]: 703  LLC: 2048
rand_sets[17]: 703
Assign rand_sets[18]: 561  LLC: 2048
rand_sets[18]: 561
Assign rand_sets[19]: 990  LLC: 2048
rand_sets[19]: 990
Assign rand_sets[20]: 342  LLC: 2048
rand_sets[20]: 342
Assign rand_sets[21]: 882  LLC: 2048
rand_sets[21]: 882
Assign rand_sets[22]: 15  LLC: 2048
rand_sets[22]: 15
Assign rand_sets[23]: 71  LLC: 2048
rand_sets[23]: 71
Assign rand_sets[24]: 1127  LLC: 2048
rand_sets[24]: 1127
Assign rand_sets[25]: 1382  LLC: 2048
rand_sets[25]: 1382
Assign rand_sets[26]: 647  LLC: 2048
rand_sets[26]: 647
Assign rand_sets[27]: 857  LLC: 2048
rand_sets[27]: 857
Assign rand_sets[28]: 1450  LLC: 2048
rand_sets[28]: 1450
Assign rand_sets[29]: 1160  LLC: 2048
rand_sets[29]: 1160
Assign rand_sets[30]: 1852  LLC: 2048
rand_sets[30]: 1852
Assign rand_sets[31]: 1881  LLC: 2048
rand_sets[31]: 1881
Assign rand_sets[32]: 1770  LLC: 2048
rand_sets[32]: 1770
Assign rand_sets[33]: 1622  LLC: 2048
rand_sets[33]: 1622
Assign rand_sets[34]: 275  LLC: 2048
rand_sets[34]: 275
Assign rand_sets[35]: 635  LLC: 2048
rand_sets[35]: 635
Assign rand_sets[36]: 466  LLC: 2048
rand_sets[36]: 466
Assign rand_sets[37]: 1413  LLC: 2048
rand_sets[37]: 1413
Assign rand_sets[38]: 417  LLC: 2048
rand_sets[38]: 417
Assign rand_sets[39]: 472  LLC: 2048
rand_sets[39]: 472
Assign rand_sets[40]: 1340  LLC: 2048
rand_sets[40]: 1340
Assign rand_sets[41]: 852  LLC: 2048
rand_sets[41]: 852
Assign rand_sets[42]: 1365  LLC: 2048
rand_sets[42]: 1365
Assign rand_sets[43]: 47  LLC: 2048
rand_sets[43]: 47
Assign rand_sets[44]: 823  LLC: 2048
rand_sets[44]: 823
Assign rand_sets[45]: 686  LLC: 2048
rand_sets[45]: 686
Assign rand_sets[46]: 1637  LLC: 2048
rand_sets[46]: 1637
Assign rand_sets[47]: 1115  LLC: 2048
rand_sets[47]: 1115
Assign rand_sets[48]: 986  LLC: 2048
rand_sets[48]: 986
Assign rand_sets[49]: 258  LLC: 2048
rand_sets[49]: 258
Assign rand_sets[50]: 633  LLC: 2048
rand_sets[50]: 633
Assign rand_sets[51]: 920  LLC: 2048
rand_sets[51]: 920
Assign rand_sets[52]: 204  LLC: 2048
rand_sets[52]: 204
Assign rand_sets[53]: 227  LLC: 2048
rand_sets[53]: 227
Assign rand_sets[54]: 1818  LLC: 2048
rand_sets[54]: 1818
Assign rand_sets[55]: 886  LLC: 2048
rand_sets[55]: 886
Assign rand_sets[56]: 1422  LLC: 2048
rand_sets[56]: 1422
Assign rand_sets[57]: 607  LLC: 2048
rand_sets[57]: 607
Assign rand_sets[58]: 217  LLC: 2048
rand_sets[58]: 217
Assign rand_sets[59]: 1945  LLC: 2048
rand_sets[59]: 1945
Assign rand_sets[60]: 143  LLC: 2048
rand_sets[60]: 143
Assign rand_sets[61]: 1311  LLC: 2048
rand_sets[61]: 1311
Assign rand_sets[62]: 319  LLC: 2048
rand_sets[62]: 319
Assign rand_sets[63]: 1846  LLC: 2048
rand_sets[63]: 1846
 CLEAN-RRIP-POLICY-1: 2-2-0-1-1-0-2-3- CLEAN-RRIP-POLICY-2: 2-2-0-1-1-0-2-3-
 DIRTY-RRIP-POLICY-1: 0-2-2-1-0-0-1-3- DIRTY-RRIP-POLICY-2: 0-2-2-1-0-0-1-3-
 PSEL width: 10
Heartbeat CPU 0 instructions: 10000000 cycles: 4305165 heartbeat IPC: 2.32279 cumulative IPC: 2.32279 (Simulation time: 0 hr 0 min 12 sec) 
Heartbeat CPU 0 instructions: 20000000 cycles: 8616891 heartbeat IPC: 2.31926 cumulative IPC: 2.32102 (Simulation time: 0 hr 0 min 23 sec) 
Heartbeat CPU 0 instructions: 30000003 cycles: 13160740 heartbeat IPC: 2.20078 cumulative IPC: 2.27951 (Simulation time: 0 hr 0 min 35 sec) 
Heartbeat CPU 0 instructions: 40000000 cycles: 17515331 heartbeat IPC: 2.29643 cumulative IPC: 2.28371 (Simulation time: 0 hr 0 min 47 sec) 
Heartbeat CPU 0 instructions: 50000001 cycles: 21878316 heartbeat IPC: 2.29201 cumulative IPC: 2.28537 (Simulation time: 0 hr 0 min 59 sec) 
Heartbeat CPU 0 instructions: 60000000 cycles: 26178618 heartbeat IPC: 2.32542 cumulative IPC: 2.29195 (Simulation time: 0 hr 1 min 10 sec) 
Heartbeat CPU 0 instructions: 70000001 cycles: 30244616 heartbeat IPC: 2.45942 cumulative IPC: 2.31446 (Simulation time: 0 hr 1 min 21 sec) 
Heartbeat CPU 0 instructions: 80000000 cycles: 34523626 heartbeat IPC: 2.33699 cumulative IPC: 2.31725 (Simulation time: 0 hr 1 min 33 sec) 
Heartbeat CPU 0 instructions: 90000001 cycles: 38740460 heartbeat IPC: 2.37145 cumulative IPC: 2.32315 (Simulation time: 0 hr 1 min 44 sec) 
Heartbeat CPU 0 instructions: 100000000 cycles: 42981155 heartbeat IPC: 2.3581 cumulative IPC: 2.3266 (Simulation time: 0 hr 1 min 55 sec) 

Warmup complete CPU 0 instructions: 100000001 cycles: 42981156 (Simulation time: 0 hr 1 min 55 sec) 

Heartbeat CPU 0 instructions: 110000000 cycles: 53309330 heartbeat IPC: 0.968225 cumulative IPC: 0.968225 (Simulation time: 0 hr 2 min 13 sec) 
Heartbeat CPU 0 instructions: 120000000 cycles: 64266682 heartbeat IPC: 0.912629 cumulative IPC: 0.939606 (Simulation time: 0 hr 2 min 30 sec) 
Heartbeat CPU 0 instructions: 130000001 cycles: 75186426 heartbeat IPC: 0.915772 cumulative IPC: 0.931525 (Simulation time: 0 hr 2 min 48 sec) 
Heartbeat CPU 0 instructions: 140000000 cycles: 85107473 heartbeat IPC: 1.00796 cumulative IPC: 0.949525 (Simulation time: 0 hr 3 min 4 sec) 
Heartbeat CPU 0 instructions: 150000001 cycles: 95724219 heartbeat IPC: 0.941908 cumulative IPC: 0.947992 (Simulation time: 0 hr 3 min 22 sec) 
Heartbeat CPU 0 instructions: 160000000 cycles: 106100843 heartbeat IPC: 0.963704 cumulative IPC: 0.950575 (Simulation time: 0 hr 3 min 39 sec) 
Heartbeat CPU 0 instructions: 170000000 cycles: 116091590 heartbeat IPC: 1.00093 cumulative IPC: 0.957456 (Simulation time: 0 hr 3 min 56 sec) 
Heartbeat CPU 0 instructions: 180000000 cycles: 127061901 heartbeat IPC: 0.911551 cumulative IPC: 0.951466 (Simulation time: 0 hr 4 min 13 sec) 
Heartbeat CPU 0 instructions: 190000001 cycles: 137688589 heartbeat IPC: 0.941027 cumulative IPC: 0.950295 (Simulation time: 0 hr 4 min 31 sec) 
Heartbeat CPU 0 instructions: 200000000 cycles: 148783546 heartbeat IPC: 0.90131 cumulative IPC: 0.945158 (Simulation time: 0 hr 4 min 48 sec) 
Heartbeat CPU 0 instructions: 210000002 cycles: 162103789 heartbeat IPC: 0.750737 cumulative IPC: 0.923418 (Simulation time: 0 hr 5 min 7 sec) 
Heartbeat CPU 0 instructions: 220000000 cycles: 175565098 heartbeat IPC: 0.74287 cumulative IPC: 0.905087 (Simulation time: 0 hr 5 min 26 sec) 
Heartbeat CPU 0 instructions: 230000000 cycles: 188621653 heartbeat IPC: 0.765899 cumulative IPC: 0.892609 (Simulation time: 0 hr 5 min 45 sec) 
Heartbeat CPU 0 instructions: 240000000 cycles: 201661938 heartbeat IPC: 0.766854 cumulative IPC: 0.882274 (Simulation time: 0 hr 6 min 4 sec) 
Heartbeat CPU 0 instructions: 250000000 cycles: 214466612 heartbeat IPC: 0.780965 cumulative IPC: 0.87471 (Simulation time: 0 hr 6 min 22 sec) 
Heartbeat CPU 0 instructions: 260000000 cycles: 226737902 heartbeat IPC: 0.81491 cumulative IPC: 0.870716 (Simulation time: 0 hr 6 min 41 sec) 
Heartbeat CPU 0 instructions: 270000003 cycles: 239493734 heartbeat IPC: 0.783955 cumulative IPC: 0.865085 (Simulation time: 0 hr 6 min 59 sec) 
Heartbeat CPU 0 instructions: 280000000 cycles: 251812015 heartbeat IPC: 0.811801 cumulative IPC: 0.861942 (Simulation time: 0 hr 7 min 18 sec) 
Heartbeat CPU 0 instructions: 290000002 cycles: 264273088 heartbeat IPC: 0.802499 cumulative IPC: 0.858594 (Simulation time: 0 hr 7 min 36 sec) 
Heartbeat CPU 0 instructions: 300000000 cycles: 277598612 heartbeat IPC: 0.750439 cumulative IPC: 0.852452 (Simulation time: 0 hr 7 min 55 sec) 
Heartbeat CPU 0 instructions: 310000000 cycles: 290778512 heartbeat IPC: 0.758731 cumulative IPC: 0.847467 (Simulation time: 0 hr 8 min 14 sec) 
Heartbeat CPU 0 instructions: 320000000 cycles: 304521236 heartbeat IPC: 0.727658 cumulative IPC: 0.841171 (Simulation time: 0 hr 8 min 33 sec) 
Heartbeat CPU 0 instructions: 330000003 cycles: 317495406 heartbeat IPC: 0.770762 cumulative IPC: 0.837844 (Simulation time: 0 hr 8 min 52 sec) 
Heartbeat CPU 0 instructions: 340000000 cycles: 330724558 heartbeat IPC: 0.755906 cumulative IPC: 0.834076 (Simulation time: 0 hr 9 min 10 sec) 
Heartbeat CPU 0 instructions: 350000001 cycles: 342388823 heartbeat IPC: 0.857319 cumulative IPC: 0.834982 (Simulation time: 0 hr 9 min 28 sec) 
Heartbeat CPU 0 instructions: 360000000 cycles: 355162637 heartbeat IPC: 0.782851 cumulative IPC: 0.832849 (Simulation time: 0 hr 9 min 47 sec) 
Heartbeat CPU 0 instructions: 370000001 cycles: 367113347 heartbeat IPC: 0.83677 cumulative IPC: 0.832993 (Simulation time: 0 hr 10 min 5 sec) 
Heartbeat CPU 0 instructions: 380000000 cycles: 378656936 heartbeat IPC: 0.866282 cumulative IPC: 0.834138 (Simulation time: 0 hr 10 min 23 sec) 
Heartbeat CPU 0 instructions: 390000003 cycles: 389936016 heartbeat IPC: 0.886597 cumulative IPC: 0.835844 (Simulation time: 0 hr 10 min 41 sec) 
Heartbeat CPU 0 instructions: 400000000 cycles: 400623747 heartbeat IPC: 0.935652 cumulative IPC: 0.838826 (Simulation time: 0 hr 10 min 59 sec) 
Heartbeat CPU 0 instructions: 410000000 cycles: 411752239 heartbeat IPC: 0.898594 cumulative IPC: 0.84063 (Simulation time: 0 hr 11 min 17 sec) 
Heartbeat CPU 0 instructions: 420000000 cycles: 421356375 heartbeat IPC: 1.04122 cumulative IPC: 0.845721 (Simulation time: 0 hr 11 min 34 sec) 
Heartbeat CPU 0 instructions: 430000002 cycles: 430545183 heartbeat IPC: 1.08828 cumulative IPC: 0.851472 (Simulation time: 0 hr 11 min 51 sec) 
Heartbeat CPU 0 instructions: 440000000 cycles: 441390004 heartbeat IPC: 0.922099 cumulative IPC: 0.853395 (Simulation time: 0 hr 12 min 8 sec) 
Heartbeat CPU 0 instructions: 450000002 cycles: 453195032 heartbeat IPC: 0.847097 cumulative IPC: 0.853213 (Simulation time: 0 hr 12 min 26 sec) 
Heartbeat CPU 0 instructions: 460000000 cycles: 465524536 heartbeat IPC: 0.811062 cumulative IPC: 0.851984 (Simulation time: 0 hr 12 min 44 sec) 
Heartbeat CPU 0 instructions: 470000003 cycles: 476114628 heartbeat IPC: 0.944279 cumulative IPC: 0.85424 (Simulation time: 0 hr 13 min 2 sec) 
Heartbeat CPU 0 instructions: 480000000 cycles: 487143652 heartbeat IPC: 0.906698 cumulative IPC: 0.855543 (Simulation time: 0 hr 13 min 19 sec) 
Heartbeat CPU 0 instructions: 490000000 cycles: 497434518 heartbeat IPC: 0.971736 cumulative IPC: 0.858174 (Simulation time: 0 hr 13 min 36 sec) 
Heartbeat CPU 0 instructions: 500000000 cycles: 510055608 heartbeat IPC: 0.792325 cumulative IPC: 0.856395 (Simulation time: 0 hr 13 min 54 sec) 
Heartbeat CPU 0 instructions: 510000002 cycles: 523283728 heartbeat IPC: 0.755965 cumulative IPC: 0.853629 (Simulation time: 0 hr 14 min 13 sec) 
Heartbeat CPU 0 instructions: 520000000 cycles: 535779228 heartbeat IPC: 0.800288 cumulative IPC: 0.852276 (Simulation time: 0 hr 14 min 31 sec) 
Heartbeat CPU 0 instructions: 530000001 cycles: 548308630 heartbeat IPC: 0.798123 cumulative IPC: 0.850933 (Simulation time: 0 hr 14 min 49 sec) 
Heartbeat CPU 0 instructions: 540000000 cycles: 560627211 heartbeat IPC: 0.811782 cumulative IPC: 0.850002 (Simulation time: 0 hr 15 min 7 sec) 
Heartbeat CPU 0 instructions: 550000001 cycles: 572730701 heartbeat IPC: 0.826208 cumulative IPC: 0.849458 (Simulation time: 0 hr 15 min 25 sec) 
Heartbeat CPU 0 instructions: 560000000 cycles: 584981949 heartbeat IPC: 0.816243 cumulative IPC: 0.848707 (Simulation time: 0 hr 15 min 43 sec) 
Heartbeat CPU 0 instructions: 570000000 cycles: 597041160 heartbeat IPC: 0.829242 cumulative IPC: 0.848284 (Simulation time: 0 hr 16 min 1 sec) 
Heartbeat CPU 0 instructions: 580000000 cycles: 608316327 heartbeat IPC: 0.886905 cumulative IPC: 0.849054 (Simulation time: 0 hr 16 min 18 sec) 
Heartbeat CPU 0 instructions: 590000003 cycles: 620442705 heartbeat IPC: 0.824649 cumulative IPC: 0.848541 (Simulation time: 0 hr 16 min 35 sec) 
Heartbeat CPU 0 instructions: 600000000 cycles: 631531276 heartbeat IPC: 0.901829 cumulative IPC: 0.849545 (Simulation time: 0 hr 16 min 53 sec) 
Finished CPU 0 instructions: 500000001 cycles: 588550128 cumulative IPC: 0.849545 (Simulation time: 0 hr 16 min 53 sec) 

CPU 0 Branch Prediction Accuracy: 93.0095% MPKI: 10.0046
Number of Branches: 71558147 Number of Mispredictions: 5002285
Number of LOAD Instructions: 145708893
Number of LOAD Instructions (ROI): 145708893
Number of STORE Instructions: 40463820
Number of STORE Instructions (ROI): 40463820
Total Destination Memory Operands: 45240498
Total Destination Memory Operands (ROI): 45240498
Total Source Memory Operands: 145708893
Total Source Memory Operands (ROI): 145708893
Number of DEPENDED LOADS: 10687044
Number of DEPENDED LOADS (ROI): 10687044
Number of SQ_ADDED: 45240498
Number of SQ_ADDED (ROI): 45240498
Number of LQ_ADDED: 193364287
Number of LQ_ADDED (ROI): 193364287
Number of Instructions read from trace: 600000002

ChampSim completed all CPUs

Region of Interest Statistics

CPU 0 cumulative IPC: 0.849545 instructions: 500000001 cycles: 588550128
ITLB TOTAL     ACCESS:   77983918  HIT:   77983917  MISS:          1
ITLB LOAD      ACCESS:   77983918  HIT:   77983917  MISS:          1
ITLB RFO       ACCESS:          0  HIT:          0  MISS:          0
ITLB PREFETCH  ACCESS:          0  HIT:          0  MISS:          0
ITLB WRITEBACK ACCESS:          0  HIT:          0  MISS:          0
ITLB PREFETCH  REQUESTED:          0  ISSUED:          0  USEFUL:          0  USELESS:          0
ITLB TOTAL MSHR MERGED:          0
ITLB LOAD MSHR MERGED:          0
ITLB RFO MSHR MERGED:          0
ITLB PREFETCH MSHR MERGED:          0
ITLB WRITEBACK MSHR MERGED:          0
ITLB TOTAL ACCESSES:   77983918 HITS:   77983917 MISSES:          1
ITLB LOAD ACCESSES:   77983918 HITS:   77983917 MISSES:          1
ITLB RFO ACCESSES:          0 HITS:          0 MISSES:          0
ITLB PREFETCH ACCESSES:          0 HITS:          0 MISSES:          0
ITLB WRITEBACK ACCESSES:          0 HITS:          0 MISSES:          0
ITLB RQ ACCESS:  499999995
ITLB RQ TO_CACHE:   77983918
ITLB RQ MERGED:  422016077
ITLB RQ FORWARD:          0
ITLB WQ ACCESS:          0
ITLB WQ TO_CACHE:          0
ITLB WQ MERGED:          0
ITLB WQ FORWARD:          0
DTLB TOTAL     ACCESS:   98690976  HIT:   97809640  MISS:     881336
DTLB LOAD      ACCESS:   70912400  HIT:   70050867  MISS:     861533
DTLB RFO       ACCESS:   27778576  HIT:   27758773  MISS:      19803
DTLB PREFETCH  ACCESS:          0  HIT:          0  MISS:          0
DTLB WRITEBACK ACCESS:          0  HIT:          0  MISS:          0
DTLB PREFETCH  REQUESTED:          0  ISSUED:          0  USEFUL:          0  USELESS:          0
DTLB TOTAL MSHR MERGED:      87189
DTLB LOAD MSHR MERGED:      65418
DTLB RFO MSHR MERGED:      21771
DTLB PREFETCH MSHR MERGED:          0
DTLB WRITEBACK MSHR MERGED:          0
DTLB TOTAL ACCESSES:   98778165 HITS:   97809640 MISSES:     968525
DTLB LOAD ACCESSES:   70977818 HITS:   70050867 MISSES:     926951
DTLB RFO ACCESSES:   27800347 HITS:   27758773 MISSES:      41574
DTLB PREFETCH ACCESSES:          0 HITS:          0 MISSES:          0
DTLB WRITEBACK ACCESSES:          0 HITS:          0 MISSES:          0
DTLB RQ ACCESS:  150257971
DTLB RQ TO_CACHE:   98778165
DTLB RQ MERGED:   51479806
DTLB RQ FORWARD:          0
DTLB WQ ACCESS:          0
DTLB WQ TO_CACHE:          0
DTLB WQ MERGED:          0
DTLB WQ FORWARD:          0
L1D TOTAL     ACCESS:  173276425  HIT:  169107911  MISS:    4168514
L1D LOAD      ACCESS:   75270352  HIT:   73388705  MISS:    1881647
L1D RFO       ACCESS:   36776140  HIT:   36569263  MISS:     206877
L1D PREFETCH  ACCESS:   61229933  HIT:   59149943  MISS:    2079990
L1D WRITEBACK ACCESS:          0  HIT:          0  MISS:          0
L1D PREFETCH  REQUESTED:   75378565  ISSUED:   74814209  USEFUL:     414473  USELESS:    1665506
L1D TOTAL MSHR MERGED:     407839
L1D LOAD MSHR MERGED:     117385
L1D RFO MSHR MERGED:     134586
L1D PREFETCH MSHR MERGED:     155868
L1D WRITEBACK MSHR MERGED:          0
L1D TOTAL ACCESSES:  173837406 HITS:  169261053 MISSES:    4576353
L1D LOAD ACCESSES:   75382063 HITS:   73392203 MISSES:    1989860
L1D RFO ACCESSES:   36909063 HITS:   36569263 MISSES:     339800
L1D PREFETCH ACCESSES:   61546280 HITS:   59299587 MISSES:    2246693
L1D WRITEBACK ACCESSES:          0 HITS:          0 MISSES:          0
L1D RQ ACCESS:  112595568
L1D RQ TO_CACHE:   75378565
L1D RQ MERGED:   37213505
L1D RQ FORWARD:          0
L1D WQ ACCESS:   37662403
L1D WQ TO_CACHE:   36909063
L1D WQ MERGED:     753340
L1D WQ FORWARD:     153142
L1I TOTAL     ACCESS:  100691856  HIT:  100691831  MISS:         25
L1I LOAD      ACCESS:  100691856  HIT:  100691831  MISS:         25
L1I RFO       ACCESS:          0  HIT:          0  MISS:          0
L1I PREFETCH  ACCESS:          0  HIT:          0  MISS:          0
L1I WRITEBACK ACCESS:          0  HIT:          0  MISS:          0
L1I PREFETCH  REQUESTED:          0  ISSUED:          0  USEFUL:          0  USELESS:          0
L1I TOTAL MSHR MERGED:         10
L1I LOAD MSHR MERGED:         10
L1I RFO MSHR MERGED:          0
L1I PREFETCH MSHR MERGED:          0
L1I WRITEBACK MSHR MERGED:          0
L1I TOTAL ACCESSES:  100691866 HITS:  100691831 MISSES:         35
L1I LOAD ACCESSES:  100691866 HITS:  100691831 MISSES:         35
L1I RFO ACCESSES:          0 HITS:          0 MISSES:          0
L1I PREFETCH ACCESSES:          0 HITS:          0 MISSES:          0
L1I WRITEBACK ACCESSES:          0 HITS:          0 MISSES:          0
L1I RQ ACCESS:  499999995
L1I RQ TO_CACHE:  100691866
L1I RQ MERGED:  399308129
L1I RQ FORWARD:          0
L1I WQ ACCESS:          0
L1I WQ TO_CACHE:          0
L1I WQ MERGED:          0
L1I WQ FORWARD:          0
L2C TOTAL     ACCESS:    5852268  HIT:    4009123  MISS:    1843145
L2C LOAD      ACCESS:    1872375  HIT:    1061371  MISS:     811004
L2C RFO       ACCESS:     205203  HIT:     100555  MISS:     104648
L2C PREFETCH  ACCESS:    2169077  HIT:    1246006  MISS:     923071
L2C WRITEBACK ACCESS:    1605613  HIT:    1601191  MISS:       4422
L2C PREFETCH  REQUESTED:      91680  ISSUED:      91680  USEFUL:      86377  USELESS:     836717
L2C TOTAL MSHR MERGED:       1201
L2C LOAD MSHR MERGED:        324
L2C RFO MSHR MERGED:          0
L2C PREFETCH MSHR MERGED:        877
L2C WRITEBACK MSHR MERGED:          0
L2C TOTAL ACCESSES:    5853858 HITS:    4009296 MISSES:    1844562
L2C LOAD ACCESSES:    1872500 HITS:    1061496 MISSES:     811004
L2C RFO ACCESSES:     205214 HITS:     100566 MISSES:     104648
L2C PREFETCH ACCESSES:    2170531 HITS:    1246043 MISSES:     924488
L2C WRITEBACK ACCESSES:    1605613 HITS:    1601191 MISSES:       4422
L2C RQ ACCESS:    2077714
L2C RQ TO_CACHE:    2077578
L2C RQ MERGED:          0
L2C RQ FORWARD:          0
L2C WQ ACCESS:    1605613
L2C WQ TO_CACHE:    1605613
L2C WQ MERGED:          0
L2C WQ FORWARD:        173
LLC TOTAL     ACCESS:    2673562  HIT:    1536117  MISS:    1137445
LLC LOAD      ACCESS:     810670  HIT:     408778  MISS:     401892
LLC RFO       ACCESS:     104648  HIT:      47149  MISS:      57499
LLC PREFETCH  ACCESS:     923577  HIT:     533468  MISS:     390109
LLC WRITEBACK ACCESS:     834667  HIT:     546722  MISS:     287945
LLC PREFETCH  REQUESTED:          0  ISSUED:          0  USEFUL:      67735  USELESS:     320566
LLC TOTAL MSHR MERGED:         26
LLC LOAD MSHR MERGED:          8
LLC RFO MSHR MERGED:          0
LLC PREFETCH MSHR MERGED:         18
LLC WRITEBACK MSHR MERGED:          0
LLC TOTAL ACCESSES:    2673601 HITS:    1536130 MISSES:    1137471
LLC LOAD ACCESSES:     810680 HITS:     408788 MISSES:     401892
LLC RFO ACCESSES:     104648 HITS:      47149 MISSES:      57499
LLC PREFETCH ACCESSES:     923606 HITS:     533471 MISSES:     390135
LLC WRITEBACK ACCESSES:     834667 HITS:     546722 MISSES:     287945
LLC 0 RQ ACCESS:     915328
LLC 0 RQ TO_CACHE:     915318
LLC 0 RQ MERGED:          0
LLC 0 RQ FORWARD:          0
LLC WQ ACCESS:     834667
LLC WQ TO_CACHE:     834667
LLC WQ MERGED:          0
LLC WQ FORWARD:         13
Major fault: 0 Minor fault: 11278
CPU 0 L1D next line prefetcher final stats
CPU 0 L2C PC-based stride prefetcher final stats
All Misses: 1269313
All Hits: 1785269
SD Algo Stats - Switches: 0 SRR-Repls: 435372 BRR-Repls: 0

DRAM Statistics
 CHANNEL 0
 RQ ROW_BUFFER_HIT:      48896  ROW_BUFFER_MISS:     799003
 DBUS_CONGESTED:     816368
 WQ ROW_BUFFER_HIT:      61808  ROW_BUFFER_MISS:     485072  FULL:          0

 AVG_CONGESTED_CYCLE: 13
LOADS RETIRED: 121769268
INSTR RETIRED: 500000000
