
*** ChampSim Multicore Out-of-Order Simulator ***

Warmup Instructions: 100000000
Simulation Instructions: 500000000
Number of CPUs: 1
LLC sets: 2048
LLC ways: 16
Clean RRIP Policies: 1110130111101301 Dirty RRIP Policies: 1100130111001301 PSEL Width: 10 Track Set: 4294967295 PSEL Mask: 1 Demote Mask: 2141400021414DS Algo: 0Window size: 0
Off-chip DRAM Size: 4096 MB Channels: 1 Width: 64-bit Data Rate: 1600 MT/s

CPU 0 runs /mnt/beegfs/iconst01/spec2017/Gcc.trace.gz
NOT SORTED
TRACE STRING: /mnt/beegfs/iconst01/spec2017/Gcc.trace.gz
SORTED
TRACE STRING: /mnt/beegfs/iconst01/spec2017/Gcc.trace.gz
INITIAL
TRACE STRING: /mnt/beegfs/iconst01/spec2017/Gcc.trace.gz

champsim_seed used: 269

CPU 0 L1D next line prefetcher
CPU 0 L2C IP-based stride prefetcher
Initialize DRRIP state
Assign rand_sets[0]: 454  LLC: 2048
rand_sets[0]: 454
Assign rand_sets[1]: 1662  LLC: 2048
rand_sets[1]: 1662
Assign rand_sets[2]: 1921  LLC: 2048
rand_sets[2]: 1921
Assign rand_sets[3]: 1131  LLC: 2048
rand_sets[3]: 1131
Assign rand_sets[4]: 331  LLC: 2048
rand_sets[4]: 331
Assign rand_sets[5]: 1531  LLC: 2048
rand_sets[5]: 1531
Assign rand_sets[6]: 482  LLC: 2048
rand_sets[6]: 482
Assign rand_sets[7]: 1275  LLC: 2048
rand_sets[7]: 1275
Assign rand_sets[8]: 1876  LLC: 2048
rand_sets[8]: 1876
Assign rand_sets[9]: 2038  LLC: 2048
rand_sets[9]: 2038
Assign rand_sets[10]: 701  LLC: 2048
rand_sets[10]: 701
Assign rand_sets[11]: 479  LLC: 2048
rand_sets[11]: 479
Assign rand_sets[12]: 892  LLC: 2048
rand_sets[12]: 892
Assign rand_sets[13]: 1820  LLC: 2048
rand_sets[13]: 1820
Assign rand_sets[14]: 1505  LLC: 2048
rand_sets[14]: 1505
Assign rand_sets[15]: 1159  LLC: 2048
rand_sets[15]: 1159
Assign rand_sets[16]: 513  LLC: 2048
rand_sets[16]: 513
Assign rand_sets[17]: 703  LLC: 2048
rand_sets[17]: 703
Assign rand_sets[18]: 561  LLC: 2048
rand_sets[18]: 561
Assign rand_sets[19]: 990  LLC: 2048
rand_sets[19]: 990
Assign rand_sets[20]: 342  LLC: 2048
rand_sets[20]: 342
Assign rand_sets[21]: 882  LLC: 2048
rand_sets[21]: 882
Assign rand_sets[22]: 15  LLC: 2048
rand_sets[22]: 15
Assign rand_sets[23]: 71  LLC: 2048
rand_sets[23]: 71
Assign rand_sets[24]: 1127  LLC: 2048
rand_sets[24]: 1127
Assign rand_sets[25]: 1382  LLC: 2048
rand_sets[25]: 1382
Assign rand_sets[26]: 647  LLC: 2048
rand_sets[26]: 647
Assign rand_sets[27]: 857  LLC: 2048
rand_sets[27]: 857
Assign rand_sets[28]: 1450  LLC: 2048
rand_sets[28]: 1450
Assign rand_sets[29]: 1160  LLC: 2048
rand_sets[29]: 1160
Assign rand_sets[30]: 1852  LLC: 2048
rand_sets[30]: 1852
Assign rand_sets[31]: 1881  LLC: 2048
rand_sets[31]: 1881
Assign rand_sets[32]: 1770  LLC: 2048
rand_sets[32]: 1770
Assign rand_sets[33]: 1622  LLC: 2048
rand_sets[33]: 1622
Assign rand_sets[34]: 275  LLC: 2048
rand_sets[34]: 275
Assign rand_sets[35]: 635  LLC: 2048
rand_sets[35]: 635
Assign rand_sets[36]: 466  LLC: 2048
rand_sets[36]: 466
Assign rand_sets[37]: 1413  LLC: 2048
rand_sets[37]: 1413
Assign rand_sets[38]: 417  LLC: 2048
rand_sets[38]: 417
Assign rand_sets[39]: 472  LLC: 2048
rand_sets[39]: 472
Assign rand_sets[40]: 1340  LLC: 2048
rand_sets[40]: 1340
Assign rand_sets[41]: 852  LLC: 2048
rand_sets[41]: 852
Assign rand_sets[42]: 1365  LLC: 2048
rand_sets[42]: 1365
Assign rand_sets[43]: 47  LLC: 2048
rand_sets[43]: 47
Assign rand_sets[44]: 823  LLC: 2048
rand_sets[44]: 823
Assign rand_sets[45]: 686  LLC: 2048
rand_sets[45]: 686
Assign rand_sets[46]: 1637  LLC: 2048
rand_sets[46]: 1637
Assign rand_sets[47]: 1115  LLC: 2048
rand_sets[47]: 1115
Assign rand_sets[48]: 986  LLC: 2048
rand_sets[48]: 986
Assign rand_sets[49]: 258  LLC: 2048
rand_sets[49]: 258
Assign rand_sets[50]: 633  LLC: 2048
rand_sets[50]: 633
Assign rand_sets[51]: 920  LLC: 2048
rand_sets[51]: 920
Assign rand_sets[52]: 204  LLC: 2048
rand_sets[52]: 204
Assign rand_sets[53]: 227  LLC: 2048
rand_sets[53]: 227
Assign rand_sets[54]: 1818  LLC: 2048
rand_sets[54]: 1818
Assign rand_sets[55]: 886  LLC: 2048
rand_sets[55]: 886
Assign rand_sets[56]: 1422  LLC: 2048
rand_sets[56]: 1422
Assign rand_sets[57]: 607  LLC: 2048
rand_sets[57]: 607
Assign rand_sets[58]: 217  LLC: 2048
rand_sets[58]: 217
Assign rand_sets[59]: 1945  LLC: 2048
rand_sets[59]: 1945
Assign rand_sets[60]: 143  LLC: 2048
rand_sets[60]: 143
Assign rand_sets[61]: 1311  LLC: 2048
rand_sets[61]: 1311
Assign rand_sets[62]: 319  LLC: 2048
rand_sets[62]: 319
Assign rand_sets[63]: 1846  LLC: 2048
rand_sets[63]: 1846
 CLEAN-RRIP-POLICY-1: 1-1-1-0-1-3-0-1- CLEAN-RRIP-POLICY-2: 1-1-1-0-1-3-0-1-
 DIRTY-RRIP-POLICY-1: 1-1-0-0-1-3-0-1- DIRTY-RRIP-POLICY-2: 1-1-0-0-1-3-0-1-
 PSEL width: 10
Heartbeat CPU 0 instructions: 10000001 cycles: 7315907 heartbeat IPC: 1.36688 cumulative IPC: 1.36688 (Simulation time: 0 hr 0 min 15 sec) 
Heartbeat CPU 0 instructions: 20000000 cycles: 14307607 heartbeat IPC: 1.43027 cumulative IPC: 1.39786 (Simulation time: 0 hr 0 min 30 sec) 
Heartbeat CPU 0 instructions: 30000001 cycles: 21020740 heartbeat IPC: 1.48962 cumulative IPC: 1.42716 (Simulation time: 0 hr 0 min 45 sec) 
Heartbeat CPU 0 instructions: 40000000 cycles: 27481620 heartbeat IPC: 1.54778 cumulative IPC: 1.45552 (Simulation time: 0 hr 1 min 1 sec) 
Heartbeat CPU 0 instructions: 50000001 cycles: 33583435 heartbeat IPC: 1.63886 cumulative IPC: 1.48883 (Simulation time: 0 hr 1 min 17 sec) 
Heartbeat CPU 0 instructions: 60000000 cycles: 40064655 heartbeat IPC: 1.54292 cumulative IPC: 1.49758 (Simulation time: 0 hr 1 min 33 sec) 
Heartbeat CPU 0 instructions: 70000000 cycles: 47102702 heartbeat IPC: 1.42085 cumulative IPC: 1.48611 (Simulation time: 0 hr 1 min 47 sec) 
Heartbeat CPU 0 instructions: 80000000 cycles: 54192558 heartbeat IPC: 1.41047 cumulative IPC: 1.47622 (Simulation time: 0 hr 2 min 2 sec) 
Heartbeat CPU 0 instructions: 90000003 cycles: 61197054 heartbeat IPC: 1.42765 cumulative IPC: 1.47066 (Simulation time: 0 hr 2 min 17 sec) 
Heartbeat CPU 0 instructions: 100000000 cycles: 68364439 heartbeat IPC: 1.39521 cumulative IPC: 1.46275 (Simulation time: 0 hr 2 min 31 sec) 

Warmup complete CPU 0 instructions: 100000004 cycles: 68364440 (Simulation time: 0 hr 2 min 31 sec) 

Heartbeat CPU 0 instructions: 110000003 cycles: 96051744 heartbeat IPC: 0.361176 cumulative IPC: 0.361176 (Simulation time: 0 hr 2 min 59 sec) 
Heartbeat CPU 0 instructions: 120000000 cycles: 123526374 heartbeat IPC: 0.363972 cumulative IPC: 0.362569 (Simulation time: 0 hr 3 min 28 sec) 
Heartbeat CPU 0 instructions: 130000000 cycles: 148531946 heartbeat IPC: 0.399911 cumulative IPC: 0.374216 (Simulation time: 0 hr 3 min 57 sec) 
Heartbeat CPU 0 instructions: 140000000 cycles: 178019679 heartbeat IPC: 0.339124 cumulative IPC: 0.36478 (Simulation time: 0 hr 4 min 24 sec) 
Heartbeat CPU 0 instructions: 150000000 cycles: 207893449 heartbeat IPC: 0.334742 cumulative IPC: 0.358348 (Simulation time: 0 hr 4 min 53 sec) 
Heartbeat CPU 0 instructions: 160000000 cycles: 235318926 heartbeat IPC: 0.364624 cumulative IPC: 0.359379 (Simulation time: 0 hr 5 min 21 sec) 
Heartbeat CPU 0 instructions: 170000001 cycles: 263368195 heartbeat IPC: 0.356516 cumulative IPC: 0.358967 (Simulation time: 0 hr 5 min 50 sec) 
Heartbeat CPU 0 instructions: 180000000 cycles: 291816696 heartbeat IPC: 0.351512 cumulative IPC: 0.358018 (Simulation time: 0 hr 6 min 19 sec) 
Heartbeat CPU 0 instructions: 190000002 cycles: 319845445 heartbeat IPC: 0.356777 cumulative IPC: 0.35788 (Simulation time: 0 hr 6 min 48 sec) 
Heartbeat CPU 0 instructions: 200000000 cycles: 348191801 heartbeat IPC: 0.352779 cumulative IPC: 0.357363 (Simulation time: 0 hr 7 min 17 sec) 
Heartbeat CPU 0 instructions: 210000002 cycles: 376054734 heartbeat IPC: 0.3589 cumulative IPC: 0.357502 (Simulation time: 0 hr 7 min 45 sec) 
Heartbeat CPU 0 instructions: 220000000 cycles: 405212796 heartbeat IPC: 0.342958 cumulative IPC: 0.356243 (Simulation time: 0 hr 8 min 12 sec) 
Heartbeat CPU 0 instructions: 230000000 cycles: 432789570 heartbeat IPC: 0.362624 cumulative IPC: 0.356726 (Simulation time: 0 hr 8 min 40 sec) 
Heartbeat CPU 0 instructions: 240000000 cycles: 458778893 heartbeat IPC: 0.384773 cumulative IPC: 0.358593 (Simulation time: 0 hr 9 min 7 sec) 
Heartbeat CPU 0 instructions: 250000000 cycles: 488931847 heartbeat IPC: 0.331642 cumulative IPC: 0.356661 (Simulation time: 0 hr 9 min 37 sec) 
Heartbeat CPU 0 instructions: 260000000 cycles: 516056087 heartbeat IPC: 0.368674 cumulative IPC: 0.357389 (Simulation time: 0 hr 10 min 5 sec) 
Heartbeat CPU 0 instructions: 270000003 cycles: 544519121 heartbeat IPC: 0.351333 cumulative IPC: 0.357027 (Simulation time: 0 hr 10 min 34 sec) 
Heartbeat CPU 0 instructions: 280000000 cycles: 572668739 heartbeat IPC: 0.355244 cumulative IPC: 0.356927 (Simulation time: 0 hr 11 min 4 sec) 
Heartbeat CPU 0 instructions: 290000000 cycles: 601553831 heartbeat IPC: 0.346199 cumulative IPC: 0.356346 (Simulation time: 0 hr 11 min 33 sec) 
Heartbeat CPU 0 instructions: 300000000 cycles: 631469753 heartbeat IPC: 0.33427 cumulative IPC: 0.355173 (Simulation time: 0 hr 12 min 1 sec) 
Heartbeat CPU 0 instructions: 310000001 cycles: 660860990 heartbeat IPC: 0.340237 cumulative IPC: 0.354432 (Simulation time: 0 hr 12 min 30 sec) 
Heartbeat CPU 0 instructions: 320000000 cycles: 689093656 heartbeat IPC: 0.3542 cumulative IPC: 0.354422 (Simulation time: 0 hr 12 min 57 sec) 
Heartbeat CPU 0 instructions: 330000000 cycles: 717755852 heartbeat IPC: 0.348892 cumulative IPC: 0.354178 (Simulation time: 0 hr 13 min 26 sec) 
Heartbeat CPU 0 instructions: 340000000 cycles: 747044469 heartbeat IPC: 0.34143 cumulative IPC: 0.353628 (Simulation time: 0 hr 13 min 54 sec) 
Heartbeat CPU 0 instructions: 350000003 cycles: 774101169 heartbeat IPC: 0.369594 cumulative IPC: 0.35424 (Simulation time: 0 hr 14 min 22 sec) 
Heartbeat CPU 0 instructions: 360000000 cycles: 802226169 heartbeat IPC: 0.355555 cumulative IPC: 0.35429 (Simulation time: 0 hr 14 min 49 sec) 
Heartbeat CPU 0 instructions: 370000000 cycles: 830407735 heartbeat IPC: 0.354842 cumulative IPC: 0.354311 (Simulation time: 0 hr 15 min 16 sec) 
Heartbeat CPU 0 instructions: 380000000 cycles: 858927921 heartbeat IPC: 0.350629 cumulative IPC: 0.354178 (Simulation time: 0 hr 15 min 43 sec) 
Heartbeat CPU 0 instructions: 390000001 cycles: 886534706 heartbeat IPC: 0.36223 cumulative IPC: 0.354449 (Simulation time: 0 hr 16 min 10 sec) 
Heartbeat CPU 0 instructions: 400000000 cycles: 915194769 heartbeat IPC: 0.348918 cumulative IPC: 0.354262 (Simulation time: 0 hr 16 min 38 sec) 
Heartbeat CPU 0 instructions: 410000001 cycles: 942467332 heartbeat IPC: 0.366669 cumulative IPC: 0.354649 (Simulation time: 0 hr 17 min 5 sec) 
Heartbeat CPU 0 instructions: 420000000 cycles: 969754798 heartbeat IPC: 0.366469 cumulative IPC: 0.355007 (Simulation time: 0 hr 17 min 32 sec) 
Heartbeat CPU 0 instructions: 430000002 cycles: 997450907 heartbeat IPC: 0.361062 cumulative IPC: 0.355188 (Simulation time: 0 hr 17 min 59 sec) 
Heartbeat CPU 0 instructions: 440000000 cycles: 1027052824 heartbeat IPC: 0.337816 cumulative IPC: 0.354651 (Simulation time: 0 hr 18 min 26 sec) 
Heartbeat CPU 0 instructions: 450000002 cycles: 1056320931 heartbeat IPC: 0.341669 cumulative IPC: 0.354267 (Simulation time: 0 hr 18 min 53 sec) 
Heartbeat CPU 0 instructions: 460000000 cycles: 1084004946 heartbeat IPC: 0.361219 cumulative IPC: 0.354456 (Simulation time: 0 hr 19 min 20 sec) 
Heartbeat CPU 0 instructions: 470000000 cycles: 1111626289 heartbeat IPC: 0.362039 cumulative IPC: 0.354657 (Simulation time: 0 hr 19 min 47 sec) 
Heartbeat CPU 0 instructions: 480000000 cycles: 1139500548 heartbeat IPC: 0.358754 cumulative IPC: 0.354764 (Simulation time: 0 hr 20 min 14 sec) 
Heartbeat CPU 0 instructions: 490000000 cycles: 1167078512 heartbeat IPC: 0.362608 cumulative IPC: 0.35496 (Simulation time: 0 hr 20 min 41 sec) 
Heartbeat CPU 0 instructions: 500000000 cycles: 1195398670 heartbeat IPC: 0.353105 cumulative IPC: 0.354914 (Simulation time: 0 hr 21 min 8 sec) 
Heartbeat CPU 0 instructions: 510000000 cycles: 1230615791 heartbeat IPC: 0.283953 cumulative IPC: 0.352764 (Simulation time: 0 hr 21 min 39 sec) 
Heartbeat CPU 0 instructions: 520000000 cycles: 1258690440 heartbeat IPC: 0.356193 cumulative IPC: 0.352845 (Simulation time: 0 hr 22 min 6 sec) 
Heartbeat CPU 0 instructions: 530000001 cycles: 1288096944 heartbeat IPC: 0.340061 cumulative IPC: 0.352536 (Simulation time: 0 hr 22 min 34 sec) 
Heartbeat CPU 0 instructions: 540000000 cycles: 1316191738 heartbeat IPC: 0.355938 cumulative IPC: 0.352613 (Simulation time: 0 hr 23 min 2 sec) 
Heartbeat CPU 0 instructions: 550000001 cycles: 1345393260 heartbeat IPC: 0.342448 cumulative IPC: 0.35238 (Simulation time: 0 hr 23 min 32 sec) 
Heartbeat CPU 0 instructions: 560000000 cycles: 1370792220 heartbeat IPC: 0.393717 cumulative IPC: 0.353187 (Simulation time: 0 hr 23 min 59 sec) 
Heartbeat CPU 0 instructions: 570000000 cycles: 1400294151 heartbeat IPC: 0.338961 cumulative IPC: 0.352871 (Simulation time: 0 hr 24 min 27 sec) 
Heartbeat CPU 0 instructions: 580000000 cycles: 1428241499 heartbeat IPC: 0.357816 cumulative IPC: 0.352973 (Simulation time: 0 hr 24 min 56 sec) 
Heartbeat CPU 0 instructions: 590000001 cycles: 1453037432 heartbeat IPC: 0.403292 cumulative IPC: 0.353874 (Simulation time: 0 hr 25 min 22 sec) 
Heartbeat CPU 0 instructions: 600000000 cycles: 1479195172 heartbeat IPC: 0.382296 cumulative IPC: 0.354401 (Simulation time: 0 hr 25 min 49 sec) 
Finished CPU 0 instructions: 500000000 cycles: 1410830754 cumulative IPC: 0.354401 (Simulation time: 0 hr 25 min 49 sec) 

CPU 0 Branch Prediction Accuracy: 86.4311% MPKI: 26.2662
Number of Branches: 96788573 Number of Mispredictions: 13133102
Number of LOAD Instructions: 164682285
Number of LOAD Instructions (ROI): 164682285
Number of STORE Instructions: 78194750
Number of STORE Instructions (ROI): 78194750
Total Destination Memory Operands: 83268534
Total Destination Memory Operands (ROI): 83268534
Total Source Memory Operands: 164712438
Total Source Memory Operands (ROI): 164712438
Number of DEPENDED LOADS: 7061273
Number of DEPENDED LOADS (ROI): 7061273
Number of SQ_ADDED: 83268522
Number of SQ_ADDED (ROI): 83268522
Number of LQ_ADDED: 236576919
Number of LQ_ADDED (ROI): 236576919
Number of Instructions read from trace: 600000066

ChampSim completed all CPUs

Region of Interest Statistics

CPU 0 cumulative IPC: 0.354401 instructions: 500000000 cycles: 1410830754
ITLB TOTAL     ACCESS:  100512260  HIT:  100307814  MISS:     204446
ITLB LOAD      ACCESS:  100512260  HIT:  100307814  MISS:     204446
ITLB RFO       ACCESS:          0  HIT:          0  MISS:          0
ITLB PREFETCH  ACCESS:          0  HIT:          0  MISS:          0
ITLB WRITEBACK ACCESS:          0  HIT:          0  MISS:          0
ITLB PREFETCH  REQUESTED:          0  ISSUED:          0  USEFUL:          0  USELESS:          0
ITLB TOTAL MSHR MERGED:     172424
ITLB LOAD MSHR MERGED:     172424
ITLB RFO MSHR MERGED:          0
ITLB PREFETCH MSHR MERGED:          0
ITLB WRITEBACK MSHR MERGED:          0
ITLB TOTAL ACCESSES:  100684684 HITS:  100307814 MISSES:     376870
ITLB LOAD ACCESSES:  100684684 HITS:  100307814 MISSES:     376870
ITLB RFO ACCESSES:          0 HITS:          0 MISSES:          0
ITLB PREFETCH ACCESSES:          0 HITS:          0 MISSES:          0
ITLB WRITEBACK ACCESSES:          0 HITS:          0 MISSES:          0
ITLB RQ ACCESS:  500000057
ITLB RQ TO_CACHE:  100684684
ITLB RQ MERGED:  399315373
ITLB RQ FORWARD:          0
ITLB WQ ACCESS:          0
ITLB WQ TO_CACHE:          0
ITLB WQ MERGED:          0
ITLB WQ FORWARD:          0
DTLB TOTAL     ACCESS:  165334598  HIT:  164700250  MISS:     634348
DTLB LOAD      ACCESS:  106291476  HIT:  105721478  MISS:     569998
DTLB RFO       ACCESS:   59043122  HIT:   58978772  MISS:      64350
DTLB PREFETCH  ACCESS:          0  HIT:          0  MISS:          0
DTLB WRITEBACK ACCESS:          0  HIT:          0  MISS:          0
DTLB PREFETCH  REQUESTED:          0  ISSUED:          0  USEFUL:          0  USELESS:          0
DTLB TOTAL MSHR MERGED:      99904
DTLB LOAD MSHR MERGED:      59456
DTLB RFO MSHR MERGED:      40448
DTLB PREFETCH MSHR MERGED:          0
DTLB WRITEBACK MSHR MERGED:          0
DTLB TOTAL ACCESSES:  165434502 HITS:  164700250 MISSES:     734252
DTLB LOAD ACCESSES:  106350932 HITS:  105721478 MISSES:     629454
DTLB RFO ACCESSES:   59083570 HITS:   58978772 MISSES:     104798
DTLB PREFETCH ACCESSES:          0 HITS:          0 MISSES:          0
DTLB WRITEBACK ACCESSES:          0 HITS:          0 MISSES:          0
DTLB RQ ACCESS:  200309620
DTLB RQ TO_CACHE:  165434502
DTLB RQ MERGED:   34875118
DTLB RQ FORWARD:          0
DTLB WQ ACCESS:          0
DTLB WQ TO_CACHE:          0
DTLB WQ MERGED:          0
DTLB WQ FORWARD:          0
L1D TOTAL     ACCESS:  281832587  HIT:  273923215  MISS:    7909372
L1D LOAD      ACCESS:  110425464  HIT:  107150911  MISS:    3274553
L1D RFO       ACCESS:   67094581  HIT:   66202990  MISS:     891591
L1D PREFETCH  ACCESS:  104312542  HIT:  100569314  MISS:    3743228
L1D WRITEBACK ACCESS:          0  HIT:          0  MISS:          0
L1D PREFETCH  REQUESTED:  110814765  ISSUED:  109115465  USEFUL:    1664013  USELESS:    2079179
L1D TOTAL MSHR MERGED:    2867152
L1D LOAD MSHR MERGED:     483336
L1D RFO MSHR MERGED:    1892286
L1D PREFETCH MSHR MERGED:     491530
L1D WRITEBACK MSHR MERGED:          0
L1D TOTAL ACCESSES:  284727396 HITS:  273950872 MISSES:   10776524
L1D LOAD ACCESSES:  110816418 HITS:  107152564 MISSES:    3663854
L1D RFO ACCESSES:   68974090 HITS:   66202990 MISSES:    2771100
L1D PREFETCH ACCESSES:  104936888 HITS:  100595318 MISSES:    4341570
L1D WRITEBACK ACCESSES:          0 HITS:          0 MISSES:          0
L1D RQ ACCESS:  130757017
L1D RQ TO_CACHE:  110814768
L1D RQ MERGED:   19940596
L1D RQ FORWARD:          0
L1D WQ ACCESS:   69552603
L1D WQ TO_CACHE:   68974091
L1D WQ MERGED:     578512
L1D WQ FORWARD:      27657
L1I TOTAL     ACCESS:  126559948  HIT:  122321395  MISS:    4238553
L1I LOAD      ACCESS:  126559948  HIT:  122321395  MISS:    4238553
L1I RFO       ACCESS:          0  HIT:          0  MISS:          0
L1I PREFETCH  ACCESS:          0  HIT:          0  MISS:          0
L1I WRITEBACK ACCESS:          0  HIT:          0  MISS:          0
L1I PREFETCH  REQUESTED:          0  ISSUED:          0  USEFUL:          0  USELESS:          0
L1I TOTAL MSHR MERGED:    1834640
L1I LOAD MSHR MERGED:    1834640
L1I RFO MSHR MERGED:          0
L1I PREFETCH MSHR MERGED:          0
L1I WRITEBACK MSHR MERGED:          0
L1I TOTAL ACCESSES:  128394591 HITS:  122321395 MISSES:    6073196
L1I LOAD ACCESSES:  128394591 HITS:  122321395 MISSES:    6073196
L1I RFO ACCESSES:          0 HITS:          0 MISSES:          0
L1I PREFETCH ACCESSES:          0 HITS:          0 MISSES:          0
L1I WRITEBACK ACCESSES:          0 HITS:          0 MISSES:          0
L1I RQ ACCESS:  500000057
L1I RQ TO_CACHE:  128394591
L1I RQ MERGED:  371605466
L1I RQ FORWARD:          0
L1I WQ ACCESS:          0
L1I WQ TO_CACHE:          0
L1I WQ MERGED:          0
L1I WQ FORWARD:          0
L2C TOTAL     ACCESS:   14904836  HIT:   11158322  MISS:    3746514
L2C LOAD      ACCESS:    7418864  HIT:    5098715  MISS:    2320149
L2C RFO       ACCESS:     878714  HIT:     409908  MISS:     468806
L2C PREFETCH  ACCESS:    4568011  HIT:    3627710  MISS:     940301
L2C WRITEBACK ACCESS:    2039247  HIT:    2021989  MISS:      17258
L2C PREFETCH  REQUESTED:     842765  ISSUED:     842765  USEFUL:     203228  USELESS:     736779
L2C TOTAL MSHR MERGED:       7459
L2C LOAD MSHR MERGED:        911
L2C RFO MSHR MERGED:          0
L2C PREFETCH MSHR MERGED:       6548
L2C WRITEBACK MSHR MERGED:          0
L2C TOTAL ACCESSES:   14913230 HITS:   11158774 MISSES:    3754456
L2C LOAD ACCESSES:    7419071 HITS:    5098922 MISSES:    2320149
L2C RFO ACCESSES:     878814 HITS:     410008 MISSES:     468806
L2C PREFETCH ACCESSES:    4576098 HITS:    3627855 MISSES:     948243
L2C WRITEBACK ACCESSES:    2039247 HITS:    2021989 MISSES:      17258
L2C RQ ACCESS:    8297888
L2C RQ TO_CACHE:    8297581
L2C RQ MERGED:          0
L2C RQ FORWARD:          0
L2C WQ ACCESS:    2039247
L2C WQ TO_CACHE:    2039247
L2C WQ MERGED:          0
L2C WQ FORWARD:        452
LLC TOTAL     ACCESS:    4609873  HIT:    3963897  MISS:     645976
LLC LOAD      ACCESS:    2319225  HIT:    2069734  MISS:     249491
LLC RFO       ACCESS:     468796  HIT:     363472  MISS:     105324
LLC PREFETCH  ACCESS:     941551  HIT:     706410  MISS:     235141
LLC WRITEBACK ACCESS:     880301  HIT:     824281  MISS:      56020
LLC PREFETCH  REQUESTED:          0  ISSUED:          0  USEFUL:      44689  USELESS:     191319
LLC TOTAL MSHR MERGED:        120
LLC LOAD MSHR MERGED:         41
LLC RFO MSHR MERGED:          0
LLC PREFETCH MSHR MERGED:         79
LLC WRITEBACK MSHR MERGED:          0
LLC TOTAL ACCESSES:    4610028 HITS:    3963932 MISSES:     646096
LLC LOAD ACCESSES:    2319238 HITS:    2069747 MISSES:     249491
LLC RFO ACCESSES:     468806 HITS:     363482 MISSES:     105324
LLC PREFETCH ACCESSES:     941683 HITS:     706422 MISSES:     235261
LLC WRITEBACK ACCESSES:     880301 HITS:     824281 MISSES:      56020
LLC 0 RQ ACCESS:    2788044
LLC 0 RQ TO_CACHE:    2788021
LLC 0 RQ MERGED:          0
LLC 0 RQ FORWARD:          0
LLC WQ ACCESS:     880301
LLC WQ TO_CACHE:     880301
LLC WQ MERGED:          0
LLC WQ FORWARD:         35
Major fault: 0 Minor fault: 12862
CPU 0 L1D next line prefetcher final stats
CPU 0 L2C PC-based stride prefetcher final stats
All Misses: 763127
All Hits: 4663752
SD Algo Stats - Switches: 0 SRR-Repls: 292319 BRR-Repls: 0

DRAM Statistics
 CHANNEL 0
 RQ ROW_BUFFER_HIT:     130650  ROW_BUFFER_MISS:     457421
 DBUS_CONGESTED:     437609
 WQ ROW_BUFFER_HIT:      29143  ROW_BUFFER_MISS:     241940  FULL:          0

 AVG_CONGESTED_CYCLE: 13
LOADS RETIRED: 136549171
INSTR RETIRED: 500000000
