
*** ChampSim Multicore Out-of-Order Simulator ***

Warmup Instructions: 100000000
Simulation Instructions: 500000000
Number of CPUs: 1
LLC sets: 2048
LLC ways: 16
Clean RRIP Policies: 323022003230220 Dirty RRIP Policies: 2323021023230210 PSEL Width: 10 Track Set: 4294967295 PSEL Mask: 1 Demote Mask: 2000101320001013DS Algo: 0Window size: 0
Off-chip DRAM Size: 4096 MB Channels: 1 Width: 64-bit Data Rate: 1600 MT/s

CPU 0 runs /mnt/beegfs/iconst01/spec2017/Gcc.trace.gz
NOT SORTED
TRACE STRING: /mnt/beegfs/iconst01/spec2017/Gcc.trace.gz
SORTED
TRACE STRING: /mnt/beegfs/iconst01/spec2017/Gcc.trace.gz
INITIAL
TRACE STRING: /mnt/beegfs/iconst01/spec2017/Gcc.trace.gz

champsim_seed used: 269

CPU 0 L1D next line prefetcher
CPU 0 L2C IP-based stride prefetcher
Initialize DRRIP state
Assign rand_sets[0]: 454  LLC: 2048
rand_sets[0]: 454
Assign rand_sets[1]: 1662  LLC: 2048
rand_sets[1]: 1662
Assign rand_sets[2]: 1921  LLC: 2048
rand_sets[2]: 1921
Assign rand_sets[3]: 1131  LLC: 2048
rand_sets[3]: 1131
Assign rand_sets[4]: 331  LLC: 2048
rand_sets[4]: 331
Assign rand_sets[5]: 1531  LLC: 2048
rand_sets[5]: 1531
Assign rand_sets[6]: 482  LLC: 2048
rand_sets[6]: 482
Assign rand_sets[7]: 1275  LLC: 2048
rand_sets[7]: 1275
Assign rand_sets[8]: 1876  LLC: 2048
rand_sets[8]: 1876
Assign rand_sets[9]: 2038  LLC: 2048
rand_sets[9]: 2038
Assign rand_sets[10]: 701  LLC: 2048
rand_sets[10]: 701
Assign rand_sets[11]: 479  LLC: 2048
rand_sets[11]: 479
Assign rand_sets[12]: 892  LLC: 2048
rand_sets[12]: 892
Assign rand_sets[13]: 1820  LLC: 2048
rand_sets[13]: 1820
Assign rand_sets[14]: 1505  LLC: 2048
rand_sets[14]: 1505
Assign rand_sets[15]: 1159  LLC: 2048
rand_sets[15]: 1159
Assign rand_sets[16]: 513  LLC: 2048
rand_sets[16]: 513
Assign rand_sets[17]: 703  LLC: 2048
rand_sets[17]: 703
Assign rand_sets[18]: 561  LLC: 2048
rand_sets[18]: 561
Assign rand_sets[19]: 990  LLC: 2048
rand_sets[19]: 990
Assign rand_sets[20]: 342  LLC: 2048
rand_sets[20]: 342
Assign rand_sets[21]: 882  LLC: 2048
rand_sets[21]: 882
Assign rand_sets[22]: 15  LLC: 2048
rand_sets[22]: 15
Assign rand_sets[23]: 71  LLC: 2048
rand_sets[23]: 71
Assign rand_sets[24]: 1127  LLC: 2048
rand_sets[24]: 1127
Assign rand_sets[25]: 1382  LLC: 2048
rand_sets[25]: 1382
Assign rand_sets[26]: 647  LLC: 2048
rand_sets[26]: 647
Assign rand_sets[27]: 857  LLC: 2048
rand_sets[27]: 857
Assign rand_sets[28]: 1450  LLC: 2048
rand_sets[28]: 1450
Assign rand_sets[29]: 1160  LLC: 2048
rand_sets[29]: 1160
Assign rand_sets[30]: 1852  LLC: 2048
rand_sets[30]: 1852
Assign rand_sets[31]: 1881  LLC: 2048
rand_sets[31]: 1881
Assign rand_sets[32]: 1770  LLC: 2048
rand_sets[32]: 1770
Assign rand_sets[33]: 1622  LLC: 2048
rand_sets[33]: 1622
Assign rand_sets[34]: 275  LLC: 2048
rand_sets[34]: 275
Assign rand_sets[35]: 635  LLC: 2048
rand_sets[35]: 635
Assign rand_sets[36]: 466  LLC: 2048
rand_sets[36]: 466
Assign rand_sets[37]: 1413  LLC: 2048
rand_sets[37]: 1413
Assign rand_sets[38]: 417  LLC: 2048
rand_sets[38]: 417
Assign rand_sets[39]: 472  LLC: 2048
rand_sets[39]: 472
Assign rand_sets[40]: 1340  LLC: 2048
rand_sets[40]: 1340
Assign rand_sets[41]: 852  LLC: 2048
rand_sets[41]: 852
Assign rand_sets[42]: 1365  LLC: 2048
rand_sets[42]: 1365
Assign rand_sets[43]: 47  LLC: 2048
rand_sets[43]: 47
Assign rand_sets[44]: 823  LLC: 2048
rand_sets[44]: 823
Assign rand_sets[45]: 686  LLC: 2048
rand_sets[45]: 686
Assign rand_sets[46]: 1637  LLC: 2048
rand_sets[46]: 1637
Assign rand_sets[47]: 1115  LLC: 2048
rand_sets[47]: 1115
Assign rand_sets[48]: 986  LLC: 2048
rand_sets[48]: 986
Assign rand_sets[49]: 258  LLC: 2048
rand_sets[49]: 258
Assign rand_sets[50]: 633  LLC: 2048
rand_sets[50]: 633
Assign rand_sets[51]: 920  LLC: 2048
rand_sets[51]: 920
Assign rand_sets[52]: 204  LLC: 2048
rand_sets[52]: 204
Assign rand_sets[53]: 227  LLC: 2048
rand_sets[53]: 227
Assign rand_sets[54]: 1818  LLC: 2048
rand_sets[54]: 1818
Assign rand_sets[55]: 886  LLC: 2048
rand_sets[55]: 886
Assign rand_sets[56]: 1422  LLC: 2048
rand_sets[56]: 1422
Assign rand_sets[57]: 607  LLC: 2048
rand_sets[57]: 607
Assign rand_sets[58]: 217  LLC: 2048
rand_sets[58]: 217
Assign rand_sets[59]: 1945  LLC: 2048
rand_sets[59]: 1945
Assign rand_sets[60]: 143  LLC: 2048
rand_sets[60]: 143
Assign rand_sets[61]: 1311  LLC: 2048
rand_sets[61]: 1311
Assign rand_sets[62]: 319  LLC: 2048
rand_sets[62]: 319
Assign rand_sets[63]: 1846  LLC: 2048
rand_sets[63]: 1846
 CLEAN-RRIP-POLICY-1: 0-3-2-3-0-2-2-0- CLEAN-RRIP-POLICY-2: 0-3-2-3-0-2-2-0-
 DIRTY-RRIP-POLICY-1: 2-3-2-3-0-2-1-0- DIRTY-RRIP-POLICY-2: 2-3-2-3-0-2-1-0-
 PSEL width: 10
Heartbeat CPU 0 instructions: 10000001 cycles: 7316009 heartbeat IPC: 1.36687 cumulative IPC: 1.36687 (Simulation time: 0 hr 0 min 18 sec) 
Heartbeat CPU 0 instructions: 20000000 cycles: 14308027 heartbeat IPC: 1.4302 cumulative IPC: 1.39782 (Simulation time: 0 hr 0 min 36 sec) 
Heartbeat CPU 0 instructions: 30000001 cycles: 21021387 heartbeat IPC: 1.48957 cumulative IPC: 1.42712 (Simulation time: 0 hr 0 min 56 sec) 
Heartbeat CPU 0 instructions: 40000000 cycles: 27482339 heartbeat IPC: 1.54776 cumulative IPC: 1.45548 (Simulation time: 0 hr 1 min 15 sec) 
Heartbeat CPU 0 instructions: 50000001 cycles: 33584230 heartbeat IPC: 1.63884 cumulative IPC: 1.48879 (Simulation time: 0 hr 1 min 34 sec) 
Heartbeat CPU 0 instructions: 60000000 cycles: 40065490 heartbeat IPC: 1.54291 cumulative IPC: 1.49755 (Simulation time: 0 hr 1 min 54 sec) 
Heartbeat CPU 0 instructions: 70000000 cycles: 47104855 heartbeat IPC: 1.42058 cumulative IPC: 1.48605 (Simulation time: 0 hr 2 min 12 sec) 
Heartbeat CPU 0 instructions: 80000000 cycles: 54194940 heartbeat IPC: 1.41042 cumulative IPC: 1.47615 (Simulation time: 0 hr 2 min 30 sec) 
Heartbeat CPU 0 instructions: 90000003 cycles: 61199924 heartbeat IPC: 1.42756 cumulative IPC: 1.47059 (Simulation time: 0 hr 2 min 49 sec) 
Heartbeat CPU 0 instructions: 100000000 cycles: 68367744 heartbeat IPC: 1.39512 cumulative IPC: 1.46268 (Simulation time: 0 hr 3 min 6 sec) 

Warmup complete CPU 0 instructions: 100000004 cycles: 68367745 (Simulation time: 0 hr 3 min 6 sec) 

Heartbeat CPU 0 instructions: 110000003 cycles: 96161251 heartbeat IPC: 0.359796 cumulative IPC: 0.359796 (Simulation time: 0 hr 3 min 42 sec) 
Heartbeat CPU 0 instructions: 120000000 cycles: 123691714 heartbeat IPC: 0.363234 cumulative IPC: 0.361507 (Simulation time: 0 hr 4 min 18 sec) 
Heartbeat CPU 0 instructions: 130000000 cycles: 148752495 heartbeat IPC: 0.39903 cumulative IPC: 0.373205 (Simulation time: 0 hr 4 min 54 sec) 
Heartbeat CPU 0 instructions: 140000000 cycles: 178460793 heartbeat IPC: 0.336606 cumulative IPC: 0.363329 (Simulation time: 0 hr 5 min 29 sec) 
Heartbeat CPU 0 instructions: 150000000 cycles: 208472643 heartbeat IPC: 0.333202 cumulative IPC: 0.356875 (Simulation time: 0 hr 6 min 5 sec) 
Heartbeat CPU 0 instructions: 160000000 cycles: 235926146 heartbeat IPC: 0.364252 cumulative IPC: 0.358084 (Simulation time: 0 hr 6 min 39 sec) 
Heartbeat CPU 0 instructions: 170000001 cycles: 264078566 heartbeat IPC: 0.355209 cumulative IPC: 0.357671 (Simulation time: 0 hr 7 min 16 sec) 
Heartbeat CPU 0 instructions: 180000000 cycles: 292642699 heartbeat IPC: 0.350089 cumulative IPC: 0.356705 (Simulation time: 0 hr 7 min 53 sec) 
Heartbeat CPU 0 instructions: 190000002 cycles: 320796187 heartbeat IPC: 0.355196 cumulative IPC: 0.356537 (Simulation time: 0 hr 8 min 28 sec) 
Heartbeat CPU 0 instructions: 200000000 cycles: 349214343 heartbeat IPC: 0.351888 cumulative IPC: 0.356066 (Simulation time: 0 hr 9 min 5 sec) 
Heartbeat CPU 0 instructions: 210000002 cycles: 377135475 heartbeat IPC: 0.358152 cumulative IPC: 0.356255 (Simulation time: 0 hr 9 min 41 sec) 
Heartbeat CPU 0 instructions: 220000000 cycles: 406425535 heartbeat IPC: 0.341413 cumulative IPC: 0.354969 (Simulation time: 0 hr 10 min 15 sec) 
Heartbeat CPU 0 instructions: 230000000 cycles: 434083270 heartbeat IPC: 0.361563 cumulative IPC: 0.355468 (Simulation time: 0 hr 10 min 50 sec) 
Heartbeat CPU 0 instructions: 240000000 cycles: 460057672 heartbeat IPC: 0.384994 cumulative IPC: 0.357426 (Simulation time: 0 hr 11 min 23 sec) 
Heartbeat CPU 0 instructions: 250000000 cycles: 490278616 heartbeat IPC: 0.330896 cumulative IPC: 0.355525 (Simulation time: 0 hr 12 min 1 sec) 
Heartbeat CPU 0 instructions: 260000000 cycles: 517456471 heartbeat IPC: 0.367947 cumulative IPC: 0.356277 (Simulation time: 0 hr 12 min 36 sec) 
Heartbeat CPU 0 instructions: 270000003 cycles: 546060266 heartbeat IPC: 0.349604 cumulative IPC: 0.355877 (Simulation time: 0 hr 13 min 13 sec) 
Heartbeat CPU 0 instructions: 280000000 cycles: 574384485 heartbeat IPC: 0.353055 cumulative IPC: 0.355719 (Simulation time: 0 hr 13 min 50 sec) 
Heartbeat CPU 0 instructions: 290000000 cycles: 603287398 heartbeat IPC: 0.345986 cumulative IPC: 0.355194 (Simulation time: 0 hr 14 min 27 sec) 
Heartbeat CPU 0 instructions: 300000000 cycles: 633383555 heartbeat IPC: 0.332268 cumulative IPC: 0.353972 (Simulation time: 0 hr 15 min 2 sec) 
Heartbeat CPU 0 instructions: 310000001 cycles: 662880734 heartbeat IPC: 0.339016 cumulative IPC: 0.35323 (Simulation time: 0 hr 15 min 38 sec) 
Heartbeat CPU 0 instructions: 320000000 cycles: 691260563 heartbeat IPC: 0.352363 cumulative IPC: 0.353191 (Simulation time: 0 hr 16 min 13 sec) 
Heartbeat CPU 0 instructions: 330000000 cycles: 719991001 heartbeat IPC: 0.348063 cumulative IPC: 0.352965 (Simulation time: 0 hr 16 min 48 sec) 
Heartbeat CPU 0 instructions: 340000000 cycles: 749382629 heartbeat IPC: 0.340233 cumulative IPC: 0.352415 (Simulation time: 0 hr 17 min 24 sec) 
Heartbeat CPU 0 instructions: 350000003 cycles: 776462521 heartbeat IPC: 0.369278 cumulative IPC: 0.35306 (Simulation time: 0 hr 17 min 59 sec) 
Heartbeat CPU 0 instructions: 360000000 cycles: 804767645 heartbeat IPC: 0.353293 cumulative IPC: 0.353069 (Simulation time: 0 hr 18 min 33 sec) 
Heartbeat CPU 0 instructions: 370000000 cycles: 833049801 heartbeat IPC: 0.35358 cumulative IPC: 0.353088 (Simulation time: 0 hr 19 min 7 sec) 
Heartbeat CPU 0 instructions: 380000000 cycles: 861694660 heartbeat IPC: 0.349103 cumulative IPC: 0.352944 (Simulation time: 0 hr 19 min 41 sec) 
Heartbeat CPU 0 instructions: 390000001 cycles: 889375195 heartbeat IPC: 0.361265 cumulative IPC: 0.353225 (Simulation time: 0 hr 20 min 15 sec) 
Heartbeat CPU 0 instructions: 400000000 cycles: 918090481 heartbeat IPC: 0.348247 cumulative IPC: 0.353056 (Simulation time: 0 hr 20 min 49 sec) 
Heartbeat CPU 0 instructions: 410000001 cycles: 945424034 heartbeat IPC: 0.365851 cumulative IPC: 0.353455 (Simulation time: 0 hr 21 min 23 sec) 
Heartbeat CPU 0 instructions: 420000000 cycles: 972761184 heartbeat IPC: 0.365803 cumulative IPC: 0.353828 (Simulation time: 0 hr 21 min 56 sec) 
Heartbeat CPU 0 instructions: 430000002 cycles: 1000538083 heartbeat IPC: 0.360011 cumulative IPC: 0.354013 (Simulation time: 0 hr 22 min 30 sec) 
Heartbeat CPU 0 instructions: 440000000 cycles: 1030272353 heartbeat IPC: 0.336312 cumulative IPC: 0.353465 (Simulation time: 0 hr 23 min 5 sec) 
Heartbeat CPU 0 instructions: 450000002 cycles: 1059621927 heartbeat IPC: 0.340721 cumulative IPC: 0.353088 (Simulation time: 0 hr 23 min 39 sec) 
Heartbeat CPU 0 instructions: 460000000 cycles: 1087385943 heartbeat IPC: 0.360178 cumulative IPC: 0.353281 (Simulation time: 0 hr 24 min 13 sec) 
Heartbeat CPU 0 instructions: 470000000 cycles: 1115059580 heartbeat IPC: 0.361355 cumulative IPC: 0.353495 (Simulation time: 0 hr 24 min 47 sec) 
Heartbeat CPU 0 instructions: 480000000 cycles: 1142985941 heartbeat IPC: 0.358085 cumulative IPC: 0.353614 (Simulation time: 0 hr 25 min 21 sec) 
Heartbeat CPU 0 instructions: 490000000 cycles: 1170610549 heartbeat IPC: 0.361996 cumulative IPC: 0.353824 (Simulation time: 0 hr 25 min 55 sec) 
Heartbeat CPU 0 instructions: 500000000 cycles: 1198976117 heartbeat IPC: 0.35254 cumulative IPC: 0.353792 (Simulation time: 0 hr 26 min 29 sec) 
Heartbeat CPU 0 instructions: 510000000 cycles: 1233955886 heartbeat IPC: 0.28588 cumulative IPC: 0.351754 (Simulation time: 0 hr 27 min 8 sec) 
Heartbeat CPU 0 instructions: 520000000 cycles: 1262090985 heartbeat IPC: 0.355428 cumulative IPC: 0.35184 (Simulation time: 0 hr 27 min 43 sec) 
Heartbeat CPU 0 instructions: 530000001 cycles: 1291567635 heartbeat IPC: 0.339252 cumulative IPC: 0.351537 (Simulation time: 0 hr 28 min 19 sec) 
Heartbeat CPU 0 instructions: 540000000 cycles: 1319717807 heartbeat IPC: 0.355238 cumulative IPC: 0.35162 (Simulation time: 0 hr 28 min 54 sec) 
Heartbeat CPU 0 instructions: 550000001 cycles: 1348981818 heartbeat IPC: 0.341717 cumulative IPC: 0.351394 (Simulation time: 0 hr 29 min 31 sec) 
Heartbeat CPU 0 instructions: 560000000 cycles: 1374424492 heartbeat IPC: 0.39304 cumulative IPC: 0.352205 (Simulation time: 0 hr 30 min 6 sec) 
Heartbeat CPU 0 instructions: 570000000 cycles: 1404142633 heartbeat IPC: 0.336495 cumulative IPC: 0.351856 (Simulation time: 0 hr 30 min 42 sec) 
Heartbeat CPU 0 instructions: 580000000 cycles: 1432209849 heartbeat IPC: 0.356288 cumulative IPC: 0.351947 (Simulation time: 0 hr 31 min 18 sec) 
Heartbeat CPU 0 instructions: 590000001 cycles: 1457003184 heartbeat IPC: 0.403334 cumulative IPC: 0.352864 (Simulation time: 0 hr 31 min 51 sec) 
Heartbeat CPU 0 instructions: 600000000 cycles: 1483135857 heartbeat IPC: 0.382663 cumulative IPC: 0.353415 (Simulation time: 0 hr 32 min 25 sec) 
Finished CPU 0 instructions: 500000000 cycles: 1414768134 cumulative IPC: 0.353415 (Simulation time: 0 hr 32 min 25 sec) 

CPU 0 Branch Prediction Accuracy: 86.4311% MPKI: 26.2662
Number of Branches: 96788573 Number of Mispredictions: 13133102
Number of LOAD Instructions: 164682285
Number of LOAD Instructions (ROI): 164682285
Number of STORE Instructions: 78194750
Number of STORE Instructions (ROI): 78194750
Total Destination Memory Operands: 83268534
Total Destination Memory Operands (ROI): 83268534
Total Source Memory Operands: 164712438
Total Source Memory Operands (ROI): 164712438
Number of DEPENDED LOADS: 7057693
Number of DEPENDED LOADS (ROI): 7057693
Number of SQ_ADDED: 83268522
Number of SQ_ADDED (ROI): 83268522
Number of LQ_ADDED: 236780581
Number of LQ_ADDED (ROI): 236780581
Number of Instructions read from trace: 600000066

ChampSim completed all CPUs

Region of Interest Statistics

CPU 0 cumulative IPC: 0.353415 instructions: 500000000 cycles: 1414768134
ITLB TOTAL     ACCESS:  100520555  HIT:  100316109  MISS:     204446
ITLB LOAD      ACCESS:  100520555  HIT:  100316109  MISS:     204446
ITLB RFO       ACCESS:          0  HIT:          0  MISS:          0
ITLB PREFETCH  ACCESS:          0  HIT:          0  MISS:          0
ITLB WRITEBACK ACCESS:          0  HIT:          0  MISS:          0
ITLB PREFETCH  REQUESTED:          0  ISSUED:          0  USEFUL:          0  USELESS:          0
ITLB TOTAL MSHR MERGED:     172424
ITLB LOAD MSHR MERGED:     172424
ITLB RFO MSHR MERGED:          0
ITLB PREFETCH MSHR MERGED:          0
ITLB WRITEBACK MSHR MERGED:          0
ITLB TOTAL ACCESSES:  100692979 HITS:  100316109 MISSES:     376870
ITLB LOAD ACCESSES:  100692979 HITS:  100316109 MISSES:     376870
ITLB RFO ACCESSES:          0 HITS:          0 MISSES:          0
ITLB PREFETCH ACCESSES:          0 HITS:          0 MISSES:          0
ITLB WRITEBACK ACCESSES:          0 HITS:          0 MISSES:          0
ITLB RQ ACCESS:  500000057
ITLB RQ TO_CACHE:  100692979
ITLB RQ MERGED:  399307078
ITLB RQ FORWARD:          0
ITLB WQ ACCESS:          0
ITLB WQ TO_CACHE:          0
ITLB WQ MERGED:          0
ITLB WQ FORWARD:          0
DTLB TOTAL     ACCESS:  165339003  HIT:  164704652  MISS:     634351
DTLB LOAD      ACCESS:  106294248  HIT:  105724274  MISS:     569974
DTLB RFO       ACCESS:   59044755  HIT:   58980378  MISS:      64377
DTLB PREFETCH  ACCESS:          0  HIT:          0  MISS:          0
DTLB WRITEBACK ACCESS:          0  HIT:          0  MISS:          0
DTLB PREFETCH  REQUESTED:          0  ISSUED:          0  USEFUL:          0  USELESS:          0
DTLB TOTAL MSHR MERGED:      99919
DTLB LOAD MSHR MERGED:      59421
DTLB RFO MSHR MERGED:      40498
DTLB PREFETCH MSHR MERGED:          0
DTLB WRITEBACK MSHR MERGED:          0
DTLB TOTAL ACCESSES:  165438922 HITS:  164704652 MISSES:     734270
DTLB LOAD ACCESSES:  106353669 HITS:  105724274 MISSES:     629395
DTLB RFO ACCESSES:   59085253 HITS:   58980378 MISSES:     104875
DTLB PREFETCH ACCESSES:          0 HITS:          0 MISSES:          0
DTLB WRITEBACK ACCESSES:          0 HITS:          0 MISSES:          0
DTLB RQ ACCESS:  200313192
DTLB RQ TO_CACHE:  165438922
DTLB RQ MERGED:   34874270
DTLB RQ FORWARD:          0
DTLB WQ ACCESS:          0
DTLB WQ TO_CACHE:          0
DTLB WQ MERGED:          0
DTLB WQ FORWARD:          0
L1D TOTAL     ACCESS:  281827002  HIT:  273917678  MISS:    7909324
L1D LOAD      ACCESS:  110418656  HIT:  107139907  MISS:    3278749
L1D RFO       ACCESS:   67112834  HIT:   66221942  MISS:     890892
L1D PREFETCH  ACCESS:  104295512  HIT:  100555829  MISS:    3739683
L1D WRITEBACK ACCESS:          0  HIT:          0  MISS:          0
L1D PREFETCH  REQUESTED:  110819867  ISSUED:  109120581  USEFUL:    1660425  USELESS:    2079222
L1D TOTAL MSHR MERGED:    2883721
L1D LOAD MSHR MERGED:     499506
L1D RFO MSHR MERGED:    1873423
L1D PREFETCH MSHR MERGED:     510792
L1D WRITEBACK MSHR MERGED:          0
L1D TOTAL ACCESSES:  284738237 HITS:  273945192 MISSES:   10793045
L1D LOAD ACCESSES:  110821364 HITS:  107141404 MISSES:    3679960
L1D RFO ACCESSES:   68974148 HITS:   66221942 MISSES:    2752206
L1D PREFETCH ACCESSES:  104942725 HITS:  100581846 MISSES:    4360879
L1D WRITEBACK ACCESSES:          0 HITS:          0 MISSES:          0
L1D RQ ACCESS:  130760589
L1D RQ TO_CACHE:  110819870
L1D RQ MERGED:   19939222
L1D RQ FORWARD:          0
L1D WQ ACCESS:   69552603
L1D WQ TO_CACHE:   68974149
L1D WQ MERGED:     578454
L1D WQ FORWARD:      27514
L1I TOTAL     ACCESS:  126567519  HIT:  122328966  MISS:    4238553
L1I LOAD      ACCESS:  126567519  HIT:  122328966  MISS:    4238553
L1I RFO       ACCESS:          0  HIT:          0  MISS:          0
L1I PREFETCH  ACCESS:          0  HIT:          0  MISS:          0
L1I WRITEBACK ACCESS:          0  HIT:          0  MISS:          0
L1I PREFETCH  REQUESTED:          0  ISSUED:          0  USEFUL:          0  USELESS:          0
L1I TOTAL MSHR MERGED:    1834790
L1I LOAD MSHR MERGED:    1834790
L1I RFO MSHR MERGED:          0
L1I PREFETCH MSHR MERGED:          0
L1I WRITEBACK MSHR MERGED:          0
L1I TOTAL ACCESSES:  128402312 HITS:  122328966 MISSES:    6073346
L1I LOAD ACCESSES:  128402312 HITS:  122328966 MISSES:    6073346
L1I RFO ACCESSES:          0 HITS:          0 MISSES:          0
L1I PREFETCH ACCESSES:          0 HITS:          0 MISSES:          0
L1I WRITEBACK ACCESSES:          0 HITS:          0 MISSES:          0
L1I RQ ACCESS:  500000057
L1I RQ TO_CACHE:  128402312
L1I RQ MERGED:  371597745
L1I RQ FORWARD:          0
L1I WQ ACCESS:          0
L1I WQ TO_CACHE:          0
L1I WQ MERGED:          0
L1I WQ FORWARD:          0
L2C TOTAL     ACCESS:   14904871  HIT:   11158339  MISS:    3746532
L2C LOAD      ACCESS:    7418801  HIT:    5098733  MISS:    2320068
L2C RFO       ACCESS:     878687  HIT:     409892  MISS:     468795
L2C PREFETCH  ACCESS:    4568148  HIT:    3627739  MISS:     940409
L2C WRITEBACK ACCESS:    2039235  HIT:    2021975  MISS:      17260
L2C PREFETCH  REQUESTED:     842570  ISSUED:     842570  USEFUL:     203306  USELESS:     736809
L2C TOTAL MSHR MERGED:       7340
L2C LOAD MSHR MERGED:        865
L2C RFO MSHR MERGED:          1
L2C PREFETCH MSHR MERGED:       6474
L2C WRITEBACK MSHR MERGED:          0
L2C TOTAL ACCESSES:   14913043 HITS:   11158786 MISSES:    3754257
L2C LOAD ACCESSES:    7419007 HITS:    5098939 MISSES:    2320068
L2C RFO ACCESSES:     878783 HITS:     409988 MISSES:     468795
L2C PREFETCH ACCESSES:    4576018 HITS:    3627884 MISSES:     948134
L2C WRITEBACK ACCESSES:    2039235 HITS:    2021975 MISSES:      17260
L2C RQ ACCESS:    8297793
L2C RQ TO_CACHE:    8297491
L2C RQ MERGED:          0
L2C RQ FORWARD:          0
L2C WQ ACCESS:    2039235
L2C WQ TO_CACHE:    2039235
L2C WQ MERGED:          0
L2C WQ FORWARD:        447
LLC TOTAL     ACCESS:    4609834  HIT:    3918572  MISS:     691262
LLC LOAD      ACCESS:    2319187  HIT:    2039977  MISS:     279210
LLC RFO       ACCESS:     468784  HIT:     393549  MISS:      75235
LLC PREFETCH  ACCESS:     941560  HIT:     642797  MISS:     298763
LLC WRITEBACK ACCESS:     880303  HIT:     842249  MISS:      38054
LLC PREFETCH  REQUESTED:          0  ISSUED:          0  USEFUL:      17304  USELESS:     281352
LLC TOTAL MSHR MERGED:         84
LLC LOAD MSHR MERGED:         33
LLC RFO MSHR MERGED:          0
LLC PREFETCH MSHR MERGED:         51
LLC WRITEBACK MSHR MERGED:          0
LLC TOTAL ACCESSES:    4609955 HITS:    3918609 MISSES:     691346
LLC LOAD ACCESSES:    2319203 HITS:    2039993 MISSES:     279210
LLC RFO ACCESSES:     468794 HITS:     393559 MISSES:      75235
LLC PREFETCH ACCESSES:     941655 HITS:     642808 MISSES:     298847
LLC WRITEBACK ACCESSES:     880303 HITS:     842249 MISSES:      38054
LLC 0 RQ ACCESS:    2787997
LLC 0 RQ TO_CACHE:    2787971
LLC 0 RQ MERGED:          0
LLC 0 RQ FORWARD:          0
LLC WQ ACCESS:     880303
LLC WQ TO_CACHE:     880303
LLC WQ MERGED:          0
LLC WQ FORWARD:         37
Major fault: 0 Minor fault: 12862
CPU 0 L1D next line prefetcher final stats
CPU 0 L2C PC-based stride prefetcher final stats
All Misses: 821118
All Hits: 4605721
SD Algo Stats - Switches: 0 SRR-Repls: 328131 BRR-Repls: 0

DRAM Statistics
 CHANNEL 0
 RQ ROW_BUFFER_HIT:     134723  ROW_BUFFER_MISS:     516587
 DBUS_CONGESTED:     363620
 WQ ROW_BUFFER_HIT:      14658  ROW_BUFFER_MISS:     184177  FULL:          0

 AVG_CONGESTED_CYCLE: 13
LOADS RETIRED: 136549171
INSTR RETIRED: 500000000
