
*** ChampSim Multicore Out-of-Order Simulator ***

Warmup Instructions: 100000000
Simulation Instructions: 500000000
Number of CPUs: 1
LLC sets: 2048
LLC ways: 16
Clean RRIP Policies: 323230103232301 Dirty RRIP Policies: 313231103132311 PSEL Width: 10 Track Set: 4294967295 PSEL Mask: 1 Demote Mask: 21142200211422DS Algo: 0Window size: 0
Off-chip DRAM Size: 4096 MB Channels: 1 Width: 64-bit Data Rate: 1600 MT/s

CPU 0 runs /mnt/beegfs/iconst01/spec2017/Xalancbmk.trace.gz
NOT SORTED
TRACE STRING: /mnt/beegfs/iconst01/spec2017/Xalancbmk.trace.gz
SORTED
TRACE STRING: /mnt/beegfs/iconst01/spec2017/Xalancbmk.trace.gz
INITIAL
TRACE STRING: /mnt/beegfs/iconst01/spec2017/Xalancbmk.trace.gz

champsim_seed used: 913

CPU 0 L1D next line prefetcher
CPU 0 L2C IP-based stride prefetcher
Initialize DRRIP state
Assign rand_sets[0]: 454  LLC: 2048
rand_sets[0]: 454
Assign rand_sets[1]: 1662  LLC: 2048
rand_sets[1]: 1662
Assign rand_sets[2]: 1921  LLC: 2048
rand_sets[2]: 1921
Assign rand_sets[3]: 1131  LLC: 2048
rand_sets[3]: 1131
Assign rand_sets[4]: 331  LLC: 2048
rand_sets[4]: 331
Assign rand_sets[5]: 1531  LLC: 2048
rand_sets[5]: 1531
Assign rand_sets[6]: 482  LLC: 2048
rand_sets[6]: 482
Assign rand_sets[7]: 1275  LLC: 2048
rand_sets[7]: 1275
Assign rand_sets[8]: 1876  LLC: 2048
rand_sets[8]: 1876
Assign rand_sets[9]: 2038  LLC: 2048
rand_sets[9]: 2038
Assign rand_sets[10]: 701  LLC: 2048
rand_sets[10]: 701
Assign rand_sets[11]: 479  LLC: 2048
rand_sets[11]: 479
Assign rand_sets[12]: 892  LLC: 2048
rand_sets[12]: 892
Assign rand_sets[13]: 1820  LLC: 2048
rand_sets[13]: 1820
Assign rand_sets[14]: 1505  LLC: 2048
rand_sets[14]: 1505
Assign rand_sets[15]: 1159  LLC: 2048
rand_sets[15]: 1159
Assign rand_sets[16]: 513  LLC: 2048
rand_sets[16]: 513
Assign rand_sets[17]: 703  LLC: 2048
rand_sets[17]: 703
Assign rand_sets[18]: 561  LLC: 2048
rand_sets[18]: 561
Assign rand_sets[19]: 990  LLC: 2048
rand_sets[19]: 990
Assign rand_sets[20]: 342  LLC: 2048
rand_sets[20]: 342
Assign rand_sets[21]: 882  LLC: 2048
rand_sets[21]: 882
Assign rand_sets[22]: 15  LLC: 2048
rand_sets[22]: 15
Assign rand_sets[23]: 71  LLC: 2048
rand_sets[23]: 71
Assign rand_sets[24]: 1127  LLC: 2048
rand_sets[24]: 1127
Assign rand_sets[25]: 1382  LLC: 2048
rand_sets[25]: 1382
Assign rand_sets[26]: 647  LLC: 2048
rand_sets[26]: 647
Assign rand_sets[27]: 857  LLC: 2048
rand_sets[27]: 857
Assign rand_sets[28]: 1450  LLC: 2048
rand_sets[28]: 1450
Assign rand_sets[29]: 1160  LLC: 2048
rand_sets[29]: 1160
Assign rand_sets[30]: 1852  LLC: 2048
rand_sets[30]: 1852
Assign rand_sets[31]: 1881  LLC: 2048
rand_sets[31]: 1881
Assign rand_sets[32]: 1770  LLC: 2048
rand_sets[32]: 1770
Assign rand_sets[33]: 1622  LLC: 2048
rand_sets[33]: 1622
Assign rand_sets[34]: 275  LLC: 2048
rand_sets[34]: 275
Assign rand_sets[35]: 635  LLC: 2048
rand_sets[35]: 635
Assign rand_sets[36]: 466  LLC: 2048
rand_sets[36]: 466
Assign rand_sets[37]: 1413  LLC: 2048
rand_sets[37]: 1413
Assign rand_sets[38]: 417  LLC: 2048
rand_sets[38]: 417
Assign rand_sets[39]: 472  LLC: 2048
rand_sets[39]: 472
Assign rand_sets[40]: 1340  LLC: 2048
rand_sets[40]: 1340
Assign rand_sets[41]: 852  LLC: 2048
rand_sets[41]: 852
Assign rand_sets[42]: 1365  LLC: 2048
rand_sets[42]: 1365
Assign rand_sets[43]: 47  LLC: 2048
rand_sets[43]: 47
Assign rand_sets[44]: 823  LLC: 2048
rand_sets[44]: 823
Assign rand_sets[45]: 686  LLC: 2048
rand_sets[45]: 686
Assign rand_sets[46]: 1637  LLC: 2048
rand_sets[46]: 1637
Assign rand_sets[47]: 1115  LLC: 2048
rand_sets[47]: 1115
Assign rand_sets[48]: 986  LLC: 2048
rand_sets[48]: 986
Assign rand_sets[49]: 258  LLC: 2048
rand_sets[49]: 258
Assign rand_sets[50]: 633  LLC: 2048
rand_sets[50]: 633
Assign rand_sets[51]: 920  LLC: 2048
rand_sets[51]: 920
Assign rand_sets[52]: 204  LLC: 2048
rand_sets[52]: 204
Assign rand_sets[53]: 227  LLC: 2048
rand_sets[53]: 227
Assign rand_sets[54]: 1818  LLC: 2048
rand_sets[54]: 1818
Assign rand_sets[55]: 886  LLC: 2048
rand_sets[55]: 886
Assign rand_sets[56]: 1422  LLC: 2048
rand_sets[56]: 1422
Assign rand_sets[57]: 607  LLC: 2048
rand_sets[57]: 607
Assign rand_sets[58]: 217  LLC: 2048
rand_sets[58]: 217
Assign rand_sets[59]: 1945  LLC: 2048
rand_sets[59]: 1945
Assign rand_sets[60]: 143  LLC: 2048
rand_sets[60]: 143
Assign rand_sets[61]: 1311  LLC: 2048
rand_sets[61]: 1311
Assign rand_sets[62]: 319  LLC: 2048
rand_sets[62]: 319
Assign rand_sets[63]: 1846  LLC: 2048
rand_sets[63]: 1846
 CLEAN-RRIP-POLICY-1: 0-3-2-3-2-3-0-1- CLEAN-RRIP-POLICY-2: 0-3-2-3-2-3-0-1-
 DIRTY-RRIP-POLICY-1: 0-3-1-3-2-3-1-1- DIRTY-RRIP-POLICY-2: 0-3-1-3-2-3-1-1-
 PSEL width: 10
Heartbeat CPU 0 instructions: 10000003 cycles: 4586921 heartbeat IPC: 2.18011 cumulative IPC: 2.18011 (Simulation time: 0 hr 0 min 15 sec) 
Heartbeat CPU 0 instructions: 20000000 cycles: 8982046 heartbeat IPC: 2.27525 cumulative IPC: 2.22666 (Simulation time: 0 hr 0 min 29 sec) 
Heartbeat CPU 0 instructions: 30000000 cycles: 13391515 heartbeat IPC: 2.26785 cumulative IPC: 2.24022 (Simulation time: 0 hr 0 min 43 sec) 
Heartbeat CPU 0 instructions: 40000000 cycles: 18014952 heartbeat IPC: 2.16289 cumulative IPC: 2.22038 (Simulation time: 0 hr 0 min 58 sec) 
Heartbeat CPU 0 instructions: 50000002 cycles: 22430465 heartbeat IPC: 2.26474 cumulative IPC: 2.22911 (Simulation time: 0 hr 1 min 12 sec) 
Heartbeat CPU 0 instructions: 60000000 cycles: 27084972 heartbeat IPC: 2.14845 cumulative IPC: 2.21525 (Simulation time: 0 hr 1 min 28 sec) 
Heartbeat CPU 0 instructions: 70000003 cycles: 31488801 heartbeat IPC: 2.27075 cumulative IPC: 2.22301 (Simulation time: 0 hr 1 min 42 sec) 
Heartbeat CPU 0 instructions: 80000000 cycles: 35910123 heartbeat IPC: 2.26177 cumulative IPC: 2.22778 (Simulation time: 0 hr 1 min 56 sec) 
Heartbeat CPU 0 instructions: 90000002 cycles: 40363460 heartbeat IPC: 2.24551 cumulative IPC: 2.22974 (Simulation time: 0 hr 2 min 11 sec) 
Heartbeat CPU 0 instructions: 100000000 cycles: 44834123 heartbeat IPC: 2.2368 cumulative IPC: 2.23044 (Simulation time: 0 hr 2 min 25 sec) 

Warmup complete CPU 0 instructions: 100000003 cycles: 44834124 (Simulation time: 0 hr 2 min 25 sec) 

Heartbeat CPU 0 instructions: 110000000 cycles: 71986462 heartbeat IPC: 0.368292 cumulative IPC: 0.368292 (Simulation time: 0 hr 2 min 56 sec) 
Heartbeat CPU 0 instructions: 120000000 cycles: 100582429 heartbeat IPC: 0.3497 cumulative IPC: 0.358755 (Simulation time: 0 hr 3 min 29 sec) 
Heartbeat CPU 0 instructions: 130000000 cycles: 123855845 heartbeat IPC: 0.429675 cumulative IPC: 0.379642 (Simulation time: 0 hr 3 min 58 sec) 
Heartbeat CPU 0 instructions: 140000000 cycles: 146349470 heartbeat IPC: 0.44457 cumulative IPC: 0.394029 (Simulation time: 0 hr 4 min 26 sec) 
Heartbeat CPU 0 instructions: 150000000 cycles: 170754107 heartbeat IPC: 0.409758 cumulative IPC: 0.397078 (Simulation time: 0 hr 4 min 55 sec) 
Heartbeat CPU 0 instructions: 160000000 cycles: 195649765 heartbeat IPC: 0.401676 cumulative IPC: 0.397837 (Simulation time: 0 hr 5 min 25 sec) 
Heartbeat CPU 0 instructions: 170000002 cycles: 217080021 heartbeat IPC: 0.46663 cumulative IPC: 0.406396 (Simulation time: 0 hr 5 min 52 sec) 
Heartbeat CPU 0 instructions: 180000000 cycles: 239566995 heartbeat IPC: 0.444702 cumulative IPC: 0.410819 (Simulation time: 0 hr 6 min 21 sec) 
Heartbeat CPU 0 instructions: 190000000 cycles: 258536688 heartbeat IPC: 0.527157 cumulative IPC: 0.421146 (Simulation time: 0 hr 6 min 46 sec) 
Heartbeat CPU 0 instructions: 200000000 cycles: 279480227 heartbeat IPC: 0.477474 cumulative IPC: 0.426174 (Simulation time: 0 hr 7 min 13 sec) 
Heartbeat CPU 0 instructions: 210000001 cycles: 306193448 heartbeat IPC: 0.374346 cumulative IPC: 0.420877 (Simulation time: 0 hr 7 min 44 sec) 
Heartbeat CPU 0 instructions: 220000000 cycles: 332189308 heartbeat IPC: 0.384677 cumulative IPC: 0.417602 (Simulation time: 0 hr 8 min 15 sec) 
Heartbeat CPU 0 instructions: 230000000 cycles: 354660185 heartbeat IPC: 0.44502 cumulative IPC: 0.41959 (Simulation time: 0 hr 8 min 43 sec) 
Heartbeat CPU 0 instructions: 240000000 cycles: 380106062 heartbeat IPC: 0.392991 cumulative IPC: 0.417571 (Simulation time: 0 hr 9 min 13 sec) 
Heartbeat CPU 0 instructions: 250000001 cycles: 404818576 heartbeat IPC: 0.404653 cumulative IPC: 0.416685 (Simulation time: 0 hr 9 min 43 sec) 
Heartbeat CPU 0 instructions: 260000000 cycles: 425815000 heartbeat IPC: 0.476272 cumulative IPC: 0.419969 (Simulation time: 0 hr 10 min 10 sec) 
Heartbeat CPU 0 instructions: 270000000 cycles: 447372458 heartbeat IPC: 0.463877 cumulative IPC: 0.42232 (Simulation time: 0 hr 10 min 38 sec) 
Heartbeat CPU 0 instructions: 280000000 cycles: 475642202 heartbeat IPC: 0.353735 cumulative IPC: 0.417819 (Simulation time: 0 hr 11 min 10 sec) 
Heartbeat CPU 0 instructions: 290000000 cycles: 496653382 heartbeat IPC: 0.475937 cumulative IPC: 0.420522 (Simulation time: 0 hr 11 min 37 sec) 
Heartbeat CPU 0 instructions: 300000000 cycles: 517136342 heartbeat IPC: 0.488211 cumulative IPC: 0.423458 (Simulation time: 0 hr 12 min 4 sec) 
Heartbeat CPU 0 instructions: 310000000 cycles: 536333948 heartbeat IPC: 0.520898 cumulative IPC: 0.427264 (Simulation time: 0 hr 12 min 29 sec) 
Heartbeat CPU 0 instructions: 320000000 cycles: 566451476 heartbeat IPC: 0.332033 cumulative IPC: 0.421765 (Simulation time: 0 hr 13 min 2 sec) 
Heartbeat CPU 0 instructions: 330000001 cycles: 585925153 heartbeat IPC: 0.513514 cumulative IPC: 0.425067 (Simulation time: 0 hr 13 min 27 sec) 
Heartbeat CPU 0 instructions: 340000000 cycles: 605319379 heartbeat IPC: 0.515617 cumulative IPC: 0.4282 (Simulation time: 0 hr 13 min 53 sec) 
Heartbeat CPU 0 instructions: 350000002 cycles: 630907762 heartbeat IPC: 0.390802 cumulative IPC: 0.426568 (Simulation time: 0 hr 14 min 23 sec) 
Heartbeat CPU 0 instructions: 360000000 cycles: 653058192 heartbeat IPC: 0.451458 cumulative IPC: 0.427474 (Simulation time: 0 hr 14 min 50 sec) 
Heartbeat CPU 0 instructions: 370000001 cycles: 678107025 heartbeat IPC: 0.39922 cumulative IPC: 0.426356 (Simulation time: 0 hr 15 min 20 sec) 
Heartbeat CPU 0 instructions: 380000000 cycles: 701400084 heartbeat IPC: 0.429312 cumulative IPC: 0.426461 (Simulation time: 0 hr 15 min 48 sec) 
Heartbeat CPU 0 instructions: 390000000 cycles: 720154298 heartbeat IPC: 0.533213 cumulative IPC: 0.429426 (Simulation time: 0 hr 16 min 13 sec) 
Heartbeat CPU 0 instructions: 400000000 cycles: 740000630 heartbeat IPC: 0.503871 cumulative IPC: 0.431551 (Simulation time: 0 hr 16 min 39 sec) 
Heartbeat CPU 0 instructions: 410000001 cycles: 766281012 heartbeat IPC: 0.380512 cumulative IPC: 0.429692 (Simulation time: 0 hr 17 min 9 sec) 
Heartbeat CPU 0 instructions: 420000000 cycles: 790729623 heartbeat IPC: 0.409021 cumulative IPC: 0.429015 (Simulation time: 0 hr 17 min 38 sec) 
Heartbeat CPU 0 instructions: 430000002 cycles: 811803174 heartbeat IPC: 0.474529 cumulative IPC: 0.430265 (Simulation time: 0 hr 18 min 4 sec) 
Heartbeat CPU 0 instructions: 440000000 cycles: 832105029 heartbeat IPC: 0.492566 cumulative IPC: 0.431872 (Simulation time: 0 hr 18 min 31 sec) 
Heartbeat CPU 0 instructions: 450000002 cycles: 858969448 heartbeat IPC: 0.37224 cumulative IPC: 0.429904 (Simulation time: 0 hr 19 min 1 sec) 
Heartbeat CPU 0 instructions: 460000000 cycles: 884961192 heartbeat IPC: 0.384737 cumulative IPC: 0.428507 (Simulation time: 0 hr 19 min 31 sec) 
Heartbeat CPU 0 instructions: 470000002 cycles: 910513778 heartbeat IPC: 0.39135 cumulative IPC: 0.42741 (Simulation time: 0 hr 20 min 1 sec) 
Heartbeat CPU 0 instructions: 480000000 cycles: 934516666 heartbeat IPC: 0.416616 cumulative IPC: 0.427119 (Simulation time: 0 hr 20 min 29 sec) 
Heartbeat CPU 0 instructions: 490000000 cycles: 955477370 heartbeat IPC: 0.477083 cumulative IPC: 0.428269 (Simulation time: 0 hr 20 min 56 sec) 
Heartbeat CPU 0 instructions: 500000000 cycles: 980605819 heartbeat IPC: 0.397955 cumulative IPC: 0.427455 (Simulation time: 0 hr 21 min 25 sec) 
Heartbeat CPU 0 instructions: 510000000 cycles: 1005455771 heartbeat IPC: 0.402415 cumulative IPC: 0.426807 (Simulation time: 0 hr 21 min 54 sec) 
Heartbeat CPU 0 instructions: 520000000 cycles: 1026487646 heartbeat IPC: 0.475469 cumulative IPC: 0.42785 (Simulation time: 0 hr 22 min 21 sec) 
Heartbeat CPU 0 instructions: 530000003 cycles: 1051644482 heartbeat IPC: 0.397506 cumulative IPC: 0.427091 (Simulation time: 0 hr 22 min 50 sec) 
Heartbeat CPU 0 instructions: 540000000 cycles: 1074513114 heartbeat IPC: 0.43728 cumulative IPC: 0.427318 (Simulation time: 0 hr 23 min 18 sec) 
Heartbeat CPU 0 instructions: 550000000 cycles: 1099666873 heartbeat IPC: 0.397555 cumulative IPC: 0.426608 (Simulation time: 0 hr 23 min 47 sec) 
Heartbeat CPU 0 instructions: 560000000 cycles: 1122562610 heartbeat IPC: 0.436763 cumulative IPC: 0.426824 (Simulation time: 0 hr 24 min 15 sec) 
Heartbeat CPU 0 instructions: 570000002 cycles: 1145937329 heartbeat IPC: 0.427813 cumulative IPC: 0.426845 (Simulation time: 0 hr 24 min 43 sec) 
Heartbeat CPU 0 instructions: 580000000 cycles: 1166819793 heartbeat IPC: 0.478871 cumulative IPC: 0.427813 (Simulation time: 0 hr 25 min 10 sec) 
Heartbeat CPU 0 instructions: 590000001 cycles: 1190599930 heartbeat IPC: 0.420519 cumulative IPC: 0.427662 (Simulation time: 0 hr 25 min 38 sec) 
Heartbeat CPU 0 instructions: 600000000 cycles: 1209646033 heartbeat IPC: 0.525042 cumulative IPC: 0.429254 (Simulation time: 0 hr 26 min 3 sec) 
Finished CPU 0 instructions: 500000000 cycles: 1164811930 cumulative IPC: 0.429254 (Simulation time: 0 hr 26 min 3 sec) 

CPU 0 Branch Prediction Accuracy: 99.5434% MPKI: 1.33026
Number of Branches: 145676990 Number of Mispredictions: 665128
Number of LOAD Instructions: 188863207
Number of LOAD Instructions (ROI): 188863207
Number of STORE Instructions: 7332002
Number of STORE Instructions (ROI): 7332002
Total Destination Memory Operands: 10029285
Total Destination Memory Operands (ROI): 10029285
Total Source Memory Operands: 188863207
Total Source Memory Operands (ROI): 188863207
Number of DEPENDED LOADS: 294201
Number of DEPENDED LOADS (ROI): 294201
Number of SQ_ADDED: 10029285
Number of SQ_ADDED (ROI): 10029285
Number of LQ_ADDED: 200873308
Number of LQ_ADDED (ROI): 200873308
Number of Instructions read from trace: 600000010

ChampSim completed all CPUs

Region of Interest Statistics

CPU 0 cumulative IPC: 0.429254 instructions: 500000000 cycles: 1164811930
ITLB TOTAL     ACCESS:  145869005  HIT:  145829475  MISS:      39530
ITLB LOAD      ACCESS:  145869005  HIT:  145829475  MISS:      39530
ITLB RFO       ACCESS:          0  HIT:          0  MISS:          0
ITLB PREFETCH  ACCESS:          0  HIT:          0  MISS:          0
ITLB WRITEBACK ACCESS:          0  HIT:          0  MISS:          0
ITLB PREFETCH  REQUESTED:          0  ISSUED:          0  USEFUL:          0  USELESS:          0
ITLB TOTAL MSHR MERGED:      57352
ITLB LOAD MSHR MERGED:      57352
ITLB RFO MSHR MERGED:          0
ITLB PREFETCH MSHR MERGED:          0
ITLB WRITEBACK MSHR MERGED:          0
ITLB TOTAL ACCESSES:  145926357 HITS:  145829475 MISSES:      96882
ITLB LOAD ACCESSES:  145926357 HITS:  145829475 MISSES:      96882
ITLB RFO ACCESSES:          0 HITS:          0 MISSES:          0
ITLB PREFETCH ACCESSES:          0 HITS:          0 MISSES:          0
ITLB WRITEBACK ACCESSES:          0 HITS:          0 MISSES:          0
ITLB RQ ACCESS:  499999754
ITLB RQ TO_CACHE:  145926357
ITLB RQ MERGED:  354073397
ITLB RQ FORWARD:          0
ITLB WQ ACCESS:          0
ITLB WQ TO_CACHE:          0
ITLB WQ MERGED:          0
ITLB WQ FORWARD:          0
DTLB TOTAL     ACCESS:  135208166  HIT:  134039808  MISS:    1168358
DTLB LOAD      ACCESS:  127167138  HIT:  126007884  MISS:    1159254
DTLB RFO       ACCESS:    8041028  HIT:    8031924  MISS:       9104
DTLB PREFETCH  ACCESS:          0  HIT:          0  MISS:          0
DTLB WRITEBACK ACCESS:          0  HIT:          0  MISS:          0
DTLB PREFETCH  REQUESTED:          0  ISSUED:          0  USEFUL:          0  USELESS:          0
DTLB TOTAL MSHR MERGED:     579698
DTLB LOAD MSHR MERGED:     575317
DTLB RFO MSHR MERGED:       4381
DTLB PREFETCH MSHR MERGED:          0
DTLB WRITEBACK MSHR MERGED:          0
DTLB TOTAL ACCESSES:  135787864 HITS:  134039808 MISSES:    1748056
DTLB LOAD ACCESSES:  127742455 HITS:  126007884 MISSES:    1734571
DTLB RFO ACCESSES:    8045409 HITS:    8031924 MISSES:      13485
DTLB PREFETCH ACCESSES:          0 HITS:          0 MISSES:          0
DTLB WRITEBACK ACCESSES:          0 HITS:          0 MISSES:          0
DTLB RQ ACCESS:  165760133
DTLB RQ TO_CACHE:  135787864
DTLB RQ MERGED:   29972269
DTLB RQ FORWARD:          0
DTLB WQ ACCESS:          0
DTLB WQ TO_CACHE:          0
DTLB WQ MERGED:          0
DTLB WQ FORWARD:          0
L1D TOTAL     ACCESS:  156760493  HIT:  139444820  MISS:   17315673
L1D LOAD      ACCESS:   89958305  HIT:   78782335  MISS:   11175970
L1D RFO       ACCESS:    8492506  HIT:    8405162  MISS:      87344
L1D PREFETCH  ACCESS:   58309682  HIT:   52257323  MISS:    6052359
L1D WRITEBACK ACCESS:          0  HIT:          0  MISS:          0
L1D PREFETCH  REQUESTED:   93725800  ISSUED:   92858163  USEFUL:    1970941  USELESS:    4081492
L1D TOTAL MSHR MERGED:   15318322
L1D LOAD MSHR MERGED:    7206424
L1D RFO MSHR MERGED:     132245
L1D PREFETCH MSHR MERGED:    7979653
L1D WRITEBACK MSHR MERGED:          0
L1D TOTAL ACCESSES:  172078981 HITS:  139444985 MISSES:   32633996
L1D LOAD ACCESSES:   93725804 HITS:   78782339 MISSES:   14943465
L1D RFO ACCESSES:    8622717 HITS:    8405162 MISSES:     217555
L1D PREFETCH ACCESSES:   69730460 HITS:   52257484 MISSES:   17472976
L1D WRITEBACK ACCESSES:          0 HITS:          0 MISSES:          0
L1D RQ ACCESS:  157120927
L1D RQ TO_CACHE:   93725800
L1D RQ MERGED:   63395123
L1D RQ FORWARD:          0
L1D WQ ACCESS:    8639208
L1D WQ TO_CACHE:    8622717
L1D WQ MERGED:      16491
L1D WQ FORWARD:        165
L1I TOTAL     ACCESS:  178836352  HIT:  178172666  MISS:     663686
L1I LOAD      ACCESS:  178836352  HIT:  178172666  MISS:     663686
L1I RFO       ACCESS:          0  HIT:          0  MISS:          0
L1I PREFETCH  ACCESS:          0  HIT:          0  MISS:          0
L1I WRITEBACK ACCESS:          0  HIT:          0  MISS:          0
L1I PREFETCH  REQUESTED:          0  ISSUED:          0  USEFUL:          0  USELESS:          0
L1I TOTAL MSHR MERGED:     600931
L1I LOAD MSHR MERGED:     600931
L1I RFO MSHR MERGED:          0
L1I PREFETCH MSHR MERGED:          0
L1I WRITEBACK MSHR MERGED:          0
L1I TOTAL ACCESSES:  179437283 HITS:  178172666 MISSES:    1264617
L1I LOAD ACCESSES:  179437283 HITS:  178172666 MISSES:    1264617
L1I RFO ACCESSES:          0 HITS:          0 MISSES:          0
L1I PREFETCH ACCESSES:          0 HITS:          0 MISSES:          0
L1I WRITEBACK ACCESSES:          0 HITS:          0 MISSES:          0
L1I RQ ACCESS:  499999757
L1I RQ TO_CACHE:  179437283
L1I RQ MERGED:  320562474
L1I RQ FORWARD:          0
L1I WQ ACCESS:          0
L1I WQ TO_CACHE:          0
L1I WQ MERGED:          0
L1I WQ FORWARD:          0
L2C TOTAL     ACCESS:   19276966  HIT:    2057512  MISS:   17219454
L2C LOAD      ACCESS:    8400625  HIT:     951131  MISS:    7449494
L2C RFO       ACCESS:      85286  HIT:      53734  MISS:      31552
L2C PREFETCH  ACCESS:   10506052  HIT:     770453  MISS:    9735599
L2C WRITEBACK ACCESS:     285003  HIT:     282194  MISS:       2809
L2C PREFETCH  REQUESTED:    1017909  ISSUED:    1017909  USEFUL:     274843  USELESS:    9459849
L2C TOTAL MSHR MERGED:       1036
L2C LOAD MSHR MERGED:        243
L2C RFO MSHR MERGED:          1
L2C PREFETCH MSHR MERGED:        792
L2C WRITEBACK MSHR MERGED:          0
L2C TOTAL ACCESSES:   19281015 HITS:    2057702 MISSES:   17223313
L2C LOAD ACCESSES:    8400727 HITS:     951233 MISSES:    7449494
L2C RFO ACCESSES:      85310 HITS:      53758 MISSES:      31552
L2C PREFETCH ACCESSES:   10509975 HITS:     770517 MISSES:    9739458
L2C WRITEBACK ACCESSES:     285003 HITS:     282194 MISSES:       2809
L2C RQ ACCESS:    8486037
L2C RQ TO_CACHE:    8485911
L2C RQ MERGED:          0
L2C RQ FORWARD:          0
L2C WQ ACCESS:     285003
L2C WQ TO_CACHE:     285003
L2C WQ MERGED:          0
L2C WQ FORWARD:        190
LLC TOTAL     ACCESS:   17325521  HIT:    4798731  MISS:   12526790
LLC LOAD      ACCESS:    7449251  HIT:    4158770  MISS:    3290481
LLC RFO       ACCESS:      31551  HIT:       5185  MISS:      26366
LLC PREFETCH  ACCESS:    9738661  HIT:     571381  MISS:    9167280
LLC WRITEBACK ACCESS:     106058  HIT:      63395  MISS:      42663
LLC PREFETCH  REQUESTED:          0  ISSUED:          0  USEFUL:       1342  USELESS:    9165495
LLC TOTAL MSHR MERGED:          3
LLC LOAD MSHR MERGED:          0
LLC RFO MSHR MERGED:          0
LLC PREFETCH MSHR MERGED:          3
LLC WRITEBACK MSHR MERGED:          0
LLC TOTAL ACCESSES:   17325525 HITS:    4798731 MISSES:   12526794
LLC LOAD ACCESSES:    7449251 HITS:    4158770 MISSES:    3290481
LLC RFO ACCESSES:      31551 HITS:       5185 MISSES:      26366
LLC PREFETCH ACCESSES:    9738665 HITS:     571381 MISSES:    9167284
LLC WRITEBACK ACCESSES:     106058 HITS:      63395 MISSES:      42663
LLC 0 RQ ACCESS:    7480802
LLC 0 RQ TO_CACHE:    7480802
LLC 0 RQ MERGED:          0
LLC 0 RQ FORWARD:          0
LLC WQ ACCESS:     106058
LLC WQ TO_CACHE:     106058
LLC WQ MERGED:          0
LLC WQ FORWARD:          0
Major fault: 0 Minor fault: 6432
CPU 0 L1D next line prefetcher final stats
CPU 0 L2C PC-based stride prefetcher final stats
All Misses: 14833515
All Hits: 5711664
SD Algo Stats - Switches: 0 SRR-Repls: 3519616 BRR-Repls: 0

DRAM Statistics
 CHANNEL 0
 RQ ROW_BUFFER_HIT:    9400735  ROW_BUFFER_MISS:    3075940
 DBUS_CONGESTED:    5714529
 WQ ROW_BUFFER_HIT:       2348  ROW_BUFFER_MISS:      71591  FULL:          0

 AVG_CONGESTED_CYCLE: 12
LOADS RETIRED: 157382665
INSTR RETIRED: 500000000
