
*** ChampSim Multicore Out-of-Order Simulator ***

Warmup Instructions: 100000000
Simulation Instructions: 500000000
Number of CPUs: 1
LLC sets: 2048
LLC ways: 16
Clean RRIP Policies: 2213230222132302 Dirty RRIP Policies: 1203130212031302 PSEL Width: 10 Track Set: 4294967295 PSEL Mask: 1 Demote Mask: 1041100010411000DS Algo: 0Window size: 0
Off-chip DRAM Size: 4096 MB Channels: 1 Width: 64-bit Data Rate: 1600 MT/s

CPU 0 runs /mnt/beegfs/iconst01/spec2017/Parest.trace.gz
NOT SORTED
TRACE STRING: /mnt/beegfs/iconst01/spec2017/Parest.trace.gz
SORTED
TRACE STRING: /mnt/beegfs/iconst01/spec2017/Parest.trace.gz
INITIAL
TRACE STRING: /mnt/beegfs/iconst01/spec2017/Parest.trace.gz

champsim_seed used: 623

CPU 0 L1D next line prefetcher
CPU 0 L2C IP-based stride prefetcher
Initialize DRRIP state
Assign rand_sets[0]: 454  LLC: 2048
rand_sets[0]: 454
Assign rand_sets[1]: 1662  LLC: 2048
rand_sets[1]: 1662
Assign rand_sets[2]: 1921  LLC: 2048
rand_sets[2]: 1921
Assign rand_sets[3]: 1131  LLC: 2048
rand_sets[3]: 1131
Assign rand_sets[4]: 331  LLC: 2048
rand_sets[4]: 331
Assign rand_sets[5]: 1531  LLC: 2048
rand_sets[5]: 1531
Assign rand_sets[6]: 482  LLC: 2048
rand_sets[6]: 482
Assign rand_sets[7]: 1275  LLC: 2048
rand_sets[7]: 1275
Assign rand_sets[8]: 1876  LLC: 2048
rand_sets[8]: 1876
Assign rand_sets[9]: 2038  LLC: 2048
rand_sets[9]: 2038
Assign rand_sets[10]: 701  LLC: 2048
rand_sets[10]: 701
Assign rand_sets[11]: 479  LLC: 2048
rand_sets[11]: 479
Assign rand_sets[12]: 892  LLC: 2048
rand_sets[12]: 892
Assign rand_sets[13]: 1820  LLC: 2048
rand_sets[13]: 1820
Assign rand_sets[14]: 1505  LLC: 2048
rand_sets[14]: 1505
Assign rand_sets[15]: 1159  LLC: 2048
rand_sets[15]: 1159
Assign rand_sets[16]: 513  LLC: 2048
rand_sets[16]: 513
Assign rand_sets[17]: 703  LLC: 2048
rand_sets[17]: 703
Assign rand_sets[18]: 561  LLC: 2048
rand_sets[18]: 561
Assign rand_sets[19]: 990  LLC: 2048
rand_sets[19]: 990
Assign rand_sets[20]: 342  LLC: 2048
rand_sets[20]: 342
Assign rand_sets[21]: 882  LLC: 2048
rand_sets[21]: 882
Assign rand_sets[22]: 15  LLC: 2048
rand_sets[22]: 15
Assign rand_sets[23]: 71  LLC: 2048
rand_sets[23]: 71
Assign rand_sets[24]: 1127  LLC: 2048
rand_sets[24]: 1127
Assign rand_sets[25]: 1382  LLC: 2048
rand_sets[25]: 1382
Assign rand_sets[26]: 647  LLC: 2048
rand_sets[26]: 647
Assign rand_sets[27]: 857  LLC: 2048
rand_sets[27]: 857
Assign rand_sets[28]: 1450  LLC: 2048
rand_sets[28]: 1450
Assign rand_sets[29]: 1160  LLC: 2048
rand_sets[29]: 1160
Assign rand_sets[30]: 1852  LLC: 2048
rand_sets[30]: 1852
Assign rand_sets[31]: 1881  LLC: 2048
rand_sets[31]: 1881
Assign rand_sets[32]: 1770  LLC: 2048
rand_sets[32]: 1770
Assign rand_sets[33]: 1622  LLC: 2048
rand_sets[33]: 1622
Assign rand_sets[34]: 275  LLC: 2048
rand_sets[34]: 275
Assign rand_sets[35]: 635  LLC: 2048
rand_sets[35]: 635
Assign rand_sets[36]: 466  LLC: 2048
rand_sets[36]: 466
Assign rand_sets[37]: 1413  LLC: 2048
rand_sets[37]: 1413
Assign rand_sets[38]: 417  LLC: 2048
rand_sets[38]: 417
Assign rand_sets[39]: 472  LLC: 2048
rand_sets[39]: 472
Assign rand_sets[40]: 1340  LLC: 2048
rand_sets[40]: 1340
Assign rand_sets[41]: 852  LLC: 2048
rand_sets[41]: 852
Assign rand_sets[42]: 1365  LLC: 2048
rand_sets[42]: 1365
Assign rand_sets[43]: 47  LLC: 2048
rand_sets[43]: 47
Assign rand_sets[44]: 823  LLC: 2048
rand_sets[44]: 823
Assign rand_sets[45]: 686  LLC: 2048
rand_sets[45]: 686
Assign rand_sets[46]: 1637  LLC: 2048
rand_sets[46]: 1637
Assign rand_sets[47]: 1115  LLC: 2048
rand_sets[47]: 1115
Assign rand_sets[48]: 986  LLC: 2048
rand_sets[48]: 986
Assign rand_sets[49]: 258  LLC: 2048
rand_sets[49]: 258
Assign rand_sets[50]: 633  LLC: 2048
rand_sets[50]: 633
Assign rand_sets[51]: 920  LLC: 2048
rand_sets[51]: 920
Assign rand_sets[52]: 204  LLC: 2048
rand_sets[52]: 204
Assign rand_sets[53]: 227  LLC: 2048
rand_sets[53]: 227
Assign rand_sets[54]: 1818  LLC: 2048
rand_sets[54]: 1818
Assign rand_sets[55]: 886  LLC: 2048
rand_sets[55]: 886
Assign rand_sets[56]: 1422  LLC: 2048
rand_sets[56]: 1422
Assign rand_sets[57]: 607  LLC: 2048
rand_sets[57]: 607
Assign rand_sets[58]: 217  LLC: 2048
rand_sets[58]: 217
Assign rand_sets[59]: 1945  LLC: 2048
rand_sets[59]: 1945
Assign rand_sets[60]: 143  LLC: 2048
rand_sets[60]: 143
Assign rand_sets[61]: 1311  LLC: 2048
rand_sets[61]: 1311
Assign rand_sets[62]: 319  LLC: 2048
rand_sets[62]: 319
Assign rand_sets[63]: 1846  LLC: 2048
rand_sets[63]: 1846
 CLEAN-RRIP-POLICY-1: 2-2-1-3-2-3-0-2- CLEAN-RRIP-POLICY-2: 2-2-1-3-2-3-0-2-
 DIRTY-RRIP-POLICY-1: 1-2-0-3-1-3-0-2- DIRTY-RRIP-POLICY-2: 1-2-0-3-1-3-0-2-
 PSEL width: 10
Heartbeat CPU 0 instructions: 10000001 cycles: 4387138 heartbeat IPC: 2.27939 cumulative IPC: 2.27939 (Simulation time: 0 hr 0 min 15 sec) 
Heartbeat CPU 0 instructions: 20000000 cycles: 8781314 heartbeat IPC: 2.27574 cumulative IPC: 2.27756 (Simulation time: 0 hr 0 min 29 sec) 
Heartbeat CPU 0 instructions: 30000003 cycles: 13213256 heartbeat IPC: 2.25635 cumulative IPC: 2.27045 (Simulation time: 0 hr 0 min 44 sec) 
Heartbeat CPU 0 instructions: 40000000 cycles: 17643869 heartbeat IPC: 2.25702 cumulative IPC: 2.26708 (Simulation time: 0 hr 0 min 58 sec) 
Heartbeat CPU 0 instructions: 50000000 cycles: 22052112 heartbeat IPC: 2.26848 cumulative IPC: 2.26736 (Simulation time: 0 hr 1 min 13 sec) 
Heartbeat CPU 0 instructions: 60000000 cycles: 26457821 heartbeat IPC: 2.26978 cumulative IPC: 2.26776 (Simulation time: 0 hr 1 min 27 sec) 
Heartbeat CPU 0 instructions: 70000000 cycles: 30858710 heartbeat IPC: 2.27227 cumulative IPC: 2.2684 (Simulation time: 0 hr 1 min 41 sec) 
Heartbeat CPU 0 instructions: 80000000 cycles: 35254259 heartbeat IPC: 2.27503 cumulative IPC: 2.26923 (Simulation time: 0 hr 1 min 56 sec) 
Heartbeat CPU 0 instructions: 90000000 cycles: 39648493 heartbeat IPC: 2.27571 cumulative IPC: 2.26995 (Simulation time: 0 hr 2 min 10 sec) 
Heartbeat CPU 0 instructions: 100000000 cycles: 44045792 heartbeat IPC: 2.27412 cumulative IPC: 2.27036 (Simulation time: 0 hr 2 min 25 sec) 

Warmup complete CPU 0 instructions: 100000002 cycles: 44045802 (Simulation time: 0 hr 2 min 25 sec) 

Heartbeat CPU 0 instructions: 110000000 cycles: 53984354 heartbeat IPC: 1.00618 cumulative IPC: 1.00618 (Simulation time: 0 hr 2 min 44 sec) 
Heartbeat CPU 0 instructions: 120000000 cycles: 62930751 heartbeat IPC: 1.11777 cumulative IPC: 1.05904 (Simulation time: 0 hr 3 min 2 sec) 
Heartbeat CPU 0 instructions: 130000000 cycles: 71903496 heartbeat IPC: 1.11449 cumulative IPC: 1.0769 (Simulation time: 0 hr 3 min 20 sec) 
Heartbeat CPU 0 instructions: 140000000 cycles: 81005193 heartbeat IPC: 1.0987 cumulative IPC: 1.08227 (Simulation time: 0 hr 3 min 38 sec) 
Heartbeat CPU 0 instructions: 150000000 cycles: 92131771 heartbeat IPC: 0.898749 cumulative IPC: 1.0398 (Simulation time: 0 hr 3 min 57 sec) 
Heartbeat CPU 0 instructions: 160000000 cycles: 102244586 heartbeat IPC: 0.988844 cumulative IPC: 1.03095 (Simulation time: 0 hr 4 min 15 sec) 
Heartbeat CPU 0 instructions: 170000003 cycles: 112103312 heartbeat IPC: 1.01433 cumulative IPC: 1.02854 (Simulation time: 0 hr 4 min 34 sec) 
Heartbeat CPU 0 instructions: 180000000 cycles: 121769301 heartbeat IPC: 1.03455 cumulative IPC: 1.02929 (Simulation time: 0 hr 4 min 52 sec) 
Heartbeat CPU 0 instructions: 190000002 cycles: 131558001 heartbeat IPC: 1.02159 cumulative IPC: 1.02843 (Simulation time: 0 hr 5 min 10 sec) 
Heartbeat CPU 0 instructions: 200000000 cycles: 140761320 heartbeat IPC: 1.08656 cumulative IPC: 1.03396 (Simulation time: 0 hr 5 min 28 sec) 
Heartbeat CPU 0 instructions: 210000000 cycles: 150364874 heartbeat IPC: 1.04128 cumulative IPC: 1.03462 (Simulation time: 0 hr 5 min 47 sec) 
Heartbeat CPU 0 instructions: 220000000 cycles: 159238387 heartbeat IPC: 1.12695 cumulative IPC: 1.04173 (Simulation time: 0 hr 6 min 5 sec) 
Heartbeat CPU 0 instructions: 230000001 cycles: 171325485 heartbeat IPC: 0.827329 cumulative IPC: 1.02137 (Simulation time: 0 hr 6 min 25 sec) 
Heartbeat CPU 0 instructions: 240000000 cycles: 181879443 heartbeat IPC: 0.947512 cumulative IPC: 1.01572 (Simulation time: 0 hr 6 min 43 sec) 
Heartbeat CPU 0 instructions: 250000002 cycles: 191773190 heartbeat IPC: 1.01074 cumulative IPC: 1.01538 (Simulation time: 0 hr 7 min 2 sec) 
Heartbeat CPU 0 instructions: 260000000 cycles: 201366155 heartbeat IPC: 1.04243 cumulative IPC: 1.01703 (Simulation time: 0 hr 7 min 20 sec) 
Heartbeat CPU 0 instructions: 270000001 cycles: 210760777 heartbeat IPC: 1.06444 cumulative IPC: 1.0197 (Simulation time: 0 hr 7 min 38 sec) 
Heartbeat CPU 0 instructions: 280000000 cycles: 220450336 heartbeat IPC: 1.03204 cumulative IPC: 1.02038 (Simulation time: 0 hr 7 min 56 sec) 
Heartbeat CPU 0 instructions: 290000002 cycles: 229466324 heartbeat IPC: 1.10914 cumulative IPC: 1.0247 (Simulation time: 0 hr 8 min 14 sec) 
Heartbeat CPU 0 instructions: 300000000 cycles: 238972394 heartbeat IPC: 1.05196 cumulative IPC: 1.02603 (Simulation time: 0 hr 8 min 32 sec) 
Heartbeat CPU 0 instructions: 310000000 cycles: 247888432 heartbeat IPC: 1.12157 cumulative IPC: 1.03021 (Simulation time: 0 hr 8 min 50 sec) 
Heartbeat CPU 0 instructions: 320000000 cycles: 256935632 heartbeat IPC: 1.10531 cumulative IPC: 1.0334 (Simulation time: 0 hr 9 min 9 sec) 
Heartbeat CPU 0 instructions: 330000003 cycles: 266162440 heartbeat IPC: 1.0838 cumulative IPC: 1.03549 (Simulation time: 0 hr 9 min 27 sec) 
Heartbeat CPU 0 instructions: 340000000 cycles: 276063879 heartbeat IPC: 1.00995 cumulative IPC: 1.0344 (Simulation time: 0 hr 9 min 45 sec) 
Heartbeat CPU 0 instructions: 350000000 cycles: 286466847 heartbeat IPC: 0.961264 cumulative IPC: 1.03126 (Simulation time: 0 hr 10 min 4 sec) 
Heartbeat CPU 0 instructions: 360000000 cycles: 296276306 heartbeat IPC: 1.01942 cumulative IPC: 1.0308 (Simulation time: 0 hr 10 min 22 sec) 
Heartbeat CPU 0 instructions: 370000000 cycles: 305797871 heartbeat IPC: 1.05025 cumulative IPC: 1.03151 (Simulation time: 0 hr 10 min 40 sec) 
Heartbeat CPU 0 instructions: 380000000 cycles: 315122338 heartbeat IPC: 1.07245 cumulative IPC: 1.03292 (Simulation time: 0 hr 10 min 58 sec) 
Heartbeat CPU 0 instructions: 390000002 cycles: 324207056 heartbeat IPC: 1.10075 cumulative IPC: 1.03512 (Simulation time: 0 hr 11 min 16 sec) 
Heartbeat CPU 0 instructions: 400000000 cycles: 333704440 heartbeat IPC: 1.05292 cumulative IPC: 1.0357 (Simulation time: 0 hr 11 min 34 sec) 
Heartbeat CPU 0 instructions: 410000000 cycles: 342541686 heartbeat IPC: 1.13157 cumulative IPC: 1.03854 (Simulation time: 0 hr 11 min 52 sec) 
Heartbeat CPU 0 instructions: 420000000 cycles: 353299284 heartbeat IPC: 0.929576 cumulative IPC: 1.03475 (Simulation time: 0 hr 12 min 11 sec) 
Heartbeat CPU 0 instructions: 430000000 cycles: 364237024 heartbeat IPC: 0.914266 cumulative IPC: 1.03063 (Simulation time: 0 hr 12 min 30 sec) 
Heartbeat CPU 0 instructions: 440000000 cycles: 374163866 heartbeat IPC: 1.00737 cumulative IPC: 1.02993 (Simulation time: 0 hr 12 min 48 sec) 
Heartbeat CPU 0 instructions: 450000000 cycles: 383939360 heartbeat IPC: 1.02297 cumulative IPC: 1.02973 (Simulation time: 0 hr 13 min 7 sec) 
Heartbeat CPU 0 instructions: 460000000 cycles: 393623306 heartbeat IPC: 1.03264 cumulative IPC: 1.02981 (Simulation time: 0 hr 13 min 25 sec) 
Heartbeat CPU 0 instructions: 470000001 cycles: 403356345 heartbeat IPC: 1.02743 cumulative IPC: 1.02975 (Simulation time: 0 hr 13 min 43 sec) 
Heartbeat CPU 0 instructions: 480000000 cycles: 412491278 heartbeat IPC: 1.0947 cumulative IPC: 1.03136 (Simulation time: 0 hr 14 min 1 sec) 
Heartbeat CPU 0 instructions: 490000000 cycles: 422142504 heartbeat IPC: 1.03614 cumulative IPC: 1.03148 (Simulation time: 0 hr 14 min 20 sec) 
Heartbeat CPU 0 instructions: 500000000 cycles: 431348701 heartbeat IPC: 1.08622 cumulative IPC: 1.03278 (Simulation time: 0 hr 14 min 38 sec) 
Heartbeat CPU 0 instructions: 510000000 cycles: 440350220 heartbeat IPC: 1.11092 cumulative IPC: 1.03456 (Simulation time: 0 hr 14 min 56 sec) 
Heartbeat CPU 0 instructions: 520000000 cycles: 449650690 heartbeat IPC: 1.07521 cumulative IPC: 1.03549 (Simulation time: 0 hr 15 min 14 sec) 
Heartbeat CPU 0 instructions: 530000001 cycles: 459776719 heartbeat IPC: 0.987554 cumulative IPC: 1.03432 (Simulation time: 0 hr 15 min 33 sec) 
Heartbeat CPU 0 instructions: 540000000 cycles: 470340693 heartbeat IPC: 0.946613 cumulative IPC: 1.03215 (Simulation time: 0 hr 15 min 51 sec) 
Heartbeat CPU 0 instructions: 550000003 cycles: 480357614 heartbeat IPC: 0.998311 cumulative IPC: 1.03137 (Simulation time: 0 hr 16 min 9 sec) 
Heartbeat CPU 0 instructions: 560000000 cycles: 490069859 heartbeat IPC: 1.02963 cumulative IPC: 1.03133 (Simulation time: 0 hr 16 min 28 sec) 
Heartbeat CPU 0 instructions: 570000002 cycles: 499561972 heartbeat IPC: 1.05351 cumulative IPC: 1.0318 (Simulation time: 0 hr 16 min 46 sec) 
Heartbeat CPU 0 instructions: 580000000 cycles: 508836913 heartbeat IPC: 1.07817 cumulative IPC: 1.03272 (Simulation time: 0 hr 17 min 4 sec) 
Heartbeat CPU 0 instructions: 590000002 cycles: 518459716 heartbeat IPC: 1.0392 cumulative IPC: 1.03285 (Simulation time: 0 hr 17 min 22 sec) 
Heartbeat CPU 0 instructions: 600000000 cycles: 527597555 heartbeat IPC: 1.09435 cumulative IPC: 1.03402 (Simulation time: 0 hr 17 min 40 sec) 
Finished CPU 0 instructions: 500000000 cycles: 483551767 cumulative IPC: 1.03402 (Simulation time: 0 hr 17 min 40 sec) 

CPU 0 Branch Prediction Accuracy: 97.8526% MPKI: 2.66709
Number of Branches: 62099103 Number of Mispredictions: 1333545
Number of LOAD Instructions: 210576465
Number of LOAD Instructions (ROI): 210576465
Number of STORE Instructions: 16915507
Number of STORE Instructions (ROI): 16915507
Total Destination Memory Operands: 16918869
Total Destination Memory Operands (ROI): 16918869
Total Source Memory Operands: 210576465
Total Source Memory Operands (ROI): 210576465
Number of DEPENDED LOADS: 345514
Number of DEPENDED LOADS (ROI): 345514
Number of SQ_ADDED: 16918826
Number of SQ_ADDED (ROI): 16918826
Number of LQ_ADDED: 210602249
Number of LQ_ADDED (ROI): 210602249
Number of Instructions read from trace: 600000257

ChampSim completed all CPUs

Region of Interest Statistics

CPU 0 cumulative IPC: 1.03402 instructions: 500000000 cycles: 483551767
ITLB TOTAL     ACCESS:   76363660  HIT:   76363622  MISS:         38
ITLB LOAD      ACCESS:   76363660  HIT:   76363622  MISS:         38
ITLB RFO       ACCESS:          0  HIT:          0  MISS:          0
ITLB PREFETCH  ACCESS:          0  HIT:          0  MISS:          0
ITLB WRITEBACK ACCESS:          0  HIT:          0  MISS:          0
ITLB PREFETCH  REQUESTED:          0  ISSUED:          0  USEFUL:          0  USELESS:          0
ITLB TOTAL MSHR MERGED:         37
ITLB LOAD MSHR MERGED:         37
ITLB RFO MSHR MERGED:          0
ITLB PREFETCH MSHR MERGED:          0
ITLB WRITEBACK MSHR MERGED:          0
ITLB TOTAL ACCESSES:   76363697 HITS:   76363622 MISSES:         75
ITLB LOAD ACCESSES:   76363697 HITS:   76363622 MISSES:         75
ITLB RFO ACCESSES:          0 HITS:          0 MISSES:          0
ITLB PREFETCH ACCESSES:          0 HITS:          0 MISSES:          0
ITLB WRITEBACK ACCESSES:          0 HITS:          0 MISSES:          0
ITLB RQ ACCESS:  500000188
ITLB RQ TO_CACHE:   76363698
ITLB RQ MERGED:  423636490
ITLB RQ FORWARD:          0
ITLB WQ ACCESS:          0
ITLB WQ TO_CACHE:          0
ITLB WQ MERGED:          0
ITLB WQ FORWARD:          0
DTLB TOTAL     ACCESS:  136724375  HIT:  136521577  MISS:     202798
DTLB LOAD      ACCESS:  128662257  HIT:  128462180  MISS:     200077
DTLB RFO       ACCESS:    8062118  HIT:    8059397  MISS:       2721
DTLB PREFETCH  ACCESS:          0  HIT:          0  MISS:          0
DTLB WRITEBACK ACCESS:          0  HIT:          0  MISS:          0
DTLB PREFETCH  REQUESTED:          0  ISSUED:          0  USEFUL:          0  USELESS:          0
DTLB TOTAL MSHR MERGED:     448081
DTLB LOAD MSHR MERGED:     444304
DTLB RFO MSHR MERGED:       3777
DTLB PREFETCH MSHR MERGED:          0
DTLB WRITEBACK MSHR MERGED:          0
DTLB TOTAL ACCESSES:  137172456 HITS:  136521577 MISSES:     650879
DTLB LOAD ACCESSES:  129106561 HITS:  128462180 MISSES:     644381
DTLB RFO ACCESSES:    8065895 HITS:    8059397 MISSES:       6498
DTLB PREFETCH ACCESSES:          0 HITS:          0 MISSES:          0
DTLB WRITEBACK ACCESSES:          0 HITS:          0 MISSES:          0
DTLB RQ ACCESS:  189419050
DTLB RQ TO_CACHE:  137172456
DTLB RQ MERGED:   52246594
DTLB RQ FORWARD:          0
DTLB WQ ACCESS:          0
DTLB WQ TO_CACHE:          0
DTLB WQ MERGED:          0
DTLB WQ FORWARD:          0
L1D TOTAL     ACCESS:  125191756  HIT:  107634687  MISS:   17557069
L1D LOAD      ACCESS:   72287924  HIT:   62011347  MISS:   10276577
L1D RFO       ACCESS:   14013727  HIT:   13860887  MISS:     152840
L1D PREFETCH  ACCESS:   38890105  HIT:   31762453  MISS:    7127652
L1D WRITEBACK ACCESS:          0  HIT:          0  MISS:          0
L1D PREFETCH  REQUESTED:   85477317  ISSUED:   84156153  USEFUL:    5868196  USELESS:    1259467
L1D TOTAL MSHR MERGED:   31641348
L1D LOAD MSHR MERGED:   18354289
L1D RFO MSHR MERGED:     266691
L1D PREFETCH MSHR MERGED:   13020368
L1D WRITEBACK MSHR MERGED:          0
L1D TOTAL ACCESSES:  156833599 HITS:  107635183 MISSES:   49198416
L1D LOAD ACCESSES:   85477323 HITS:   62011353 MISSES:   23465970
L1D RFO ACCESSES:   14280386 HITS:   13860887 MISSES:     419499
L1D PREFETCH ACCESSES:   57075890 HITS:   31762943 MISSES:   25312947
L1D WRITEBACK ACCESSES:          0 HITS:          0 MISSES:          0
L1D RQ ACCESS:  175130028
L1D RQ TO_CACHE:   85477317
L1D RQ MERGED:   89652705
L1D RQ FORWARD:          0
L1D WQ ACCESS:   14289037
L1D WQ TO_CACHE:   14280386
L1D WQ MERGED:       8651
L1D WQ FORWARD:        496
L1I TOTAL     ACCESS:   93391711  HIT:   93389915  MISS:       1796
L1I LOAD      ACCESS:   93391711  HIT:   93389915  MISS:       1796
L1I RFO       ACCESS:          0  HIT:          0  MISS:          0
L1I PREFETCH  ACCESS:          0  HIT:          0  MISS:          0
L1I WRITEBACK ACCESS:          0  HIT:          0  MISS:          0
L1I PREFETCH  REQUESTED:          0  ISSUED:          0  USEFUL:          0  USELESS:          0
L1I TOTAL MSHR MERGED:       2338
L1I LOAD MSHR MERGED:       2338
L1I RFO MSHR MERGED:          0
L1I PREFETCH MSHR MERGED:          0
L1I WRITEBACK MSHR MERGED:          0
L1I TOTAL ACCESSES:   93394049 HITS:   93389915 MISSES:       4134
L1I LOAD ACCESSES:   93394049 HITS:   93389915 MISSES:       4134
L1I RFO ACCESSES:          0 HITS:          0 MISSES:          0
L1I PREFETCH ACCESSES:          0 HITS:          0 MISSES:          0
L1I WRITEBACK ACCESSES:          0 HITS:          0 MISSES:          0
L1I RQ ACCESS:  500000187
L1I RQ TO_CACHE:   93394049
L1I RQ MERGED:  406606138
L1I RQ FORWARD:          0
L1I WQ ACCESS:          0
L1I WQ TO_CACHE:          0
L1I WQ MERGED:          0
L1I WQ FORWARD:          0
L2C TOTAL     ACCESS:   20902918  HIT:    8673589  MISS:   12229329
L2C LOAD      ACCESS:    5113455  HIT:    2145052  MISS:    2968403
L2C RFO       ACCESS:     152808  HIT:       6516  MISS:     146292
L2C PREFETCH  ACCESS:   13863905  HIT:    4749380  MISS:    9114525
L2C WRITEBACK ACCESS:    1772750  HIT:    1772641  MISS:        109
L2C PREFETCH  REQUESTED:    1813767  ISSUED:    1813767  USEFUL:    1065700  USELESS:    8050490
L2C TOTAL MSHR MERGED:      98036
L2C LOAD MSHR MERGED:      22600
L2C RFO MSHR MERGED:          0
L2C PREFETCH MSHR MERGED:      75436
L2C WRITEBACK MSHR MERGED:          0
L2C TOTAL ACCESSES:   21025041 HITS:    8673627 MISSES:   12351414
L2C LOAD ACCESSES:    5113477 HITS:    2145074 MISSES:    2968403
L2C RFO ACCESSES:     152808 HITS:       6516 MISSES:     146292
L2C PREFETCH ACCESSES:   13986006 HITS:    4749396 MISSES:    9236610
L2C WRITEBACK ACCESSES:    1772750 HITS:    1772641 MISSES:        109
L2C RQ ACCESS:    5266285
L2C RQ TO_CACHE:    5266263
L2C RQ MERGED:          0
L2C RQ FORWARD:          0
L2C WQ ACCESS:    1772750
L2C WQ TO_CACHE:    1772750
L2C WQ MERGED:          0
L2C WQ FORWARD:         38
LLC TOTAL     ACCESS:   12533820  HIT:    6790433  MISS:    5743387
LLC LOAD      ACCESS:    2945786  HIT:    2464057  MISS:     481729
LLC RFO       ACCESS:     146292  HIT:      84993  MISS:      61299
LLC PREFETCH  ACCESS:    9155765  HIT:    4000640  MISS:    5155125
LLC WRITEBACK ACCESS:     285977  HIT:     240743  MISS:      45234
LLC PREFETCH  REQUESTED:          0  ISSUED:          0  USEFUL:       6090  USELESS:    5149001
LLC TOTAL MSHR MERGED:        889
LLC LOAD MSHR MERGED:        174
LLC RFO MSHR MERGED:          0
LLC PREFETCH MSHR MERGED:        715
LLC WRITEBACK MSHR MERGED:          0
LLC TOTAL ACCESSES:   12534740 HITS:    6790464 MISSES:    5744276
LLC LOAD ACCESSES:    2945803 HITS:    2464074 MISSES:     481729
LLC RFO ACCESSES:     146292 HITS:      84993 MISSES:      61299
LLC PREFETCH ACCESSES:    9156668 HITS:    4000654 MISSES:    5156014
LLC WRITEBACK ACCESSES:     285977 HITS:     240743 MISSES:      45234
LLC 0 RQ ACCESS:    3092095
LLC 0 RQ TO_CACHE:    3092078
LLC 0 RQ MERGED:          0
LLC 0 RQ FORWARD:          0
LLC WQ ACCESS:     285977
LLC WQ TO_CACHE:     285977
LLC WQ MERGED:          0
LLC WQ FORWARD:         31
Major fault: 0 Minor fault: 6524
CPU 0 L1D next line prefetcher final stats
CPU 0 L2C PC-based stride prefetcher final stats
All Misses: 7542989
All Hits: 7515844
SD Algo Stats - Switches: 0 SRR-Repls: 512671 BRR-Repls: 0

DRAM Statistics
 CHANNEL 0
 RQ ROW_BUFFER_HIT:    4914473  ROW_BUFFER_MISS:     777219
 DBUS_CONGESTED:    2071486
 WQ ROW_BUFFER_HIT:      12985  ROW_BUFFER_MISS:      63833  FULL:          0

 AVG_CONGESTED_CYCLE: 12
LOADS RETIRED: 175418235
INSTR RETIRED: 500000000
