
*** ChampSim Multicore Out-of-Order Simulator ***

Warmup Instructions: 100000000
Simulation Instructions: 500000000
Number of CPUs: 1
LLC sets: 2048
LLC ways: 16
Clean RRIP Policies: 1013030110130301 Dirty RRIP Policies: 2023130120231301 PSEL Width: 10 Track Set: 4294967295 PSEL Mask: 1 Demote Mask: 4340211043402110DS Algo: 0Window size: 0
Off-chip DRAM Size: 4096 MB Channels: 1 Width: 64-bit Data Rate: 1600 MT/s

CPU 0 runs /mnt/beegfs/iconst01/spec2017/Roms.trace.gz
NOT SORTED
TRACE STRING: /mnt/beegfs/iconst01/spec2017/Roms.trace.gz
SORTED
TRACE STRING: /mnt/beegfs/iconst01/spec2017/Roms.trace.gz
INITIAL
TRACE STRING: /mnt/beegfs/iconst01/spec2017/Roms.trace.gz

champsim_seed used: 417

CPU 0 L1D next line prefetcher
CPU 0 L2C IP-based stride prefetcher
Initialize DRRIP state
Assign rand_sets[0]: 454  LLC: 2048
rand_sets[0]: 454
Assign rand_sets[1]: 1662  LLC: 2048
rand_sets[1]: 1662
Assign rand_sets[2]: 1921  LLC: 2048
rand_sets[2]: 1921
Assign rand_sets[3]: 1131  LLC: 2048
rand_sets[3]: 1131
Assign rand_sets[4]: 331  LLC: 2048
rand_sets[4]: 331
Assign rand_sets[5]: 1531  LLC: 2048
rand_sets[5]: 1531
Assign rand_sets[6]: 482  LLC: 2048
rand_sets[6]: 482
Assign rand_sets[7]: 1275  LLC: 2048
rand_sets[7]: 1275
Assign rand_sets[8]: 1876  LLC: 2048
rand_sets[8]: 1876
Assign rand_sets[9]: 2038  LLC: 2048
rand_sets[9]: 2038
Assign rand_sets[10]: 701  LLC: 2048
rand_sets[10]: 701
Assign rand_sets[11]: 479  LLC: 2048
rand_sets[11]: 479
Assign rand_sets[12]: 892  LLC: 2048
rand_sets[12]: 892
Assign rand_sets[13]: 1820  LLC: 2048
rand_sets[13]: 1820
Assign rand_sets[14]: 1505  LLC: 2048
rand_sets[14]: 1505
Assign rand_sets[15]: 1159  LLC: 2048
rand_sets[15]: 1159
Assign rand_sets[16]: 513  LLC: 2048
rand_sets[16]: 513
Assign rand_sets[17]: 703  LLC: 2048
rand_sets[17]: 703
Assign rand_sets[18]: 561  LLC: 2048
rand_sets[18]: 561
Assign rand_sets[19]: 990  LLC: 2048
rand_sets[19]: 990
Assign rand_sets[20]: 342  LLC: 2048
rand_sets[20]: 342
Assign rand_sets[21]: 882  LLC: 2048
rand_sets[21]: 882
Assign rand_sets[22]: 15  LLC: 2048
rand_sets[22]: 15
Assign rand_sets[23]: 71  LLC: 2048
rand_sets[23]: 71
Assign rand_sets[24]: 1127  LLC: 2048
rand_sets[24]: 1127
Assign rand_sets[25]: 1382  LLC: 2048
rand_sets[25]: 1382
Assign rand_sets[26]: 647  LLC: 2048
rand_sets[26]: 647
Assign rand_sets[27]: 857  LLC: 2048
rand_sets[27]: 857
Assign rand_sets[28]: 1450  LLC: 2048
rand_sets[28]: 1450
Assign rand_sets[29]: 1160  LLC: 2048
rand_sets[29]: 1160
Assign rand_sets[30]: 1852  LLC: 2048
rand_sets[30]: 1852
Assign rand_sets[31]: 1881  LLC: 2048
rand_sets[31]: 1881
Assign rand_sets[32]: 1770  LLC: 2048
rand_sets[32]: 1770
Assign rand_sets[33]: 1622  LLC: 2048
rand_sets[33]: 1622
Assign rand_sets[34]: 275  LLC: 2048
rand_sets[34]: 275
Assign rand_sets[35]: 635  LLC: 2048
rand_sets[35]: 635
Assign rand_sets[36]: 466  LLC: 2048
rand_sets[36]: 466
Assign rand_sets[37]: 1413  LLC: 2048
rand_sets[37]: 1413
Assign rand_sets[38]: 417  LLC: 2048
rand_sets[38]: 417
Assign rand_sets[39]: 472  LLC: 2048
rand_sets[39]: 472
Assign rand_sets[40]: 1340  LLC: 2048
rand_sets[40]: 1340
Assign rand_sets[41]: 852  LLC: 2048
rand_sets[41]: 852
Assign rand_sets[42]: 1365  LLC: 2048
rand_sets[42]: 1365
Assign rand_sets[43]: 47  LLC: 2048
rand_sets[43]: 47
Assign rand_sets[44]: 823  LLC: 2048
rand_sets[44]: 823
Assign rand_sets[45]: 686  LLC: 2048
rand_sets[45]: 686
Assign rand_sets[46]: 1637  LLC: 2048
rand_sets[46]: 1637
Assign rand_sets[47]: 1115  LLC: 2048
rand_sets[47]: 1115
Assign rand_sets[48]: 986  LLC: 2048
rand_sets[48]: 986
Assign rand_sets[49]: 258  LLC: 2048
rand_sets[49]: 258
Assign rand_sets[50]: 633  LLC: 2048
rand_sets[50]: 633
Assign rand_sets[51]: 920  LLC: 2048
rand_sets[51]: 920
Assign rand_sets[52]: 204  LLC: 2048
rand_sets[52]: 204
Assign rand_sets[53]: 227  LLC: 2048
rand_sets[53]: 227
Assign rand_sets[54]: 1818  LLC: 2048
rand_sets[54]: 1818
Assign rand_sets[55]: 886  LLC: 2048
rand_sets[55]: 886
Assign rand_sets[56]: 1422  LLC: 2048
rand_sets[56]: 1422
Assign rand_sets[57]: 607  LLC: 2048
rand_sets[57]: 607
Assign rand_sets[58]: 217  LLC: 2048
rand_sets[58]: 217
Assign rand_sets[59]: 1945  LLC: 2048
rand_sets[59]: 1945
Assign rand_sets[60]: 143  LLC: 2048
rand_sets[60]: 143
Assign rand_sets[61]: 1311  LLC: 2048
rand_sets[61]: 1311
Assign rand_sets[62]: 319  LLC: 2048
rand_sets[62]: 319
Assign rand_sets[63]: 1846  LLC: 2048
rand_sets[63]: 1846
 CLEAN-RRIP-POLICY-1: 1-0-1-3-0-3-0-1- CLEAN-RRIP-POLICY-2: 1-0-1-3-0-3-0-1-
 DIRTY-RRIP-POLICY-1: 2-0-2-3-1-3-0-1- DIRTY-RRIP-POLICY-2: 2-0-2-3-1-3-0-1-
 PSEL width: 10
Heartbeat CPU 0 instructions: 10000000 cycles: 4688066 heartbeat IPC: 2.13308 cumulative IPC: 2.13308 (Simulation time: 0 hr 0 min 18 sec) 
Heartbeat CPU 0 instructions: 20000000 cycles: 9325335 heartbeat IPC: 2.15644 cumulative IPC: 2.1447 (Simulation time: 0 hr 0 min 35 sec) 
Heartbeat CPU 0 instructions: 30000003 cycles: 14019728 heartbeat IPC: 2.1302 cumulative IPC: 2.13984 (Simulation time: 0 hr 0 min 52 sec) 
Heartbeat CPU 0 instructions: 40000000 cycles: 18670153 heartbeat IPC: 2.15034 cumulative IPC: 2.14246 (Simulation time: 0 hr 1 min 10 sec) 
Heartbeat CPU 0 instructions: 50000003 cycles: 23323489 heartbeat IPC: 2.149 cumulative IPC: 2.14376 (Simulation time: 0 hr 1 min 27 sec) 
Heartbeat CPU 0 instructions: 60000000 cycles: 27975990 heartbeat IPC: 2.14938 cumulative IPC: 2.1447 (Simulation time: 0 hr 1 min 44 sec) 
Heartbeat CPU 0 instructions: 70000002 cycles: 32367192 heartbeat IPC: 2.27728 cumulative IPC: 2.16268 (Simulation time: 0 hr 1 min 59 sec) 
Heartbeat CPU 0 instructions: 80000000 cycles: 36304084 heartbeat IPC: 2.54007 cumulative IPC: 2.20361 (Simulation time: 0 hr 2 min 12 sec) 
Heartbeat CPU 0 instructions: 90000000 cycles: 40249284 heartbeat IPC: 2.53473 cumulative IPC: 2.23606 (Simulation time: 0 hr 2 min 24 sec) 
Heartbeat CPU 0 instructions: 100000000 cycles: 44211631 heartbeat IPC: 2.52376 cumulative IPC: 2.26185 (Simulation time: 0 hr 2 min 36 sec) 

Warmup complete CPU 0 instructions: 100000002 cycles: 44211632 (Simulation time: 0 hr 2 min 36 sec) 

Heartbeat CPU 0 instructions: 110000000 cycles: 53475905 heartbeat IPC: 1.07942 cumulative IPC: 1.07942 (Simulation time: 0 hr 2 min 56 sec) 
Heartbeat CPU 0 instructions: 120000000 cycles: 62689036 heartbeat IPC: 1.08541 cumulative IPC: 1.0824 (Simulation time: 0 hr 3 min 16 sec) 
Heartbeat CPU 0 instructions: 130000002 cycles: 71877488 heartbeat IPC: 1.08832 cumulative IPC: 1.08437 (Simulation time: 0 hr 3 min 35 sec) 
Heartbeat CPU 0 instructions: 140000000 cycles: 80910968 heartbeat IPC: 1.10699 cumulative IPC: 1.08994 (Simulation time: 0 hr 3 min 55 sec) 
Heartbeat CPU 0 instructions: 150000003 cycles: 90150360 heartbeat IPC: 1.08232 cumulative IPC: 1.08841 (Simulation time: 0 hr 4 min 15 sec) 
Heartbeat CPU 0 instructions: 160000000 cycles: 100902962 heartbeat IPC: 0.930007 cumulative IPC: 1.05836 (Simulation time: 0 hr 4 min 37 sec) 
Heartbeat CPU 0 instructions: 170000000 cycles: 113561396 heartbeat IPC: 0.789987 cumulative IPC: 1.00938 (Simulation time: 0 hr 5 min 2 sec) 
Heartbeat CPU 0 instructions: 180000000 cycles: 126200887 heartbeat IPC: 0.791171 cumulative IPC: 0.975738 (Simulation time: 0 hr 5 min 26 sec) 
Heartbeat CPU 0 instructions: 190000000 cycles: 139089085 heartbeat IPC: 0.775904 cumulative IPC: 0.948592 (Simulation time: 0 hr 5 min 51 sec) 
Heartbeat CPU 0 instructions: 200000000 cycles: 153032278 heartbeat IPC: 0.717196 cumulative IPC: 0.918943 (Simulation time: 0 hr 6 min 15 sec) 
Heartbeat CPU 0 instructions: 210000001 cycles: 167003977 heartbeat IPC: 0.715733 cumulative IPC: 0.895821 (Simulation time: 0 hr 6 min 40 sec) 
Heartbeat CPU 0 instructions: 220000000 cycles: 180794068 heartbeat IPC: 0.725158 cumulative IPC: 0.87859 (Simulation time: 0 hr 7 min 5 sec) 
Heartbeat CPU 0 instructions: 230000000 cycles: 194415002 heartbeat IPC: 0.734164 cumulative IPC: 0.865493 (Simulation time: 0 hr 7 min 31 sec) 
Heartbeat CPU 0 instructions: 240000000 cycles: 208102808 heartbeat IPC: 0.730577 cumulative IPC: 0.854225 (Simulation time: 0 hr 7 min 56 sec) 
Heartbeat CPU 0 instructions: 250000003 cycles: 219212863 heartbeat IPC: 0.900086 cumulative IPC: 0.857137 (Simulation time: 0 hr 8 min 20 sec) 
Heartbeat CPU 0 instructions: 260000000 cycles: 227158417 heartbeat IPC: 1.25857 cumulative IPC: 0.874571 (Simulation time: 0 hr 8 min 40 sec) 
Heartbeat CPU 0 instructions: 270000003 cycles: 235596676 heartbeat IPC: 1.18508 cumulative IPC: 0.888262 (Simulation time: 0 hr 9 min 1 sec) 
Heartbeat CPU 0 instructions: 280000000 cycles: 244567940 heartbeat IPC: 1.11467 cumulative IPC: 0.898399 (Simulation time: 0 hr 9 min 22 sec) 
Heartbeat CPU 0 instructions: 290000000 cycles: 253579719 heartbeat IPC: 1.10966 cumulative IPC: 0.907493 (Simulation time: 0 hr 9 min 44 sec) 
Heartbeat CPU 0 instructions: 300000000 cycles: 262556105 heartbeat IPC: 1.11403 cumulative IPC: 0.915984 (Simulation time: 0 hr 10 min 5 sec) 
Heartbeat CPU 0 instructions: 310000000 cycles: 271624263 heartbeat IPC: 1.10276 cumulative IPC: 0.923432 (Simulation time: 0 hr 10 min 28 sec) 
Heartbeat CPU 0 instructions: 320000000 cycles: 280718956 heartbeat IPC: 1.09954 cumulative IPC: 0.930204 (Simulation time: 0 hr 10 min 50 sec) 
Heartbeat CPU 0 instructions: 330000002 cycles: 289760699 heartbeat IPC: 1.10598 cumulative IPC: 0.936676 (Simulation time: 0 hr 11 min 13 sec) 
Heartbeat CPU 0 instructions: 340000000 cycles: 300144031 heartbeat IPC: 0.963082 cumulative IPC: 0.937748 (Simulation time: 0 hr 11 min 36 sec) 
Heartbeat CPU 0 instructions: 350000001 cycles: 309083087 heartbeat IPC: 1.11869 cumulative IPC: 0.943854 (Simulation time: 0 hr 11 min 58 sec) 
Heartbeat CPU 0 instructions: 360000000 cycles: 318006242 heartbeat IPC: 1.12068 cumulative IPC: 0.949617 (Simulation time: 0 hr 12 min 20 sec) 
Heartbeat CPU 0 instructions: 370000000 cycles: 326914512 heartbeat IPC: 1.12255 cumulative IPC: 0.955066 (Simulation time: 0 hr 12 min 41 sec) 
Heartbeat CPU 0 instructions: 380000000 cycles: 335752691 heartbeat IPC: 1.13145 cumulative IPC: 0.960414 (Simulation time: 0 hr 13 min 3 sec) 
Heartbeat CPU 0 instructions: 390000001 cycles: 344396656 heartbeat IPC: 1.15688 cumulative IPC: 0.966071 (Simulation time: 0 hr 13 min 24 sec) 
Heartbeat CPU 0 instructions: 400000000 cycles: 353126531 heartbeat IPC: 1.14549 cumulative IPC: 0.971141 (Simulation time: 0 hr 13 min 45 sec) 
Heartbeat CPU 0 instructions: 410000003 cycles: 361735070 heartbeat IPC: 1.16164 cumulative IPC: 0.976306 (Simulation time: 0 hr 14 min 6 sec) 
Heartbeat CPU 0 instructions: 420000000 cycles: 370420506 heartbeat IPC: 1.15135 cumulative IPC: 0.980967 (Simulation time: 0 hr 14 min 27 sec) 
Heartbeat CPU 0 instructions: 430000001 cycles: 378989003 heartbeat IPC: 1.16707 cumulative IPC: 0.98573 (Simulation time: 0 hr 14 min 48 sec) 
Heartbeat CPU 0 instructions: 440000000 cycles: 387508195 heartbeat IPC: 1.17382 cumulative IPC: 0.990397 (Simulation time: 0 hr 15 min 9 sec) 
Heartbeat CPU 0 instructions: 450000001 cycles: 397434018 heartbeat IPC: 1.00747 cumulative IPC: 0.990877 (Simulation time: 0 hr 15 min 32 sec) 
Heartbeat CPU 0 instructions: 460000000 cycles: 405937619 heartbeat IPC: 1.17597 cumulative IPC: 0.995228 (Simulation time: 0 hr 15 min 53 sec) 
Heartbeat CPU 0 instructions: 470000003 cycles: 414324849 heartbeat IPC: 1.19229 cumulative IPC: 0.999694 (Simulation time: 0 hr 16 min 14 sec) 
Heartbeat CPU 0 instructions: 480000000 cycles: 422748495 heartbeat IPC: 1.18713 cumulative IPC: 1.00387 (Simulation time: 0 hr 16 min 34 sec) 
Heartbeat CPU 0 instructions: 490000000 cycles: 431132721 heartbeat IPC: 1.19272 cumulative IPC: 1.00796 (Simulation time: 0 hr 16 min 55 sec) 
Heartbeat CPU 0 instructions: 500000000 cycles: 439525621 heartbeat IPC: 1.19148 cumulative IPC: 1.01185 (Simulation time: 0 hr 17 min 15 sec) 
Heartbeat CPU 0 instructions: 510000001 cycles: 447882657 heartbeat IPC: 1.1966 cumulative IPC: 1.01568 (Simulation time: 0 hr 17 min 36 sec) 
Heartbeat CPU 0 instructions: 520000000 cycles: 456270570 heartbeat IPC: 1.19219 cumulative IPC: 1.01927 (Simulation time: 0 hr 17 min 56 sec) 
Heartbeat CPU 0 instructions: 530000001 cycles: 464638396 heartbeat IPC: 1.19505 cumulative IPC: 1.02277 (Simulation time: 0 hr 18 min 16 sec) 
Heartbeat CPU 0 instructions: 540000000 cycles: 473190039 heartbeat IPC: 1.16937 cumulative IPC: 1.02569 (Simulation time: 0 hr 18 min 37 sec) 
Heartbeat CPU 0 instructions: 550000000 cycles: 481798775 heartbeat IPC: 1.16161 cumulative IPC: 1.02837 (Simulation time: 0 hr 18 min 58 sec) 
Heartbeat CPU 0 instructions: 560000000 cycles: 490187451 heartbeat IPC: 1.19208 cumulative IPC: 1.03145 (Simulation time: 0 hr 19 min 18 sec) 
Heartbeat CPU 0 instructions: 570000001 cycles: 501792399 heartbeat IPC: 0.861701 cumulative IPC: 1.02714 (Simulation time: 0 hr 19 min 41 sec) 
Heartbeat CPU 0 instructions: 580000000 cycles: 513117471 heartbeat IPC: 0.882996 cumulative IPC: 1.02366 (Simulation time: 0 hr 20 min 3 sec) 
Heartbeat CPU 0 instructions: 590000001 cycles: 524638104 heartbeat IPC: 0.868008 cumulative IPC: 1.01993 (Simulation time: 0 hr 20 min 25 sec) 
Heartbeat CPU 0 instructions: 600000000 cycles: 535907945 heartbeat IPC: 0.887324 cumulative IPC: 1.01689 (Simulation time: 0 hr 20 min 47 sec) 
Finished CPU 0 instructions: 500000001 cycles: 491696326 cumulative IPC: 1.01689 (Simulation time: 0 hr 20 min 47 sec) 

CPU 0 Branch Prediction Accuracy: 99.7422% MPKI: 0.173296
Number of Branches: 33608403 Number of Mispredictions: 86648
Number of LOAD Instructions: 180215231
Number of LOAD Instructions (ROI): 180215231
Number of STORE Instructions: 36067263
Number of STORE Instructions (ROI): 36067263
Total Destination Memory Operands: 38428915
Total Destination Memory Operands (ROI): 38428915
Total Source Memory Operands: 180215231
Total Source Memory Operands (ROI): 180215231
Number of DEPENDED LOADS: 3041820
Number of DEPENDED LOADS (ROI): 3041820
Number of SQ_ADDED: 38428892
Number of SQ_ADDED (ROI): 38428892
Number of LQ_ADDED: 207900584
Number of LQ_ADDED (ROI): 207900584
Number of Instructions read from trace: 600000257

ChampSim completed all CPUs

Region of Interest Statistics

CPU 0 cumulative IPC: 1.01689 instructions: 500000001 cycles: 491696326
ITLB TOTAL     ACCESS:   91925432  HIT:   91925413  MISS:         19
ITLB LOAD      ACCESS:   91925432  HIT:   91925413  MISS:         19
ITLB RFO       ACCESS:          0  HIT:          0  MISS:          0
ITLB PREFETCH  ACCESS:          0  HIT:          0  MISS:          0
ITLB WRITEBACK ACCESS:          0  HIT:          0  MISS:          0
ITLB PREFETCH  REQUESTED:          0  ISSUED:          0  USEFUL:          0  USELESS:          0
ITLB TOTAL MSHR MERGED:         40
ITLB LOAD MSHR MERGED:         40
ITLB RFO MSHR MERGED:          0
ITLB PREFETCH MSHR MERGED:          0
ITLB WRITEBACK MSHR MERGED:          0
ITLB TOTAL ACCESSES:   91925472 HITS:   91925413 MISSES:         59
ITLB LOAD ACCESSES:   91925472 HITS:   91925413 MISSES:         59
ITLB RFO ACCESSES:          0 HITS:          0 MISSES:          0
ITLB PREFETCH ACCESSES:          0 HITS:          0 MISSES:          0
ITLB WRITEBACK ACCESSES:          0 HITS:          0 MISSES:          0
ITLB RQ ACCESS:  500000003
ITLB RQ TO_CACHE:   91925472
ITLB RQ MERGED:  408074531
ITLB RQ FORWARD:          0
ITLB WQ ACCESS:          0
ITLB WQ TO_CACHE:          0
ITLB WQ MERGED:          0
ITLB WQ FORWARD:          0
DTLB TOTAL     ACCESS:  141958868  HIT:  141592406  MISS:     366462
DTLB LOAD      ACCESS:  119338954  HIT:  119025368  MISS:     313586
DTLB RFO       ACCESS:   22619914  HIT:   22567038  MISS:      52876
DTLB PREFETCH  ACCESS:          0  HIT:          0  MISS:          0
DTLB WRITEBACK ACCESS:          0  HIT:          0  MISS:          0
DTLB PREFETCH  REQUESTED:          0  ISSUED:          0  USEFUL:          0  USELESS:          0
DTLB TOTAL MSHR MERGED:     288588
DTLB LOAD MSHR MERGED:     240474
DTLB RFO MSHR MERGED:      48114
DTLB PREFETCH MSHR MERGED:          0
DTLB WRITEBACK MSHR MERGED:          0
DTLB TOTAL ACCESSES:  142247456 HITS:  141592406 MISSES:     655050
DTLB LOAD ACCESSES:  119579428 HITS:  119025368 MISSES:     554060
DTLB RFO ACCESSES:   22668028 HITS:   22567038 MISSES:     100990
DTLB PREFETCH ACCESSES:          0 HITS:          0 MISSES:          0
DTLB WRITEBACK ACCESSES:          0 HITS:          0 MISSES:          0
DTLB RQ ACCESS:  184791157
DTLB RQ TO_CACHE:  142247456
DTLB RQ MERGED:   42543701
DTLB RQ FORWARD:          0
DTLB WQ ACCESS:          0
DTLB WQ TO_CACHE:          0
DTLB WQ MERGED:          0
DTLB WQ FORWARD:          0
L1D TOTAL     ACCESS:  187711077  HIT:  174268781  MISS:   13442296
L1D LOAD      ACCESS:  111695157  HIT:  108286359  MISS:    3408798
L1D RFO       ACCESS:   17674070  HIT:   14892309  MISS:    2781761
L1D PREFETCH  ACCESS:   58341850  HIT:   51090113  MISS:    7251737
L1D WRITEBACK ACCESS:          0  HIT:          0  MISS:          0
L1D PREFETCH  REQUESTED:  116457740  ISSUED:  115097516  USEFUL:    7042409  USELESS:     209328
L1D TOTAL MSHR MERGED:   34169735
L1D LOAD MSHR MERGED:    7615242
L1D RFO MSHR MERGED:   10578543
L1D PREFETCH MSHR MERGED:   15975950
L1D WRITEBACK MSHR MERGED:          0
L1D TOTAL ACCESSES:  221881268 HITS:  174269236 MISSES:   47612032
L1D LOAD ACCESSES:  116457842 HITS:  108286461 MISSES:    8171381
L1D RFO ACCESSES:   28252550 HITS:   14892309 MISSES:   13360241
L1D PREFETCH ACCESSES:   77170876 HITS:   51090466 MISSES:   26080410
L1D WRITEBACK ACCESSES:          0 HITS:          0 MISSES:          0
L1D RQ ACCESS:  156535091
L1D RQ TO_CACHE:  116457743
L1D RQ MERGED:   40077246
L1D RQ FORWARD:          0
L1D WQ ACCESS:   28256066
L1D WQ TO_CACHE:   28252550
L1D WQ MERGED:       3516
L1D WQ FORWARD:        455
L1I TOTAL     ACCESS:  115914980  HIT:  115914032  MISS:        948
L1I LOAD      ACCESS:  115914980  HIT:  115914032  MISS:        948
L1I RFO       ACCESS:          0  HIT:          0  MISS:          0
L1I PREFETCH  ACCESS:          0  HIT:          0  MISS:          0
L1I WRITEBACK ACCESS:          0  HIT:          0  MISS:          0
L1I PREFETCH  REQUESTED:          0  ISSUED:          0  USEFUL:          0  USELESS:          0
L1I TOTAL MSHR MERGED:       1573
L1I LOAD MSHR MERGED:       1573
L1I RFO MSHR MERGED:          0
L1I PREFETCH MSHR MERGED:          0
L1I WRITEBACK MSHR MERGED:          0
L1I TOTAL ACCESSES:  115916553 HITS:  115914032 MISSES:       2521
L1I LOAD ACCESSES:  115916553 HITS:  115914032 MISSES:       2521
L1I RFO ACCESSES:          0 HITS:          0 MISSES:          0
L1I PREFETCH ACCESSES:          0 HITS:          0 MISSES:          0
L1I WRITEBACK ACCESSES:          0 HITS:          0 MISSES:          0
L1I RQ ACCESS:  500000007
L1I RQ TO_CACHE:  115916553
L1I RQ MERGED:  384083454
L1I RQ FORWARD:          0
L1I WQ ACCESS:          0
L1I WQ TO_CACHE:          0
L1I WQ MERGED:          0
L1I WQ FORWARD:          0
L2C TOTAL     ACCESS:   16687660  HIT:    4843232  MISS:   11844428
L2C LOAD      ACCESS:     557054  HIT:      95303  MISS:     461751
L2C RFO       ACCESS:    2781698  HIT:     266540  MISS:    2515158
L2C PREFETCH  ACCESS:   10128273  HIT:    1263036  MISS:    8865237
L2C WRITEBACK ACCESS:    3220635  HIT:    3218353  MISS:       2282
L2C PREFETCH  REQUESTED:      26197  ISSUED:      26197  USEFUL:      92465  USELESS:    8770848
L2C TOTAL MSHR MERGED:        568
L2C LOAD MSHR MERGED:          7
L2C RFO MSHR MERGED:          0
L2C PREFETCH MSHR MERGED:        561
L2C WRITEBACK MSHR MERGED:          0
L2C TOTAL ACCESSES:   16688550 HITS:    4843284 MISSES:   11845266
L2C LOAD ACCESSES:     557087 HITS:      95336 MISSES:     461751
L2C RFO ACCESSES:    2781698 HITS:     266540 MISSES:    2515158
L2C PREFETCH ACCESSES:   10129130 HITS:    1263055 MISSES:    8866075
L2C WRITEBACK ACCESSES:    3220635 HITS:    3218353 MISSES:       2282
L2C RQ ACCESS:    3338785
L2C RQ TO_CACHE:    3338752
L2C RQ MERGED:          0
L2C RQ FORWARD:          0
L2C WQ ACCESS:    3220635
L2C WQ TO_CACHE:    3220635
L2C WQ MERGED:          0
L2C WQ FORWARD:         52
LLC TOTAL     ACCESS:   14742746  HIT:    6367574  MISS:    8375172
LLC LOAD      ACCESS:     461742  HIT:     247329  MISS:     214413
LLC RFO       ACCESS:    2515135  HIT:    1432955  MISS:    1082180
LLC PREFETCH  ACCESS:    8865449  HIT:    2869125  MISS:    5996324
LLC WRITEBACK ACCESS:    2900420  HIT:    1818165  MISS:    1082255
LLC PREFETCH  REQUESTED:          0  ISSUED:          0  USEFUL:       4306  USELESS:    5992742
LLC TOTAL MSHR MERGED:          4
LLC LOAD MSHR MERGED:          0
LLC RFO MSHR MERGED:          0
LLC PREFETCH MSHR MERGED:          4
LLC WRITEBACK MSHR MERGED:          0
LLC TOTAL ACCESSES:   14742816 HITS:    6367639 MISSES:    8375177
LLC LOAD ACCESSES:     461744 HITS:     247331 MISSES:     214413
LLC RFO ACCESSES:    2515158 HITS:    1432978 MISSES:    1082180
LLC PREFETCH ACCESSES:    8865494 HITS:    2869165 MISSES:    5996329
LLC WRITEBACK ACCESSES:    2900420 HITS:    1818165 MISSES:    1082255
LLC 0 RQ ACCESS:    2976902
LLC 0 RQ TO_CACHE:    2976877
LLC 0 RQ MERGED:          0
LLC 0 RQ FORWARD:          0
LLC WQ ACCESS:    2900420
LLC WQ TO_CACHE:    2900420
LLC WQ MERGED:          0
LLC WQ FORWARD:         65
Major fault: 0 Minor fault: 57518
CPU 0 L1D next line prefetcher final stats
CPU 0 L2C PC-based stride prefetcher final stats
All Misses: 9128449
All Hits: 7110478
SD Algo Stats - Switches: 0 SRR-Repls: 221961 BRR-Repls: 0

DRAM Statistics
 CHANNEL 0
 RQ ROW_BUFFER_HIT:    3804372  ROW_BUFFER_MISS:    3484805
 DBUS_CONGESTED:    3701154
 WQ ROW_BUFFER_HIT:     143531  ROW_BUFFER_MISS:    1230690  FULL:          0

 AVG_CONGESTED_CYCLE: 12
LOADS RETIRED: 157818985
INSTR RETIRED: 500000000
