
*** ChampSim Multicore Out-of-Order Simulator ***

Warmup Instructions: 100000000
Simulation Instructions: 500000000
Number of CPUs: 1
LLC sets: 2048
LLC ways: 16
Clean RRIP Policies: 1002011110020111 Dirty RRIP Policies: 2002010120020101 PSEL Width: 10 Track Set: 4294967295 PSEL Mask: 1 Demote Mask: 4040304240403042DS Algo: 0Window size: 0
Off-chip DRAM Size: 4096 MB Channels: 1 Width: 64-bit Data Rate: 1600 MT/s

CPU 0 runs /mnt/beegfs/iconst01/spec2017/Gcc.trace.gz
NOT SORTED
TRACE STRING: /mnt/beegfs/iconst01/spec2017/Gcc.trace.gz
SORTED
TRACE STRING: /mnt/beegfs/iconst01/spec2017/Gcc.trace.gz
INITIAL
TRACE STRING: /mnt/beegfs/iconst01/spec2017/Gcc.trace.gz

champsim_seed used: 269

CPU 0 L1D next line prefetcher
CPU 0 L2C IP-based stride prefetcher
Initialize DRRIP state
Assign rand_sets[0]: 454  LLC: 2048
rand_sets[0]: 454
Assign rand_sets[1]: 1662  LLC: 2048
rand_sets[1]: 1662
Assign rand_sets[2]: 1921  LLC: 2048
rand_sets[2]: 1921
Assign rand_sets[3]: 1131  LLC: 2048
rand_sets[3]: 1131
Assign rand_sets[4]: 331  LLC: 2048
rand_sets[4]: 331
Assign rand_sets[5]: 1531  LLC: 2048
rand_sets[5]: 1531
Assign rand_sets[6]: 482  LLC: 2048
rand_sets[6]: 482
Assign rand_sets[7]: 1275  LLC: 2048
rand_sets[7]: 1275
Assign rand_sets[8]: 1876  LLC: 2048
rand_sets[8]: 1876
Assign rand_sets[9]: 2038  LLC: 2048
rand_sets[9]: 2038
Assign rand_sets[10]: 701  LLC: 2048
rand_sets[10]: 701
Assign rand_sets[11]: 479  LLC: 2048
rand_sets[11]: 479
Assign rand_sets[12]: 892  LLC: 2048
rand_sets[12]: 892
Assign rand_sets[13]: 1820  LLC: 2048
rand_sets[13]: 1820
Assign rand_sets[14]: 1505  LLC: 2048
rand_sets[14]: 1505
Assign rand_sets[15]: 1159  LLC: 2048
rand_sets[15]: 1159
Assign rand_sets[16]: 513  LLC: 2048
rand_sets[16]: 513
Assign rand_sets[17]: 703  LLC: 2048
rand_sets[17]: 703
Assign rand_sets[18]: 561  LLC: 2048
rand_sets[18]: 561
Assign rand_sets[19]: 990  LLC: 2048
rand_sets[19]: 990
Assign rand_sets[20]: 342  LLC: 2048
rand_sets[20]: 342
Assign rand_sets[21]: 882  LLC: 2048
rand_sets[21]: 882
Assign rand_sets[22]: 15  LLC: 2048
rand_sets[22]: 15
Assign rand_sets[23]: 71  LLC: 2048
rand_sets[23]: 71
Assign rand_sets[24]: 1127  LLC: 2048
rand_sets[24]: 1127
Assign rand_sets[25]: 1382  LLC: 2048
rand_sets[25]: 1382
Assign rand_sets[26]: 647  LLC: 2048
rand_sets[26]: 647
Assign rand_sets[27]: 857  LLC: 2048
rand_sets[27]: 857
Assign rand_sets[28]: 1450  LLC: 2048
rand_sets[28]: 1450
Assign rand_sets[29]: 1160  LLC: 2048
rand_sets[29]: 1160
Assign rand_sets[30]: 1852  LLC: 2048
rand_sets[30]: 1852
Assign rand_sets[31]: 1881  LLC: 2048
rand_sets[31]: 1881
Assign rand_sets[32]: 1770  LLC: 2048
rand_sets[32]: 1770
Assign rand_sets[33]: 1622  LLC: 2048
rand_sets[33]: 1622
Assign rand_sets[34]: 275  LLC: 2048
rand_sets[34]: 275
Assign rand_sets[35]: 635  LLC: 2048
rand_sets[35]: 635
Assign rand_sets[36]: 466  LLC: 2048
rand_sets[36]: 466
Assign rand_sets[37]: 1413  LLC: 2048
rand_sets[37]: 1413
Assign rand_sets[38]: 417  LLC: 2048
rand_sets[38]: 417
Assign rand_sets[39]: 472  LLC: 2048
rand_sets[39]: 472
Assign rand_sets[40]: 1340  LLC: 2048
rand_sets[40]: 1340
Assign rand_sets[41]: 852  LLC: 2048
rand_sets[41]: 852
Assign rand_sets[42]: 1365  LLC: 2048
rand_sets[42]: 1365
Assign rand_sets[43]: 47  LLC: 2048
rand_sets[43]: 47
Assign rand_sets[44]: 823  LLC: 2048
rand_sets[44]: 823
Assign rand_sets[45]: 686  LLC: 2048
rand_sets[45]: 686
Assign rand_sets[46]: 1637  LLC: 2048
rand_sets[46]: 1637
Assign rand_sets[47]: 1115  LLC: 2048
rand_sets[47]: 1115
Assign rand_sets[48]: 986  LLC: 2048
rand_sets[48]: 986
Assign rand_sets[49]: 258  LLC: 2048
rand_sets[49]: 258
Assign rand_sets[50]: 633  LLC: 2048
rand_sets[50]: 633
Assign rand_sets[51]: 920  LLC: 2048
rand_sets[51]: 920
Assign rand_sets[52]: 204  LLC: 2048
rand_sets[52]: 204
Assign rand_sets[53]: 227  LLC: 2048
rand_sets[53]: 227
Assign rand_sets[54]: 1818  LLC: 2048
rand_sets[54]: 1818
Assign rand_sets[55]: 886  LLC: 2048
rand_sets[55]: 886
Assign rand_sets[56]: 1422  LLC: 2048
rand_sets[56]: 1422
Assign rand_sets[57]: 607  LLC: 2048
rand_sets[57]: 607
Assign rand_sets[58]: 217  LLC: 2048
rand_sets[58]: 217
Assign rand_sets[59]: 1945  LLC: 2048
rand_sets[59]: 1945
Assign rand_sets[60]: 143  LLC: 2048
rand_sets[60]: 143
Assign rand_sets[61]: 1311  LLC: 2048
rand_sets[61]: 1311
Assign rand_sets[62]: 319  LLC: 2048
rand_sets[62]: 319
Assign rand_sets[63]: 1846  LLC: 2048
rand_sets[63]: 1846
 CLEAN-RRIP-POLICY-1: 1-0-0-2-0-1-1-1- CLEAN-RRIP-POLICY-2: 1-0-0-2-0-1-1-1-
 DIRTY-RRIP-POLICY-1: 2-0-0-2-0-1-0-1- DIRTY-RRIP-POLICY-2: 2-0-0-2-0-1-0-1-
 PSEL width: 10
Heartbeat CPU 0 instructions: 10000001 cycles: 7315910 heartbeat IPC: 1.36688 cumulative IPC: 1.36688 (Simulation time: 0 hr 0 min 15 sec) 
Heartbeat CPU 0 instructions: 20000000 cycles: 14307803 heartbeat IPC: 1.43023 cumulative IPC: 1.39784 (Simulation time: 0 hr 0 min 30 sec) 
Heartbeat CPU 0 instructions: 30000001 cycles: 21021411 heartbeat IPC: 1.48951 cumulative IPC: 1.42712 (Simulation time: 0 hr 0 min 47 sec) 
Heartbeat CPU 0 instructions: 40000000 cycles: 27482439 heartbeat IPC: 1.54774 cumulative IPC: 1.45547 (Simulation time: 0 hr 1 min 3 sec) 
Heartbeat CPU 0 instructions: 50000001 cycles: 33584479 heartbeat IPC: 1.6388 cumulative IPC: 1.48878 (Simulation time: 0 hr 1 min 19 sec) 
Heartbeat CPU 0 instructions: 60000000 cycles: 40065842 heartbeat IPC: 1.54289 cumulative IPC: 1.49753 (Simulation time: 0 hr 1 min 36 sec) 
Heartbeat CPU 0 instructions: 70000000 cycles: 47105743 heartbeat IPC: 1.42047 cumulative IPC: 1.48602 (Simulation time: 0 hr 1 min 51 sec) 
Heartbeat CPU 0 instructions: 80000000 cycles: 54196053 heartbeat IPC: 1.41038 cumulative IPC: 1.47612 (Simulation time: 0 hr 2 min 6 sec) 
Heartbeat CPU 0 instructions: 90000003 cycles: 61201050 heartbeat IPC: 1.42755 cumulative IPC: 1.47056 (Simulation time: 0 hr 2 min 21 sec) 
Heartbeat CPU 0 instructions: 100000000 cycles: 68369189 heartbeat IPC: 1.39506 cumulative IPC: 1.46265 (Simulation time: 0 hr 2 min 36 sec) 

Warmup complete CPU 0 instructions: 100000004 cycles: 68369190 (Simulation time: 0 hr 2 min 36 sec) 

Heartbeat CPU 0 instructions: 110000003 cycles: 96187329 heartbeat IPC: 0.359478 cumulative IPC: 0.359478 (Simulation time: 0 hr 3 min 6 sec) 
Heartbeat CPU 0 instructions: 120000000 cycles: 123705948 heartbeat IPC: 0.36339 cumulative IPC: 0.361423 (Simulation time: 0 hr 3 min 36 sec) 
Heartbeat CPU 0 instructions: 130000000 cycles: 148771937 heartbeat IPC: 0.398947 cumulative IPC: 0.373122 (Simulation time: 0 hr 4 min 5 sec) 
Heartbeat CPU 0 instructions: 140000000 cycles: 178533718 heartbeat IPC: 0.336001 cumulative IPC: 0.363093 (Simulation time: 0 hr 4 min 34 sec) 
Heartbeat CPU 0 instructions: 150000000 cycles: 208559196 heartbeat IPC: 0.33305 cumulative IPC: 0.356659 (Simulation time: 0 hr 5 min 4 sec) 
Heartbeat CPU 0 instructions: 160000000 cycles: 236020761 heartbeat IPC: 0.364145 cumulative IPC: 0.357885 (Simulation time: 0 hr 5 min 33 sec) 
Heartbeat CPU 0 instructions: 170000001 cycles: 264178077 heartbeat IPC: 0.355148 cumulative IPC: 0.357491 (Simulation time: 0 hr 6 min 4 sec) 
Heartbeat CPU 0 instructions: 180000000 cycles: 292761221 heartbeat IPC: 0.349856 cumulative IPC: 0.356519 (Simulation time: 0 hr 6 min 34 sec) 
Heartbeat CPU 0 instructions: 190000002 cycles: 320961963 heartbeat IPC: 0.354601 cumulative IPC: 0.356305 (Simulation time: 0 hr 7 min 4 sec) 
Heartbeat CPU 0 instructions: 200000000 cycles: 349418209 heartbeat IPC: 0.351417 cumulative IPC: 0.35581 (Simulation time: 0 hr 7 min 34 sec) 
Heartbeat CPU 0 instructions: 210000002 cycles: 377387776 heartbeat IPC: 0.357532 cumulative IPC: 0.355966 (Simulation time: 0 hr 8 min 4 sec) 
Heartbeat CPU 0 instructions: 220000000 cycles: 406713813 heartbeat IPC: 0.340994 cumulative IPC: 0.354668 (Simulation time: 0 hr 8 min 33 sec) 
Heartbeat CPU 0 instructions: 230000000 cycles: 434375296 heartbeat IPC: 0.361514 cumulative IPC: 0.355185 (Simulation time: 0 hr 9 min 2 sec) 
Heartbeat CPU 0 instructions: 240000000 cycles: 460361363 heartbeat IPC: 0.384822 cumulative IPC: 0.35715 (Simulation time: 0 hr 9 min 30 sec) 
Heartbeat CPU 0 instructions: 250000000 cycles: 490580951 heartbeat IPC: 0.330911 cumulative IPC: 0.355272 (Simulation time: 0 hr 10 min 1 sec) 
Heartbeat CPU 0 instructions: 260000000 cycles: 517753687 heartbeat IPC: 0.368016 cumulative IPC: 0.356043 (Simulation time: 0 hr 10 min 30 sec) 
Heartbeat CPU 0 instructions: 270000003 cycles: 546323048 heartbeat IPC: 0.350025 cumulative IPC: 0.355683 (Simulation time: 0 hr 11 min 1 sec) 
Heartbeat CPU 0 instructions: 280000000 cycles: 574653459 heartbeat IPC: 0.352977 cumulative IPC: 0.355531 (Simulation time: 0 hr 11 min 32 sec) 
Heartbeat CPU 0 instructions: 290000000 cycles: 603626593 heartbeat IPC: 0.345147 cumulative IPC: 0.354969 (Simulation time: 0 hr 12 min 3 sec) 
Heartbeat CPU 0 instructions: 300000000 cycles: 633812545 heartbeat IPC: 0.33128 cumulative IPC: 0.353705 (Simulation time: 0 hr 12 min 32 sec) 
Heartbeat CPU 0 instructions: 310000001 cycles: 663322628 heartbeat IPC: 0.338867 cumulative IPC: 0.352969 (Simulation time: 0 hr 13 min 2 sec) 
Heartbeat CPU 0 instructions: 320000000 cycles: 691724456 heartbeat IPC: 0.35209 cumulative IPC: 0.352929 (Simulation time: 0 hr 13 min 31 sec) 
Heartbeat CPU 0 instructions: 330000000 cycles: 720504400 heartbeat IPC: 0.347464 cumulative IPC: 0.352688 (Simulation time: 0 hr 14 min 0 sec) 
Heartbeat CPU 0 instructions: 340000000 cycles: 749957418 heartbeat IPC: 0.339524 cumulative IPC: 0.352119 (Simulation time: 0 hr 14 min 30 sec) 
Heartbeat CPU 0 instructions: 350000003 cycles: 777089560 heartbeat IPC: 0.368567 cumulative IPC: 0.352748 (Simulation time: 0 hr 14 min 59 sec) 
Heartbeat CPU 0 instructions: 360000000 cycles: 805353086 heartbeat IPC: 0.353813 cumulative IPC: 0.352789 (Simulation time: 0 hr 15 min 27 sec) 
Heartbeat CPU 0 instructions: 370000000 cycles: 833578285 heartbeat IPC: 0.354293 cumulative IPC: 0.352845 (Simulation time: 0 hr 15 min 56 sec) 
Heartbeat CPU 0 instructions: 380000000 cycles: 862166621 heartbeat IPC: 0.349793 cumulative IPC: 0.352735 (Simulation time: 0 hr 16 min 24 sec) 
Heartbeat CPU 0 instructions: 390000001 cycles: 889813020 heartbeat IPC: 0.361711 cumulative IPC: 0.353037 (Simulation time: 0 hr 16 min 52 sec) 
Heartbeat CPU 0 instructions: 400000000 cycles: 918515180 heartbeat IPC: 0.348406 cumulative IPC: 0.352881 (Simulation time: 0 hr 17 min 20 sec) 
Heartbeat CPU 0 instructions: 410000001 cycles: 945794884 heartbeat IPC: 0.366573 cumulative IPC: 0.353306 (Simulation time: 0 hr 17 min 49 sec) 
Heartbeat CPU 0 instructions: 420000000 cycles: 973078205 heartbeat IPC: 0.366524 cumulative IPC: 0.353705 (Simulation time: 0 hr 18 min 17 sec) 
Heartbeat CPU 0 instructions: 430000002 cycles: 1000814082 heartbeat IPC: 0.360544 cumulative IPC: 0.353908 (Simulation time: 0 hr 18 min 45 sec) 
Heartbeat CPU 0 instructions: 440000000 cycles: 1030551056 heartbeat IPC: 0.336282 cumulative IPC: 0.353364 (Simulation time: 0 hr 19 min 13 sec) 
Heartbeat CPU 0 instructions: 450000002 cycles: 1059898377 heartbeat IPC: 0.340747 cumulative IPC: 0.35299 (Simulation time: 0 hr 19 min 42 sec) 
Heartbeat CPU 0 instructions: 460000000 cycles: 1087625324 heartbeat IPC: 0.36066 cumulative IPC: 0.353199 (Simulation time: 0 hr 20 min 10 sec) 
Heartbeat CPU 0 instructions: 470000000 cycles: 1115257613 heartbeat IPC: 0.361895 cumulative IPC: 0.353428 (Simulation time: 0 hr 20 min 38 sec) 
Heartbeat CPU 0 instructions: 480000000 cycles: 1143130671 heartbeat IPC: 0.358769 cumulative IPC: 0.353567 (Simulation time: 0 hr 21 min 7 sec) 
Heartbeat CPU 0 instructions: 490000000 cycles: 1170702422 heartbeat IPC: 0.36269 cumulative IPC: 0.353795 (Simulation time: 0 hr 21 min 35 sec) 
Heartbeat CPU 0 instructions: 500000000 cycles: 1199057790 heartbeat IPC: 0.352667 cumulative IPC: 0.353767 (Simulation time: 0 hr 22 min 3 sec) 
Heartbeat CPU 0 instructions: 510000000 cycles: 1233612575 heartbeat IPC: 0.289396 cumulative IPC: 0.351858 (Simulation time: 0 hr 22 min 35 sec) 
Heartbeat CPU 0 instructions: 520000000 cycles: 1261676614 heartbeat IPC: 0.356328 cumulative IPC: 0.351963 (Simulation time: 0 hr 23 min 5 sec) 
Heartbeat CPU 0 instructions: 530000001 cycles: 1291230707 heartbeat IPC: 0.338363 cumulative IPC: 0.351634 (Simulation time: 0 hr 23 min 34 sec) 
Heartbeat CPU 0 instructions: 540000000 cycles: 1319412339 heartbeat IPC: 0.354841 cumulative IPC: 0.351707 (Simulation time: 0 hr 24 min 3 sec) 
Heartbeat CPU 0 instructions: 550000001 cycles: 1348677964 heartbeat IPC: 0.341698 cumulative IPC: 0.351478 (Simulation time: 0 hr 24 min 35 sec) 
Heartbeat CPU 0 instructions: 560000000 cycles: 1374125392 heartbeat IPC: 0.392967 cumulative IPC: 0.352286 (Simulation time: 0 hr 25 min 3 sec) 
Heartbeat CPU 0 instructions: 570000000 cycles: 1403893136 heartbeat IPC: 0.335934 cumulative IPC: 0.351922 (Simulation time: 0 hr 25 min 33 sec) 
Heartbeat CPU 0 instructions: 580000000 cycles: 1431961837 heartbeat IPC: 0.356269 cumulative IPC: 0.352011 (Simulation time: 0 hr 26 min 3 sec) 
Heartbeat CPU 0 instructions: 590000001 cycles: 1456715062 heartbeat IPC: 0.403988 cumulative IPC: 0.352938 (Simulation time: 0 hr 26 min 31 sec) 
Heartbeat CPU 0 instructions: 600000000 cycles: 1482811908 heartbeat IPC: 0.383188 cumulative IPC: 0.353496 (Simulation time: 0 hr 26 min 59 sec) 
Finished CPU 0 instructions: 500000000 cycles: 1414442740 cumulative IPC: 0.353496 (Simulation time: 0 hr 26 min 59 sec) 

CPU 0 Branch Prediction Accuracy: 86.4311% MPKI: 26.2662
Number of Branches: 96788573 Number of Mispredictions: 13133102
Number of LOAD Instructions: 164682285
Number of LOAD Instructions (ROI): 164682285
Number of STORE Instructions: 78194750
Number of STORE Instructions (ROI): 78194750
Total Destination Memory Operands: 83268534
Total Destination Memory Operands (ROI): 83268534
Total Source Memory Operands: 164712438
Total Source Memory Operands (ROI): 164712438
Number of DEPENDED LOADS: 7058417
Number of DEPENDED LOADS (ROI): 7058417
Number of SQ_ADDED: 83268522
Number of SQ_ADDED (ROI): 83268522
Number of LQ_ADDED: 236549338
Number of LQ_ADDED (ROI): 236549338
Number of Instructions read from trace: 600000066

ChampSim completed all CPUs

Region of Interest Statistics

CPU 0 cumulative IPC: 0.353496 instructions: 500000000 cycles: 1414442740
ITLB TOTAL     ACCESS:  100515967  HIT:  100311521  MISS:     204446
ITLB LOAD      ACCESS:  100515967  HIT:  100311521  MISS:     204446
ITLB RFO       ACCESS:          0  HIT:          0  MISS:          0
ITLB PREFETCH  ACCESS:          0  HIT:          0  MISS:          0
ITLB WRITEBACK ACCESS:          0  HIT:          0  MISS:          0
ITLB PREFETCH  REQUESTED:          0  ISSUED:          0  USEFUL:          0  USELESS:          0
ITLB TOTAL MSHR MERGED:     172424
ITLB LOAD MSHR MERGED:     172424
ITLB RFO MSHR MERGED:          0
ITLB PREFETCH MSHR MERGED:          0
ITLB WRITEBACK MSHR MERGED:          0
ITLB TOTAL ACCESSES:  100688391 HITS:  100311521 MISSES:     376870
ITLB LOAD ACCESSES:  100688391 HITS:  100311521 MISSES:     376870
ITLB RFO ACCESSES:          0 HITS:          0 MISSES:          0
ITLB PREFETCH ACCESSES:          0 HITS:          0 MISSES:          0
ITLB WRITEBACK ACCESSES:          0 HITS:          0 MISSES:          0
ITLB RQ ACCESS:  500000057
ITLB RQ TO_CACHE:  100688391
ITLB RQ MERGED:  399311666
ITLB RQ FORWARD:          0
ITLB WQ ACCESS:          0
ITLB WQ TO_CACHE:          0
ITLB WQ MERGED:          0
ITLB WQ FORWARD:          0
DTLB TOTAL     ACCESS:  165338711  HIT:  164704364  MISS:     634347
DTLB LOAD      ACCESS:  106294013  HIT:  105724078  MISS:     569935
DTLB RFO       ACCESS:   59044698  HIT:   58980286  MISS:      64412
DTLB PREFETCH  ACCESS:          0  HIT:          0  MISS:          0
DTLB WRITEBACK ACCESS:          0  HIT:          0  MISS:          0
DTLB PREFETCH  REQUESTED:          0  ISSUED:          0  USEFUL:          0  USELESS:          0
DTLB TOTAL MSHR MERGED:      99897
DTLB LOAD MSHR MERGED:      59418
DTLB RFO MSHR MERGED:      40479
DTLB PREFETCH MSHR MERGED:          0
DTLB WRITEBACK MSHR MERGED:          0
DTLB TOTAL ACCESSES:  165438608 HITS:  164704364 MISSES:     734244
DTLB LOAD ACCESSES:  106353431 HITS:  105724078 MISSES:     629353
DTLB RFO ACCESSES:   59085177 HITS:   58980286 MISSES:     104891
DTLB PREFETCH ACCESSES:          0 HITS:          0 MISSES:          0
DTLB WRITEBACK ACCESSES:          0 HITS:          0 MISSES:          0
DTLB RQ ACCESS:  200312462
DTLB RQ TO_CACHE:  165438608
DTLB RQ MERGED:   34873854
DTLB RQ FORWARD:          0
DTLB WQ ACCESS:          0
DTLB WQ TO_CACHE:          0
DTLB WQ MERGED:          0
DTLB WQ FORWARD:          0
L1D TOTAL     ACCESS:  281865168  HIT:  273955778  MISS:    7909390
L1D LOAD      ACCESS:  110431786  HIT:  107158295  MISS:    3273491
L1D RFO       ACCESS:   67109679  HIT:   66218681  MISS:     890998
L1D PREFETCH  ACCESS:  104323703  HIT:  100578802  MISS:    3744901
L1D WRITEBACK ACCESS:          0  HIT:          0  MISS:          0
L1D PREFETCH  REQUESTED:  110818594  ISSUED:  109119211  USEFUL:    1665632  USELESS:    2079233
L1D TOTAL MSHR MERGED:    2842373
L1D LOAD MSHR MERGED:     479845
L1D RFO MSHR MERGED:    1876613
L1D PREFETCH MSHR MERGED:     485915
L1D WRITEBACK MSHR MERGED:          0
L1D TOTAL ACCESSES:  284735066 HITS:  273983303 MISSES:   10751763
L1D LOAD ACCESSES:  110820111 HITS:  107159812 MISSES:    3660299
L1D RFO ACCESSES:   68974093 HITS:   66218681 MISSES:    2755412
L1D PREFETCH ACCESSES:  104940862 HITS:  100604810 MISSES:    4336052
L1D WRITEBACK ACCESSES:          0 HITS:          0 MISSES:          0
L1D RQ ACCESS:  130759859
L1D RQ TO_CACHE:  110818597
L1D RQ MERGED:   19939745
L1D RQ FORWARD:          0
L1D WQ ACCESS:   69552603
L1D WQ TO_CACHE:   68974094
L1D WQ MERGED:     578509
L1D WQ FORWARD:      27525
L1I TOTAL     ACCESS:  126563172  HIT:  122324620  MISS:    4238552
L1I LOAD      ACCESS:  126563172  HIT:  122324620  MISS:    4238552
L1I RFO       ACCESS:          0  HIT:          0  MISS:          0
L1I PREFETCH  ACCESS:          0  HIT:          0  MISS:          0
L1I WRITEBACK ACCESS:          0  HIT:          0  MISS:          0
L1I PREFETCH  REQUESTED:          0  ISSUED:          0  USEFUL:          0  USELESS:          0
L1I TOTAL MSHR MERGED:    1834986
L1I LOAD MSHR MERGED:    1834986
L1I RFO MSHR MERGED:          0
L1I PREFETCH MSHR MERGED:          0
L1I WRITEBACK MSHR MERGED:          0
L1I TOTAL ACCESSES:  128398161 HITS:  122324620 MISSES:    6073541
L1I LOAD ACCESSES:  128398161 HITS:  122324620 MISSES:    6073541
L1I RFO ACCESSES:          0 HITS:          0 MISSES:          0
L1I PREFETCH ACCESSES:          0 HITS:          0 MISSES:          0
L1I WRITEBACK ACCESSES:          0 HITS:          0 MISSES:          0
L1I RQ ACCESS:  500000057
L1I RQ TO_CACHE:  128398161
L1I RQ MERGED:  371601896
L1I RQ FORWARD:          0
L1I WQ ACCESS:          0
L1I WQ TO_CACHE:          0
L1I WQ MERGED:          0
L1I WQ FORWARD:          0
L2C TOTAL     ACCESS:   14905332  HIT:   11158824  MISS:    3746508
L2C LOAD      ACCESS:    7418802  HIT:    5098828  MISS:    2319974
L2C RFO       ACCESS:     878700  HIT:     409912  MISS:     468788
L2C PREFETCH  ACCESS:    4568586  HIT:    3628101  MISS:     940485
L2C WRITEBACK ACCESS:    2039244  HIT:    2021983  MISS:      17261
L2C PREFETCH  REQUESTED:     842800  ISSUED:     842800  USEFUL:     203380  USELESS:     736811
L2C TOTAL MSHR MERGED:       7048
L2C LOAD MSHR MERGED:        824
L2C RFO MSHR MERGED:          0
L2C PREFETCH MSHR MERGED:       6224
L2C WRITEBACK MSHR MERGED:          0
L2C TOTAL ACCESSES:   14913267 HITS:   11159272 MISSES:    3753995
L2C LOAD ACCESSES:    7419006 HITS:    5099032 MISSES:    2319974
L2C RFO ACCESSES:     878799 HITS:     410011 MISSES:     468788
L2C PREFETCH ACCESSES:    4576218 HITS:    3628246 MISSES:     947972
L2C WRITEBACK ACCESSES:    2039244 HITS:    2021983 MISSES:      17261
L2C RQ ACCESS:    8297808
L2C RQ TO_CACHE:    8297505
L2C RQ MERGED:          0
L2C RQ FORWARD:          0
L2C WQ ACCESS:    2039244
L2C WQ TO_CACHE:    2039244
L2C WQ MERGED:          0
L2C WQ FORWARD:        448
LLC TOTAL     ACCESS:    4609836  HIT:    4020871  MISS:     588965
LLC LOAD      ACCESS:    2319136  HIT:    2028233  MISS:     290903
LLC RFO       ACCESS:     468778  HIT:     387436  MISS:      81342
LLC PREFETCH  ACCESS:     941625  HIT:     728158  MISS:     213467
LLC WRITEBACK ACCESS:     880297  HIT:     877044  MISS:       3253
LLC PREFETCH  REQUESTED:          0  ISSUED:          0  USEFUL:      38811  USELESS:     174824
LLC TOTAL MSHR MERGED:        101
LLC LOAD MSHR MERGED:         36
LLC RFO MSHR MERGED:          0
LLC PREFETCH MSHR MERGED:         65
LLC WRITEBACK MSHR MERGED:          0
LLC TOTAL ACCESSES:    4609973 HITS:    4020907 MISSES:     589066
LLC LOAD ACCESSES:    2319150 HITS:    2028247 MISSES:     290903
LLC RFO ACCESSES:     468788 HITS:     387446 MISSES:      81342
LLC PREFETCH ACCESSES:     941738 HITS:     728170 MISSES:     213568
LLC WRITEBACK ACCESSES:     880297 HITS:     877044 MISSES:       3253
LLC 0 RQ ACCESS:    2787938
LLC 0 RQ TO_CACHE:    2787914
LLC 0 RQ MERGED:          0
LLC 0 RQ FORWARD:          0
LLC WQ ACCESS:     880297
LLC WQ TO_CACHE:     880297
LLC WQ MERGED:          0
LLC WQ FORWARD:         36
Major fault: 0 Minor fault: 12862
CPU 0 L1D next line prefetcher final stats
CPU 0 L2C PC-based stride prefetcher final stats
All Misses: 701630
All Hits: 4725212
SD Algo Stats - Switches: 0 SRR-Repls: 342773 BRR-Repls: 0

DRAM Statistics
 CHANNEL 0
 RQ ROW_BUFFER_HIT:     132296  ROW_BUFFER_MISS:     451902
 DBUS_CONGESTED:     365966
 WQ ROW_BUFFER_HIT:      17123  ROW_BUFFER_MISS:     188706  FULL:          0

 AVG_CONGESTED_CYCLE: 13
LOADS RETIRED: 136549171
INSTR RETIRED: 500000000
