
*** ChampSim Multicore Out-of-Order Simulator ***

Warmup Instructions: 100000000
Simulation Instructions: 500000000
Number of CPUs: 1
LLC sets: 2048
LLC ways: 16
Clean RRIP Policies: 2101230121012301 Dirty RRIP Policies: 1101132111011321 PSEL Width: 10 Track Set: 4294967295 PSEL Mask: 1 Demote Mask: 2143204321432043DS Algo: 0Window size: 0
Off-chip DRAM Size: 4096 MB Channels: 1 Width: 64-bit Data Rate: 1600 MT/s

CPU 0 runs /mnt/beegfs/iconst01/spec2017/Lbm.trace.gz
NOT SORTED
TRACE STRING: /mnt/beegfs/iconst01/spec2017/Lbm.trace.gz
SORTED
TRACE STRING: /mnt/beegfs/iconst01/spec2017/Lbm.trace.gz
INITIAL
TRACE STRING: /mnt/beegfs/iconst01/spec2017/Lbm.trace.gz

champsim_seed used: 283

CPU 0 L1D next line prefetcher
CPU 0 L2C IP-based stride prefetcher
Initialize DRRIP state
Assign rand_sets[0]: 454  LLC: 2048
rand_sets[0]: 454
Assign rand_sets[1]: 1662  LLC: 2048
rand_sets[1]: 1662
Assign rand_sets[2]: 1921  LLC: 2048
rand_sets[2]: 1921
Assign rand_sets[3]: 1131  LLC: 2048
rand_sets[3]: 1131
Assign rand_sets[4]: 331  LLC: 2048
rand_sets[4]: 331
Assign rand_sets[5]: 1531  LLC: 2048
rand_sets[5]: 1531
Assign rand_sets[6]: 482  LLC: 2048
rand_sets[6]: 482
Assign rand_sets[7]: 1275  LLC: 2048
rand_sets[7]: 1275
Assign rand_sets[8]: 1876  LLC: 2048
rand_sets[8]: 1876
Assign rand_sets[9]: 2038  LLC: 2048
rand_sets[9]: 2038
Assign rand_sets[10]: 701  LLC: 2048
rand_sets[10]: 701
Assign rand_sets[11]: 479  LLC: 2048
rand_sets[11]: 479
Assign rand_sets[12]: 892  LLC: 2048
rand_sets[12]: 892
Assign rand_sets[13]: 1820  LLC: 2048
rand_sets[13]: 1820
Assign rand_sets[14]: 1505  LLC: 2048
rand_sets[14]: 1505
Assign rand_sets[15]: 1159  LLC: 2048
rand_sets[15]: 1159
Assign rand_sets[16]: 513  LLC: 2048
rand_sets[16]: 513
Assign rand_sets[17]: 703  LLC: 2048
rand_sets[17]: 703
Assign rand_sets[18]: 561  LLC: 2048
rand_sets[18]: 561
Assign rand_sets[19]: 990  LLC: 2048
rand_sets[19]: 990
Assign rand_sets[20]: 342  LLC: 2048
rand_sets[20]: 342
Assign rand_sets[21]: 882  LLC: 2048
rand_sets[21]: 882
Assign rand_sets[22]: 15  LLC: 2048
rand_sets[22]: 15
Assign rand_sets[23]: 71  LLC: 2048
rand_sets[23]: 71
Assign rand_sets[24]: 1127  LLC: 2048
rand_sets[24]: 1127
Assign rand_sets[25]: 1382  LLC: 2048
rand_sets[25]: 1382
Assign rand_sets[26]: 647  LLC: 2048
rand_sets[26]: 647
Assign rand_sets[27]: 857  LLC: 2048
rand_sets[27]: 857
Assign rand_sets[28]: 1450  LLC: 2048
rand_sets[28]: 1450
Assign rand_sets[29]: 1160  LLC: 2048
rand_sets[29]: 1160
Assign rand_sets[30]: 1852  LLC: 2048
rand_sets[30]: 1852
Assign rand_sets[31]: 1881  LLC: 2048
rand_sets[31]: 1881
Assign rand_sets[32]: 1770  LLC: 2048
rand_sets[32]: 1770
Assign rand_sets[33]: 1622  LLC: 2048
rand_sets[33]: 1622
Assign rand_sets[34]: 275  LLC: 2048
rand_sets[34]: 275
Assign rand_sets[35]: 635  LLC: 2048
rand_sets[35]: 635
Assign rand_sets[36]: 466  LLC: 2048
rand_sets[36]: 466
Assign rand_sets[37]: 1413  LLC: 2048
rand_sets[37]: 1413
Assign rand_sets[38]: 417  LLC: 2048
rand_sets[38]: 417
Assign rand_sets[39]: 472  LLC: 2048
rand_sets[39]: 472
Assign rand_sets[40]: 1340  LLC: 2048
rand_sets[40]: 1340
Assign rand_sets[41]: 852  LLC: 2048
rand_sets[41]: 852
Assign rand_sets[42]: 1365  LLC: 2048
rand_sets[42]: 1365
Assign rand_sets[43]: 47  LLC: 2048
rand_sets[43]: 47
Assign rand_sets[44]: 823  LLC: 2048
rand_sets[44]: 823
Assign rand_sets[45]: 686  LLC: 2048
rand_sets[45]: 686
Assign rand_sets[46]: 1637  LLC: 2048
rand_sets[46]: 1637
Assign rand_sets[47]: 1115  LLC: 2048
rand_sets[47]: 1115
Assign rand_sets[48]: 986  LLC: 2048
rand_sets[48]: 986
Assign rand_sets[49]: 258  LLC: 2048
rand_sets[49]: 258
Assign rand_sets[50]: 633  LLC: 2048
rand_sets[50]: 633
Assign rand_sets[51]: 920  LLC: 2048
rand_sets[51]: 920
Assign rand_sets[52]: 204  LLC: 2048
rand_sets[52]: 204
Assign rand_sets[53]: 227  LLC: 2048
rand_sets[53]: 227
Assign rand_sets[54]: 1818  LLC: 2048
rand_sets[54]: 1818
Assign rand_sets[55]: 886  LLC: 2048
rand_sets[55]: 886
Assign rand_sets[56]: 1422  LLC: 2048
rand_sets[56]: 1422
Assign rand_sets[57]: 607  LLC: 2048
rand_sets[57]: 607
Assign rand_sets[58]: 217  LLC: 2048
rand_sets[58]: 217
Assign rand_sets[59]: 1945  LLC: 2048
rand_sets[59]: 1945
Assign rand_sets[60]: 143  LLC: 2048
rand_sets[60]: 143
Assign rand_sets[61]: 1311  LLC: 2048
rand_sets[61]: 1311
Assign rand_sets[62]: 319  LLC: 2048
rand_sets[62]: 319
Assign rand_sets[63]: 1846  LLC: 2048
rand_sets[63]: 1846
 CLEAN-RRIP-POLICY-1: 2-1-0-1-2-3-0-1- CLEAN-RRIP-POLICY-2: 2-1-0-1-2-3-0-1-
 DIRTY-RRIP-POLICY-1: 1-1-0-1-1-3-2-1- DIRTY-RRIP-POLICY-2: 1-1-0-1-1-3-2-1-
 PSEL width: 10
Heartbeat CPU 0 instructions: 10000000 cycles: 4321517 heartbeat IPC: 2.314 cumulative IPC: 2.314 (Simulation time: 0 hr 0 min 18 sec) 
Heartbeat CPU 0 instructions: 20000000 cycles: 8643676 heartbeat IPC: 2.31366 cumulative IPC: 2.31383 (Simulation time: 0 hr 0 min 37 sec) 
Heartbeat CPU 0 instructions: 30000000 cycles: 12965417 heartbeat IPC: 2.31388 cumulative IPC: 2.31385 (Simulation time: 0 hr 0 min 55 sec) 
Heartbeat CPU 0 instructions: 40000000 cycles: 17291340 heartbeat IPC: 2.31165 cumulative IPC: 2.3133 (Simulation time: 0 hr 1 min 13 sec) 
Heartbeat CPU 0 instructions: 50000000 cycles: 21613273 heartbeat IPC: 2.31378 cumulative IPC: 2.31339 (Simulation time: 0 hr 1 min 31 sec) 
Heartbeat CPU 0 instructions: 60000000 cycles: 25935011 heartbeat IPC: 2.31388 cumulative IPC: 2.31348 (Simulation time: 0 hr 1 min 50 sec) 
Heartbeat CPU 0 instructions: 70000000 cycles: 30256517 heartbeat IPC: 2.31401 cumulative IPC: 2.31355 (Simulation time: 0 hr 2 min 8 sec) 
Heartbeat CPU 0 instructions: 80000000 cycles: 34582696 heartbeat IPC: 2.31151 cumulative IPC: 2.3133 (Simulation time: 0 hr 2 min 26 sec) 
Heartbeat CPU 0 instructions: 90000003 cycles: 38904778 heartbeat IPC: 2.3137 cumulative IPC: 2.31334 (Simulation time: 0 hr 2 min 44 sec) 
Heartbeat CPU 0 instructions: 100000000 cycles: 43226278 heartbeat IPC: 2.31401 cumulative IPC: 2.31341 (Simulation time: 0 hr 3 min 3 sec) 

Warmup complete CPU 0 instructions: 100000001 cycles: 43226279 (Simulation time: 0 hr 3 min 3 sec) 

Heartbeat CPU 0 instructions: 110000000 cycles: 57465515 heartbeat IPC: 0.702285 cumulative IPC: 0.702285 (Simulation time: 0 hr 3 min 29 sec) 
Heartbeat CPU 0 instructions: 120000000 cycles: 71561717 heartbeat IPC: 0.709411 cumulative IPC: 0.70583 (Simulation time: 0 hr 3 min 55 sec) 
Heartbeat CPU 0 instructions: 130000000 cycles: 85796884 heartbeat IPC: 0.702486 cumulative IPC: 0.704712 (Simulation time: 0 hr 4 min 21 sec) 
Heartbeat CPU 0 instructions: 140000000 cycles: 99923389 heartbeat IPC: 0.707889 cumulative IPC: 0.705503 (Simulation time: 0 hr 4 min 47 sec) 
Heartbeat CPU 0 instructions: 150000003 cycles: 113758568 heartbeat IPC: 0.722795 cumulative IPC: 0.708895 (Simulation time: 0 hr 5 min 13 sec) 
Heartbeat CPU 0 instructions: 160000000 cycles: 127333395 heartbeat IPC: 0.736657 cumulative IPC: 0.713376 (Simulation time: 0 hr 5 min 39 sec) 
Heartbeat CPU 0 instructions: 170000002 cycles: 141597951 heartbeat IPC: 0.701038 cumulative IPC: 0.711587 (Simulation time: 0 hr 6 min 5 sec) 
Heartbeat CPU 0 instructions: 180000000 cycles: 155663723 heartbeat IPC: 0.710946 cumulative IPC: 0.711507 (Simulation time: 0 hr 6 min 31 sec) 
Heartbeat CPU 0 instructions: 190000003 cycles: 172780824 heartbeat IPC: 0.584211 cumulative IPC: 0.694688 (Simulation time: 0 hr 7 min 0 sec) 
Heartbeat CPU 0 instructions: 200000000 cycles: 193095015 heartbeat IPC: 0.492267 cumulative IPC: 0.667251 (Simulation time: 0 hr 7 min 32 sec) 
Heartbeat CPU 0 instructions: 210000001 cycles: 207236420 heartbeat IPC: 0.707143 cumulative IPC: 0.67069 (Simulation time: 0 hr 7 min 59 sec) 
Heartbeat CPU 0 instructions: 220000000 cycles: 221304001 heartbeat IPC: 0.710854 cumulative IPC: 0.673863 (Simulation time: 0 hr 8 min 25 sec) 
Heartbeat CPU 0 instructions: 230000001 cycles: 235591144 heartbeat IPC: 0.69993 cumulative IPC: 0.675799 (Simulation time: 0 hr 8 min 51 sec) 
Heartbeat CPU 0 instructions: 240000000 cycles: 249804481 heartbeat IPC: 0.703564 cumulative IPC: 0.677709 (Simulation time: 0 hr 9 min 17 sec) 
Heartbeat CPU 0 instructions: 250000000 cycles: 264343931 heartbeat IPC: 0.687784 cumulative IPC: 0.678372 (Simulation time: 0 hr 9 min 44 sec) 
Heartbeat CPU 0 instructions: 260000000 cycles: 279005210 heartbeat IPC: 0.682069 cumulative IPC: 0.678602 (Simulation time: 0 hr 10 min 10 sec) 
Heartbeat CPU 0 instructions: 270000002 cycles: 294005728 heartbeat IPC: 0.666644 cumulative IPC: 0.677886 (Simulation time: 0 hr 10 min 37 sec) 
Heartbeat CPU 0 instructions: 280000000 cycles: 308906200 heartbeat IPC: 0.67112 cumulative IPC: 0.677507 (Simulation time: 0 hr 11 min 4 sec) 
Heartbeat CPU 0 instructions: 290000003 cycles: 324899796 heartbeat IPC: 0.62525 cumulative IPC: 0.67454 (Simulation time: 0 hr 11 min 32 sec) 
Heartbeat CPU 0 instructions: 300000000 cycles: 340015922 heartbeat IPC: 0.661545 cumulative IPC: 0.673878 (Simulation time: 0 hr 11 min 59 sec) 
Heartbeat CPU 0 instructions: 310000000 cycles: 355429892 heartbeat IPC: 0.648762 cumulative IPC: 0.672638 (Simulation time: 0 hr 12 min 26 sec) 
Heartbeat CPU 0 instructions: 320000000 cycles: 370968216 heartbeat IPC: 0.64357 cumulative IPC: 0.67126 (Simulation time: 0 hr 12 min 53 sec) 
Heartbeat CPU 0 instructions: 330000002 cycles: 386054946 heartbeat IPC: 0.662834 cumulative IPC: 0.670889 (Simulation time: 0 hr 13 min 19 sec) 
Heartbeat CPU 0 instructions: 340000000 cycles: 401769774 heartbeat IPC: 0.636342 cumulative IPC: 0.669375 (Simulation time: 0 hr 13 min 46 sec) 
Heartbeat CPU 0 instructions: 350000001 cycles: 416928648 heartbeat IPC: 0.65968 cumulative IPC: 0.668982 (Simulation time: 0 hr 14 min 13 sec) 
Heartbeat CPU 0 instructions: 360000000 cycles: 432358900 heartbeat IPC: 0.648077 cumulative IPC: 0.668153 (Simulation time: 0 hr 14 min 40 sec) 
Heartbeat CPU 0 instructions: 370000000 cycles: 447228991 heartbeat IPC: 0.672491 cumulative IPC: 0.668312 (Simulation time: 0 hr 15 min 6 sec) 
Heartbeat CPU 0 instructions: 380000000 cycles: 462145755 heartbeat IPC: 0.670387 cumulative IPC: 0.668386 (Simulation time: 0 hr 15 min 32 sec) 
Heartbeat CPU 0 instructions: 390000000 cycles: 476643649 heartbeat IPC: 0.689755 cumulative IPC: 0.669101 (Simulation time: 0 hr 15 min 58 sec) 
Heartbeat CPU 0 instructions: 400000000 cycles: 491101845 heartbeat IPC: 0.691649 cumulative IPC: 0.669829 (Simulation time: 0 hr 16 min 24 sec) 
Heartbeat CPU 0 instructions: 410000000 cycles: 505278408 heartbeat IPC: 0.70539 cumulative IPC: 0.67092 (Simulation time: 0 hr 16 min 49 sec) 
Heartbeat CPU 0 instructions: 420000000 cycles: 519541582 heartbeat IPC: 0.701106 cumulative IPC: 0.671824 (Simulation time: 0 hr 17 min 14 sec) 
Heartbeat CPU 0 instructions: 430000002 cycles: 533505331 heartbeat IPC: 0.71614 cumulative IPC: 0.673086 (Simulation time: 0 hr 17 min 40 sec) 
Heartbeat CPU 0 instructions: 440000000 cycles: 547257413 heartbeat IPC: 0.727162 cumulative IPC: 0.674562 (Simulation time: 0 hr 18 min 5 sec) 
Heartbeat CPU 0 instructions: 450000000 cycles: 561292347 heartbeat IPC: 0.712508 cumulative IPC: 0.67559 (Simulation time: 0 hr 18 min 30 sec) 
Heartbeat CPU 0 instructions: 460000000 cycles: 575819939 heartbeat IPC: 0.688345 cumulative IPC: 0.675937 (Simulation time: 0 hr 18 min 55 sec) 
Heartbeat CPU 0 instructions: 470000000 cycles: 589794174 heartbeat IPC: 0.715603 cumulative IPC: 0.676952 (Simulation time: 0 hr 19 min 20 sec) 
Heartbeat CPU 0 instructions: 480000000 cycles: 603925325 heartbeat IPC: 0.707656 cumulative IPC: 0.677725 (Simulation time: 0 hr 19 min 45 sec) 
Heartbeat CPU 0 instructions: 490000001 cycles: 618231474 heartbeat IPC: 0.699 cumulative IPC: 0.678255 (Simulation time: 0 hr 20 min 11 sec) 
Heartbeat CPU 0 instructions: 500000000 cycles: 632278597 heartbeat IPC: 0.711889 cumulative IPC: 0.679057 (Simulation time: 0 hr 20 min 36 sec) 
Heartbeat CPU 0 instructions: 510000002 cycles: 646181760 heartbeat IPC: 0.719261 cumulative IPC: 0.679984 (Simulation time: 0 hr 21 min 1 sec) 
Heartbeat CPU 0 instructions: 520000000 cycles: 660041260 heartbeat IPC: 0.721527 cumulative IPC: 0.680917 (Simulation time: 0 hr 21 min 26 sec) 
Heartbeat CPU 0 instructions: 530000001 cycles: 674127365 heartbeat IPC: 0.70992 cumulative IPC: 0.681565 (Simulation time: 0 hr 21 min 51 sec) 
Heartbeat CPU 0 instructions: 540000000 cycles: 688000488 heartbeat IPC: 0.720818 cumulative IPC: 0.682409 (Simulation time: 0 hr 22 min 16 sec) 
Heartbeat CPU 0 instructions: 550000003 cycles: 701940728 heartbeat IPC: 0.717348 cumulative IPC: 0.683149 (Simulation time: 0 hr 22 min 41 sec) 
Heartbeat CPU 0 instructions: 560000000 cycles: 716410397 heartbeat IPC: 0.691101 cumulative IPC: 0.68332 (Simulation time: 0 hr 23 min 6 sec) 
Heartbeat CPU 0 instructions: 570000001 cycles: 730626716 heartbeat IPC: 0.703417 cumulative IPC: 0.683735 (Simulation time: 0 hr 23 min 32 sec) 
Heartbeat CPU 0 instructions: 580000000 cycles: 744453774 heartbeat IPC: 0.72322 cumulative IPC: 0.684514 (Simulation time: 0 hr 23 min 57 sec) 
Heartbeat CPU 0 instructions: 590000003 cycles: 757983299 heartbeat IPC: 0.739124 cumulative IPC: 0.685548 (Simulation time: 0 hr 24 min 21 sec) 
Heartbeat CPU 0 instructions: 600000000 cycles: 772395150 heartbeat IPC: 0.693873 cumulative IPC: 0.685712 (Simulation time: 0 hr 24 min 47 sec) 
Finished CPU 0 instructions: 500000000 cycles: 729168879 cumulative IPC: 0.685712 (Simulation time: 0 hr 24 min 47 sec) 

CPU 0 Branch Prediction Accuracy: 99.5915% MPKI: 0.037126
Number of Branches: 4544106 Number of Mispredictions: 18563
Number of LOAD Instructions: 149787067
Number of LOAD Instructions (ROI): 149787067
Number of STORE Instructions: 77239062
Number of STORE Instructions (ROI): 77239062
Total Destination Memory Operands: 77239062
Total Destination Memory Operands (ROI): 77239062
Total Source Memory Operands: 149787067
Total Source Memory Operands (ROI): 149787067
Number of DEPENDED LOADS: 19247811
Number of DEPENDED LOADS (ROI): 19247811
Number of SQ_ADDED: 77239036
Number of SQ_ADDED (ROI): 77239036
Number of LQ_ADDED: 149787020
Number of LQ_ADDED (ROI): 149787020
Number of Instructions read from trace: 600000256

ChampSim completed all CPUs

Region of Interest Statistics

CPU 0 cumulative IPC: 0.685712 instructions: 500000000 cycles: 729168879
ITLB TOTAL     ACCESS:   86454472  HIT:   86454471  MISS:          1
ITLB LOAD      ACCESS:   86454472  HIT:   86454471  MISS:          1
ITLB RFO       ACCESS:          0  HIT:          0  MISS:          0
ITLB PREFETCH  ACCESS:          0  HIT:          0  MISS:          0
ITLB WRITEBACK ACCESS:          0  HIT:          0  MISS:          0
ITLB PREFETCH  REQUESTED:          0  ISSUED:          0  USEFUL:          0  USELESS:          0
ITLB TOTAL MSHR MERGED:          1
ITLB LOAD MSHR MERGED:          1
ITLB RFO MSHR MERGED:          0
ITLB PREFETCH MSHR MERGED:          0
ITLB WRITEBACK MSHR MERGED:          0
ITLB TOTAL ACCESSES:   86454473 HITS:   86454471 MISSES:          2
ITLB LOAD ACCESSES:   86454473 HITS:   86454471 MISSES:          2
ITLB RFO ACCESSES:          0 HITS:          0 MISSES:          0
ITLB PREFETCH ACCESSES:          0 HITS:          0 MISSES:          0
ITLB WRITEBACK ACCESSES:          0 HITS:          0 MISSES:          0
ITLB RQ ACCESS:  500000002
ITLB RQ TO_CACHE:   86454473
ITLB RQ MERGED:  413545529
ITLB RQ FORWARD:          0
ITLB WQ ACCESS:          0
ITLB WQ TO_CACHE:          0
ITLB WQ MERGED:          0
ITLB WQ FORWARD:          0
DTLB TOTAL     ACCESS:   98108251  HIT:   97922990  MISS:     185261
DTLB LOAD      ACCESS:   55039970  HIT:   54993659  MISS:      46311
DTLB RFO       ACCESS:   43068281  HIT:   42929331  MISS:     138950
DTLB PREFETCH  ACCESS:          0  HIT:          0  MISS:          0
DTLB WRITEBACK ACCESS:          0  HIT:          0  MISS:          0
DTLB PREFETCH  REQUESTED:          0  ISSUED:          0  USEFUL:          0  USELESS:          0
DTLB TOTAL MSHR MERGED:      83532
DTLB LOAD MSHR MERGED:      83527
DTLB RFO MSHR MERGED:          5
DTLB PREFETCH MSHR MERGED:          0
DTLB WRITEBACK MSHR MERGED:          0
DTLB TOTAL ACCESSES:   98191783 HITS:   97922990 MISSES:     268793
DTLB LOAD ACCESSES:   55123497 HITS:   54993659 MISSES:     129838
DTLB RFO ACCESSES:   43068286 HITS:   42929331 MISSES:     138955
DTLB PREFETCH ACCESSES:          0 HITS:          0 MISSES:          0
DTLB WRITEBACK ACCESSES:          0 HITS:          0 MISSES:          0
DTLB RQ ACCESS:  173634716
DTLB RQ TO_CACHE:   98191783
DTLB RQ MERGED:   75442933
DTLB RQ FORWARD:          0
DTLB WQ ACCESS:          0
DTLB WQ TO_CACHE:          0
DTLB WQ MERGED:          0
DTLB WQ FORWARD:          0
L1D TOTAL     ACCESS:  164574046  HIT:  145001491  MISS:   19572555
L1D LOAD      ACCESS:   60539224  HIT:   58686678  MISS:    1852546
L1D RFO       ACCESS:   64513671  HIT:   47911544  MISS:   16602127
L1D PREFETCH  ACCESS:   39521151  HIT:   38403269  MISS:    1117882
L1D WRITEBACK ACCESS:          0  HIT:          0  MISS:          0
L1D PREFETCH  REQUESTED:   61719066  ISSUED:   61426823  USEFUL:    1115962  USELESS:       1921
L1D TOTAL MSHR MERGED:    3514903
L1D LOAD MSHR MERGED:    1251016
L1D RFO MSHR MERGED:      11334
L1D PREFETCH MSHR MERGED:    2252553
L1D WRITEBACK MSHR MERGED:          0
L1D TOTAL ACCESSES:  168659546 HITS:  145572088 MISSES:   23087458
L1D LOAD ACCESSES:   61982776 HITS:   58950388 MISSES:    3032388
L1D RFO ACCESSES:   64524973 HITS:   47911544 MISSES:   16613429
L1D PREFETCH ACCESSES:   42151797 HITS:   38710156 MISSES:    3441641
L1D WRITEBACK ACCESSES:          0 HITS:          0 MISSES:          0
L1D RQ ACCESS:  109093401
L1D RQ TO_CACHE:   61719066
L1D RQ MERGED:   47110625
L1D RQ FORWARD:          0
L1D WQ ACCESS:   64541313
L1D WQ TO_CACHE:   64524974
L1D WQ MERGED:      16339
L1D WQ FORWARD:     570597
L1I TOTAL     ACCESS:  107763582  HIT:  107763574  MISS:          8
L1I LOAD      ACCESS:  107763582  HIT:  107763574  MISS:          8
L1I RFO       ACCESS:          0  HIT:          0  MISS:          0
L1I PREFETCH  ACCESS:          0  HIT:          0  MISS:          0
L1I WRITEBACK ACCESS:          0  HIT:          0  MISS:          0
L1I PREFETCH  REQUESTED:          0  ISSUED:          0  USEFUL:          0  USELESS:          0
L1I TOTAL MSHR MERGED:          3
L1I LOAD MSHR MERGED:          3
L1I RFO MSHR MERGED:          0
L1I PREFETCH MSHR MERGED:          0
L1I WRITEBACK MSHR MERGED:          0
L1I TOTAL ACCESSES:  107763585 HITS:  107763574 MISSES:         11
L1I LOAD ACCESSES:  107763585 HITS:  107763574 MISSES:         11
L1I RFO ACCESSES:          0 HITS:          0 MISSES:          0
L1I PREFETCH ACCESSES:          0 HITS:          0 MISSES:          0
L1I WRITEBACK ACCESSES:          0 HITS:          0 MISSES:          0
L1I RQ ACCESS:  500000007
L1I RQ TO_CACHE:  107763585
L1I RQ MERGED:  392236422
L1I RQ FORWARD:          0
L1I WQ ACCESS:          0
L1I WQ TO_CACHE:          0
L1I WQ MERGED:          0
L1I WQ FORWARD:          0
L2C TOTAL     ACCESS:   36812306  HIT:   24854728  MISS:   11957578
L2C LOAD      ACCESS:    1781380  HIT:     257166  MISS:    1524214
L2C RFO       ACCESS:   16602094  HIT:    7610719  MISS:    8991375
L2C PREFETCH  ACCESS:    1826651  HIT:     385888  MISS:    1440763
L2C WRITEBACK ACCESS:   16602181  HIT:   16600955  MISS:       1226
L2C PREFETCH  REQUESTED:     817843  ISSUED:     817843  USEFUL:     254836  USELESS:    1186208
L2C TOTAL MSHR MERGED:       2831
L2C LOAD MSHR MERGED:        641
L2C RFO MSHR MERGED:          0
L2C PREFETCH MSHR MERGED:       2190
L2C WRITEBACK MSHR MERGED:          0
L2C TOTAL ACCESSES:   36992485 HITS:   24854730 MISSES:   12137755
L2C LOAD ACCESSES:    1781380 HITS:     257166 MISSES:    1524214
L2C RFO ACCESSES:   16602095 HITS:    7610721 MISSES:    8991374
L2C PREFETCH ACCESSES:    2006829 HITS:     385888 MISSES:    1620941
L2C WRITEBACK ACCESSES:   16602181 HITS:   16600955 MISSES:       1226
L2C RQ ACCESS:   18383475
L2C RQ TO_CACHE:   18383473
L2C RQ MERGED:          0
L2C RQ FORWARD:          0
L2C WQ ACCESS:   16602181
L2C WQ TO_CACHE:   16602181
L2C WQ MERGED:          0
L2C WQ FORWARD:          2
LLC TOTAL     ACCESS:   21122751  HIT:    1556916  MISS:   19565835
LLC LOAD      ACCESS:    1523573  HIT:      64336  MISS:    1459237
LLC RFO       ACCESS:    8991360  HIT:     616045  MISS:    8375315
LLC PREFETCH  ACCESS:    1615623  HIT:     110180  MISS:    1505443
LLC WRITEBACK ACCESS:    8992195  HIT:     766355  MISS:    8225840
LLC PREFETCH  REQUESTED:          0  ISSUED:          0  USEFUL:      64204  USELESS:    1441472
LLC TOTAL MSHR MERGED:       2750
LLC LOAD MSHR MERGED:        248
LLC RFO MSHR MERGED:          0
LLC PREFETCH MSHR MERGED:       2502
LLC WRITEBACK MSHR MERGED:          0
LLC TOTAL ACCESSES:   21125515 HITS:    1556931 MISSES:   19568584
LLC LOAD ACCESSES:    1523573 HITS:      64336 MISSES:    1459237
LLC RFO ACCESSES:    8991374 HITS:     616060 MISSES:    8375314
LLC PREFETCH ACCESSES:    1618373 HITS:     110180 MISSES:    1508193
LLC WRITEBACK ACCESSES:    8992195 HITS:     766355 MISSES:    8225840
LLC 0 RQ ACCESS:   10514947
LLC 0 RQ TO_CACHE:   10514932
LLC 0 RQ MERGED:          0
LLC 0 RQ FORWARD:          0
LLC WQ ACCESS:    8992195
LLC WQ TO_CACHE:    8992195
LLC WQ MERGED:          0
LLC WQ FORWARD:         15
Major fault: 0 Minor fault: 102360
CPU 0 L1D next line prefetcher final stats
CPU 0 L2C PC-based stride prefetcher final stats
All Misses: 23244192
All Hits: 1854070
SD Algo Stats - Switches: 0 SRR-Repls: 1637844 BRR-Repls: 0

DRAM Statistics
 CHANNEL 0
 RQ ROW_BUFFER_HIT:    3735225  ROW_BUFFER_MISS:    7604541
 DBUS_CONGESTED:   13573750
 WQ ROW_BUFFER_HIT:    1169331  ROW_BUFFER_MISS:    7223767  FULL:          0

 AVG_CONGESTED_CYCLE: 13
LOADS RETIRED: 124982196
INSTR RETIRED: 500000000
