
*** ChampSim Multicore Out-of-Order Simulator ***

Warmup Instructions: 100000000
Simulation Instructions: 500000000
Number of CPUs: 1
LLC sets: 2048
LLC ways: 16
Clean RRIP Policies: 2101230121012301 Dirty RRIP Policies: 1101132111011321 PSEL Width: 10 Track Set: 4294967295 PSEL Mask: 1 Demote Mask: 2143204321432043DS Algo: 0Window size: 0
Off-chip DRAM Size: 4096 MB Channels: 1 Width: 64-bit Data Rate: 1600 MT/s

CPU 0 runs /mnt/beegfs/iconst01/spec2017/Omnetpp.trace.gz
NOT SORTED
TRACE STRING: /mnt/beegfs/iconst01/spec2017/Omnetpp.trace.gz
SORTED
TRACE STRING: /mnt/beegfs/iconst01/spec2017/Omnetpp.trace.gz
INITIAL
TRACE STRING: /mnt/beegfs/iconst01/spec2017/Omnetpp.trace.gz

champsim_seed used: 739

CPU 0 L1D next line prefetcher
CPU 0 L2C IP-based stride prefetcher
Initialize DRRIP state
Assign rand_sets[0]: 454  LLC: 2048
rand_sets[0]: 454
Assign rand_sets[1]: 1662  LLC: 2048
rand_sets[1]: 1662
Assign rand_sets[2]: 1921  LLC: 2048
rand_sets[2]: 1921
Assign rand_sets[3]: 1131  LLC: 2048
rand_sets[3]: 1131
Assign rand_sets[4]: 331  LLC: 2048
rand_sets[4]: 331
Assign rand_sets[5]: 1531  LLC: 2048
rand_sets[5]: 1531
Assign rand_sets[6]: 482  LLC: 2048
rand_sets[6]: 482
Assign rand_sets[7]: 1275  LLC: 2048
rand_sets[7]: 1275
Assign rand_sets[8]: 1876  LLC: 2048
rand_sets[8]: 1876
Assign rand_sets[9]: 2038  LLC: 2048
rand_sets[9]: 2038
Assign rand_sets[10]: 701  LLC: 2048
rand_sets[10]: 701
Assign rand_sets[11]: 479  LLC: 2048
rand_sets[11]: 479
Assign rand_sets[12]: 892  LLC: 2048
rand_sets[12]: 892
Assign rand_sets[13]: 1820  LLC: 2048
rand_sets[13]: 1820
Assign rand_sets[14]: 1505  LLC: 2048
rand_sets[14]: 1505
Assign rand_sets[15]: 1159  LLC: 2048
rand_sets[15]: 1159
Assign rand_sets[16]: 513  LLC: 2048
rand_sets[16]: 513
Assign rand_sets[17]: 703  LLC: 2048
rand_sets[17]: 703
Assign rand_sets[18]: 561  LLC: 2048
rand_sets[18]: 561
Assign rand_sets[19]: 990  LLC: 2048
rand_sets[19]: 990
Assign rand_sets[20]: 342  LLC: 2048
rand_sets[20]: 342
Assign rand_sets[21]: 882  LLC: 2048
rand_sets[21]: 882
Assign rand_sets[22]: 15  LLC: 2048
rand_sets[22]: 15
Assign rand_sets[23]: 71  LLC: 2048
rand_sets[23]: 71
Assign rand_sets[24]: 1127  LLC: 2048
rand_sets[24]: 1127
Assign rand_sets[25]: 1382  LLC: 2048
rand_sets[25]: 1382
Assign rand_sets[26]: 647  LLC: 2048
rand_sets[26]: 647
Assign rand_sets[27]: 857  LLC: 2048
rand_sets[27]: 857
Assign rand_sets[28]: 1450  LLC: 2048
rand_sets[28]: 1450
Assign rand_sets[29]: 1160  LLC: 2048
rand_sets[29]: 1160
Assign rand_sets[30]: 1852  LLC: 2048
rand_sets[30]: 1852
Assign rand_sets[31]: 1881  LLC: 2048
rand_sets[31]: 1881
Assign rand_sets[32]: 1770  LLC: 2048
rand_sets[32]: 1770
Assign rand_sets[33]: 1622  LLC: 2048
rand_sets[33]: 1622
Assign rand_sets[34]: 275  LLC: 2048
rand_sets[34]: 275
Assign rand_sets[35]: 635  LLC: 2048
rand_sets[35]: 635
Assign rand_sets[36]: 466  LLC: 2048
rand_sets[36]: 466
Assign rand_sets[37]: 1413  LLC: 2048
rand_sets[37]: 1413
Assign rand_sets[38]: 417  LLC: 2048
rand_sets[38]: 417
Assign rand_sets[39]: 472  LLC: 2048
rand_sets[39]: 472
Assign rand_sets[40]: 1340  LLC: 2048
rand_sets[40]: 1340
Assign rand_sets[41]: 852  LLC: 2048
rand_sets[41]: 852
Assign rand_sets[42]: 1365  LLC: 2048
rand_sets[42]: 1365
Assign rand_sets[43]: 47  LLC: 2048
rand_sets[43]: 47
Assign rand_sets[44]: 823  LLC: 2048
rand_sets[44]: 823
Assign rand_sets[45]: 686  LLC: 2048
rand_sets[45]: 686
Assign rand_sets[46]: 1637  LLC: 2048
rand_sets[46]: 1637
Assign rand_sets[47]: 1115  LLC: 2048
rand_sets[47]: 1115
Assign rand_sets[48]: 986  LLC: 2048
rand_sets[48]: 986
Assign rand_sets[49]: 258  LLC: 2048
rand_sets[49]: 258
Assign rand_sets[50]: 633  LLC: 2048
rand_sets[50]: 633
Assign rand_sets[51]: 920  LLC: 2048
rand_sets[51]: 920
Assign rand_sets[52]: 204  LLC: 2048
rand_sets[52]: 204
Assign rand_sets[53]: 227  LLC: 2048
rand_sets[53]: 227
Assign rand_sets[54]: 1818  LLC: 2048
rand_sets[54]: 1818
Assign rand_sets[55]: 886  LLC: 2048
rand_sets[55]: 886
Assign rand_sets[56]: 1422  LLC: 2048
rand_sets[56]: 1422
Assign rand_sets[57]: 607  LLC: 2048
rand_sets[57]: 607
Assign rand_sets[58]: 217  LLC: 2048
rand_sets[58]: 217
Assign rand_sets[59]: 1945  LLC: 2048
rand_sets[59]: 1945
Assign rand_sets[60]: 143  LLC: 2048
rand_sets[60]: 143
Assign rand_sets[61]: 1311  LLC: 2048
rand_sets[61]: 1311
Assign rand_sets[62]: 319  LLC: 2048
rand_sets[62]: 319
Assign rand_sets[63]: 1846  LLC: 2048
rand_sets[63]: 1846
 CLEAN-RRIP-POLICY-1: 2-1-0-1-2-3-0-1- CLEAN-RRIP-POLICY-2: 2-1-0-1-2-3-0-1-
 DIRTY-RRIP-POLICY-1: 1-1-0-1-1-3-2-1- DIRTY-RRIP-POLICY-2: 1-1-0-1-1-3-2-1-
 PSEL width: 10
Heartbeat CPU 0 instructions: 10000000 cycles: 7321412 heartbeat IPC: 1.36586 cumulative IPC: 1.36586 (Simulation time: 0 hr 0 min 19 sec) 
Heartbeat CPU 0 instructions: 20000000 cycles: 14628663 heartbeat IPC: 1.3685 cumulative IPC: 1.36718 (Simulation time: 0 hr 0 min 40 sec) 
Heartbeat CPU 0 instructions: 30000003 cycles: 21933525 heartbeat IPC: 1.36895 cumulative IPC: 1.36777 (Simulation time: 0 hr 1 min 0 sec) 
Heartbeat CPU 0 instructions: 40000000 cycles: 29225575 heartbeat IPC: 1.37136 cumulative IPC: 1.36866 (Simulation time: 0 hr 1 min 20 sec) 
Heartbeat CPU 0 instructions: 50000000 cycles: 36506052 heartbeat IPC: 1.37354 cumulative IPC: 1.36964 (Simulation time: 0 hr 1 min 40 sec) 
Heartbeat CPU 0 instructions: 60000000 cycles: 43789971 heartbeat IPC: 1.37289 cumulative IPC: 1.37018 (Simulation time: 0 hr 2 min 0 sec) 
Heartbeat CPU 0 instructions: 70000001 cycles: 51079163 heartbeat IPC: 1.37189 cumulative IPC: 1.37042 (Simulation time: 0 hr 2 min 21 sec) 
Heartbeat CPU 0 instructions: 80000000 cycles: 58358209 heartbeat IPC: 1.37381 cumulative IPC: 1.37084 (Simulation time: 0 hr 2 min 41 sec) 
Heartbeat CPU 0 instructions: 90000000 cycles: 65668139 heartbeat IPC: 1.368 cumulative IPC: 1.37053 (Simulation time: 0 hr 3 min 1 sec) 
Heartbeat CPU 0 instructions: 100000000 cycles: 72963501 heartbeat IPC: 1.37073 cumulative IPC: 1.37055 (Simulation time: 0 hr 3 min 21 sec) 

Warmup complete CPU 0 instructions: 100000002 cycles: 72963502 (Simulation time: 0 hr 3 min 21 sec) 

Heartbeat CPU 0 instructions: 110000002 cycles: 115364496 heartbeat IPC: 0.235844 cumulative IPC: 0.235844 (Simulation time: 0 hr 4 min 3 sec) 
Heartbeat CPU 0 instructions: 120000000 cycles: 157560609 heartbeat IPC: 0.236989 cumulative IPC: 0.236415 (Simulation time: 0 hr 4 min 45 sec) 
Heartbeat CPU 0 instructions: 130000002 cycles: 199814291 heartbeat IPC: 0.236666 cumulative IPC: 0.236498 (Simulation time: 0 hr 5 min 27 sec) 
Heartbeat CPU 0 instructions: 140000000 cycles: 242330532 heartbeat IPC: 0.235204 cumulative IPC: 0.236173 (Simulation time: 0 hr 6 min 9 sec) 
Heartbeat CPU 0 instructions: 150000002 cycles: 284453514 heartbeat IPC: 0.2374 cumulative IPC: 0.236418 (Simulation time: 0 hr 6 min 51 sec) 
Heartbeat CPU 0 instructions: 160000000 cycles: 326483762 heartbeat IPC: 0.237924 cumulative IPC: 0.236667 (Simulation time: 0 hr 7 min 32 sec) 
Heartbeat CPU 0 instructions: 170000001 cycles: 367606298 heartbeat IPC: 0.243176 cumulative IPC: 0.237576 (Simulation time: 0 hr 8 min 13 sec) 
Heartbeat CPU 0 instructions: 180000000 cycles: 409563750 heartbeat IPC: 0.238337 cumulative IPC: 0.237671 (Simulation time: 0 hr 8 min 55 sec) 
Heartbeat CPU 0 instructions: 190000002 cycles: 451540707 heartbeat IPC: 0.238226 cumulative IPC: 0.237732 (Simulation time: 0 hr 9 min 36 sec) 
Heartbeat CPU 0 instructions: 200000000 cycles: 495180212 heartbeat IPC: 0.22915 cumulative IPC: 0.236845 (Simulation time: 0 hr 10 min 19 sec) 
Heartbeat CPU 0 instructions: 210000003 cycles: 537188256 heartbeat IPC: 0.23805 cumulative IPC: 0.236954 (Simulation time: 0 hr 11 min 0 sec) 
Heartbeat CPU 0 instructions: 220000000 cycles: 579516034 heartbeat IPC: 0.236251 cumulative IPC: 0.236895 (Simulation time: 0 hr 11 min 42 sec) 
Heartbeat CPU 0 instructions: 230000000 cycles: 621830181 heartbeat IPC: 0.236328 cumulative IPC: 0.236852 (Simulation time: 0 hr 12 min 24 sec) 
Heartbeat CPU 0 instructions: 240000000 cycles: 663751339 heartbeat IPC: 0.238543 cumulative IPC: 0.236972 (Simulation time: 0 hr 13 min 5 sec) 
Heartbeat CPU 0 instructions: 250000000 cycles: 705713336 heartbeat IPC: 0.238311 cumulative IPC: 0.237061 (Simulation time: 0 hr 13 min 46 sec) 
Heartbeat CPU 0 instructions: 260000000 cycles: 747925425 heartbeat IPC: 0.236899 cumulative IPC: 0.23705 (Simulation time: 0 hr 14 min 27 sec) 
Heartbeat CPU 0 instructions: 270000000 cycles: 790235584 heartbeat IPC: 0.23635 cumulative IPC: 0.237009 (Simulation time: 0 hr 15 min 8 sec) 
Heartbeat CPU 0 instructions: 280000000 cycles: 832970558 heartbeat IPC: 0.234 cumulative IPC: 0.23684 (Simulation time: 0 hr 15 min 49 sec) 
Heartbeat CPU 0 instructions: 290000001 cycles: 874690366 heartbeat IPC: 0.239694 cumulative IPC: 0.236988 (Simulation time: 0 hr 16 min 30 sec) 
Heartbeat CPU 0 instructions: 300000000 cycles: 917235149 heartbeat IPC: 0.235046 cumulative IPC: 0.236891 (Simulation time: 0 hr 17 min 10 sec) 
Heartbeat CPU 0 instructions: 310000000 cycles: 959825556 heartbeat IPC: 0.234795 cumulative IPC: 0.23679 (Simulation time: 0 hr 17 min 50 sec) 
Heartbeat CPU 0 instructions: 320000000 cycles: 1002105420 heartbeat IPC: 0.236519 cumulative IPC: 0.236778 (Simulation time: 0 hr 18 min 31 sec) 
Heartbeat CPU 0 instructions: 330000000 cycles: 1044456097 heartbeat IPC: 0.236124 cumulative IPC: 0.236749 (Simulation time: 0 hr 19 min 11 sec) 
Heartbeat CPU 0 instructions: 340000000 cycles: 1087477547 heartbeat IPC: 0.232442 cumulative IPC: 0.236566 (Simulation time: 0 hr 19 min 52 sec) 
Heartbeat CPU 0 instructions: 350000001 cycles: 1129720224 heartbeat IPC: 0.236727 cumulative IPC: 0.236573 (Simulation time: 0 hr 20 min 32 sec) 
Heartbeat CPU 0 instructions: 360000000 cycles: 1172104431 heartbeat IPC: 0.235937 cumulative IPC: 0.236548 (Simulation time: 0 hr 21 min 12 sec) 
Heartbeat CPU 0 instructions: 370000000 cycles: 1213486086 heartbeat IPC: 0.241653 cumulative IPC: 0.236734 (Simulation time: 0 hr 21 min 52 sec) 
Heartbeat CPU 0 instructions: 380000000 cycles: 1256040709 heartbeat IPC: 0.234992 cumulative IPC: 0.236671 (Simulation time: 0 hr 22 min 32 sec) 
Heartbeat CPU 0 instructions: 390000001 cycles: 1298042350 heartbeat IPC: 0.238086 cumulative IPC: 0.236719 (Simulation time: 0 hr 23 min 12 sec) 
Heartbeat CPU 0 instructions: 400000000 cycles: 1340152984 heartbeat IPC: 0.23747 cumulative IPC: 0.236744 (Simulation time: 0 hr 23 min 52 sec) 
Heartbeat CPU 0 instructions: 410000000 cycles: 1381998690 heartbeat IPC: 0.238973 cumulative IPC: 0.236816 (Simulation time: 0 hr 24 min 32 sec) 
Heartbeat CPU 0 instructions: 420000000 cycles: 1423804455 heartbeat IPC: 0.239201 cumulative IPC: 0.236889 (Simulation time: 0 hr 25 min 11 sec) 
Heartbeat CPU 0 instructions: 430000000 cycles: 1465756963 heartbeat IPC: 0.238365 cumulative IPC: 0.236934 (Simulation time: 0 hr 25 min 51 sec) 
Heartbeat CPU 0 instructions: 440000000 cycles: 1507756324 heartbeat IPC: 0.238099 cumulative IPC: 0.236968 (Simulation time: 0 hr 26 min 31 sec) 
Heartbeat CPU 0 instructions: 450000002 cycles: 1549660756 heartbeat IPC: 0.238638 cumulative IPC: 0.237015 (Simulation time: 0 hr 27 min 11 sec) 
Heartbeat CPU 0 instructions: 460000000 cycles: 1591001371 heartbeat IPC: 0.241893 cumulative IPC: 0.237148 (Simulation time: 0 hr 27 min 50 sec) 
Heartbeat CPU 0 instructions: 470000000 cycles: 1633254847 heartbeat IPC: 0.236667 cumulative IPC: 0.237135 (Simulation time: 0 hr 28 min 30 sec) 
Heartbeat CPU 0 instructions: 480000000 cycles: 1675312962 heartbeat IPC: 0.237766 cumulative IPC: 0.237152 (Simulation time: 0 hr 29 min 10 sec) 
Heartbeat CPU 0 instructions: 490000001 cycles: 1717381376 heartbeat IPC: 0.237708 cumulative IPC: 0.237166 (Simulation time: 0 hr 29 min 48 sec) 
Heartbeat CPU 0 instructions: 500000000 cycles: 1759583129 heartbeat IPC: 0.236957 cumulative IPC: 0.237161 (Simulation time: 0 hr 30 min 26 sec) 
Heartbeat CPU 0 instructions: 510000000 cycles: 1801246092 heartbeat IPC: 0.240021 cumulative IPC: 0.23723 (Simulation time: 0 hr 31 min 3 sec) 
Heartbeat CPU 0 instructions: 520000000 cycles: 1843834523 heartbeat IPC: 0.234806 cumulative IPC: 0.237171 (Simulation time: 0 hr 31 min 40 sec) 
Heartbeat CPU 0 instructions: 530000000 cycles: 1885807747 heartbeat IPC: 0.238247 cumulative IPC: 0.237196 (Simulation time: 0 hr 32 min 17 sec) 
Heartbeat CPU 0 instructions: 540000000 cycles: 1927596394 heartbeat IPC: 0.239299 cumulative IPC: 0.237244 (Simulation time: 0 hr 32 min 55 sec) 
Heartbeat CPU 0 instructions: 550000001 cycles: 1970100037 heartbeat IPC: 0.235274 cumulative IPC: 0.2372 (Simulation time: 0 hr 33 min 32 sec) 
Heartbeat CPU 0 instructions: 560000000 cycles: 2012744744 heartbeat IPC: 0.234496 cumulative IPC: 0.23714 (Simulation time: 0 hr 34 min 10 sec) 
Heartbeat CPU 0 instructions: 570000003 cycles: 2055220791 heartbeat IPC: 0.235427 cumulative IPC: 0.237103 (Simulation time: 0 hr 34 min 47 sec) 
Heartbeat CPU 0 instructions: 580000000 cycles: 2097662633 heartbeat IPC: 0.235616 cumulative IPC: 0.237072 (Simulation time: 0 hr 35 min 25 sec) 
Heartbeat CPU 0 instructions: 590000001 cycles: 2140645086 heartbeat IPC: 0.232653 cumulative IPC: 0.23698 (Simulation time: 0 hr 36 min 3 sec) 
Heartbeat CPU 0 instructions: 600000000 cycles: 2183295786 heartbeat IPC: 0.234463 cumulative IPC: 0.23693 (Simulation time: 0 hr 36 min 40 sec) 
Finished CPU 0 instructions: 500000000 cycles: 2110332292 cumulative IPC: 0.23693 (Simulation time: 0 hr 36 min 40 sec) 

CPU 0 Branch Prediction Accuracy: 96.2429% MPKI: 5.85335
Number of Branches: 77897976 Number of Mispredictions: 2926674
Number of LOAD Instructions: 193081861
Number of LOAD Instructions (ROI): 193081861
Number of STORE Instructions: 97310749
Number of STORE Instructions (ROI): 97310749
Total Destination Memory Operands: 106368027
Total Destination Memory Operands (ROI): 106368027
Total Source Memory Operands: 193081861
Total Source Memory Operands (ROI): 193081861
Number of DEPENDED LOADS: 6525155
Number of DEPENDED LOADS (ROI): 6525155
Number of SQ_ADDED: 106367982
Number of SQ_ADDED (ROI): 106367982
Number of LQ_ADDED: 444440656
Number of LQ_ADDED (ROI): 444440656
Number of Instructions read from trace: 600000256

ChampSim completed all CPUs

Region of Interest Statistics

CPU 0 cumulative IPC: 0.23693 instructions: 500000000 cycles: 2110332292
ITLB TOTAL     ACCESS:  150841582  HIT:  150825751  MISS:      15831
ITLB LOAD      ACCESS:  150841582  HIT:  150825751  MISS:      15831
ITLB RFO       ACCESS:          0  HIT:          0  MISS:          0
ITLB PREFETCH  ACCESS:          0  HIT:          0  MISS:          0
ITLB WRITEBACK ACCESS:          0  HIT:          0  MISS:          0
ITLB PREFETCH  REQUESTED:          0  ISSUED:          0  USEFUL:          0  USELESS:          0
ITLB TOTAL MSHR MERGED:      18298
ITLB LOAD MSHR MERGED:      18298
ITLB RFO MSHR MERGED:          0
ITLB PREFETCH MSHR MERGED:          0
ITLB WRITEBACK MSHR MERGED:          0
ITLB TOTAL ACCESSES:  150859880 HITS:  150825751 MISSES:      34129
ITLB LOAD ACCESSES:  150859880 HITS:  150825751 MISSES:      34129
ITLB RFO ACCESSES:          0 HITS:          0 MISSES:          0
ITLB PREFETCH ACCESSES:          0 HITS:          0 MISSES:          0
ITLB WRITEBACK ACCESSES:          0 HITS:          0 MISSES:          0
ITLB RQ ACCESS:  500000242
ITLB RQ TO_CACHE:  150859880
ITLB RQ MERGED:  349140362
ITLB RQ FORWARD:          0
ITLB WQ ACCESS:          0
ITLB WQ TO_CACHE:          0
ITLB WQ MERGED:          0
ITLB WQ FORWARD:          0
DTLB TOTAL     ACCESS:  199500925  HIT:  194121801  MISS:    5379124
DTLB LOAD      ACCESS:  123090263  HIT:  118071589  MISS:    5018674
DTLB RFO       ACCESS:   76410662  HIT:   76050212  MISS:     360450
DTLB PREFETCH  ACCESS:          0  HIT:          0  MISS:          0
DTLB WRITEBACK ACCESS:          0  HIT:          0  MISS:          0
DTLB PREFETCH  REQUESTED:          0  ISSUED:          0  USEFUL:          0  USELESS:          0
DTLB TOTAL MSHR MERGED:     915628
DTLB LOAD MSHR MERGED:     806952
DTLB RFO MSHR MERGED:     108676
DTLB PREFETCH MSHR MERGED:          0
DTLB WRITEBACK MSHR MERGED:          0
DTLB TOTAL ACCESSES:  200416553 HITS:  194121801 MISSES:    6294752
DTLB LOAD ACCESSES:  123897215 HITS:  118071589 MISSES:    5825626
DTLB RFO ACCESSES:   76519338 HITS:   76050212 MISSES:     469126
DTLB PREFETCH ACCESSES:          0 HITS:          0 MISSES:          0
DTLB WRITEBACK ACCESSES:          0 HITS:          0 MISSES:          0
DTLB RQ ACCESS:  243803959
DTLB RQ TO_CACHE:  200416553
DTLB RQ MERGED:   43387406
DTLB RQ FORWARD:          0
DTLB WQ ACCESS:          0
DTLB WQ TO_CACHE:          0
DTLB WQ MERGED:          0
DTLB WQ FORWARD:          0
L1D TOTAL     ACCESS:  335349020  HIT:  317253081  MISS:   18095939
L1D LOAD      ACCESS:  127592502  HIT:  118647990  MISS:    8944512
L1D RFO       ACCESS:   86931104  HIT:   86140023  MISS:     791081
L1D PREFETCH  ACCESS:  120825414  HIT:  112465068  MISS:    8360346
L1D WRITEBACK ACCESS:          0  HIT:          0  MISS:          0
L1D PREFETCH  REQUESTED:  128430312  ISSUED:  126832066  USEFUL:    1739700  USELESS:    6620658
L1D TOTAL MSHR MERGED:    3986396
L1D LOAD MSHR MERGED:    1002743
L1D RFO MSHR MERGED:    1200182
L1D PREFETCH MSHR MERGED:    1783471
L1D WRITEBACK MSHR MERGED:          0
L1D TOTAL ACCESSES:  339431459 HITS:  317349124 MISSES:   22082335
L1D LOAD ACCESSES:  128430899 HITS:  118648577 MISSES:    9782322
L1D RFO ACCESSES:   88059356 HITS:   86140023 MISSES:    1919333
L1D PREFETCH ACCESSES:  122941204 HITS:  112560524 MISSES:   10380680
L1D WRITEBACK ACCESSES:          0 HITS:          0 MISSES:          0
L1D RQ ACCESS:  155172574
L1D RQ TO_CACHE:  128430312
L1D RQ MERGED:   26741675
L1D RQ FORWARD:          0
L1D WQ ACCESS:   88631385
L1D WQ TO_CACHE:   88059355
L1D WQ MERGED:     572030
L1D WQ FORWARD:      96043
L1I TOTAL     ACCESS:  175130774  HIT:  174864874  MISS:     265900
L1I LOAD      ACCESS:  175130774  HIT:  174864874  MISS:     265900
L1I RFO       ACCESS:          0  HIT:          0  MISS:          0
L1I PREFETCH  ACCESS:          0  HIT:          0  MISS:          0
L1I WRITEBACK ACCESS:          0  HIT:          0  MISS:          0
L1I PREFETCH  REQUESTED:          0  ISSUED:          0  USEFUL:          0  USELESS:          0
L1I TOTAL MSHR MERGED:     242498
L1I LOAD MSHR MERGED:     242498
L1I RFO MSHR MERGED:          0
L1I PREFETCH MSHR MERGED:          0
L1I WRITEBACK MSHR MERGED:          0
L1I TOTAL ACCESSES:  175373272 HITS:  174864874 MISSES:     508398
L1I LOAD ACCESSES:  175373272 HITS:  174864874 MISSES:     508398
L1I RFO ACCESSES:          0 HITS:          0 MISSES:          0
L1I PREFETCH ACCESSES:          0 HITS:          0 MISSES:          0
L1I WRITEBACK ACCESSES:          0 HITS:          0 MISSES:          0
L1I RQ ACCESS:  500000242
L1I RQ TO_CACHE:  175373272
L1I RQ MERGED:  324626970
L1I RQ FORWARD:          0
L1I WQ ACCESS:          0
L1I WQ TO_CACHE:          0
L1I WQ MERGED:          0
L1I WQ FORWARD:          0
L2C TOTAL     ACCESS:   23737842  HIT:   12112182  MISS:   11625660
L2C LOAD      ACCESS:    9044328  HIT:    3564784  MISS:    5479544
L2C RFO       ACCESS:     719087  HIT:     129480  MISS:     589607
L2C PREFETCH  ACCESS:    8614233  HIT:    3086403  MISS:    5527830
L2C WRITEBACK ACCESS:    5360194  HIT:    5331515  MISS:      28679
L2C PREFETCH  REQUESTED:      18054  ISSUED:      18054  USEFUL:     322884  USELESS:    5205122
L2C TOTAL MSHR MERGED:         32
L2C LOAD MSHR MERGED:          4
L2C RFO MSHR MERGED:          0
L2C PREFETCH MSHR MERGED:         28
L2C WRITEBACK MSHR MERGED:          0
L2C TOTAL ACCESSES:   23739629 HITS:   12113931 MISSES:   11625698
L2C LOAD ACCESSES:    9045479 HITS:    3565935 MISSES:    5479544
L2C RFO ACCESSES:     719151 HITS:     129544 MISSES:     589607
L2C PREFETCH ACCESSES:    8614805 HITS:    3086937 MISSES:    5527868
L2C WRITEBACK ACCESSES:    5360194 HITS:    5331515 MISSES:      28679
L2C RQ ACCESS:    9764630
L2C RQ TO_CACHE:    9763415
L2C RQ MERGED:          0
L2C RQ FORWARD:          0
L2C WQ ACCESS:    5360194
L2C WQ TO_CACHE:    5360194
L2C WQ MERGED:          0
L2C WQ FORWARD:       1749
LLC TOTAL     ACCESS:   15448660  HIT:    4587394  MISS:   10861266
LLC LOAD      ACCESS:    5479508  HIT:    1117915  MISS:    4361593
LLC RFO       ACCESS:     589604  HIT:     162761  MISS:     426843
LLC PREFETCH  ACCESS:    5527828  HIT:     819460  MISS:    4708368
LLC WRITEBACK ACCESS:    3851720  HIT:    2487258  MISS:    1364462
LLC PREFETCH  REQUESTED:          0  ISSUED:          0  USEFUL:      46560  USELESS:    4664980
LLC TOTAL MSHR MERGED:          0
LLC LOAD MSHR MERGED:          0
LLC RFO MSHR MERGED:          0
LLC PREFETCH MSHR MERGED:          0
LLC WRITEBACK MSHR MERGED:          0
LLC TOTAL ACCESSES:   15448707 HITS:    4587441 MISSES:   10861266
LLC LOAD ACCESSES:    5479540 HITS:    1117947 MISSES:    4361593
LLC RFO ACCESSES:     589607 HITS:     162764 MISSES:     426843
LLC PREFETCH ACCESSES:    5527840 HITS:     819472 MISSES:    4708368
LLC WRITEBACK ACCESSES:    3851720 HITS:    2487258 MISSES:    1364462
LLC 0 RQ ACCESS:    6069147
LLC 0 RQ TO_CACHE:    6069112
LLC 0 RQ MERGED:          0
LLC 0 RQ FORWARD:          0
LLC WQ ACCESS:    3851720
LLC WQ TO_CACHE:    3851720
LLC WQ MERGED:          0
LLC WQ FORWARD:         47
Major fault: 0 Minor fault: 44814
CPU 0 L1D next line prefetcher final stats
CPU 0 L2C PC-based stride prefetcher final stats
All Misses: 13062246
All Hits: 5558922
SD Algo Stats - Switches: 0 SRR-Repls: 4993301 BRR-Repls: 0

DRAM Statistics
 CHANNEL 0
 RQ ROW_BUFFER_HIT:    1560253  ROW_BUFFER_MISS:    7932751
 DBUS_CONGESTED:    6732827
 WQ ROW_BUFFER_HIT:     241408  ROW_BUFFER_MISS:    2575771  FULL:          0

 AVG_CONGESTED_CYCLE: 13
LOADS RETIRED: 160808997
INSTR RETIRED: 500000000
