
*** ChampSim Multicore Out-of-Order Simulator ***

Warmup Instructions: 100000000
Simulation Instructions: 500000000
Number of CPUs: 1
LLC sets: 2048
LLC ways: 16
Clean RRIP Policies: 1020012110200121 Dirty RRIP Policies: 1010110110101101 PSEL Width: 10 Track Set: 4294967295 PSEL Mask: 1 Demote Mask: 341422003414220DS Algo: 0Window size: 0
Off-chip DRAM Size: 4096 MB Channels: 1 Width: 64-bit Data Rate: 1600 MT/s

CPU 0 runs /mnt/beegfs/iconst01/spec2017/Gcc.trace.gz
NOT SORTED
TRACE STRING: /mnt/beegfs/iconst01/spec2017/Gcc.trace.gz
SORTED
TRACE STRING: /mnt/beegfs/iconst01/spec2017/Gcc.trace.gz
INITIAL
TRACE STRING: /mnt/beegfs/iconst01/spec2017/Gcc.trace.gz

champsim_seed used: 269

CPU 0 L1D next line prefetcher
CPU 0 L2C IP-based stride prefetcher
Initialize DRRIP state
Assign rand_sets[0]: 454  LLC: 2048
rand_sets[0]: 454
Assign rand_sets[1]: 1662  LLC: 2048
rand_sets[1]: 1662
Assign rand_sets[2]: 1921  LLC: 2048
rand_sets[2]: 1921
Assign rand_sets[3]: 1131  LLC: 2048
rand_sets[3]: 1131
Assign rand_sets[4]: 331  LLC: 2048
rand_sets[4]: 331
Assign rand_sets[5]: 1531  LLC: 2048
rand_sets[5]: 1531
Assign rand_sets[6]: 482  LLC: 2048
rand_sets[6]: 482
Assign rand_sets[7]: 1275  LLC: 2048
rand_sets[7]: 1275
Assign rand_sets[8]: 1876  LLC: 2048
rand_sets[8]: 1876
Assign rand_sets[9]: 2038  LLC: 2048
rand_sets[9]: 2038
Assign rand_sets[10]: 701  LLC: 2048
rand_sets[10]: 701
Assign rand_sets[11]: 479  LLC: 2048
rand_sets[11]: 479
Assign rand_sets[12]: 892  LLC: 2048
rand_sets[12]: 892
Assign rand_sets[13]: 1820  LLC: 2048
rand_sets[13]: 1820
Assign rand_sets[14]: 1505  LLC: 2048
rand_sets[14]: 1505
Assign rand_sets[15]: 1159  LLC: 2048
rand_sets[15]: 1159
Assign rand_sets[16]: 513  LLC: 2048
rand_sets[16]: 513
Assign rand_sets[17]: 703  LLC: 2048
rand_sets[17]: 703
Assign rand_sets[18]: 561  LLC: 2048
rand_sets[18]: 561
Assign rand_sets[19]: 990  LLC: 2048
rand_sets[19]: 990
Assign rand_sets[20]: 342  LLC: 2048
rand_sets[20]: 342
Assign rand_sets[21]: 882  LLC: 2048
rand_sets[21]: 882
Assign rand_sets[22]: 15  LLC: 2048
rand_sets[22]: 15
Assign rand_sets[23]: 71  LLC: 2048
rand_sets[23]: 71
Assign rand_sets[24]: 1127  LLC: 2048
rand_sets[24]: 1127
Assign rand_sets[25]: 1382  LLC: 2048
rand_sets[25]: 1382
Assign rand_sets[26]: 647  LLC: 2048
rand_sets[26]: 647
Assign rand_sets[27]: 857  LLC: 2048
rand_sets[27]: 857
Assign rand_sets[28]: 1450  LLC: 2048
rand_sets[28]: 1450
Assign rand_sets[29]: 1160  LLC: 2048
rand_sets[29]: 1160
Assign rand_sets[30]: 1852  LLC: 2048
rand_sets[30]: 1852
Assign rand_sets[31]: 1881  LLC: 2048
rand_sets[31]: 1881
Assign rand_sets[32]: 1770  LLC: 2048
rand_sets[32]: 1770
Assign rand_sets[33]: 1622  LLC: 2048
rand_sets[33]: 1622
Assign rand_sets[34]: 275  LLC: 2048
rand_sets[34]: 275
Assign rand_sets[35]: 635  LLC: 2048
rand_sets[35]: 635
Assign rand_sets[36]: 466  LLC: 2048
rand_sets[36]: 466
Assign rand_sets[37]: 1413  LLC: 2048
rand_sets[37]: 1413
Assign rand_sets[38]: 417  LLC: 2048
rand_sets[38]: 417
Assign rand_sets[39]: 472  LLC: 2048
rand_sets[39]: 472
Assign rand_sets[40]: 1340  LLC: 2048
rand_sets[40]: 1340
Assign rand_sets[41]: 852  LLC: 2048
rand_sets[41]: 852
Assign rand_sets[42]: 1365  LLC: 2048
rand_sets[42]: 1365
Assign rand_sets[43]: 47  LLC: 2048
rand_sets[43]: 47
Assign rand_sets[44]: 823  LLC: 2048
rand_sets[44]: 823
Assign rand_sets[45]: 686  LLC: 2048
rand_sets[45]: 686
Assign rand_sets[46]: 1637  LLC: 2048
rand_sets[46]: 1637
Assign rand_sets[47]: 1115  LLC: 2048
rand_sets[47]: 1115
Assign rand_sets[48]: 986  LLC: 2048
rand_sets[48]: 986
Assign rand_sets[49]: 258  LLC: 2048
rand_sets[49]: 258
Assign rand_sets[50]: 633  LLC: 2048
rand_sets[50]: 633
Assign rand_sets[51]: 920  LLC: 2048
rand_sets[51]: 920
Assign rand_sets[52]: 204  LLC: 2048
rand_sets[52]: 204
Assign rand_sets[53]: 227  LLC: 2048
rand_sets[53]: 227
Assign rand_sets[54]: 1818  LLC: 2048
rand_sets[54]: 1818
Assign rand_sets[55]: 886  LLC: 2048
rand_sets[55]: 886
Assign rand_sets[56]: 1422  LLC: 2048
rand_sets[56]: 1422
Assign rand_sets[57]: 607  LLC: 2048
rand_sets[57]: 607
Assign rand_sets[58]: 217  LLC: 2048
rand_sets[58]: 217
Assign rand_sets[59]: 1945  LLC: 2048
rand_sets[59]: 1945
Assign rand_sets[60]: 143  LLC: 2048
rand_sets[60]: 143
Assign rand_sets[61]: 1311  LLC: 2048
rand_sets[61]: 1311
Assign rand_sets[62]: 319  LLC: 2048
rand_sets[62]: 319
Assign rand_sets[63]: 1846  LLC: 2048
rand_sets[63]: 1846
 CLEAN-RRIP-POLICY-1: 1-0-2-0-0-1-2-1- CLEAN-RRIP-POLICY-2: 1-0-2-0-0-1-2-1-
 DIRTY-RRIP-POLICY-1: 1-0-1-0-1-1-0-1- DIRTY-RRIP-POLICY-2: 1-0-1-0-1-1-0-1-
 PSEL width: 10
Heartbeat CPU 0 instructions: 10000001 cycles: 7315928 heartbeat IPC: 1.36688 cumulative IPC: 1.36688 (Simulation time: 0 hr 0 min 17 sec) 
Heartbeat CPU 0 instructions: 20000000 cycles: 14309093 heartbeat IPC: 1.42997 cumulative IPC: 1.39771 (Simulation time: 0 hr 0 min 33 sec) 
Heartbeat CPU 0 instructions: 30000001 cycles: 21023352 heartbeat IPC: 1.48937 cumulative IPC: 1.42698 (Simulation time: 0 hr 0 min 51 sec) 
Heartbeat CPU 0 instructions: 40000000 cycles: 27484547 heartbeat IPC: 1.5477 cumulative IPC: 1.45536 (Simulation time: 0 hr 1 min 9 sec) 
Heartbeat CPU 0 instructions: 50000001 cycles: 33586934 heartbeat IPC: 1.6387 cumulative IPC: 1.48867 (Simulation time: 0 hr 1 min 26 sec) 
Heartbeat CPU 0 instructions: 60000000 cycles: 40068660 heartbeat IPC: 1.5428 cumulative IPC: 1.49743 (Simulation time: 0 hr 1 min 45 sec) 
Heartbeat CPU 0 instructions: 70000000 cycles: 47111643 heartbeat IPC: 1.41985 cumulative IPC: 1.48583 (Simulation time: 0 hr 2 min 2 sec) 
Heartbeat CPU 0 instructions: 80000000 cycles: 54206558 heartbeat IPC: 1.40946 cumulative IPC: 1.47584 (Simulation time: 0 hr 2 min 19 sec) 
Heartbeat CPU 0 instructions: 90000003 cycles: 61217067 heartbeat IPC: 1.42643 cumulative IPC: 1.47018 (Simulation time: 0 hr 2 min 36 sec) 
Heartbeat CPU 0 instructions: 100000000 cycles: 68390618 heartbeat IPC: 1.39401 cumulative IPC: 1.46219 (Simulation time: 0 hr 2 min 53 sec) 

Warmup complete CPU 0 instructions: 100000004 cycles: 68390619 (Simulation time: 0 hr 2 min 53 sec) 

Heartbeat CPU 0 instructions: 110000003 cycles: 96939384 heartbeat IPC: 0.350278 cumulative IPC: 0.350278 (Simulation time: 0 hr 3 min 26 sec) 
Heartbeat CPU 0 instructions: 120000000 cycles: 124688480 heartbeat IPC: 0.360372 cumulative IPC: 0.355253 (Simulation time: 0 hr 3 min 59 sec) 
Heartbeat CPU 0 instructions: 130000000 cycles: 149965394 heartbeat IPC: 0.395618 cumulative IPC: 0.367761 (Simulation time: 0 hr 4 min 32 sec) 
Heartbeat CPU 0 instructions: 140000000 cycles: 181407963 heartbeat IPC: 0.31804 cumulative IPC: 0.353928 (Simulation time: 0 hr 5 min 5 sec) 
Heartbeat CPU 0 instructions: 150000000 cycles: 212498821 heartbeat IPC: 0.321638 cumulative IPC: 0.346961 (Simulation time: 0 hr 5 min 39 sec) 
Heartbeat CPU 0 instructions: 160000000 cycles: 240304116 heartbeat IPC: 0.359644 cumulative IPC: 0.349013 (Simulation time: 0 hr 6 min 11 sec) 
Heartbeat CPU 0 instructions: 170000001 cycles: 268898659 heartbeat IPC: 0.349717 cumulative IPC: 0.349113 (Simulation time: 0 hr 6 min 46 sec) 
Heartbeat CPU 0 instructions: 180000000 cycles: 297940077 heartbeat IPC: 0.344336 cumulative IPC: 0.348509 (Simulation time: 0 hr 7 min 20 sec) 
Heartbeat CPU 0 instructions: 190000002 cycles: 326810348 heartbeat IPC: 0.346377 cumulative IPC: 0.348271 (Simulation time: 0 hr 7 min 53 sec) 
Heartbeat CPU 0 instructions: 200000000 cycles: 355828220 heartbeat IPC: 0.344615 cumulative IPC: 0.347902 (Simulation time: 0 hr 8 min 27 sec) 
Heartbeat CPU 0 instructions: 210000002 cycles: 384444739 heartbeat IPC: 0.349449 cumulative IPC: 0.348042 (Simulation time: 0 hr 9 min 1 sec) 
Heartbeat CPU 0 instructions: 220000000 cycles: 415467092 heartbeat IPC: 0.322348 cumulative IPC: 0.345745 (Simulation time: 0 hr 9 min 33 sec) 
Heartbeat CPU 0 instructions: 230000000 cycles: 443841726 heartbeat IPC: 0.352427 cumulative IPC: 0.34625 (Simulation time: 0 hr 10 min 6 sec) 
Heartbeat CPU 0 instructions: 240000000 cycles: 470318759 heartbeat IPC: 0.377686 cumulative IPC: 0.348321 (Simulation time: 0 hr 10 min 37 sec) 
Heartbeat CPU 0 instructions: 250000000 cycles: 500922334 heartbeat IPC: 0.326759 cumulative IPC: 0.346795 (Simulation time: 0 hr 11 min 12 sec) 
Heartbeat CPU 0 instructions: 260000000 cycles: 528326811 heartbeat IPC: 0.364904 cumulative IPC: 0.347874 (Simulation time: 0 hr 11 min 45 sec) 
Heartbeat CPU 0 instructions: 270000003 cycles: 557289916 heartbeat IPC: 0.345267 cumulative IPC: 0.34772 (Simulation time: 0 hr 12 min 19 sec) 
Heartbeat CPU 0 instructions: 280000000 cycles: 586110919 heartbeat IPC: 0.346969 cumulative IPC: 0.347678 (Simulation time: 0 hr 12 min 54 sec) 
Heartbeat CPU 0 instructions: 290000000 cycles: 615555813 heartbeat IPC: 0.339617 cumulative IPC: 0.347244 (Simulation time: 0 hr 13 min 29 sec) 
Heartbeat CPU 0 instructions: 300000000 cycles: 647135804 heartbeat IPC: 0.316656 cumulative IPC: 0.345575 (Simulation time: 0 hr 14 min 2 sec) 
Heartbeat CPU 0 instructions: 310000001 cycles: 677619138 heartbeat IPC: 0.328048 cumulative IPC: 0.344698 (Simulation time: 0 hr 14 min 35 sec) 
Heartbeat CPU 0 instructions: 320000000 cycles: 707131981 heartbeat IPC: 0.338836 cumulative IPC: 0.344427 (Simulation time: 0 hr 15 min 8 sec) 
Heartbeat CPU 0 instructions: 330000000 cycles: 736747984 heartbeat IPC: 0.337655 cumulative IPC: 0.344127 (Simulation time: 0 hr 15 min 41 sec) 
Heartbeat CPU 0 instructions: 340000000 cycles: 767007830 heartbeat IPC: 0.330471 cumulative IPC: 0.343536 (Simulation time: 0 hr 16 min 15 sec) 
Heartbeat CPU 0 instructions: 350000003 cycles: 794681135 heartbeat IPC: 0.361359 cumulative IPC: 0.344215 (Simulation time: 0 hr 16 min 47 sec) 
Heartbeat CPU 0 instructions: 360000000 cycles: 825731987 heartbeat IPC: 0.322052 cumulative IPC: 0.343306 (Simulation time: 0 hr 17 min 18 sec) 
Heartbeat CPU 0 instructions: 370000000 cycles: 856787878 heartbeat IPC: 0.322 cumulative IPC: 0.342467 (Simulation time: 0 hr 17 min 50 sec) 
Heartbeat CPU 0 instructions: 380000000 cycles: 888211835 heartbeat IPC: 0.318229 cumulative IPC: 0.341538 (Simulation time: 0 hr 18 min 22 sec) 
Heartbeat CPU 0 instructions: 390000001 cycles: 918583044 heartbeat IPC: 0.329259 cumulative IPC: 0.341099 (Simulation time: 0 hr 18 min 53 sec) 
Heartbeat CPU 0 instructions: 400000000 cycles: 950087188 heartbeat IPC: 0.317419 cumulative IPC: 0.340253 (Simulation time: 0 hr 19 min 25 sec) 
Heartbeat CPU 0 instructions: 410000001 cycles: 980021908 heartbeat IPC: 0.33406 cumulative IPC: 0.34005 (Simulation time: 0 hr 19 min 56 sec) 
Heartbeat CPU 0 instructions: 420000000 cycles: 1009936143 heartbeat IPC: 0.334289 cumulative IPC: 0.339867 (Simulation time: 0 hr 20 min 28 sec) 
Heartbeat CPU 0 instructions: 430000002 cycles: 1040406898 heartbeat IPC: 0.328184 cumulative IPC: 0.3395 (Simulation time: 0 hr 21 min 0 sec) 
Heartbeat CPU 0 instructions: 440000000 cycles: 1072404401 heartbeat IPC: 0.312524 cumulative IPC: 0.338641 (Simulation time: 0 hr 21 min 33 sec) 
Heartbeat CPU 0 instructions: 450000002 cycles: 1104320621 heartbeat IPC: 0.31332 cumulative IPC: 0.337861 (Simulation time: 0 hr 22 min 6 sec) 
Heartbeat CPU 0 instructions: 460000000 cycles: 1134655686 heartbeat IPC: 0.329651 cumulative IPC: 0.337627 (Simulation time: 0 hr 22 min 39 sec) 
Heartbeat CPU 0 instructions: 470000000 cycles: 1164661023 heartbeat IPC: 0.333274 cumulative IPC: 0.337508 (Simulation time: 0 hr 23 min 11 sec) 
Heartbeat CPU 0 instructions: 480000000 cycles: 1194802652 heartbeat IPC: 0.331767 cumulative IPC: 0.337354 (Simulation time: 0 hr 23 min 44 sec) 
