
*** ChampSim Multicore Out-of-Order Simulator ***

Warmup Instructions: 100000000
Simulation Instructions: 500000000
Number of CPUs: 1
LLC sets: 2048
LLC ways: 16
Clean RRIP Policies: 2213230222132302 Dirty RRIP Policies: 2203130222031302 PSEL Width: 10 Track Set: 4294967295 PSEL Mask: 1 Demote Mask: 3042100030421000DS Algo: 0Window size: 0
Off-chip DRAM Size: 4096 MB Channels: 1 Width: 64-bit Data Rate: 1600 MT/s

CPU 0 runs /mnt/beegfs/iconst01/spec2017/Xz.trace.gz
NOT SORTED
TRACE STRING: /mnt/beegfs/iconst01/spec2017/Xz.trace.gz
SORTED
TRACE STRING: /mnt/beegfs/iconst01/spec2017/Xz.trace.gz
INITIAL
TRACE STRING: /mnt/beegfs/iconst01/spec2017/Xz.trace.gz

champsim_seed used: 210

CPU 0 L1D next line prefetcher
CPU 0 L2C IP-based stride prefetcher
Initialize DRRIP state
Assign rand_sets[0]: 454  LLC: 2048
rand_sets[0]: 454
Assign rand_sets[1]: 1662  LLC: 2048
rand_sets[1]: 1662
Assign rand_sets[2]: 1921  LLC: 2048
rand_sets[2]: 1921
Assign rand_sets[3]: 1131  LLC: 2048
rand_sets[3]: 1131
Assign rand_sets[4]: 331  LLC: 2048
rand_sets[4]: 331
Assign rand_sets[5]: 1531  LLC: 2048
rand_sets[5]: 1531
Assign rand_sets[6]: 482  LLC: 2048
rand_sets[6]: 482
Assign rand_sets[7]: 1275  LLC: 2048
rand_sets[7]: 1275
Assign rand_sets[8]: 1876  LLC: 2048
rand_sets[8]: 1876
Assign rand_sets[9]: 2038  LLC: 2048
rand_sets[9]: 2038
Assign rand_sets[10]: 701  LLC: 2048
rand_sets[10]: 701
Assign rand_sets[11]: 479  LLC: 2048
rand_sets[11]: 479
Assign rand_sets[12]: 892  LLC: 2048
rand_sets[12]: 892
Assign rand_sets[13]: 1820  LLC: 2048
rand_sets[13]: 1820
Assign rand_sets[14]: 1505  LLC: 2048
rand_sets[14]: 1505
Assign rand_sets[15]: 1159  LLC: 2048
rand_sets[15]: 1159
Assign rand_sets[16]: 513  LLC: 2048
rand_sets[16]: 513
Assign rand_sets[17]: 703  LLC: 2048
rand_sets[17]: 703
Assign rand_sets[18]: 561  LLC: 2048
rand_sets[18]: 561
Assign rand_sets[19]: 990  LLC: 2048
rand_sets[19]: 990
Assign rand_sets[20]: 342  LLC: 2048
rand_sets[20]: 342
Assign rand_sets[21]: 882  LLC: 2048
rand_sets[21]: 882
Assign rand_sets[22]: 15  LLC: 2048
rand_sets[22]: 15
Assign rand_sets[23]: 71  LLC: 2048
rand_sets[23]: 71
Assign rand_sets[24]: 1127  LLC: 2048
rand_sets[24]: 1127
Assign rand_sets[25]: 1382  LLC: 2048
rand_sets[25]: 1382
Assign rand_sets[26]: 647  LLC: 2048
rand_sets[26]: 647
Assign rand_sets[27]: 857  LLC: 2048
rand_sets[27]: 857
Assign rand_sets[28]: 1450  LLC: 2048
rand_sets[28]: 1450
Assign rand_sets[29]: 1160  LLC: 2048
rand_sets[29]: 1160
Assign rand_sets[30]: 1852  LLC: 2048
rand_sets[30]: 1852
Assign rand_sets[31]: 1881  LLC: 2048
rand_sets[31]: 1881
Assign rand_sets[32]: 1770  LLC: 2048
rand_sets[32]: 1770
Assign rand_sets[33]: 1622  LLC: 2048
rand_sets[33]: 1622
Assign rand_sets[34]: 275  LLC: 2048
rand_sets[34]: 275
Assign rand_sets[35]: 635  LLC: 2048
rand_sets[35]: 635
Assign rand_sets[36]: 466  LLC: 2048
rand_sets[36]: 466
Assign rand_sets[37]: 1413  LLC: 2048
rand_sets[37]: 1413
Assign rand_sets[38]: 417  LLC: 2048
rand_sets[38]: 417
Assign rand_sets[39]: 472  LLC: 2048
rand_sets[39]: 472
Assign rand_sets[40]: 1340  LLC: 2048
rand_sets[40]: 1340
Assign rand_sets[41]: 852  LLC: 2048
rand_sets[41]: 852
Assign rand_sets[42]: 1365  LLC: 2048
rand_sets[42]: 1365
Assign rand_sets[43]: 47  LLC: 2048
rand_sets[43]: 47
Assign rand_sets[44]: 823  LLC: 2048
rand_sets[44]: 823
Assign rand_sets[45]: 686  LLC: 2048
rand_sets[45]: 686
Assign rand_sets[46]: 1637  LLC: 2048
rand_sets[46]: 1637
Assign rand_sets[47]: 1115  LLC: 2048
rand_sets[47]: 1115
Assign rand_sets[48]: 986  LLC: 2048
rand_sets[48]: 986
Assign rand_sets[49]: 258  LLC: 2048
rand_sets[49]: 258
Assign rand_sets[50]: 633  LLC: 2048
rand_sets[50]: 633
Assign rand_sets[51]: 920  LLC: 2048
rand_sets[51]: 920
Assign rand_sets[52]: 204  LLC: 2048
rand_sets[52]: 204
Assign rand_sets[53]: 227  LLC: 2048
rand_sets[53]: 227
Assign rand_sets[54]: 1818  LLC: 2048
rand_sets[54]: 1818
Assign rand_sets[55]: 886  LLC: 2048
rand_sets[55]: 886
Assign rand_sets[56]: 1422  LLC: 2048
rand_sets[56]: 1422
Assign rand_sets[57]: 607  LLC: 2048
rand_sets[57]: 607
Assign rand_sets[58]: 217  LLC: 2048
rand_sets[58]: 217
Assign rand_sets[59]: 1945  LLC: 2048
rand_sets[59]: 1945
Assign rand_sets[60]: 143  LLC: 2048
rand_sets[60]: 143
Assign rand_sets[61]: 1311  LLC: 2048
rand_sets[61]: 1311
Assign rand_sets[62]: 319  LLC: 2048
rand_sets[62]: 319
Assign rand_sets[63]: 1846  LLC: 2048
rand_sets[63]: 1846
 CLEAN-RRIP-POLICY-1: 2-2-1-3-2-3-0-2- CLEAN-RRIP-POLICY-2: 2-2-1-3-2-3-0-2-
 DIRTY-RRIP-POLICY-1: 2-2-0-3-1-3-0-2- DIRTY-RRIP-POLICY-2: 2-2-0-3-1-3-0-2-
 PSEL width: 10
Heartbeat CPU 0 instructions: 10000000 cycles: 4305270 heartbeat IPC: 2.32273 cumulative IPC: 2.32273 (Simulation time: 0 hr 0 min 12 sec) 
Heartbeat CPU 0 instructions: 20000000 cycles: 8617101 heartbeat IPC: 2.3192 cumulative IPC: 2.32097 (Simulation time: 0 hr 0 min 23 sec) 
Heartbeat CPU 0 instructions: 30000003 cycles: 13160978 heartbeat IPC: 2.20076 cumulative IPC: 2.27947 (Simulation time: 0 hr 0 min 35 sec) 
Heartbeat CPU 0 instructions: 40000000 cycles: 17515456 heartbeat IPC: 2.29649 cumulative IPC: 2.2837 (Simulation time: 0 hr 0 min 47 sec) 
Heartbeat CPU 0 instructions: 50000001 cycles: 21878287 heartbeat IPC: 2.29209 cumulative IPC: 2.28537 (Simulation time: 0 hr 0 min 59 sec) 
Heartbeat CPU 0 instructions: 60000000 cycles: 26178495 heartbeat IPC: 2.32547 cumulative IPC: 2.29196 (Simulation time: 0 hr 1 min 10 sec) 
Heartbeat CPU 0 instructions: 70000001 cycles: 30244381 heartbeat IPC: 2.45949 cumulative IPC: 2.31448 (Simulation time: 0 hr 1 min 20 sec) 
Heartbeat CPU 0 instructions: 80000000 cycles: 34523174 heartbeat IPC: 2.33711 cumulative IPC: 2.31728 (Simulation time: 0 hr 1 min 31 sec) 
Heartbeat CPU 0 instructions: 90000001 cycles: 38739811 heartbeat IPC: 2.37156 cumulative IPC: 2.32319 (Simulation time: 0 hr 1 min 42 sec) 
Heartbeat CPU 0 instructions: 100000000 cycles: 42980207 heartbeat IPC: 2.35827 cumulative IPC: 2.32665 (Simulation time: 0 hr 1 min 53 sec) 

Warmup complete CPU 0 instructions: 100000001 cycles: 42980208 (Simulation time: 0 hr 1 min 53 sec) 

Heartbeat CPU 0 instructions: 110000000 cycles: 53116394 heartbeat IPC: 0.986564 cumulative IPC: 0.986564 (Simulation time: 0 hr 2 min 10 sec) 
Heartbeat CPU 0 instructions: 120000000 cycles: 63750289 heartbeat IPC: 0.940389 cumulative IPC: 0.962923 (Simulation time: 0 hr 2 min 27 sec) 
Heartbeat CPU 0 instructions: 130000001 cycles: 74351860 heartbeat IPC: 0.943256 cumulative IPC: 0.956277 (Simulation time: 0 hr 2 min 43 sec) 
Heartbeat CPU 0 instructions: 140000000 cycles: 84041157 heartbeat IPC: 1.03207 cumulative IPC: 0.974162 (Simulation time: 0 hr 3 min 0 sec) 
Heartbeat CPU 0 instructions: 150000001 cycles: 94356386 heartbeat IPC: 0.969441 cumulative IPC: 0.973214 (Simulation time: 0 hr 3 min 16 sec) 
Heartbeat CPU 0 instructions: 160000000 cycles: 104410450 heartbeat IPC: 0.994623 cumulative IPC: 0.976718 (Simulation time: 0 hr 3 min 33 sec) 
Heartbeat CPU 0 instructions: 170000000 cycles: 114085655 heartbeat IPC: 1.03357 cumulative IPC: 0.984453 (Simulation time: 0 hr 3 min 49 sec) 
Heartbeat CPU 0 instructions: 180000000 cycles: 124636717 heartbeat IPC: 0.947772 cumulative IPC: 0.979714 (Simulation time: 0 hr 4 min 6 sec) 
Heartbeat CPU 0 instructions: 190000001 cycles: 134902811 heartbeat IPC: 0.97408 cumulative IPC: 0.979085 (Simulation time: 0 hr 4 min 22 sec) 
Heartbeat CPU 0 instructions: 200000000 cycles: 145479623 heartbeat IPC: 0.945464 cumulative IPC: 0.975615 (Simulation time: 0 hr 4 min 39 sec) 
Heartbeat CPU 0 instructions: 210000002 cycles: 157939497 heartbeat IPC: 0.802576 cumulative IPC: 0.95686 (Simulation time: 0 hr 4 min 57 sec) 
Heartbeat CPU 0 instructions: 220000000 cycles: 170480505 heartbeat IPC: 0.797384 cumulative IPC: 0.941174 (Simulation time: 0 hr 5 min 15 sec) 
Heartbeat CPU 0 instructions: 230000000 cycles: 182665998 heartbeat IPC: 0.820648 cumulative IPC: 0.93066 (Simulation time: 0 hr 5 min 32 sec) 
Heartbeat CPU 0 instructions: 240000000 cycles: 194806783 heartbeat IPC: 0.82367 cumulative IPC: 0.922105 (Simulation time: 0 hr 5 min 50 sec) 
Heartbeat CPU 0 instructions: 250000000 cycles: 206780766 heartbeat IPC: 0.835144 cumulative IPC: 0.915748 (Simulation time: 0 hr 6 min 8 sec) 
Heartbeat CPU 0 instructions: 260000000 cycles: 218354816 heartbeat IPC: 0.864002 cumulative IPC: 0.912333 (Simulation time: 0 hr 6 min 25 sec) 
Heartbeat CPU 0 instructions: 270000003 cycles: 230241568 heartbeat IPC: 0.841273 cumulative IPC: 0.907822 (Simulation time: 0 hr 6 min 43 sec) 
Heartbeat CPU 0 instructions: 280000000 cycles: 241787933 heartbeat IPC: 0.866073 cumulative IPC: 0.905397 (Simulation time: 0 hr 7 min 0 sec) 
Heartbeat CPU 0 instructions: 290000002 cycles: 253318166 heartbeat IPC: 0.867285 cumulative IPC: 0.903308 (Simulation time: 0 hr 7 min 17 sec) 
Heartbeat CPU 0 instructions: 300000000 cycles: 265770851 heartbeat IPC: 0.803039 cumulative IPC: 0.897704 (Simulation time: 0 hr 7 min 35 sec) 
Heartbeat CPU 0 instructions: 310000000 cycles: 277930548 heartbeat IPC: 0.822389 cumulative IPC: 0.893806 (Simulation time: 0 hr 7 min 53 sec) 
Heartbeat CPU 0 instructions: 320000000 cycles: 290593248 heartbeat IPC: 0.789721 cumulative IPC: 0.888483 (Simulation time: 0 hr 8 min 11 sec) 
Heartbeat CPU 0 instructions: 330000003 cycles: 302540435 heartbeat IPC: 0.837017 cumulative IPC: 0.886114 (Simulation time: 0 hr 8 min 28 sec) 
Heartbeat CPU 0 instructions: 340000000 cycles: 314673211 heartbeat IPC: 0.824213 cumulative IPC: 0.88335 (Simulation time: 0 hr 8 min 46 sec) 
Heartbeat CPU 0 instructions: 350000001 cycles: 325689152 heartbeat IPC: 0.907775 cumulative IPC: 0.884302 (Simulation time: 0 hr 9 min 3 sec) 
Heartbeat CPU 0 instructions: 360000000 cycles: 337496601 heartbeat IPC: 0.846923 cumulative IPC: 0.882803 (Simulation time: 0 hr 9 min 20 sec) 
Heartbeat CPU 0 instructions: 370000001 cycles: 348921350 heartbeat IPC: 0.875293 cumulative IPC: 0.882523 (Simulation time: 0 hr 9 min 38 sec) 
Heartbeat CPU 0 instructions: 380000000 cycles: 359934374 heartbeat IPC: 0.908016 cumulative IPC: 0.883408 (Simulation time: 0 hr 9 min 55 sec) 
Heartbeat CPU 0 instructions: 390000003 cycles: 370564715 heartbeat IPC: 0.940704 cumulative IPC: 0.885268 (Simulation time: 0 hr 10 min 12 sec) 
Heartbeat CPU 0 instructions: 400000000 cycles: 380805158 heartbeat IPC: 0.97652 cumulative IPC: 0.888034 (Simulation time: 0 hr 10 min 29 sec) 
Heartbeat CPU 0 instructions: 410000000 cycles: 391336999 heartbeat IPC: 0.949502 cumulative IPC: 0.889892 (Simulation time: 0 hr 10 min 46 sec) 
Heartbeat CPU 0 instructions: 420000000 cycles: 400730014 heartbeat IPC: 1.06462 cumulative IPC: 0.89448 (Simulation time: 0 hr 11 min 2 sec) 
Heartbeat CPU 0 instructions: 430000002 cycles: 409821746 heartbeat IPC: 1.0999 cumulative IPC: 0.899571 (Simulation time: 0 hr 11 min 19 sec) 
Heartbeat CPU 0 instructions: 440000000 cycles: 420094857 heartbeat IPC: 0.973415 cumulative IPC: 0.901583 (Simulation time: 0 hr 11 min 36 sec) 
Heartbeat CPU 0 instructions: 450000002 cycles: 431195218 heartbeat IPC: 0.900872 cumulative IPC: 0.901562 (Simulation time: 0 hr 11 min 53 sec) 
Heartbeat CPU 0 instructions: 460000000 cycles: 442754952 heartbeat IPC: 0.865072 cumulative IPC: 0.900507 (Simulation time: 0 hr 12 min 10 sec) 
Heartbeat CPU 0 instructions: 470000003 cycles: 452960210 heartbeat IPC: 0.979887 cumulative IPC: 0.902483 (Simulation time: 0 hr 12 min 26 sec) 
Heartbeat CPU 0 instructions: 480000000 cycles: 463508736 heartbeat IPC: 0.947999 cumulative IPC: 0.903625 (Simulation time: 0 hr 12 min 43 sec) 
Heartbeat CPU 0 instructions: 490000000 cycles: 473475598 heartbeat IPC: 1.00332 cumulative IPC: 0.905933 (Simulation time: 0 hr 13 min 0 sec) 
Heartbeat CPU 0 instructions: 500000000 cycles: 485276765 heartbeat IPC: 0.847374 cumulative IPC: 0.904371 (Simulation time: 0 hr 13 min 17 sec) 
Heartbeat CPU 0 instructions: 510000002 cycles: 497706726 heartbeat IPC: 0.804508 cumulative IPC: 0.901641 (Simulation time: 0 hr 13 min 35 sec) 
Heartbeat CPU 0 instructions: 520000000 cycles: 509583764 heartbeat IPC: 0.841961 cumulative IPC: 0.900122 (Simulation time: 0 hr 13 min 53 sec) 
Heartbeat CPU 0 instructions: 530000001 cycles: 521430041 heartbeat IPC: 0.844147 cumulative IPC: 0.898736 (Simulation time: 0 hr 14 min 10 sec) 
Heartbeat CPU 0 instructions: 540000000 cycles: 533051097 heartbeat IPC: 0.860507 cumulative IPC: 0.897829 (Simulation time: 0 hr 14 min 28 sec) 
Heartbeat CPU 0 instructions: 550000001 cycles: 544443938 heartbeat IPC: 0.877744 cumulative IPC: 0.897373 (Simulation time: 0 hr 14 min 45 sec) 
Heartbeat CPU 0 instructions: 560000000 cycles: 556015802 heartbeat IPC: 0.864165 cumulative IPC: 0.896624 (Simulation time: 0 hr 15 min 2 sec) 
Heartbeat CPU 0 instructions: 570000000 cycles: 567429404 heartbeat IPC: 0.876148 cumulative IPC: 0.896178 (Simulation time: 0 hr 15 min 19 sec) 
Heartbeat CPU 0 instructions: 580000000 cycles: 578190878 heartbeat IPC: 0.929241 cumulative IPC: 0.896843 (Simulation time: 0 hr 15 min 36 sec) 
Heartbeat CPU 0 instructions: 590000003 cycles: 589591785 heartbeat IPC: 0.877123 cumulative IPC: 0.896432 (Simulation time: 0 hr 15 min 53 sec) 
Heartbeat CPU 0 instructions: 600000000 cycles: 600174218 heartbeat IPC: 0.944962 cumulative IPC: 0.897354 (Simulation time: 0 hr 16 min 10 sec) 
Finished CPU 0 instructions: 500000001 cycles: 557194018 cumulative IPC: 0.897353 (Simulation time: 0 hr 16 min 10 sec) 

CPU 0 Branch Prediction Accuracy: 93.0095% MPKI: 10.0046
Number of Branches: 71558147 Number of Mispredictions: 5002285
Number of LOAD Instructions: 145708893
Number of LOAD Instructions (ROI): 145708893
Number of STORE Instructions: 40463820
Number of STORE Instructions (ROI): 40463820
Total Destination Memory Operands: 45240498
Total Destination Memory Operands (ROI): 45240498
Total Source Memory Operands: 145708893
Total Source Memory Operands (ROI): 145708893
Number of DEPENDED LOADS: 10670547
Number of DEPENDED LOADS (ROI): 10670547
Number of SQ_ADDED: 45240498
Number of SQ_ADDED (ROI): 45240498
Number of LQ_ADDED: 193334117
Number of LQ_ADDED (ROI): 193334117
Number of Instructions read from trace: 600000002

ChampSim completed all CPUs

Region of Interest Statistics

CPU 0 cumulative IPC: 0.897353 instructions: 500000001 cycles: 557194018
ITLB TOTAL     ACCESS:   77991902  HIT:   77991901  MISS:          1
ITLB LOAD      ACCESS:   77991902  HIT:   77991901  MISS:          1
ITLB RFO       ACCESS:          0  HIT:          0  MISS:          0
ITLB PREFETCH  ACCESS:          0  HIT:          0  MISS:          0
ITLB WRITEBACK ACCESS:          0  HIT:          0  MISS:          0
ITLB PREFETCH  REQUESTED:          0  ISSUED:          0  USEFUL:          0  USELESS:          0
ITLB TOTAL MSHR MERGED:          0
ITLB LOAD MSHR MERGED:          0
ITLB RFO MSHR MERGED:          0
ITLB PREFETCH MSHR MERGED:          0
ITLB WRITEBACK MSHR MERGED:          0
ITLB TOTAL ACCESSES:   77991902 HITS:   77991901 MISSES:          1
ITLB LOAD ACCESSES:   77991902 HITS:   77991901 MISSES:          1
ITLB RFO ACCESSES:          0 HITS:          0 MISSES:          0
ITLB PREFETCH ACCESSES:          0 HITS:          0 MISSES:          0
ITLB WRITEBACK ACCESSES:          0 HITS:          0 MISSES:          0
ITLB RQ ACCESS:  499999995
ITLB RQ TO_CACHE:   77991902
ITLB RQ MERGED:  422008093
ITLB RQ FORWARD:          0
ITLB WQ ACCESS:          0
ITLB WQ TO_CACHE:          0
ITLB WQ MERGED:          0
ITLB WQ FORWARD:          0
DTLB TOTAL     ACCESS:   98671329  HIT:   97789992  MISS:     881337
DTLB LOAD      ACCESS:   70891611  HIT:   70030077  MISS:     861534
DTLB RFO       ACCESS:   27779718  HIT:   27759915  MISS:      19803
DTLB PREFETCH  ACCESS:          0  HIT:          0  MISS:          0
DTLB WRITEBACK ACCESS:          0  HIT:          0  MISS:          0
DTLB PREFETCH  REQUESTED:          0  ISSUED:          0  USEFUL:          0  USELESS:          0
DTLB TOTAL MSHR MERGED:      87370
DTLB LOAD MSHR MERGED:      65625
DTLB RFO MSHR MERGED:      21745
DTLB PREFETCH MSHR MERGED:          0
DTLB WRITEBACK MSHR MERGED:          0
DTLB TOTAL ACCESSES:   98758699 HITS:   97789992 MISSES:     968707
DTLB LOAD ACCESSES:   70957236 HITS:   70030077 MISSES:     927159
DTLB RFO ACCESSES:   27801463 HITS:   27759915 MISSES:      41548
DTLB PREFETCH ACCESSES:          0 HITS:          0 MISSES:          0
DTLB WRITEBACK ACCESSES:          0 HITS:          0 MISSES:          0
DTLB RQ ACCESS:  150274504
DTLB RQ TO_CACHE:   98758699
DTLB RQ MERGED:   51515805
DTLB RQ FORWARD:          0
DTLB WQ ACCESS:          0
DTLB WQ TO_CACHE:          0
DTLB WQ MERGED:          0
DTLB WQ FORWARD:          0
L1D TOTAL     ACCESS:  173332948  HIT:  169164310  MISS:    4168638
L1D LOAD      ACCESS:   75283348  HIT:   73402080  MISS:    1881268
L1D RFO       ACCESS:   36778429  HIT:   36571824  MISS:     206605
L1D PREFETCH  ACCESS:   61271171  HIT:   59190406  MISS:    2080765
L1D WRITEBACK ACCESS:          0  HIT:          0  MISS:          0
L1D PREFETCH  REQUESTED:   75387220  ISSUED:   74823020  USEFUL:     415204  USELESS:    1665550
L1D TOTAL MSHR MERGED:     374247
L1D LOAD MSHR MERGED:     112567
L1D RFO MSHR MERGED:     132982
L1D PREFETCH MSHR MERGED:     128698
L1D WRITEBACK MSHR MERGED:          0
L1D TOTAL ACCESSES:  173858766 HITS:  169315881 MISSES:    4542885
L1D LOAD ACCESSES:   75390133 HITS:   73404993 MISSES:    1985140
L1D RFO ACCESSES:   36910017 HITS:   36571824 MISSES:     338193
L1D PREFETCH ACCESSES:   61558616 HITS:   59339064 MISSES:    2219552
L1D WRITEBACK ACCESSES:          0 HITS:          0 MISSES:          0
L1D RQ ACCESS:  112612101
L1D RQ TO_CACHE:   75387220
L1D RQ MERGED:   37221968
L1D RQ FORWARD:          0
L1D WQ ACCESS:   37662403
L1D WQ TO_CACHE:   36910017
L1D WQ MERGED:     752386
L1D WQ FORWARD:     151571
L1I TOTAL     ACCESS:  100699945  HIT:  100699920  MISS:         25
L1I LOAD      ACCESS:  100699945  HIT:  100699920  MISS:         25
L1I RFO       ACCESS:          0  HIT:          0  MISS:          0
L1I PREFETCH  ACCESS:          0  HIT:          0  MISS:          0
L1I WRITEBACK ACCESS:          0  HIT:          0  MISS:          0
L1I PREFETCH  REQUESTED:          0  ISSUED:          0  USEFUL:          0  USELESS:          0
L1I TOTAL MSHR MERGED:         10
L1I LOAD MSHR MERGED:         10
L1I RFO MSHR MERGED:          0
L1I PREFETCH MSHR MERGED:          0
L1I WRITEBACK MSHR MERGED:          0
L1I TOTAL ACCESSES:  100699955 HITS:  100699920 MISSES:         35
L1I LOAD ACCESSES:  100699955 HITS:  100699920 MISSES:         35
L1I RFO ACCESSES:          0 HITS:          0 MISSES:          0
L1I PREFETCH ACCESSES:          0 HITS:          0 MISSES:          0
L1I WRITEBACK ACCESSES:          0 HITS:          0 MISSES:          0
L1I RQ ACCESS:  499999995
L1I RQ TO_CACHE:  100699955
L1I RQ MERGED:  399300040
L1I RQ FORWARD:          0
L1I WQ ACCESS:          0
L1I WQ TO_CACHE:          0
L1I WQ MERGED:          0
L1I WQ FORWARD:          0
L2C TOTAL     ACCESS:    5852603  HIT:    4009409  MISS:    1843194
L2C LOAD      ACCESS:    1872474  HIT:    1061511  MISS:     810963
L2C RFO       ACCESS:     205202  HIT:     100562  MISS:     104640
L2C PREFETCH  ACCESS:    2169295  HIT:    1246124  MISS:     923171
L2C WRITEBACK ACCESS:    1605632  HIT:    1601212  MISS:       4420
L2C PREFETCH  REQUESTED:      91711  ISSUED:      91711  USEFUL:      86450  USELESS:     836744
L2C TOTAL MSHR MERGED:       1009
L2C LOAD MSHR MERGED:        260
L2C RFO MSHR MERGED:          0
L2C PREFETCH MSHR MERGED:        749
L2C WRITEBACK MSHR MERGED:          0
L2C TOTAL ACCESSES:    5853942 HITS:    4009579 MISSES:    1844363
L2C LOAD ACCESSES:    1872598 HITS:    1061635 MISSES:     810963
L2C RFO ACCESSES:     205211 HITS:     100571 MISSES:     104640
L2C PREFETCH ACCESSES:    2170501 HITS:    1246161 MISSES:     924340
L2C WRITEBACK ACCESSES:    1605632 HITS:    1601212 MISSES:       4420
L2C RQ ACCESS:    2077809
L2C RQ TO_CACHE:    2077676
L2C RQ MERGED:          0
L2C RQ FORWARD:          0
L2C WQ ACCESS:    1605632
L2C WQ TO_CACHE:    1605632
L2C WQ MERGED:          0
L2C WQ FORWARD:        170
LLC TOTAL     ACCESS:    2673581  HIT:    2168377  MISS:     505204
LLC LOAD      ACCESS:     810694  HIT:     632284  MISS:     178410
LLC RFO       ACCESS:     104640  HIT:      60096  MISS:      44544
LLC PREFETCH  ACCESS:     923570  HIT:     679140  MISS:     244430
LLC WRITEBACK ACCESS:     834677  HIT:     796857  MISS:      37820
LLC PREFETCH  REQUESTED:          0  ISSUED:          0  USEFUL:       8368  USELESS:     236310
LLC TOTAL MSHR MERGED:          8
LLC LOAD MSHR MERGED:          1
LLC RFO MSHR MERGED:          0
LLC PREFETCH MSHR MERGED:          7
LLC WRITEBACK MSHR MERGED:          0
LLC TOTAL ACCESSES:    2673600 HITS:    2168388 MISSES:     505212
LLC LOAD ACCESSES:     810703 HITS:     632293 MISSES:     178410
LLC RFO ACCESSES:     104640 HITS:      60096 MISSES:      44544
LLC PREFETCH ACCESSES:     923580 HITS:     679142 MISSES:     244438
LLC WRITEBACK ACCESSES:     834677 HITS:     796857 MISSES:      37820
LLC 0 RQ ACCESS:     915343
LLC 0 RQ TO_CACHE:     915334
LLC 0 RQ MERGED:          0
LLC 0 RQ FORWARD:          0
LLC WQ ACCESS:     834677
LLC WQ TO_CACHE:     834677
LLC WQ MERGED:          0
LLC WQ FORWARD:         11
Major fault: 0 Minor fault: 11278
CPU 0 L1D next line prefetcher final stats
CPU 0 L2C PC-based stride prefetcher final stats
All Misses: 619091
All Hits: 2435508
SD Algo Stats - Switches: 0 SRR-Repls: 211919 BRR-Repls: 0

DRAM Statistics
 CHANNEL 0
 RQ ROW_BUFFER_HIT:      29311  ROW_BUFFER_MISS:     437567
 DBUS_CONGESTED:     352125
 WQ ROW_BUFFER_HIT:      14641  ROW_BUFFER_MISS:     204278  FULL:          0

 AVG_CONGESTED_CYCLE: 13
LOADS RETIRED: 121769268
INSTR RETIRED: 500000000
