
*** ChampSim Multicore Out-of-Order Simulator ***

Warmup Instructions: 100000000
Simulation Instructions: 500000000
Number of CPUs: 1
LLC sets: 2048
LLC ways: 16
Clean RRIP Policies: 1223130112231301 Dirty RRIP Policies: 1203130112031301 PSEL Width: 10 Track Set: 4294967295 PSEL Mask: 1 Demote Mask: 2144400021444DS Algo: 0Window size: 0
Off-chip DRAM Size: 4096 MB Channels: 1 Width: 64-bit Data Rate: 1600 MT/s

CPU 0 runs /mnt/beegfs/iconst01/spec2017/Gcc.trace.gz
NOT SORTED
TRACE STRING: /mnt/beegfs/iconst01/spec2017/Gcc.trace.gz
SORTED
TRACE STRING: /mnt/beegfs/iconst01/spec2017/Gcc.trace.gz
INITIAL
TRACE STRING: /mnt/beegfs/iconst01/spec2017/Gcc.trace.gz

champsim_seed used: 269

CPU 0 L1D next line prefetcher
CPU 0 L2C IP-based stride prefetcher
Initialize DRRIP state
Assign rand_sets[0]: 454  LLC: 2048
rand_sets[0]: 454
Assign rand_sets[1]: 1662  LLC: 2048
rand_sets[1]: 1662
Assign rand_sets[2]: 1921  LLC: 2048
rand_sets[2]: 1921
Assign rand_sets[3]: 1131  LLC: 2048
rand_sets[3]: 1131
Assign rand_sets[4]: 331  LLC: 2048
rand_sets[4]: 331
Assign rand_sets[5]: 1531  LLC: 2048
rand_sets[5]: 1531
Assign rand_sets[6]: 482  LLC: 2048
rand_sets[6]: 482
Assign rand_sets[7]: 1275  LLC: 2048
rand_sets[7]: 1275
Assign rand_sets[8]: 1876  LLC: 2048
rand_sets[8]: 1876
Assign rand_sets[9]: 2038  LLC: 2048
rand_sets[9]: 2038
Assign rand_sets[10]: 701  LLC: 2048
rand_sets[10]: 701
Assign rand_sets[11]: 479  LLC: 2048
rand_sets[11]: 479
Assign rand_sets[12]: 892  LLC: 2048
rand_sets[12]: 892
Assign rand_sets[13]: 1820  LLC: 2048
rand_sets[13]: 1820
Assign rand_sets[14]: 1505  LLC: 2048
rand_sets[14]: 1505
Assign rand_sets[15]: 1159  LLC: 2048
rand_sets[15]: 1159
Assign rand_sets[16]: 513  LLC: 2048
rand_sets[16]: 513
Assign rand_sets[17]: 703  LLC: 2048
rand_sets[17]: 703
Assign rand_sets[18]: 561  LLC: 2048
rand_sets[18]: 561
Assign rand_sets[19]: 990  LLC: 2048
rand_sets[19]: 990
Assign rand_sets[20]: 342  LLC: 2048
rand_sets[20]: 342
Assign rand_sets[21]: 882  LLC: 2048
rand_sets[21]: 882
Assign rand_sets[22]: 15  LLC: 2048
rand_sets[22]: 15
Assign rand_sets[23]: 71  LLC: 2048
rand_sets[23]: 71
Assign rand_sets[24]: 1127  LLC: 2048
rand_sets[24]: 1127
Assign rand_sets[25]: 1382  LLC: 2048
rand_sets[25]: 1382
Assign rand_sets[26]: 647  LLC: 2048
rand_sets[26]: 647
Assign rand_sets[27]: 857  LLC: 2048
rand_sets[27]: 857
Assign rand_sets[28]: 1450  LLC: 2048
rand_sets[28]: 1450
Assign rand_sets[29]: 1160  LLC: 2048
rand_sets[29]: 1160
Assign rand_sets[30]: 1852  LLC: 2048
rand_sets[30]: 1852
Assign rand_sets[31]: 1881  LLC: 2048
rand_sets[31]: 1881
Assign rand_sets[32]: 1770  LLC: 2048
rand_sets[32]: 1770
Assign rand_sets[33]: 1622  LLC: 2048
rand_sets[33]: 1622
Assign rand_sets[34]: 275  LLC: 2048
rand_sets[34]: 275
Assign rand_sets[35]: 635  LLC: 2048
rand_sets[35]: 635
Assign rand_sets[36]: 466  LLC: 2048
rand_sets[36]: 466
Assign rand_sets[37]: 1413  LLC: 2048
rand_sets[37]: 1413
Assign rand_sets[38]: 417  LLC: 2048
rand_sets[38]: 417
Assign rand_sets[39]: 472  LLC: 2048
rand_sets[39]: 472
Assign rand_sets[40]: 1340  LLC: 2048
rand_sets[40]: 1340
Assign rand_sets[41]: 852  LLC: 2048
rand_sets[41]: 852
Assign rand_sets[42]: 1365  LLC: 2048
rand_sets[42]: 1365
Assign rand_sets[43]: 47  LLC: 2048
rand_sets[43]: 47
Assign rand_sets[44]: 823  LLC: 2048
rand_sets[44]: 823
Assign rand_sets[45]: 686  LLC: 2048
rand_sets[45]: 686
Assign rand_sets[46]: 1637  LLC: 2048
rand_sets[46]: 1637
Assign rand_sets[47]: 1115  LLC: 2048
rand_sets[47]: 1115
Assign rand_sets[48]: 986  LLC: 2048
rand_sets[48]: 986
Assign rand_sets[49]: 258  LLC: 2048
rand_sets[49]: 258
Assign rand_sets[50]: 633  LLC: 2048
rand_sets[50]: 633
Assign rand_sets[51]: 920  LLC: 2048
rand_sets[51]: 920
Assign rand_sets[52]: 204  LLC: 2048
rand_sets[52]: 204
Assign rand_sets[53]: 227  LLC: 2048
rand_sets[53]: 227
Assign rand_sets[54]: 1818  LLC: 2048
rand_sets[54]: 1818
Assign rand_sets[55]: 886  LLC: 2048
rand_sets[55]: 886
Assign rand_sets[56]: 1422  LLC: 2048
rand_sets[56]: 1422
Assign rand_sets[57]: 607  LLC: 2048
rand_sets[57]: 607
Assign rand_sets[58]: 217  LLC: 2048
rand_sets[58]: 217
Assign rand_sets[59]: 1945  LLC: 2048
rand_sets[59]: 1945
Assign rand_sets[60]: 143  LLC: 2048
rand_sets[60]: 143
Assign rand_sets[61]: 1311  LLC: 2048
rand_sets[61]: 1311
Assign rand_sets[62]: 319  LLC: 2048
rand_sets[62]: 319
Assign rand_sets[63]: 1846  LLC: 2048
rand_sets[63]: 1846
 CLEAN-RRIP-POLICY-1: 1-2-2-3-1-3-0-1- CLEAN-RRIP-POLICY-2: 1-2-2-3-1-3-0-1-
 DIRTY-RRIP-POLICY-1: 1-2-0-3-1-3-0-1- DIRTY-RRIP-POLICY-2: 1-2-0-3-1-3-0-1-
 PSEL width: 10
Heartbeat CPU 0 instructions: 10000001 cycles: 7315980 heartbeat IPC: 1.36687 cumulative IPC: 1.36687 (Simulation time: 0 hr 0 min 15 sec) 
Heartbeat CPU 0 instructions: 20000000 cycles: 14307389 heartbeat IPC: 1.43033 cumulative IPC: 1.39788 (Simulation time: 0 hr 0 min 30 sec) 
Heartbeat CPU 0 instructions: 30000001 cycles: 21020066 heartbeat IPC: 1.48972 cumulative IPC: 1.42721 (Simulation time: 0 hr 0 min 46 sec) 
Heartbeat CPU 0 instructions: 40000000 cycles: 27480797 heartbeat IPC: 1.54781 cumulative IPC: 1.45556 (Simulation time: 0 hr 1 min 2 sec) 
Heartbeat CPU 0 instructions: 50000001 cycles: 33582293 heartbeat IPC: 1.63894 cumulative IPC: 1.48888 (Simulation time: 0 hr 1 min 18 sec) 
Heartbeat CPU 0 instructions: 60000000 cycles: 40063305 heartbeat IPC: 1.54297 cumulative IPC: 1.49763 (Simulation time: 0 hr 1 min 34 sec) 
Heartbeat CPU 0 instructions: 70000000 cycles: 47100151 heartbeat IPC: 1.42109 cumulative IPC: 1.48619 (Simulation time: 0 hr 1 min 49 sec) 
Heartbeat CPU 0 instructions: 80000000 cycles: 54189362 heartbeat IPC: 1.41059 cumulative IPC: 1.4763 (Simulation time: 0 hr 2 min 4 sec) 
Heartbeat CPU 0 instructions: 90000003 cycles: 61193399 heartbeat IPC: 1.42775 cumulative IPC: 1.47075 (Simulation time: 0 hr 2 min 19 sec) 
Heartbeat CPU 0 instructions: 100000000 cycles: 68360171 heartbeat IPC: 1.39533 cumulative IPC: 1.46284 (Simulation time: 0 hr 2 min 34 sec) 

Warmup complete CPU 0 instructions: 100000004 cycles: 68360172 (Simulation time: 0 hr 2 min 34 sec) 

Heartbeat CPU 0 instructions: 110000003 cycles: 95924571 heartbeat IPC: 0.362787 cumulative IPC: 0.362787 (Simulation time: 0 hr 3 min 4 sec) 
Heartbeat CPU 0 instructions: 120000000 cycles: 123364048 heartbeat IPC: 0.364438 cumulative IPC: 0.363611 (Simulation time: 0 hr 3 min 34 sec) 
Heartbeat CPU 0 instructions: 130000000 cycles: 148304070 heartbeat IPC: 0.400962 cumulative IPC: 0.375263 (Simulation time: 0 hr 4 min 3 sec) 
Heartbeat CPU 0 instructions: 140000000 cycles: 177591079 heartbeat IPC: 0.341448 cumulative IPC: 0.366197 (Simulation time: 0 hr 4 min 32 sec) 
Heartbeat CPU 0 instructions: 150000000 cycles: 207358052 heartbeat IPC: 0.335943 cumulative IPC: 0.359718 (Simulation time: 0 hr 5 min 2 sec) 
Heartbeat CPU 0 instructions: 160000000 cycles: 234722477 heartbeat IPC: 0.365438 cumulative IPC: 0.360659 (Simulation time: 0 hr 5 min 30 sec) 
Heartbeat CPU 0 instructions: 170000001 cycles: 262665124 heartbeat IPC: 0.357876 cumulative IPC: 0.360258 (Simulation time: 0 hr 6 min 1 sec) 
Heartbeat CPU 0 instructions: 180000000 cycles: 291024033 heartbeat IPC: 0.352623 cumulative IPC: 0.359286 (Simulation time: 0 hr 6 min 31 sec) 
Heartbeat CPU 0 instructions: 190000002 cycles: 318911102 heartbeat IPC: 0.358589 cumulative IPC: 0.359208 (Simulation time: 0 hr 7 min 1 sec) 
Heartbeat CPU 0 instructions: 200000000 cycles: 347185495 heartbeat IPC: 0.353677 cumulative IPC: 0.358647 (Simulation time: 0 hr 7 min 31 sec) 
Heartbeat CPU 0 instructions: 210000002 cycles: 374929735 heartbeat IPC: 0.360435 cumulative IPC: 0.358809 (Simulation time: 0 hr 8 min 1 sec) 
Heartbeat CPU 0 instructions: 220000000 cycles: 403874632 heartbeat IPC: 0.345484 cumulative IPC: 0.35766 (Simulation time: 0 hr 8 min 29 sec) 
Heartbeat CPU 0 instructions: 230000000 cycles: 431332582 heartbeat IPC: 0.364193 cumulative IPC: 0.358154 (Simulation time: 0 hr 8 min 58 sec) 
Heartbeat CPU 0 instructions: 240000000 cycles: 457267467 heartbeat IPC: 0.385581 cumulative IPC: 0.359983 (Simulation time: 0 hr 9 min 26 sec) 
Heartbeat CPU 0 instructions: 250000000 cycles: 487347842 heartbeat IPC: 0.332443 cumulative IPC: 0.358006 (Simulation time: 0 hr 9 min 57 sec) 
Heartbeat CPU 0 instructions: 260000000 cycles: 514392912 heartbeat IPC: 0.369753 cumulative IPC: 0.358718 (Simulation time: 0 hr 10 min 26 sec) 
Heartbeat CPU 0 instructions: 270000003 cycles: 542682993 heartbeat IPC: 0.353481 cumulative IPC: 0.358406 (Simulation time: 0 hr 10 min 57 sec) 
Heartbeat CPU 0 instructions: 280000000 cycles: 570719183 heartbeat IPC: 0.356682 cumulative IPC: 0.358309 (Simulation time: 0 hr 11 min 27 sec) 
Heartbeat CPU 0 instructions: 290000000 cycles: 599495972 heartbeat IPC: 0.347502 cumulative IPC: 0.357724 (Simulation time: 0 hr 11 min 58 sec) 
Heartbeat CPU 0 instructions: 300000000 cycles: 629134148 heartbeat IPC: 0.337403 cumulative IPC: 0.35665 (Simulation time: 0 hr 12 min 27 sec) 
Heartbeat CPU 0 instructions: 310000001 cycles: 658411614 heartbeat IPC: 0.34156 cumulative IPC: 0.355901 (Simulation time: 0 hr 12 min 56 sec) 
Heartbeat CPU 0 instructions: 320000000 cycles: 686482950 heartbeat IPC: 0.356235 cumulative IPC: 0.355916 (Simulation time: 0 hr 13 min 25 sec) 
Heartbeat CPU 0 instructions: 330000000 cycles: 715006212 heartbeat IPC: 0.350591 cumulative IPC: 0.355681 (Simulation time: 0 hr 13 min 55 sec) 
Heartbeat CPU 0 instructions: 340000000 cycles: 744200102 heartbeat IPC: 0.342537 cumulative IPC: 0.355114 (Simulation time: 0 hr 14 min 24 sec) 
Heartbeat CPU 0 instructions: 350000003 cycles: 771127091 heartbeat IPC: 0.371375 cumulative IPC: 0.355737 (Simulation time: 0 hr 14 min 53 sec) 
Heartbeat CPU 0 instructions: 360000000 cycles: 799170974 heartbeat IPC: 0.356584 cumulative IPC: 0.355769 (Simulation time: 0 hr 15 min 21 sec) 
Heartbeat CPU 0 instructions: 370000000 cycles: 827371620 heartbeat IPC: 0.354602 cumulative IPC: 0.355726 (Simulation time: 0 hr 15 min 50 sec) 
Heartbeat CPU 0 instructions: 380000000 cycles: 855895201 heartbeat IPC: 0.350587 cumulative IPC: 0.35554 (Simulation time: 0 hr 16 min 18 sec) 
Heartbeat CPU 0 instructions: 390000001 cycles: 883525192 heartbeat IPC: 0.361926 cumulative IPC: 0.355756 (Simulation time: 0 hr 16 min 46 sec) 
Heartbeat CPU 0 instructions: 400000000 cycles: 912176620 heartbeat IPC: 0.349023 cumulative IPC: 0.355528 (Simulation time: 0 hr 17 min 14 sec) 
Heartbeat CPU 0 instructions: 410000001 cycles: 939519610 heartbeat IPC: 0.365724 cumulative IPC: 0.355848 (Simulation time: 0 hr 17 min 42 sec) 
Heartbeat CPU 0 instructions: 420000000 cycles: 966872873 heartbeat IPC: 0.365587 cumulative IPC: 0.356144 (Simulation time: 0 hr 18 min 10 sec) 
Heartbeat CPU 0 instructions: 430000002 cycles: 994559627 heartbeat IPC: 0.361184 cumulative IPC: 0.356295 (Simulation time: 0 hr 18 min 39 sec) 
Heartbeat CPU 0 instructions: 440000000 cycles: 1023996729 heartbeat IPC: 0.339707 cumulative IPC: 0.355784 (Simulation time: 0 hr 19 min 7 sec) 
Heartbeat CPU 0 instructions: 450000002 cycles: 1053232826 heartbeat IPC: 0.342043 cumulative IPC: 0.355376 (Simulation time: 0 hr 19 min 36 sec) 
Heartbeat CPU 0 instructions: 460000000 cycles: 1080950479 heartbeat IPC: 0.360781 cumulative IPC: 0.355524 (Simulation time: 0 hr 20 min 4 sec) 
Heartbeat CPU 0 instructions: 470000000 cycles: 1108611418 heartbeat IPC: 0.361521 cumulative IPC: 0.355683 (Simulation time: 0 hr 20 min 32 sec) 
Heartbeat CPU 0 instructions: 480000000 cycles: 1136528742 heartbeat IPC: 0.358201 cumulative IPC: 0.355749 (Simulation time: 0 hr 21 min 1 sec) 
Heartbeat CPU 0 instructions: 490000000 cycles: 1164165634 heartbeat IPC: 0.361835 cumulative IPC: 0.355903 (Simulation time: 0 hr 21 min 29 sec) 
Heartbeat CPU 0 instructions: 500000000 cycles: 1192417672 heartbeat IPC: 0.353957 cumulative IPC: 0.355854 (Simulation time: 0 hr 21 min 57 sec) 
Heartbeat CPU 0 instructions: 510000000 cycles: 1227734769 heartbeat IPC: 0.283149 cumulative IPC: 0.353639 (Simulation time: 0 hr 22 min 30 sec) 
Heartbeat CPU 0 instructions: 520000000 cycles: 1255744657 heartbeat IPC: 0.357017 cumulative IPC: 0.353719 (Simulation time: 0 hr 22 min 59 sec) 
Heartbeat CPU 0 instructions: 530000001 cycles: 1284922103 heartbeat IPC: 0.342731 cumulative IPC: 0.353455 (Simulation time: 0 hr 23 min 28 sec) 
Heartbeat CPU 0 instructions: 540000000 cycles: 1312888466 heartbeat IPC: 0.357572 cumulative IPC: 0.353548 (Simulation time: 0 hr 23 min 58 sec) 
Heartbeat CPU 0 instructions: 550000001 cycles: 1342075962 heartbeat IPC: 0.342613 cumulative IPC: 0.353297 (Simulation time: 0 hr 24 min 29 sec) 
Heartbeat CPU 0 instructions: 560000000 cycles: 1367396052 heartbeat IPC: 0.394943 cumulative IPC: 0.354109 (Simulation time: 0 hr 24 min 57 sec) 
Heartbeat CPU 0 instructions: 570000000 cycles: 1396697458 heartbeat IPC: 0.341281 cumulative IPC: 0.353826 (Simulation time: 0 hr 25 min 27 sec) 
Heartbeat CPU 0 instructions: 580000000 cycles: 1424600959 heartbeat IPC: 0.358378 cumulative IPC: 0.353919 (Simulation time: 0 hr 25 min 57 sec) 
Heartbeat CPU 0 instructions: 590000001 cycles: 1449442679 heartbeat IPC: 0.402549 cumulative IPC: 0.354794 (Simulation time: 0 hr 26 min 25 sec) 
Heartbeat CPU 0 instructions: 600000000 cycles: 1475675467 heartbeat IPC: 0.381202 cumulative IPC: 0.355286 (Simulation time: 0 hr 26 min 53 sec) 
Finished CPU 0 instructions: 500000000 cycles: 1407315317 cumulative IPC: 0.355286 (Simulation time: 0 hr 26 min 53 sec) 

CPU 0 Branch Prediction Accuracy: 86.4311% MPKI: 26.2662
Number of Branches: 96788573 Number of Mispredictions: 13133102
Number of LOAD Instructions: 164682285
Number of LOAD Instructions (ROI): 164682285
Number of STORE Instructions: 78194750
Number of STORE Instructions (ROI): 78194750
Total Destination Memory Operands: 83268534
Total Destination Memory Operands (ROI): 83268534
Total Source Memory Operands: 164712438
Total Source Memory Operands (ROI): 164712438
Number of DEPENDED LOADS: 7064525
Number of DEPENDED LOADS (ROI): 7064525
Number of SQ_ADDED: 83268522
Number of SQ_ADDED (ROI): 83268522
Number of LQ_ADDED: 236701360
Number of LQ_ADDED (ROI): 236701360
Number of Instructions read from trace: 600000066

ChampSim completed all CPUs

Region of Interest Statistics

CPU 0 cumulative IPC: 0.355286 instructions: 500000000 cycles: 1407315317
ITLB TOTAL     ACCESS:  100506010  HIT:  100301564  MISS:     204446
ITLB LOAD      ACCESS:  100506010  HIT:  100301564  MISS:     204446
ITLB RFO       ACCESS:          0  HIT:          0  MISS:          0
ITLB PREFETCH  ACCESS:          0  HIT:          0  MISS:          0
ITLB WRITEBACK ACCESS:          0  HIT:          0  MISS:          0
ITLB PREFETCH  REQUESTED:          0  ISSUED:          0  USEFUL:          0  USELESS:          0
ITLB TOTAL MSHR MERGED:     172422
ITLB LOAD MSHR MERGED:     172422
ITLB RFO MSHR MERGED:          0
ITLB PREFETCH MSHR MERGED:          0
ITLB WRITEBACK MSHR MERGED:          0
ITLB TOTAL ACCESSES:  100678432 HITS:  100301564 MISSES:     376868
ITLB LOAD ACCESSES:  100678432 HITS:  100301564 MISSES:     376868
ITLB RFO ACCESSES:          0 HITS:          0 MISSES:          0
ITLB PREFETCH ACCESSES:          0 HITS:          0 MISSES:          0
ITLB WRITEBACK ACCESSES:          0 HITS:          0 MISSES:          0
ITLB RQ ACCESS:  500000057
ITLB RQ TO_CACHE:  100678432
ITLB RQ MERGED:  399321625
ITLB RQ FORWARD:          0
ITLB WQ ACCESS:          0
ITLB WQ TO_CACHE:          0
ITLB WQ MERGED:          0
ITLB WQ FORWARD:          0
DTLB TOTAL     ACCESS:  165331037  HIT:  164696689  MISS:     634348
DTLB LOAD      ACCESS:  106287855  HIT:  105717849  MISS:     570006
DTLB RFO       ACCESS:   59043182  HIT:   58978840  MISS:      64342
DTLB PREFETCH  ACCESS:          0  HIT:          0  MISS:          0
DTLB WRITEBACK ACCESS:          0  HIT:          0  MISS:          0
DTLB PREFETCH  REQUESTED:          0  ISSUED:          0  USEFUL:          0  USELESS:          0
DTLB TOTAL MSHR MERGED:     100010
DTLB LOAD MSHR MERGED:      59464
DTLB RFO MSHR MERGED:      40546
DTLB PREFETCH MSHR MERGED:          0
DTLB WRITEBACK MSHR MERGED:          0
DTLB TOTAL ACCESSES:  165431047 HITS:  164696689 MISSES:     734358
DTLB LOAD ACCESSES:  106347319 HITS:  105717849 MISSES:     629470
DTLB RFO ACCESSES:   59083728 HITS:   58978840 MISSES:     104888
DTLB PREFETCH ACCESSES:          0 HITS:          0 MISSES:          0
DTLB WRITEBACK ACCESSES:          0 HITS:          0 MISSES:          0
DTLB RQ ACCESS:  200306384
DTLB RQ TO_CACHE:  165431047
DTLB RQ MERGED:   34875337
DTLB RQ FORWARD:          0
DTLB WQ ACCESS:          0
DTLB WQ TO_CACHE:          0
DTLB WQ MERGED:          0
DTLB WQ FORWARD:          0
L1D TOTAL     ACCESS:  281758346  HIT:  273849189  MISS:    7909157
L1D LOAD      ACCESS:  110403418  HIT:  107120454  MISS:    3282964
L1D RFO       ACCESS:   67099353  HIT:   66207943  MISS:     891410
L1D PREFETCH  ACCESS:  104255575  HIT:  100520792  MISS:    3734783
L1D WRITEBACK ACCESS:          0  HIT:          0  MISS:          0
L1D PREFETCH  REQUESTED:  110812526  ISSUED:  109113313  USEFUL:    1655677  USELESS:    2079070
L1D TOTAL MSHR MERGED:    2936466
L1D LOAD MSHR MERGED:     511508
L1D RFO MSHR MERGED:    1887206
L1D PREFETCH MSHR MERGED:     537752
L1D WRITEBACK MSHR MERGED:          0
L1D TOTAL ACCESSES:  284722340 HITS:  273876717 MISSES:   10845623
L1D LOAD ACCESSES:  110814078 HITS:  107122006 MISSES:    3692072
L1D RFO ACCESSES:   68973932 HITS:   66207943 MISSES:    2765989
L1D PREFETCH ACCESSES:  104934330 HITS:  100546768 MISSES:    4387562
L1D WRITEBACK ACCESSES:          0 HITS:          0 MISSES:          0
L1D RQ ACCESS:  130753781
L1D RQ TO_CACHE:  110812529
L1D RQ MERGED:   19939700
L1D RQ FORWARD:          0
L1D WQ ACCESS:   69552603
L1D WQ TO_CACHE:   68973933
L1D WQ MERGED:     578670
L1D WQ FORWARD:      27528
L1I TOTAL     ACCESS:  126553907  HIT:  122315354  MISS:    4238553
L1I LOAD      ACCESS:  126553907  HIT:  122315354  MISS:    4238553
L1I RFO       ACCESS:          0  HIT:          0  MISS:          0
L1I PREFETCH  ACCESS:          0  HIT:          0  MISS:          0
L1I WRITEBACK ACCESS:          0  HIT:          0  MISS:          0
L1I PREFETCH  REQUESTED:          0  ISSUED:          0  USEFUL:          0  USELESS:          0
L1I TOTAL MSHR MERGED:    1834302
L1I LOAD MSHR MERGED:    1834302
L1I RFO MSHR MERGED:          0
L1I PREFETCH MSHR MERGED:          0
L1I WRITEBACK MSHR MERGED:          0
L1I TOTAL ACCESSES:  128388212 HITS:  122315354 MISSES:    6072858
L1I LOAD ACCESSES:  128388212 HITS:  122315354 MISSES:    6072858
L1I RFO ACCESSES:          0 HITS:          0 MISSES:          0
L1I PREFETCH ACCESSES:          0 HITS:          0 MISSES:          0
L1I WRITEBACK ACCESSES:          0 HITS:          0 MISSES:          0
L1I RQ ACCESS:  500000057
L1I RQ TO_CACHE:  128388212
L1I RQ MERGED:  371611845
L1I RQ FORWARD:          0
L1I WQ ACCESS:          0
L1I WQ TO_CACHE:          0
L1I WQ MERGED:          0
L1I WQ FORWARD:          0
L2C TOTAL     ACCESS:   14903613  HIT:   11157164  MISS:    3746449
L2C LOAD      ACCESS:    7418909  HIT:    5098531  MISS:    2320378
L2C RFO       ACCESS:     878684  HIT:     409889  MISS:     468795
L2C PREFETCH  ACCESS:    4566805  HIT:    3626792  MISS:     940013
L2C WRITEBACK ACCESS:    2039215  HIT:    2021952  MISS:      17263
L2C PREFETCH  REQUESTED:     842731  ISSUED:     842731  USEFUL:     203033  USELESS:     736686
L2C TOTAL MSHR MERGED:       8337
L2C LOAD MSHR MERGED:       1098
L2C RFO MSHR MERGED:          0
L2C PREFETCH MSHR MERGED:       7239
L2C WRITEBACK MSHR MERGED:          0
L2C TOTAL ACCESSES:   14912933 HITS:   11157614 MISSES:    3755319
L2C LOAD ACCESSES:    7419117 HITS:    5098739 MISSES:    2320378
L2C RFO ACCESSES:     878783 HITS:     409988 MISSES:     468795
L2C PREFETCH ACCESSES:    4575818 HITS:    3626935 MISSES:     948883
L2C WRITEBACK ACCESSES:    2039215 HITS:    2021952 MISSES:      17263
L2C RQ ACCESS:    8297903
L2C RQ TO_CACHE:    8297596
L2C RQ MERGED:          0
L2C RQ FORWARD:          0
L2C WQ ACCESS:    2039215
L2C WQ TO_CACHE:    2039215
L2C WQ MERGED:          0
L2C WQ FORWARD:        450
LLC TOTAL     ACCESS:    4609828  HIT:    3822146  MISS:     787682
LLC LOAD      ACCESS:    2319267  HIT:    2108188  MISS:     211079
LLC RFO       ACCESS:     468785  HIT:     374407  MISS:      94378
LLC PREFETCH  ACCESS:     941492  HIT:     548317  MISS:     393175
LLC WRITEBACK ACCESS:     880284  HIT:     791234  MISS:      89050
LLC PREFETCH  REQUESTED:          0  ISSUED:          0  USEFUL:      15205  USELESS:     378899
LLC TOTAL MSHR MERGED:        133
LLC LOAD MSHR MERGED:         46
LLC RFO MSHR MERGED:          0
LLC PREFETCH MSHR MERGED:         87
LLC WRITEBACK MSHR MERGED:          0
LLC TOTAL ACCESSES:    4609994 HITS:    3822179 MISSES:     787815
LLC LOAD ACCESSES:    2319280 HITS:    2108201 MISSES:     211079
LLC RFO ACCESSES:     468795 HITS:     374417 MISSES:      94378
LLC PREFETCH ACCESSES:     941635 HITS:     548327 MISSES:     393308
LLC WRITEBACK ACCESSES:     880284 HITS:     791234 MISSES:      89050
LLC 0 RQ ACCESS:    2788075
LLC 0 RQ TO_CACHE:    2788052
LLC 0 RQ MERGED:          0
LLC 0 RQ FORWARD:          0
LLC WQ ACCESS:     880284
LLC WQ TO_CACHE:     880284
LLC WQ MERGED:          0
LLC WQ FORWARD:         33
Major fault: 0 Minor fault: 12862
CPU 0 L1D next line prefetcher final stats
CPU 0 L2C PC-based stride prefetcher final stats
All Misses: 918772
All Hits: 4508062
SD Algo Stats - Switches: 0 SRR-Repls: 245291 BRR-Repls: 0

DRAM Statistics
 CHANNEL 0
 RQ ROW_BUFFER_HIT:     133123  ROW_BUFFER_MISS:     563518
 DBUS_CONGESTED:     425644
 WQ ROW_BUFFER_HIT:      21984  ROW_BUFFER_MISS:     224029  FULL:          0

 AVG_CONGESTED_CYCLE: 13
LOADS RETIRED: 136549171
INSTR RETIRED: 500000000
