
*** ChampSim Multicore Out-of-Order Simulator ***

Warmup Instructions: 100000000
Simulation Instructions: 500000000
Number of CPUs: 1
LLC sets: 2048
LLC ways: 16
Clean RRIP Policies: 1213101212131012 Dirty RRIP Policies: 2213200222132002 PSEL Width: 10 Track Set: 4294967295 PSEL Mask: 1 Demote Mask: 3340404433404044DS Algo: 0Window size: 0
Off-chip DRAM Size: 4096 MB Channels: 1 Width: 64-bit Data Rate: 1600 MT/s

CPU 0 runs /mnt/beegfs/iconst01/spec2017/Xalancbmk.trace.gz
NOT SORTED
TRACE STRING: /mnt/beegfs/iconst01/spec2017/Xalancbmk.trace.gz
SORTED
TRACE STRING: /mnt/beegfs/iconst01/spec2017/Xalancbmk.trace.gz
INITIAL
TRACE STRING: /mnt/beegfs/iconst01/spec2017/Xalancbmk.trace.gz

champsim_seed used: 913

CPU 0 L1D next line prefetcher
CPU 0 L2C IP-based stride prefetcher
Initialize DRRIP state
Assign rand_sets[0]: 454  LLC: 2048
rand_sets[0]: 454
Assign rand_sets[1]: 1662  LLC: 2048
rand_sets[1]: 1662
Assign rand_sets[2]: 1921  LLC: 2048
rand_sets[2]: 1921
Assign rand_sets[3]: 1131  LLC: 2048
rand_sets[3]: 1131
Assign rand_sets[4]: 331  LLC: 2048
rand_sets[4]: 331
Assign rand_sets[5]: 1531  LLC: 2048
rand_sets[5]: 1531
Assign rand_sets[6]: 482  LLC: 2048
rand_sets[6]: 482
Assign rand_sets[7]: 1275  LLC: 2048
rand_sets[7]: 1275
Assign rand_sets[8]: 1876  LLC: 2048
rand_sets[8]: 1876
Assign rand_sets[9]: 2038  LLC: 2048
rand_sets[9]: 2038
Assign rand_sets[10]: 701  LLC: 2048
rand_sets[10]: 701
Assign rand_sets[11]: 479  LLC: 2048
rand_sets[11]: 479
Assign rand_sets[12]: 892  LLC: 2048
rand_sets[12]: 892
Assign rand_sets[13]: 1820  LLC: 2048
rand_sets[13]: 1820
Assign rand_sets[14]: 1505  LLC: 2048
rand_sets[14]: 1505
Assign rand_sets[15]: 1159  LLC: 2048
rand_sets[15]: 1159
Assign rand_sets[16]: 513  LLC: 2048
rand_sets[16]: 513
Assign rand_sets[17]: 703  LLC: 2048
rand_sets[17]: 703
Assign rand_sets[18]: 561  LLC: 2048
rand_sets[18]: 561
Assign rand_sets[19]: 990  LLC: 2048
rand_sets[19]: 990
Assign rand_sets[20]: 342  LLC: 2048
rand_sets[20]: 342
Assign rand_sets[21]: 882  LLC: 2048
rand_sets[21]: 882
Assign rand_sets[22]: 15  LLC: 2048
rand_sets[22]: 15
Assign rand_sets[23]: 71  LLC: 2048
rand_sets[23]: 71
Assign rand_sets[24]: 1127  LLC: 2048
rand_sets[24]: 1127
Assign rand_sets[25]: 1382  LLC: 2048
rand_sets[25]: 1382
Assign rand_sets[26]: 647  LLC: 2048
rand_sets[26]: 647
Assign rand_sets[27]: 857  LLC: 2048
rand_sets[27]: 857
Assign rand_sets[28]: 1450  LLC: 2048
rand_sets[28]: 1450
Assign rand_sets[29]: 1160  LLC: 2048
rand_sets[29]: 1160
Assign rand_sets[30]: 1852  LLC: 2048
rand_sets[30]: 1852
Assign rand_sets[31]: 1881  LLC: 2048
rand_sets[31]: 1881
Assign rand_sets[32]: 1770  LLC: 2048
rand_sets[32]: 1770
Assign rand_sets[33]: 1622  LLC: 2048
rand_sets[33]: 1622
Assign rand_sets[34]: 275  LLC: 2048
rand_sets[34]: 275
Assign rand_sets[35]: 635  LLC: 2048
rand_sets[35]: 635
Assign rand_sets[36]: 466  LLC: 2048
rand_sets[36]: 466
Assign rand_sets[37]: 1413  LLC: 2048
rand_sets[37]: 1413
Assign rand_sets[38]: 417  LLC: 2048
rand_sets[38]: 417
Assign rand_sets[39]: 472  LLC: 2048
rand_sets[39]: 472
Assign rand_sets[40]: 1340  LLC: 2048
rand_sets[40]: 1340
Assign rand_sets[41]: 852  LLC: 2048
rand_sets[41]: 852
Assign rand_sets[42]: 1365  LLC: 2048
rand_sets[42]: 1365
Assign rand_sets[43]: 47  LLC: 2048
rand_sets[43]: 47
Assign rand_sets[44]: 823  LLC: 2048
rand_sets[44]: 823
Assign rand_sets[45]: 686  LLC: 2048
rand_sets[45]: 686
Assign rand_sets[46]: 1637  LLC: 2048
rand_sets[46]: 1637
Assign rand_sets[47]: 1115  LLC: 2048
rand_sets[47]: 1115
Assign rand_sets[48]: 986  LLC: 2048
rand_sets[48]: 986
Assign rand_sets[49]: 258  LLC: 2048
rand_sets[49]: 258
Assign rand_sets[50]: 633  LLC: 2048
rand_sets[50]: 633
Assign rand_sets[51]: 920  LLC: 2048
rand_sets[51]: 920
Assign rand_sets[52]: 204  LLC: 2048
rand_sets[52]: 204
Assign rand_sets[53]: 227  LLC: 2048
rand_sets[53]: 227
Assign rand_sets[54]: 1818  LLC: 2048
rand_sets[54]: 1818
Assign rand_sets[55]: 886  LLC: 2048
rand_sets[55]: 886
Assign rand_sets[56]: 1422  LLC: 2048
rand_sets[56]: 1422
Assign rand_sets[57]: 607  LLC: 2048
rand_sets[57]: 607
Assign rand_sets[58]: 217  LLC: 2048
rand_sets[58]: 217
Assign rand_sets[59]: 1945  LLC: 2048
rand_sets[59]: 1945
Assign rand_sets[60]: 143  LLC: 2048
rand_sets[60]: 143
Assign rand_sets[61]: 1311  LLC: 2048
rand_sets[61]: 1311
Assign rand_sets[62]: 319  LLC: 2048
rand_sets[62]: 319
Assign rand_sets[63]: 1846  LLC: 2048
rand_sets[63]: 1846
 CLEAN-RRIP-POLICY-1: 1-2-1-3-1-0-1-2- CLEAN-RRIP-POLICY-2: 1-2-1-3-1-0-1-2-
 DIRTY-RRIP-POLICY-1: 2-2-1-3-2-0-0-2- DIRTY-RRIP-POLICY-2: 2-2-1-3-2-0-0-2-
 PSEL width: 10
Heartbeat CPU 0 instructions: 10000003 cycles: 4588092 heartbeat IPC: 2.17956 cumulative IPC: 2.17956 (Simulation time: 0 hr 0 min 15 sec) 
Heartbeat CPU 0 instructions: 20000000 cycles: 8981462 heartbeat IPC: 2.27616 cumulative IPC: 2.22681 (Simulation time: 0 hr 0 min 29 sec) 
Heartbeat CPU 0 instructions: 30000000 cycles: 13393012 heartbeat IPC: 2.26678 cumulative IPC: 2.23997 (Simulation time: 0 hr 0 min 44 sec) 
Heartbeat CPU 0 instructions: 40000000 cycles: 18018725 heartbeat IPC: 2.16183 cumulative IPC: 2.21991 (Simulation time: 0 hr 0 min 59 sec) 
Heartbeat CPU 0 instructions: 50000002 cycles: 22433931 heartbeat IPC: 2.2649 cumulative IPC: 2.22877 (Simulation time: 0 hr 1 min 14 sec) 
Heartbeat CPU 0 instructions: 60000000 cycles: 27086537 heartbeat IPC: 2.14933 cumulative IPC: 2.21512 (Simulation time: 0 hr 1 min 30 sec) 
Heartbeat CPU 0 instructions: 70000003 cycles: 31491087 heartbeat IPC: 2.27038 cumulative IPC: 2.22285 (Simulation time: 0 hr 1 min 44 sec) 
Heartbeat CPU 0 instructions: 80000000 cycles: 35915420 heartbeat IPC: 2.26023 cumulative IPC: 2.22746 (Simulation time: 0 hr 1 min 59 sec) 
Heartbeat CPU 0 instructions: 90000002 cycles: 40374245 heartbeat IPC: 2.24274 cumulative IPC: 2.22914 (Simulation time: 0 hr 2 min 14 sec) 
Heartbeat CPU 0 instructions: 100000000 cycles: 44847689 heartbeat IPC: 2.23541 cumulative IPC: 2.22977 (Simulation time: 0 hr 2 min 28 sec) 

Warmup complete CPU 0 instructions: 100000003 cycles: 44847690 (Simulation time: 0 hr 2 min 28 sec) 

Heartbeat CPU 0 instructions: 110000000 cycles: 71350589 heartbeat IPC: 0.377317 cumulative IPC: 0.377317 (Simulation time: 0 hr 3 min 0 sec) 
Heartbeat CPU 0 instructions: 120000000 cycles: 99229898 heartbeat IPC: 0.358689 cumulative IPC: 0.367767 (Simulation time: 0 hr 3 min 33 sec) 
Heartbeat CPU 0 instructions: 130000000 cycles: 122511396 heartbeat IPC: 0.429526 cumulative IPC: 0.386281 (Simulation time: 0 hr 4 min 3 sec) 
Heartbeat CPU 0 instructions: 140000000 cycles: 144967358 heartbeat IPC: 0.445316 cumulative IPC: 0.399522 (Simulation time: 0 hr 4 min 32 sec) 
Heartbeat CPU 0 instructions: 150000000 cycles: 169059732 heartbeat IPC: 0.415069 cumulative IPC: 0.402537 (Simulation time: 0 hr 5 min 2 sec) 
Heartbeat CPU 0 instructions: 160000000 cycles: 193671090 heartbeat IPC: 0.406316 cumulative IPC: 0.403162 (Simulation time: 0 hr 5 min 33 sec) 
Heartbeat CPU 0 instructions: 170000002 cycles: 214840801 heartbeat IPC: 0.472373 cumulative IPC: 0.411781 (Simulation time: 0 hr 6 min 1 sec) 
Heartbeat CPU 0 instructions: 180000000 cycles: 237283877 heartbeat IPC: 0.445572 cumulative IPC: 0.415722 (Simulation time: 0 hr 6 min 30 sec) 
Heartbeat CPU 0 instructions: 190000000 cycles: 256385882 heartbeat IPC: 0.523505 cumulative IPC: 0.425455 (Simulation time: 0 hr 6 min 56 sec) 
Heartbeat CPU 0 instructions: 200000000 cycles: 277310552 heartbeat IPC: 0.477905 cumulative IPC: 0.430176 (Simulation time: 0 hr 7 min 24 sec) 
Heartbeat CPU 0 instructions: 210000001 cycles: 303179247 heartbeat IPC: 0.386568 cumulative IPC: 0.425809 (Simulation time: 0 hr 7 min 56 sec) 
Heartbeat CPU 0 instructions: 220000000 cycles: 328691209 heartbeat IPC: 0.391973 cumulative IPC: 0.422768 (Simulation time: 0 hr 8 min 27 sec) 
Heartbeat CPU 0 instructions: 230000000 cycles: 350746974 heartbeat IPC: 0.453396 cumulative IPC: 0.424976 (Simulation time: 0 hr 8 min 56 sec) 
Heartbeat CPU 0 instructions: 240000000 cycles: 376120516 heartbeat IPC: 0.394111 cumulative IPC: 0.422612 (Simulation time: 0 hr 9 min 27 sec) 
Heartbeat CPU 0 instructions: 250000001 cycles: 400745691 heartbeat IPC: 0.406089 cumulative IPC: 0.421469 (Simulation time: 0 hr 9 min 58 sec) 
Heartbeat CPU 0 instructions: 260000000 cycles: 421630900 heartbeat IPC: 0.478808 cumulative IPC: 0.424647 (Simulation time: 0 hr 10 min 26 sec) 
Heartbeat CPU 0 instructions: 270000000 cycles: 443201314 heartbeat IPC: 0.463598 cumulative IPC: 0.426757 (Simulation time: 0 hr 10 min 54 sec) 
Heartbeat CPU 0 instructions: 280000000 cycles: 470376414 heartbeat IPC: 0.367984 cumulative IPC: 0.423003 (Simulation time: 0 hr 11 min 27 sec) 
Heartbeat CPU 0 instructions: 290000000 cycles: 491429789 heartbeat IPC: 0.474983 cumulative IPC: 0.425454 (Simulation time: 0 hr 11 min 54 sec) 
Heartbeat CPU 0 instructions: 300000000 cycles: 511833691 heartbeat IPC: 0.490102 cumulative IPC: 0.428278 (Simulation time: 0 hr 12 min 22 sec) 
Heartbeat CPU 0 instructions: 310000000 cycles: 531075411 heartbeat IPC: 0.519704 cumulative IPC: 0.431896 (Simulation time: 0 hr 12 min 48 sec) 
Heartbeat CPU 0 instructions: 320000000 cycles: 559907689 heartbeat IPC: 0.346833 cumulative IPC: 0.427135 (Simulation time: 0 hr 13 min 21 sec) 
Heartbeat CPU 0 instructions: 330000001 cycles: 579309794 heartbeat IPC: 0.515408 cumulative IPC: 0.430339 (Simulation time: 0 hr 13 min 47 sec) 
Heartbeat CPU 0 instructions: 340000000 cycles: 598679264 heartbeat IPC: 0.516276 cumulative IPC: 0.433345 (Simulation time: 0 hr 14 min 14 sec) 
Heartbeat CPU 0 instructions: 350000001 cycles: 623403887 heartbeat IPC: 0.404455 cumulative IPC: 0.43211 (Simulation time: 0 hr 14 min 44 sec) 
Heartbeat CPU 0 instructions: 360000000 cycles: 645511918 heartbeat IPC: 0.452324 cumulative IPC: 0.432854 (Simulation time: 0 hr 15 min 12 sec) 
Heartbeat CPU 0 instructions: 370000001 cycles: 670399503 heartbeat IPC: 0.401807 cumulative IPC: 0.431619 (Simulation time: 0 hr 15 min 42 sec) 
Heartbeat CPU 0 instructions: 380000000 cycles: 693257631 heartbeat IPC: 0.437481 cumulative IPC: 0.431826 (Simulation time: 0 hr 16 min 11 sec) 
Heartbeat CPU 0 instructions: 390000000 cycles: 712000200 heartbeat IPC: 0.533545 cumulative IPC: 0.434683 (Simulation time: 0 hr 16 min 36 sec) 
Heartbeat CPU 0 instructions: 400000000 cycles: 731826674 heartbeat IPC: 0.504376 cumulative IPC: 0.436695 (Simulation time: 0 hr 17 min 2 sec) 
Heartbeat CPU 0 instructions: 410000001 cycles: 757660284 heartbeat IPC: 0.387093 cumulative IPC: 0.434897 (Simulation time: 0 hr 17 min 32 sec) 
Heartbeat CPU 0 instructions: 420000000 cycles: 782040333 heartbeat IPC: 0.410171 cumulative IPC: 0.434079 (Simulation time: 0 hr 18 min 1 sec) 
Heartbeat CPU 0 instructions: 430000002 cycles: 803188000 heartbeat IPC: 0.472865 cumulative IPC: 0.435161 (Simulation time: 0 hr 18 min 28 sec) 
Heartbeat CPU 0 instructions: 440000000 cycles: 823317539 heartbeat IPC: 0.496782 cumulative IPC: 0.436754 (Simulation time: 0 hr 18 min 54 sec) 
Heartbeat CPU 0 instructions: 450000002 cycles: 849625786 heartbeat IPC: 0.380109 cumulative IPC: 0.434902 (Simulation time: 0 hr 19 min 24 sec) 
Heartbeat CPU 0 instructions: 460000000 cycles: 875106620 heartbeat IPC: 0.392452 cumulative IPC: 0.4336 (Simulation time: 0 hr 19 min 54 sec) 
Heartbeat CPU 0 instructions: 470000002 cycles: 900760294 heartbeat IPC: 0.389808 cumulative IPC: 0.432287 (Simulation time: 0 hr 20 min 24 sec) 
Heartbeat CPU 0 instructions: 480000000 cycles: 924975065 heartbeat IPC: 0.412971 cumulative IPC: 0.431756 (Simulation time: 0 hr 20 min 53 sec) 
Heartbeat CPU 0 instructions: 490000000 cycles: 945686789 heartbeat IPC: 0.482818 cumulative IPC: 0.43293 (Simulation time: 0 hr 21 min 19 sec) 
Heartbeat CPU 0 instructions: 500000000 cycles: 970094751 heartbeat IPC: 0.409702 cumulative IPC: 0.432317 (Simulation time: 0 hr 21 min 48 sec) 
Heartbeat CPU 0 instructions: 510000000 cycles: 994916024 heartbeat IPC: 0.40288 cumulative IPC: 0.431548 (Simulation time: 0 hr 22 min 18 sec) 
Heartbeat CPU 0 instructions: 520000000 cycles: 1015857476 heartbeat IPC: 0.477522 cumulative IPC: 0.432539 (Simulation time: 0 hr 22 min 44 sec) 
Heartbeat CPU 0 instructions: 530000003 cycles: 1041205338 heartbeat IPC: 0.394511 cumulative IPC: 0.431572 (Simulation time: 0 hr 23 min 14 sec) 
Heartbeat CPU 0 instructions: 540000000 cycles: 1063977511 heartbeat IPC: 0.439132 cumulative IPC: 0.431741 (Simulation time: 0 hr 23 min 42 sec) 
Heartbeat CPU 0 instructions: 550000000 cycles: 1089098450 heartbeat IPC: 0.398074 cumulative IPC: 0.430931 (Simulation time: 0 hr 24 min 11 sec) 
Heartbeat CPU 0 instructions: 560000000 cycles: 1112268470 heartbeat IPC: 0.431592 cumulative IPC: 0.430945 (Simulation time: 0 hr 24 min 39 sec) 
Heartbeat CPU 0 instructions: 570000002 cycles: 1135604154 heartbeat IPC: 0.428528 cumulative IPC: 0.430894 (Simulation time: 0 hr 25 min 8 sec) 
Heartbeat CPU 0 instructions: 580000000 cycles: 1156553307 heartbeat IPC: 0.477346 cumulative IPC: 0.431769 (Simulation time: 0 hr 25 min 34 sec) 
Heartbeat CPU 0 instructions: 590000001 cycles: 1180274779 heartbeat IPC: 0.421559 cumulative IPC: 0.431556 (Simulation time: 0 hr 26 min 3 sec) 
Heartbeat CPU 0 instructions: 600000000 cycles: 1199458811 heartbeat IPC: 0.521267 cumulative IPC: 0.433046 (Simulation time: 0 hr 26 min 28 sec) 
Finished CPU 0 instructions: 500000000 cycles: 1154611142 cumulative IPC: 0.433046 (Simulation time: 0 hr 26 min 28 sec) 

CPU 0 Branch Prediction Accuracy: 99.5434% MPKI: 1.33026
Number of Branches: 145676990 Number of Mispredictions: 665128
Number of LOAD Instructions: 188863207
Number of LOAD Instructions (ROI): 188863207
Number of STORE Instructions: 7332002
Number of STORE Instructions (ROI): 7332002
Total Destination Memory Operands: 10029285
Total Destination Memory Operands (ROI): 10029285
Total Source Memory Operands: 188863207
Total Source Memory Operands (ROI): 188863207
Number of DEPENDED LOADS: 291525
Number of DEPENDED LOADS (ROI): 291525
Number of SQ_ADDED: 10029285
Number of SQ_ADDED (ROI): 10029285
Number of LQ_ADDED: 200677610
Number of LQ_ADDED (ROI): 200677610
Number of Instructions read from trace: 600000010

ChampSim completed all CPUs

Region of Interest Statistics

CPU 0 cumulative IPC: 0.433046 instructions: 500000000 cycles: 1154611142
ITLB TOTAL     ACCESS:  145844484  HIT:  145804957  MISS:      39527
ITLB LOAD      ACCESS:  145844484  HIT:  145804957  MISS:      39527
ITLB RFO       ACCESS:          0  HIT:          0  MISS:          0
ITLB PREFETCH  ACCESS:          0  HIT:          0  MISS:          0
ITLB WRITEBACK ACCESS:          0  HIT:          0  MISS:          0
ITLB PREFETCH  REQUESTED:          0  ISSUED:          0  USEFUL:          0  USELESS:          0
ITLB TOTAL MSHR MERGED:      57363
ITLB LOAD MSHR MERGED:      57363
ITLB RFO MSHR MERGED:          0
ITLB PREFETCH MSHR MERGED:          0
ITLB WRITEBACK MSHR MERGED:          0
ITLB TOTAL ACCESSES:  145901847 HITS:  145804957 MISSES:      96890
ITLB LOAD ACCESSES:  145901847 HITS:  145804957 MISSES:      96890
ITLB RFO ACCESSES:          0 HITS:          0 MISSES:          0
ITLB PREFETCH ACCESSES:          0 HITS:          0 MISSES:          0
ITLB WRITEBACK ACCESSES:          0 HITS:          0 MISSES:          0
ITLB RQ ACCESS:  499999754
ITLB RQ TO_CACHE:  145901847
ITLB RQ MERGED:  354097907
ITLB RQ FORWARD:          0
ITLB WQ ACCESS:          0
ITLB WQ TO_CACHE:          0
ITLB WQ MERGED:          0
ITLB WQ FORWARD:          0
DTLB TOTAL     ACCESS:  135194327  HIT:  134025966  MISS:    1168361
DTLB LOAD      ACCESS:  127153228  HIT:  125993971  MISS:    1159257
DTLB RFO       ACCESS:    8041099  HIT:    8031995  MISS:       9104
DTLB PREFETCH  ACCESS:          0  HIT:          0  MISS:          0
DTLB WRITEBACK ACCESS:          0  HIT:          0  MISS:          0
DTLB PREFETCH  REQUESTED:          0  ISSUED:          0  USEFUL:          0  USELESS:          0
DTLB TOTAL MSHR MERGED:     581363
DTLB LOAD MSHR MERGED:     576987
DTLB RFO MSHR MERGED:       4376
DTLB PREFETCH MSHR MERGED:          0
DTLB WRITEBACK MSHR MERGED:          0
DTLB TOTAL ACCESSES:  135775690 HITS:  134025966 MISSES:    1749724
DTLB LOAD ACCESSES:  127730215 HITS:  125993971 MISSES:    1736244
DTLB RFO ACCESSES:    8045475 HITS:    8031995 MISSES:      13480
DTLB PREFETCH ACCESSES:          0 HITS:          0 MISSES:          0
DTLB WRITEBACK ACCESSES:          0 HITS:          0 MISSES:          0
DTLB RQ ACCESS:  165762819
DTLB RQ TO_CACHE:  135775690
DTLB RQ MERGED:   29987129
DTLB RQ FORWARD:          0
DTLB WQ ACCESS:          0
DTLB WQ TO_CACHE:          0
DTLB WQ MERGED:          0
DTLB WQ FORWARD:          0
L1D TOTAL     ACCESS:  157272984  HIT:  139957277  MISS:   17315707
L1D LOAD      ACCESS:   90024397  HIT:   78921486  MISS:   11102911
L1D RFO       ACCESS:    8500564  HIT:    8413392  MISS:      87172
L1D PREFETCH  ACCESS:   58748023  HIT:   52622399  MISS:    6125624
L1D WRITEBACK ACCESS:          0  HIT:          0  MISS:          0
L1D PREFETCH  REQUESTED:   93724629  ISSUED:   92856833  USEFUL:    2044188  USELESS:    4081509
L1D TOTAL MSHR MERGED:   14797354
L1D LOAD MSHR MERGED:    7055108
L1D RFO MSHR MERGED:     123961
L1D PREFETCH MSHR MERGED:    7618285
L1D WRITEBACK MSHR MERGED:          0
L1D TOTAL ACCESSES:  172070489 HITS:  139957428 MISSES:   32113061
L1D LOAD ACCESSES:   93724631 HITS:   78921488 MISSES:   14803143
L1D RFO ACCESSES:    8622676 HITS:    8413392 MISSES:     209284
L1D PREFETCH ACCESSES:   69723182 HITS:   52622548 MISSES:   17100634
L1D WRITEBACK ACCESSES:          0 HITS:          0 MISSES:          0
L1D RQ ACCESS:  157123613
L1D RQ TO_CACHE:   93724629
L1D RQ MERGED:   63398982
L1D RQ FORWARD:          0
L1D WQ ACCESS:    8639208
L1D WQ TO_CACHE:    8622676
L1D WQ MERGED:      16532
L1D WQ FORWARD:        151
L1I TOTAL     ACCESS:  178830693  HIT:  178167004  MISS:     663689
L1I LOAD      ACCESS:  178830693  HIT:  178167004  MISS:     663689
L1I RFO       ACCESS:          0  HIT:          0  MISS:          0
L1I PREFETCH  ACCESS:          0  HIT:          0  MISS:          0
L1I WRITEBACK ACCESS:          0  HIT:          0  MISS:          0
L1I PREFETCH  REQUESTED:          0  ISSUED:          0  USEFUL:          0  USELESS:          0
L1I TOTAL MSHR MERGED:     597090
L1I LOAD MSHR MERGED:     597090
L1I RFO MSHR MERGED:          0
L1I PREFETCH MSHR MERGED:          0
L1I WRITEBACK MSHR MERGED:          0
L1I TOTAL ACCESSES:  179427783 HITS:  178167004 MISSES:    1260779
L1I LOAD ACCESSES:  179427783 HITS:  178167004 MISSES:    1260779
L1I RFO ACCESSES:          0 HITS:          0 MISSES:          0
L1I PREFETCH ACCESSES:          0 HITS:          0 MISSES:          0
L1I WRITEBACK ACCESSES:          0 HITS:          0 MISSES:          0
L1I RQ ACCESS:  499999757
L1I RQ TO_CACHE:  179427783
L1I RQ MERGED:  320571974
L1I RQ FORWARD:          0
L1I WQ ACCESS:          0
L1I WQ TO_CACHE:          0
L1I WQ MERGED:          0
L1I WQ FORWARD:          0
L2C TOTAL     ACCESS:   19277663  HIT:    2057736  MISS:   17219927
L2C LOAD      ACCESS:    8411617  HIT:     951440  MISS:    7460177
L2C RFO       ACCESS:      85300  HIT:      53739  MISS:      31561
L2C PREFETCH  ACCESS:   10495732  HIT:     770353  MISS:    9725379
L2C WRITEBACK ACCESS:     285014  HIT:     282204  MISS:       2810
L2C PREFETCH  REQUESTED:    1017399  ISSUED:    1017399  USEFUL:     275036  USELESS:    9449439
L2C TOTAL MSHR MERGED:        970
L2C LOAD MSHR MERGED:        199
L2C RFO MSHR MERGED:          1
L2C PREFETCH MSHR MERGED:        770
L2C WRITEBACK MSHR MERGED:          0
L2C TOTAL ACCESSES:   19280548 HITS:    2057932 MISSES:   17222616
L2C LOAD ACCESSES:    8411724 HITS:     951547 MISSES:    7460177
L2C RFO ACCESSES:      85323 HITS:      53762 MISSES:      31561
L2C PREFETCH ACCESSES:   10498487 HITS:     770419 MISSES:    9728068
L2C WRITEBACK ACCESSES:     285014 HITS:     282204 MISSES:       2810
L2C RQ ACCESS:    8497047
L2C RQ TO_CACHE:    8496917
L2C RQ MERGED:          0
L2C RQ FORWARD:          0
L2C WQ ACCESS:     285014
L2C WQ TO_CACHE:     285014
L2C WQ MERGED:          0
L2C WQ FORWARD:        196
LLC TOTAL     ACCESS:   17324894  HIT:    5413146  MISS:   11911748
LLC LOAD      ACCESS:    7459978  HIT:    4080466  MISS:    3379512
LLC RFO       ACCESS:      31560  HIT:      18104  MISS:      13456
LLC PREFETCH  ACCESS:    9727297  HIT:    1220392  MISS:    8506905
LLC WRITEBACK ACCESS:     106059  HIT:      94184  MISS:      11875
LLC PREFETCH  REQUESTED:          0  ISSUED:          0  USEFUL:       2314  USELESS:    8503947
LLC TOTAL MSHR MERGED:          1
LLC LOAD MSHR MERGED:          0
LLC RFO MSHR MERGED:          0
LLC PREFETCH MSHR MERGED:          1
LLC WRITEBACK MSHR MERGED:          0
LLC TOTAL ACCESSES:   17324895 HITS:    5413146 MISSES:   11911749
LLC LOAD ACCESSES:    7459978 HITS:    4080466 MISSES:    3379512
LLC RFO ACCESSES:      31560 HITS:      18104 MISSES:      13456
LLC PREFETCH ACCESSES:    9727298 HITS:    1220392 MISSES:    8506906
LLC WRITEBACK ACCESSES:     106059 HITS:      94184 MISSES:      11875
LLC 0 RQ ACCESS:    7491538
LLC 0 RQ TO_CACHE:    7491538
LLC 0 RQ MERGED:          0
LLC 0 RQ FORWARD:          0
LLC WQ ACCESS:     106059
LLC WQ TO_CACHE:     106059
LLC WQ MERGED:          0
LLC WQ FORWARD:          0
Major fault: 0 Minor fault: 6432
CPU 0 L1D next line prefetcher final stats
CPU 0 L2C PC-based stride prefetcher final stats
All Misses: 14085932
All Hits: 6458541
SD Algo Stats - Switches: 0 SRR-Repls: 3624581 BRR-Repls: 0

DRAM Statistics
 CHANNEL 0
 RQ ROW_BUFFER_HIT:    8916615  ROW_BUFFER_MISS:    2978215
 DBUS_CONGESTED:    5512434
 WQ ROW_BUFFER_HIT:       1274  ROW_BUFFER_MISS:      39233  FULL:          0

 AVG_CONGESTED_CYCLE: 12
LOADS RETIRED: 157382665
INSTR RETIRED: 500000000
