
*** ChampSim Multicore Out-of-Order Simulator ***

Warmup Instructions: 100000000
Simulation Instructions: 500000000
Number of CPUs: 1
LLC sets: 2048
LLC ways: 16
Clean RRIP Policies: 220230102202301 Dirty RRIP Policies: 2200031122000311 PSEL Width: 10 Track Set: 4294967295 PSEL Mask: 1 Demote Mask: 3234011132340111DS Algo: 0Window size: 0
Off-chip DRAM Size: 4096 MB Channels: 1 Width: 64-bit Data Rate: 1600 MT/s

CPU 0 runs /mnt/beegfs/iconst01/spec2017/Roms.trace.gz
NOT SORTED
TRACE STRING: /mnt/beegfs/iconst01/spec2017/Roms.trace.gz
SORTED
TRACE STRING: /mnt/beegfs/iconst01/spec2017/Roms.trace.gz
INITIAL
TRACE STRING: /mnt/beegfs/iconst01/spec2017/Roms.trace.gz

champsim_seed used: 417

CPU 0 L1D next line prefetcher
CPU 0 L2C IP-based stride prefetcher
Initialize DRRIP state
Assign rand_sets[0]: 454  LLC: 2048
rand_sets[0]: 454
Assign rand_sets[1]: 1662  LLC: 2048
rand_sets[1]: 1662
Assign rand_sets[2]: 1921  LLC: 2048
rand_sets[2]: 1921
Assign rand_sets[3]: 1131  LLC: 2048
rand_sets[3]: 1131
Assign rand_sets[4]: 331  LLC: 2048
rand_sets[4]: 331
Assign rand_sets[5]: 1531  LLC: 2048
rand_sets[5]: 1531
Assign rand_sets[6]: 482  LLC: 2048
rand_sets[6]: 482
Assign rand_sets[7]: 1275  LLC: 2048
rand_sets[7]: 1275
Assign rand_sets[8]: 1876  LLC: 2048
rand_sets[8]: 1876
Assign rand_sets[9]: 2038  LLC: 2048
rand_sets[9]: 2038
Assign rand_sets[10]: 701  LLC: 2048
rand_sets[10]: 701
Assign rand_sets[11]: 479  LLC: 2048
rand_sets[11]: 479
Assign rand_sets[12]: 892  LLC: 2048
rand_sets[12]: 892
Assign rand_sets[13]: 1820  LLC: 2048
rand_sets[13]: 1820
Assign rand_sets[14]: 1505  LLC: 2048
rand_sets[14]: 1505
Assign rand_sets[15]: 1159  LLC: 2048
rand_sets[15]: 1159
Assign rand_sets[16]: 513  LLC: 2048
rand_sets[16]: 513
Assign rand_sets[17]: 703  LLC: 2048
rand_sets[17]: 703
Assign rand_sets[18]: 561  LLC: 2048
rand_sets[18]: 561
Assign rand_sets[19]: 990  LLC: 2048
rand_sets[19]: 990
Assign rand_sets[20]: 342  LLC: 2048
rand_sets[20]: 342
Assign rand_sets[21]: 882  LLC: 2048
rand_sets[21]: 882
Assign rand_sets[22]: 15  LLC: 2048
rand_sets[22]: 15
Assign rand_sets[23]: 71  LLC: 2048
rand_sets[23]: 71
Assign rand_sets[24]: 1127  LLC: 2048
rand_sets[24]: 1127
Assign rand_sets[25]: 1382  LLC: 2048
rand_sets[25]: 1382
Assign rand_sets[26]: 647  LLC: 2048
rand_sets[26]: 647
Assign rand_sets[27]: 857  LLC: 2048
rand_sets[27]: 857
Assign rand_sets[28]: 1450  LLC: 2048
rand_sets[28]: 1450
Assign rand_sets[29]: 1160  LLC: 2048
rand_sets[29]: 1160
Assign rand_sets[30]: 1852  LLC: 2048
rand_sets[30]: 1852
Assign rand_sets[31]: 1881  LLC: 2048
rand_sets[31]: 1881
Assign rand_sets[32]: 1770  LLC: 2048
rand_sets[32]: 1770
Assign rand_sets[33]: 1622  LLC: 2048
rand_sets[33]: 1622
Assign rand_sets[34]: 275  LLC: 2048
rand_sets[34]: 275
Assign rand_sets[35]: 635  LLC: 2048
rand_sets[35]: 635
Assign rand_sets[36]: 466  LLC: 2048
rand_sets[36]: 466
Assign rand_sets[37]: 1413  LLC: 2048
rand_sets[37]: 1413
Assign rand_sets[38]: 417  LLC: 2048
rand_sets[38]: 417
Assign rand_sets[39]: 472  LLC: 2048
rand_sets[39]: 472
Assign rand_sets[40]: 1340  LLC: 2048
rand_sets[40]: 1340
Assign rand_sets[41]: 852  LLC: 2048
rand_sets[41]: 852
Assign rand_sets[42]: 1365  LLC: 2048
rand_sets[42]: 1365
Assign rand_sets[43]: 47  LLC: 2048
rand_sets[43]: 47
Assign rand_sets[44]: 823  LLC: 2048
rand_sets[44]: 823
Assign rand_sets[45]: 686  LLC: 2048
rand_sets[45]: 686
Assign rand_sets[46]: 1637  LLC: 2048
rand_sets[46]: 1637
Assign rand_sets[47]: 1115  LLC: 2048
rand_sets[47]: 1115
Assign rand_sets[48]: 986  LLC: 2048
rand_sets[48]: 986
Assign rand_sets[49]: 258  LLC: 2048
rand_sets[49]: 258
Assign rand_sets[50]: 633  LLC: 2048
rand_sets[50]: 633
Assign rand_sets[51]: 920  LLC: 2048
rand_sets[51]: 920
Assign rand_sets[52]: 204  LLC: 2048
rand_sets[52]: 204
Assign rand_sets[53]: 227  LLC: 2048
rand_sets[53]: 227
Assign rand_sets[54]: 1818  LLC: 2048
rand_sets[54]: 1818
Assign rand_sets[55]: 886  LLC: 2048
rand_sets[55]: 886
Assign rand_sets[56]: 1422  LLC: 2048
rand_sets[56]: 1422
Assign rand_sets[57]: 607  LLC: 2048
rand_sets[57]: 607
Assign rand_sets[58]: 217  LLC: 2048
rand_sets[58]: 217
Assign rand_sets[59]: 1945  LLC: 2048
rand_sets[59]: 1945
Assign rand_sets[60]: 143  LLC: 2048
rand_sets[60]: 143
Assign rand_sets[61]: 1311  LLC: 2048
rand_sets[61]: 1311
Assign rand_sets[62]: 319  LLC: 2048
rand_sets[62]: 319
Assign rand_sets[63]: 1846  LLC: 2048
rand_sets[63]: 1846
 CLEAN-RRIP-POLICY-1: 0-2-2-0-2-3-0-1- CLEAN-RRIP-POLICY-2: 0-2-2-0-2-3-0-1-
 DIRTY-RRIP-POLICY-1: 2-2-0-0-0-3-1-1- DIRTY-RRIP-POLICY-2: 2-2-0-0-0-3-1-1-
 PSEL width: 10
Heartbeat CPU 0 instructions: 10000000 cycles: 4688091 heartbeat IPC: 2.13306 cumulative IPC: 2.13306 (Simulation time: 0 hr 0 min 17 sec) 
Heartbeat CPU 0 instructions: 20000000 cycles: 9325362 heartbeat IPC: 2.15644 cumulative IPC: 2.14469 (Simulation time: 0 hr 0 min 34 sec) 
Heartbeat CPU 0 instructions: 30000003 cycles: 14019743 heartbeat IPC: 2.13021 cumulative IPC: 2.13984 (Simulation time: 0 hr 0 min 52 sec) 
Heartbeat CPU 0 instructions: 40000000 cycles: 18670155 heartbeat IPC: 2.15035 cumulative IPC: 2.14246 (Simulation time: 0 hr 1 min 9 sec) 
Heartbeat CPU 0 instructions: 50000003 cycles: 23323523 heartbeat IPC: 2.14898 cumulative IPC: 2.14376 (Simulation time: 0 hr 1 min 27 sec) 
Heartbeat CPU 0 instructions: 60000000 cycles: 27976157 heartbeat IPC: 2.14932 cumulative IPC: 2.14468 (Simulation time: 0 hr 1 min 44 sec) 
Heartbeat CPU 0 instructions: 70000002 cycles: 32367297 heartbeat IPC: 2.27731 cumulative IPC: 2.16268 (Simulation time: 0 hr 1 min 59 sec) 
Heartbeat CPU 0 instructions: 80000000 cycles: 36304116 heartbeat IPC: 2.54012 cumulative IPC: 2.20361 (Simulation time: 0 hr 2 min 12 sec) 
Heartbeat CPU 0 instructions: 90000000 cycles: 40249386 heartbeat IPC: 2.53468 cumulative IPC: 2.23606 (Simulation time: 0 hr 2 min 24 sec) 
Heartbeat CPU 0 instructions: 100000000 cycles: 44211700 heartbeat IPC: 2.52378 cumulative IPC: 2.26184 (Simulation time: 0 hr 2 min 36 sec) 

Warmup complete CPU 0 instructions: 100000002 cycles: 44211701 (Simulation time: 0 hr 2 min 36 sec) 

Heartbeat CPU 0 instructions: 110000000 cycles: 52925310 heartbeat IPC: 1.14763 cumulative IPC: 1.14763 (Simulation time: 0 hr 2 min 56 sec) 
Heartbeat CPU 0 instructions: 120000000 cycles: 61854264 heartbeat IPC: 1.11995 cumulative IPC: 1.13362 (Simulation time: 0 hr 3 min 15 sec) 
Heartbeat CPU 0 instructions: 130000002 cycles: 70785538 heartbeat IPC: 1.11966 cumulative IPC: 1.12893 (Simulation time: 0 hr 3 min 35 sec) 
Heartbeat CPU 0 instructions: 140000000 cycles: 79573815 heartbeat IPC: 1.13788 cumulative IPC: 1.13115 (Simulation time: 0 hr 3 min 54 sec) 
Heartbeat CPU 0 instructions: 150000003 cycles: 88575276 heartbeat IPC: 1.11093 cumulative IPC: 1.12705 (Simulation time: 0 hr 4 min 14 sec) 
Heartbeat CPU 0 instructions: 160000000 cycles: 99176693 heartbeat IPC: 0.94327 cumulative IPC: 1.0916 (Simulation time: 0 hr 4 min 36 sec) 
Heartbeat CPU 0 instructions: 170000000 cycles: 111580044 heartbeat IPC: 0.806234 cumulative IPC: 1.03906 (Simulation time: 0 hr 5 min 0 sec) 
Heartbeat CPU 0 instructions: 180000000 cycles: 123920864 heartbeat IPC: 0.810319 cumulative IPC: 1.00365 (Simulation time: 0 hr 5 min 25 sec) 
Heartbeat CPU 0 instructions: 190000000 cycles: 136345769 heartbeat IPC: 0.804835 cumulative IPC: 0.976837 (Simulation time: 0 hr 5 min 49 sec) 
Heartbeat CPU 0 instructions: 200000000 cycles: 148568660 heartbeat IPC: 0.818137 cumulative IPC: 0.958249 (Simulation time: 0 hr 6 min 13 sec) 
Heartbeat CPU 0 instructions: 210000003 cycles: 160942532 heartbeat IPC: 0.808155 cumulative IPC: 0.942339 (Simulation time: 0 hr 6 min 36 sec) 
Heartbeat CPU 0 instructions: 220000000 cycles: 173021931 heartbeat IPC: 0.827856 cumulative IPC: 0.931603 (Simulation time: 0 hr 7 min 0 sec) 
Heartbeat CPU 0 instructions: 230000000 cycles: 185144748 heartbeat IPC: 0.824891 cumulative IPC: 0.922424 (Simulation time: 0 hr 7 min 25 sec) 
Heartbeat CPU 0 instructions: 240000000 cycles: 197423502 heartbeat IPC: 0.814415 cumulative IPC: 0.913768 (Simulation time: 0 hr 7 min 50 sec) 
Heartbeat CPU 0 instructions: 250000002 cycles: 207646846 heartbeat IPC: 0.978154 cumulative IPC: 0.917795 (Simulation time: 0 hr 8 min 12 sec) 
Heartbeat CPU 0 instructions: 260000000 cycles: 215275270 heartbeat IPC: 1.31089 cumulative IPC: 0.935325 (Simulation time: 0 hr 8 min 33 sec) 
Heartbeat CPU 0 instructions: 270000003 cycles: 223514369 heartbeat IPC: 1.21373 cumulative IPC: 0.948117 (Simulation time: 0 hr 8 min 53 sec) 
Heartbeat CPU 0 instructions: 280000000 cycles: 232589742 heartbeat IPC: 1.10188 cumulative IPC: 0.955525 (Simulation time: 0 hr 9 min 15 sec) 
Heartbeat CPU 0 instructions: 290000000 cycles: 241541287 heartbeat IPC: 1.11713 cumulative IPC: 0.962856 (Simulation time: 0 hr 9 min 36 sec) 
Heartbeat CPU 0 instructions: 300000000 cycles: 250402133 heartbeat IPC: 1.12856 cumulative IPC: 0.969977 (Simulation time: 0 hr 9 min 58 sec) 
Heartbeat CPU 0 instructions: 310000000 cycles: 259248286 heartbeat IPC: 1.13043 cumulative IPC: 0.976578 (Simulation time: 0 hr 10 min 20 sec) 
Heartbeat CPU 0 instructions: 320000000 cycles: 267941383 heartbeat IPC: 1.15034 cumulative IPC: 0.98333 (Simulation time: 0 hr 10 min 42 sec) 
Heartbeat CPU 0 instructions: 330000002 cycles: 276713932 heartbeat IPC: 1.13992 cumulative IPC: 0.989238 (Simulation time: 0 hr 11 min 4 sec) 
Heartbeat CPU 0 instructions: 340000000 cycles: 286520690 heartbeat IPC: 1.0197 cumulative IPC: 0.990471 (Simulation time: 0 hr 11 min 28 sec) 
Heartbeat CPU 0 instructions: 350000001 cycles: 295421612 heartbeat IPC: 1.12348 cumulative IPC: 0.995184 (Simulation time: 0 hr 11 min 49 sec) 
Heartbeat CPU 0 instructions: 360000000 cycles: 304314197 heartbeat IPC: 1.12453 cumulative IPC: 0.999606 (Simulation time: 0 hr 12 min 11 sec) 
Heartbeat CPU 0 instructions: 370000001 cycles: 313147998 heartbeat IPC: 1.13202 cumulative IPC: 1.00396 (Simulation time: 0 hr 12 min 33 sec) 
Heartbeat CPU 0 instructions: 380000000 cycles: 321968562 heartbeat IPC: 1.13371 cumulative IPC: 1.00808 (Simulation time: 0 hr 12 min 54 sec) 
Heartbeat CPU 0 instructions: 390000001 cycles: 330641241 heartbeat IPC: 1.15305 cumulative IPC: 1.01247 (Simulation time: 0 hr 13 min 15 sec) 
Heartbeat CPU 0 instructions: 400000000 cycles: 339404573 heartbeat IPC: 1.14112 cumulative IPC: 1.01628 (Simulation time: 0 hr 13 min 37 sec) 
Heartbeat CPU 0 instructions: 410000003 cycles: 348081523 heartbeat IPC: 1.15248 cumulative IPC: 1.02017 (Simulation time: 0 hr 13 min 58 sec) 
Heartbeat CPU 0 instructions: 420000000 cycles: 356859283 heartbeat IPC: 1.13924 cumulative IPC: 1.02352 (Simulation time: 0 hr 14 min 19 sec) 
Heartbeat CPU 0 instructions: 430000001 cycles: 365544212 heartbeat IPC: 1.15142 cumulative IPC: 1.02697 (Simulation time: 0 hr 14 min 40 sec) 
Heartbeat CPU 0 instructions: 440000000 cycles: 374216353 heartbeat IPC: 1.15312 cumulative IPC: 1.03029 (Simulation time: 0 hr 15 min 2 sec) 
Heartbeat CPU 0 instructions: 450000001 cycles: 384256776 heartbeat IPC: 0.995974 cumulative IPC: 1.02928 (Simulation time: 0 hr 15 min 25 sec) 
Heartbeat CPU 0 instructions: 460000000 cycles: 393040918 heartbeat IPC: 1.13841 cumulative IPC: 1.03202 (Simulation time: 0 hr 15 min 46 sec) 
Heartbeat CPU 0 instructions: 470000003 cycles: 401706165 heartbeat IPC: 1.15404 cumulative IPC: 1.03498 (Simulation time: 0 hr 16 min 7 sec) 
Heartbeat CPU 0 instructions: 480000000 cycles: 410321272 heartbeat IPC: 1.16075 cumulative IPC: 1.03794 (Simulation time: 0 hr 16 min 28 sec) 
Heartbeat CPU 0 instructions: 490000000 cycles: 418967347 heartbeat IPC: 1.15659 cumulative IPC: 1.04068 (Simulation time: 0 hr 16 min 49 sec) 
Heartbeat CPU 0 instructions: 500000000 cycles: 427596920 heartbeat IPC: 1.15881 cumulative IPC: 1.04334 (Simulation time: 0 hr 17 min 9 sec) 
Heartbeat CPU 0 instructions: 510000001 cycles: 436220199 heartbeat IPC: 1.15965 cumulative IPC: 1.0459 (Simulation time: 0 hr 17 min 30 sec) 
Heartbeat CPU 0 instructions: 520000000 cycles: 444871257 heartbeat IPC: 1.15593 cumulative IPC: 1.04827 (Simulation time: 0 hr 17 min 51 sec) 
Heartbeat CPU 0 instructions: 530000001 cycles: 453524182 heartbeat IPC: 1.15568 cumulative IPC: 1.05054 (Simulation time: 0 hr 18 min 12 sec) 
Heartbeat CPU 0 instructions: 540000000 cycles: 462416728 heartbeat IPC: 1.12454 cumulative IPC: 1.05212 (Simulation time: 0 hr 18 min 32 sec) 
Heartbeat CPU 0 instructions: 550000000 cycles: 471343543 heartbeat IPC: 1.12022 cumulative IPC: 1.05354 (Simulation time: 0 hr 18 min 53 sec) 
Heartbeat CPU 0 instructions: 560000000 cycles: 480011243 heartbeat IPC: 1.15371 cumulative IPC: 1.05553 (Simulation time: 0 hr 19 min 14 sec) 
Heartbeat CPU 0 instructions: 570000001 cycles: 491649104 heartbeat IPC: 0.859264 cumulative IPC: 1.05043 (Simulation time: 0 hr 19 min 37 sec) 
Heartbeat CPU 0 instructions: 580000000 cycles: 502926556 heartbeat IPC: 0.886725 cumulative IPC: 1.0464 (Simulation time: 0 hr 19 min 59 sec) 
Heartbeat CPU 0 instructions: 590000001 cycles: 514855620 heartbeat IPC: 0.838289 cumulative IPC: 1.04113 (Simulation time: 0 hr 20 min 22 sec) 
Heartbeat CPU 0 instructions: 600000000 cycles: 526095380 heartbeat IPC: 0.889699 cumulative IPC: 1.03759 (Simulation time: 0 hr 20 min 44 sec) 
Finished CPU 0 instructions: 500000001 cycles: 481883692 cumulative IPC: 1.03759 (Simulation time: 0 hr 20 min 44 sec) 

CPU 0 Branch Prediction Accuracy: 99.7422% MPKI: 0.173296
Number of Branches: 33608403 Number of Mispredictions: 86648
Number of LOAD Instructions: 180215231
Number of LOAD Instructions (ROI): 180215231
Number of STORE Instructions: 36067263
Number of STORE Instructions (ROI): 36067263
Total Destination Memory Operands: 38428915
Total Destination Memory Operands (ROI): 38428915
Total Source Memory Operands: 180215231
Total Source Memory Operands (ROI): 180215231
Number of DEPENDED LOADS: 3042137
Number of DEPENDED LOADS (ROI): 3042137
Number of SQ_ADDED: 38428892
Number of SQ_ADDED (ROI): 38428892
Number of LQ_ADDED: 208042555
Number of LQ_ADDED (ROI): 208042555
Number of Instructions read from trace: 600000257

ChampSim completed all CPUs

Region of Interest Statistics

CPU 0 cumulative IPC: 1.03759 instructions: 500000001 cycles: 481883692
ITLB TOTAL     ACCESS:   91571516  HIT:   91571497  MISS:         19
ITLB LOAD      ACCESS:   91571516  HIT:   91571497  MISS:         19
ITLB RFO       ACCESS:          0  HIT:          0  MISS:          0
ITLB PREFETCH  ACCESS:          0  HIT:          0  MISS:          0
ITLB WRITEBACK ACCESS:          0  HIT:          0  MISS:          0
ITLB PREFETCH  REQUESTED:          0  ISSUED:          0  USEFUL:          0  USELESS:          0
ITLB TOTAL MSHR MERGED:         40
ITLB LOAD MSHR MERGED:         40
ITLB RFO MSHR MERGED:          0
ITLB PREFETCH MSHR MERGED:          0
ITLB WRITEBACK MSHR MERGED:          0
ITLB TOTAL ACCESSES:   91571556 HITS:   91571497 MISSES:         59
ITLB LOAD ACCESSES:   91571556 HITS:   91571497 MISSES:         59
ITLB RFO ACCESSES:          0 HITS:          0 MISSES:          0
ITLB PREFETCH ACCESSES:          0 HITS:          0 MISSES:          0
ITLB WRITEBACK ACCESSES:          0 HITS:          0 MISSES:          0
ITLB RQ ACCESS:  500000003
ITLB RQ TO_CACHE:   91571556
ITLB RQ MERGED:  408428447
ITLB RQ FORWARD:          0
ITLB WQ ACCESS:          0
ITLB WQ TO_CACHE:          0
ITLB WQ MERGED:          0
ITLB WQ FORWARD:          0
DTLB TOTAL     ACCESS:  142585648  HIT:  142219184  MISS:     366464
DTLB LOAD      ACCESS:  119864380  HIT:  119550792  MISS:     313588
DTLB RFO       ACCESS:   22721268  HIT:   22668392  MISS:      52876
DTLB PREFETCH  ACCESS:          0  HIT:          0  MISS:          0
DTLB WRITEBACK ACCESS:          0  HIT:          0  MISS:          0
DTLB PREFETCH  REQUESTED:          0  ISSUED:          0  USEFUL:          0  USELESS:          0
DTLB TOTAL MSHR MERGED:     291349
DTLB LOAD MSHR MERGED:     242490
DTLB RFO MSHR MERGED:      48859
DTLB PREFETCH MSHR MERGED:          0
DTLB WRITEBACK MSHR MERGED:          0
DTLB TOTAL ACCESSES:  142876997 HITS:  142219184 MISSES:     657813
DTLB LOAD ACCESSES:  120106870 HITS:  119550792 MISSES:     556078
DTLB RFO ACCESSES:   22770127 HITS:   22668392 MISSES:     101735
DTLB PREFETCH ACCESSES:          0 HITS:          0 MISSES:          0
DTLB WRITEBACK ACCESSES:          0 HITS:          0 MISSES:          0
DTLB RQ ACCESS:  184790840
DTLB RQ TO_CACHE:  142876997
DTLB RQ MERGED:   41913843
DTLB RQ FORWARD:          0
DTLB WQ ACCESS:          0
DTLB WQ TO_CACHE:          0
DTLB WQ MERGED:          0
DTLB WQ FORWARD:          0
L1D TOTAL     ACCESS:  189574735  HIT:  176086735  MISS:   13488000
L1D LOAD      ACCESS:  113098125  HIT:  110124794  MISS:    2973331
L1D RFO       ACCESS:   16875578  HIT:   14093824  MISS:    2781754
L1D PREFETCH  ACCESS:   59601032  HIT:   51868117  MISS:    7732915
L1D WRITEBACK ACCESS:          0  HIT:          0  MISS:          0
L1D PREFETCH  REQUESTED:  117058483  ISSUED:  115697446  USEFUL:    7521731  USELESS:     211184
L1D TOTAL MSHR MERGED:   31577598
L1D LOAD MSHR MERGED:    6353402
L1D RFO MSHR MERGED:   11377066
L1D PREFETCH MSHR MERGED:   13847130
L1D WRITEBACK MSHR MERGED:          0
L1D TOTAL ACCESSES:  221152774 HITS:  176087175 MISSES:   45065599
L1D LOAD ACCESSES:  117058576 HITS:  110124887 MISSES:    6933689
L1D RFO ACCESSES:   28252573 HITS:   14093824 MISSES:   14158749
L1D PREFETCH ACCESSES:   75841625 HITS:   51868464 MISSES:   23973161
L1D WRITEBACK ACCESSES:          0 HITS:          0 MISSES:          0
L1D RQ ACCESS:  156534774
L1D RQ TO_CACHE:  117058486
L1D RQ MERGED:   39476195
L1D RQ FORWARD:          0
L1D WQ ACCESS:   28256066
L1D WQ TO_CACHE:   28252573
L1D WQ MERGED:       3493
L1D WQ FORWARD:        440
L1I TOTAL     ACCESS:  115578589  HIT:  115577641  MISS:        948
L1I LOAD      ACCESS:  115578589  HIT:  115577641  MISS:        948
L1I RFO       ACCESS:          0  HIT:          0  MISS:          0
L1I PREFETCH  ACCESS:          0  HIT:          0  MISS:          0
L1I WRITEBACK ACCESS:          0  HIT:          0  MISS:          0
L1I PREFETCH  REQUESTED:          0  ISSUED:          0  USEFUL:          0  USELESS:          0
L1I TOTAL MSHR MERGED:       1557
L1I LOAD MSHR MERGED:       1557
L1I RFO MSHR MERGED:          0
L1I PREFETCH MSHR MERGED:          0
L1I WRITEBACK MSHR MERGED:          0
L1I TOTAL ACCESSES:  115580146 HITS:  115577641 MISSES:       2505
L1I LOAD ACCESSES:  115580146 HITS:  115577641 MISSES:       2505
L1I RFO ACCESSES:          0 HITS:          0 MISSES:          0
L1I PREFETCH ACCESSES:          0 HITS:          0 MISSES:          0
L1I WRITEBACK ACCESSES:          0 HITS:          0 MISSES:          0
L1I RQ ACCESS:  500000007
L1I RQ TO_CACHE:  115580146
L1I RQ MERGED:  384419861
L1I RQ FORWARD:          0
L1I WQ ACCESS:          0
L1I WQ TO_CACHE:          0
L1I WQ MERGED:          0
L1I WQ FORWARD:          0
L2C TOTAL     ACCESS:   16738743  HIT:    4893707  MISS:   11845036
L2C LOAD      ACCESS:     581206  HIT:     100359  MISS:     480847
L2C RFO       ACCESS:    2781683  HIT:     266621  MISS:    2515062
L2C PREFETCH  ACCESS:   10155226  HIT:    1308379  MISS:    8846847
L2C WRITEBACK ACCESS:    3220628  HIT:    3218348  MISS:       2280
L2C PREFETCH  REQUESTED:      31795  ISSUED:      31795  USEFUL:      96034  USELESS:    8748899
L2C TOTAL MSHR MERGED:        437
L2C LOAD MSHR MERGED:          8
L2C RFO MSHR MERGED:          0
L2C PREFETCH MSHR MERGED:        429
L2C WRITEBACK MSHR MERGED:          0
L2C TOTAL ACCESSES:   16739614 HITS:    4893756 MISSES:   11845858
L2C LOAD ACCESSES:     581235 HITS:     100388 MISSES:     480847
L2C RFO ACCESSES:    2781683 HITS:     266621 MISSES:    2515062
L2C PREFETCH ACCESSES:   10156068 HITS:    1308399 MISSES:    8847669
L2C WRITEBACK ACCESSES:    3220628 HITS:    3218348 MISSES:       2280
L2C RQ ACCESS:    3362918
L2C RQ TO_CACHE:    3362889
L2C RQ MERGED:          0
L2C RQ FORWARD:          0
L2C WQ ACCESS:    3220628
L2C WQ TO_CACHE:    3220628
L2C WQ MERGED:          0
L2C WQ FORWARD:         49
LLC TOTAL     ACCESS:   14743566  HIT:    7416867  MISS:    7326699
LLC LOAD      ACCESS:     480836  HIT:     247971  MISS:     232865
LLC RFO       ACCESS:    2515031  HIT:    1218646  MISS:    1296385
LLC PREFETCH  ACCESS:    8847131  HIT:    4105760  MISS:    4741371
LLC WRITEBACK ACCESS:    2900568  HIT:    1844490  MISS:    1056078
LLC PREFETCH  REQUESTED:          0  ISSUED:          0  USEFUL:     306283  USELESS:    4445319
LLC TOTAL MSHR MERGED:          2
LLC LOAD MSHR MERGED:          0
LLC RFO MSHR MERGED:          0
LLC PREFETCH MSHR MERGED:          2
LLC WRITEBACK MSHR MERGED:          0
LLC TOTAL ACCESSES:   14743683 HITS:    7416981 MISSES:    7326702
LLC LOAD ACCESSES:     480839 HITS:     247974 MISSES:     232865
LLC RFO ACCESSES:    2515062 HITS:    1218677 MISSES:    1296385
LLC PREFETCH ACCESSES:    8847214 HITS:    4105840 MISSES:    4741374
LLC WRITEBACK ACCESSES:    2900568 HITS:    1844490 MISSES:    1056078
LLC 0 RQ ACCESS:    2995901
LLC 0 RQ TO_CACHE:    2995867
LLC 0 RQ MERGED:          0
LLC 0 RQ FORWARD:          0
LLC WQ ACCESS:    2900568
LLC WQ TO_CACHE:    2900568
LLC WQ MERGED:          0
LLC WQ FORWARD:        114
Major fault: 0 Minor fault: 57518
CPU 0 L1D next line prefetcher final stats
CPU 0 L2C PC-based stride prefetcher final stats
All Misses: 7873016
All Hits: 8366732
SD Algo Stats - Switches: 0 SRR-Repls: 240099 BRR-Repls: 0

DRAM Statistics
 CHANNEL 0
 RQ ROW_BUFFER_HIT:    3211966  ROW_BUFFER_MISS:    3052002
 DBUS_CONGESTED:    3561786
 WQ ROW_BUFFER_HIT:     223723  ROW_BUFFER_MISS:    1627771  FULL:          0

 AVG_CONGESTED_CYCLE: 13
LOADS RETIRED: 157818985
INSTR RETIRED: 500000000
