
*** ChampSim Multicore Out-of-Order Simulator ***

Warmup Instructions: 100000000
Simulation Instructions: 500000000
Number of CPUs: 1
LLC sets: 2048
LLC ways: 16
Clean RRIP Policies: 1213230112132301 Dirty RRIP Policies: 2213231122132311 PSEL Width: 10 Track Set: 4294967295 PSEL Mask: 1 Demote Mask: 1340011013400110DS Algo: 0Window size: 0
Off-chip DRAM Size: 4096 MB Channels: 1 Width: 64-bit Data Rate: 1600 MT/s

CPU 0 runs /mnt/beegfs/iconst01/spec2017/Mcf.trace.gz
NOT SORTED
TRACE STRING: /mnt/beegfs/iconst01/spec2017/Mcf.trace.gz
SORTED
TRACE STRING: /mnt/beegfs/iconst01/spec2017/Mcf.trace.gz
INITIAL
TRACE STRING: /mnt/beegfs/iconst01/spec2017/Mcf.trace.gz

champsim_seed used: 278

CPU 0 L1D next line prefetcher
CPU 0 L2C IP-based stride prefetcher
Initialize DRRIP state
Assign rand_sets[0]: 454  LLC: 2048
rand_sets[0]: 454
Assign rand_sets[1]: 1662  LLC: 2048
rand_sets[1]: 1662
Assign rand_sets[2]: 1921  LLC: 2048
rand_sets[2]: 1921
Assign rand_sets[3]: 1131  LLC: 2048
rand_sets[3]: 1131
Assign rand_sets[4]: 331  LLC: 2048
rand_sets[4]: 331
Assign rand_sets[5]: 1531  LLC: 2048
rand_sets[5]: 1531
Assign rand_sets[6]: 482  LLC: 2048
rand_sets[6]: 482
Assign rand_sets[7]: 1275  LLC: 2048
rand_sets[7]: 1275
Assign rand_sets[8]: 1876  LLC: 2048
rand_sets[8]: 1876
Assign rand_sets[9]: 2038  LLC: 2048
rand_sets[9]: 2038
Assign rand_sets[10]: 701  LLC: 2048
rand_sets[10]: 701
Assign rand_sets[11]: 479  LLC: 2048
rand_sets[11]: 479
Assign rand_sets[12]: 892  LLC: 2048
rand_sets[12]: 892
Assign rand_sets[13]: 1820  LLC: 2048
rand_sets[13]: 1820
Assign rand_sets[14]: 1505  LLC: 2048
rand_sets[14]: 1505
Assign rand_sets[15]: 1159  LLC: 2048
rand_sets[15]: 1159
Assign rand_sets[16]: 513  LLC: 2048
rand_sets[16]: 513
Assign rand_sets[17]: 703  LLC: 2048
rand_sets[17]: 703
Assign rand_sets[18]: 561  LLC: 2048
rand_sets[18]: 561
Assign rand_sets[19]: 990  LLC: 2048
rand_sets[19]: 990
Assign rand_sets[20]: 342  LLC: 2048
rand_sets[20]: 342
Assign rand_sets[21]: 882  LLC: 2048
rand_sets[21]: 882
Assign rand_sets[22]: 15  LLC: 2048
rand_sets[22]: 15
Assign rand_sets[23]: 71  LLC: 2048
rand_sets[23]: 71
Assign rand_sets[24]: 1127  LLC: 2048
rand_sets[24]: 1127
Assign rand_sets[25]: 1382  LLC: 2048
rand_sets[25]: 1382
Assign rand_sets[26]: 647  LLC: 2048
rand_sets[26]: 647
Assign rand_sets[27]: 857  LLC: 2048
rand_sets[27]: 857
Assign rand_sets[28]: 1450  LLC: 2048
rand_sets[28]: 1450
Assign rand_sets[29]: 1160  LLC: 2048
rand_sets[29]: 1160
Assign rand_sets[30]: 1852  LLC: 2048
rand_sets[30]: 1852
Assign rand_sets[31]: 1881  LLC: 2048
rand_sets[31]: 1881
Assign rand_sets[32]: 1770  LLC: 2048
rand_sets[32]: 1770
Assign rand_sets[33]: 1622  LLC: 2048
rand_sets[33]: 1622
Assign rand_sets[34]: 275  LLC: 2048
rand_sets[34]: 275
Assign rand_sets[35]: 635  LLC: 2048
rand_sets[35]: 635
Assign rand_sets[36]: 466  LLC: 2048
rand_sets[36]: 466
Assign rand_sets[37]: 1413  LLC: 2048
rand_sets[37]: 1413
Assign rand_sets[38]: 417  LLC: 2048
rand_sets[38]: 417
Assign rand_sets[39]: 472  LLC: 2048
rand_sets[39]: 472
Assign rand_sets[40]: 1340  LLC: 2048
rand_sets[40]: 1340
Assign rand_sets[41]: 852  LLC: 2048
rand_sets[41]: 852
Assign rand_sets[42]: 1365  LLC: 2048
rand_sets[42]: 1365
Assign rand_sets[43]: 47  LLC: 2048
rand_sets[43]: 47
Assign rand_sets[44]: 823  LLC: 2048
rand_sets[44]: 823
Assign rand_sets[45]: 686  LLC: 2048
rand_sets[45]: 686
Assign rand_sets[46]: 1637  LLC: 2048
rand_sets[46]: 1637
Assign rand_sets[47]: 1115  LLC: 2048
rand_sets[47]: 1115
Assign rand_sets[48]: 986  LLC: 2048
rand_sets[48]: 986
Assign rand_sets[49]: 258  LLC: 2048
rand_sets[49]: 258
Assign rand_sets[50]: 633  LLC: 2048
rand_sets[50]: 633
Assign rand_sets[51]: 920  LLC: 2048
rand_sets[51]: 920
Assign rand_sets[52]: 204  LLC: 2048
rand_sets[52]: 204
Assign rand_sets[53]: 227  LLC: 2048
rand_sets[53]: 227
Assign rand_sets[54]: 1818  LLC: 2048
rand_sets[54]: 1818
Assign rand_sets[55]: 886  LLC: 2048
rand_sets[55]: 886
Assign rand_sets[56]: 1422  LLC: 2048
rand_sets[56]: 1422
Assign rand_sets[57]: 607  LLC: 2048
rand_sets[57]: 607
Assign rand_sets[58]: 217  LLC: 2048
rand_sets[58]: 217
Assign rand_sets[59]: 1945  LLC: 2048
rand_sets[59]: 1945
Assign rand_sets[60]: 143  LLC: 2048
rand_sets[60]: 143
Assign rand_sets[61]: 1311  LLC: 2048
rand_sets[61]: 1311
Assign rand_sets[62]: 319  LLC: 2048
rand_sets[62]: 319
Assign rand_sets[63]: 1846  LLC: 2048
rand_sets[63]: 1846
 CLEAN-RRIP-POLICY-1: 1-2-1-3-2-3-0-1- CLEAN-RRIP-POLICY-2: 1-2-1-3-2-3-0-1-
 DIRTY-RRIP-POLICY-1: 2-2-1-3-2-3-1-1- DIRTY-RRIP-POLICY-2: 2-2-1-3-2-3-1-1-
 PSEL width: 10
Heartbeat CPU 0 instructions: 10000002 cycles: 6248560 heartbeat IPC: 1.60037 cumulative IPC: 1.60037 (Simulation time: 0 hr 0 min 12 sec) 
Heartbeat CPU 0 instructions: 20000000 cycles: 12469365 heartbeat IPC: 1.60751 cumulative IPC: 1.60393 (Simulation time: 0 hr 0 min 24 sec) 
Heartbeat CPU 0 instructions: 30000000 cycles: 18679690 heartbeat IPC: 1.61022 cumulative IPC: 1.60602 (Simulation time: 0 hr 0 min 36 sec) 
Heartbeat CPU 0 instructions: 40000000 cycles: 24890263 heartbeat IPC: 1.61016 cumulative IPC: 1.60705 (Simulation time: 0 hr 0 min 49 sec) 
Heartbeat CPU 0 instructions: 50000003 cycles: 31102652 heartbeat IPC: 1.60969 cumulative IPC: 1.60758 (Simulation time: 0 hr 1 min 1 sec) 
Heartbeat CPU 0 instructions: 60000000 cycles: 37298822 heartbeat IPC: 1.6139 cumulative IPC: 1.60863 (Simulation time: 0 hr 1 min 13 sec) 
Heartbeat CPU 0 instructions: 70000003 cycles: 43517242 heartbeat IPC: 1.60813 cumulative IPC: 1.60856 (Simulation time: 0 hr 1 min 25 sec) 
Heartbeat CPU 0 instructions: 80000000 cycles: 49747715 heartbeat IPC: 1.60501 cumulative IPC: 1.60811 (Simulation time: 0 hr 1 min 38 sec) 
Heartbeat CPU 0 instructions: 90000000 cycles: 55976750 heartbeat IPC: 1.60539 cumulative IPC: 1.60781 (Simulation time: 0 hr 1 min 50 sec) 
Heartbeat CPU 0 instructions: 100000000 cycles: 62195653 heartbeat IPC: 1.608 cumulative IPC: 1.60783 (Simulation time: 0 hr 2 min 2 sec) 

Warmup complete CPU 0 instructions: 100000001 cycles: 62195654 (Simulation time: 0 hr 2 min 2 sec) 

Heartbeat CPU 0 instructions: 110000000 cycles: 86912325 heartbeat IPC: 0.404585 cumulative IPC: 0.404585 (Simulation time: 0 hr 2 min 25 sec) 
Heartbeat CPU 0 instructions: 120000000 cycles: 111729703 heartbeat IPC: 0.402943 cumulative IPC: 0.403763 (Simulation time: 0 hr 2 min 48 sec) 
Heartbeat CPU 0 instructions: 130000000 cycles: 136625745 heartbeat IPC: 0.40167 cumulative IPC: 0.403063 (Simulation time: 0 hr 3 min 11 sec) 
Heartbeat CPU 0 instructions: 140000000 cycles: 161478276 heartbeat IPC: 0.402373 cumulative IPC: 0.40289 (Simulation time: 0 hr 3 min 34 sec) 
Heartbeat CPU 0 instructions: 150000003 cycles: 186239657 heartbeat IPC: 0.403855 cumulative IPC: 0.403083 (Simulation time: 0 hr 3 min 57 sec) 
Heartbeat CPU 0 instructions: 160000000 cycles: 211271537 heartbeat IPC: 0.39949 cumulative IPC: 0.40248 (Simulation time: 0 hr 4 min 20 sec) 
Heartbeat CPU 0 instructions: 170000001 cycles: 236160602 heartbeat IPC: 0.401783 cumulative IPC: 0.40238 (Simulation time: 0 hr 4 min 43 sec) 
Heartbeat CPU 0 instructions: 180000000 cycles: 261040338 heartbeat IPC: 0.401933 cumulative IPC: 0.402324 (Simulation time: 0 hr 5 min 6 sec) 
Heartbeat CPU 0 instructions: 190000003 cycles: 285897603 heartbeat IPC: 0.402297 cumulative IPC: 0.402321 (Simulation time: 0 hr 5 min 29 sec) 
Heartbeat CPU 0 instructions: 200000000 cycles: 310785790 heartbeat IPC: 0.401797 cumulative IPC: 0.402269 (Simulation time: 0 hr 5 min 52 sec) 
Heartbeat CPU 0 instructions: 210000003 cycles: 335727430 heartbeat IPC: 0.400936 cumulative IPC: 0.402147 (Simulation time: 0 hr 6 min 15 sec) 
Heartbeat CPU 0 instructions: 220000000 cycles: 360891167 heartbeat IPC: 0.397397 cumulative IPC: 0.401747 (Simulation time: 0 hr 6 min 38 sec) 
Heartbeat CPU 0 instructions: 230000002 cycles: 385693254 heartbeat IPC: 0.403192 cumulative IPC: 0.401858 (Simulation time: 0 hr 7 min 1 sec) 
Heartbeat CPU 0 instructions: 240000000 cycles: 410807810 heartbeat IPC: 0.398175 cumulative IPC: 0.401592 (Simulation time: 0 hr 7 min 24 sec) 
Heartbeat CPU 0 instructions: 250000000 cycles: 435732281 heartbeat IPC: 0.401212 cumulative IPC: 0.401567 (Simulation time: 0 hr 7 min 47 sec) 
Heartbeat CPU 0 instructions: 260000000 cycles: 460634563 heartbeat IPC: 0.40157 cumulative IPC: 0.401567 (Simulation time: 0 hr 8 min 10 sec) 
Heartbeat CPU 0 instructions: 270000001 cycles: 485608669 heartbeat IPC: 0.400415 cumulative IPC: 0.401499 (Simulation time: 0 hr 8 min 34 sec) 
Heartbeat CPU 0 instructions: 280000000 cycles: 510516193 heartbeat IPC: 0.401485 cumulative IPC: 0.401498 (Simulation time: 0 hr 8 min 57 sec) 
Heartbeat CPU 0 instructions: 290000001 cycles: 535508610 heartbeat IPC: 0.400121 cumulative IPC: 0.401426 (Simulation time: 0 hr 9 min 20 sec) 
Heartbeat CPU 0 instructions: 300000000 cycles: 560676102 heartbeat IPC: 0.397338 cumulative IPC: 0.401219 (Simulation time: 0 hr 9 min 43 sec) 
Heartbeat CPU 0 instructions: 310000003 cycles: 585486198 heartbeat IPC: 0.403062 cumulative IPC: 0.401307 (Simulation time: 0 hr 10 min 6 sec) 
Heartbeat CPU 0 instructions: 320000000 cycles: 610659408 heartbeat IPC: 0.397248 cumulative IPC: 0.40112 (Simulation time: 0 hr 10 min 30 sec) 
Heartbeat CPU 0 instructions: 330000003 cycles: 635567242 heartbeat IPC: 0.40148 cumulative IPC: 0.401136 (Simulation time: 0 hr 10 min 53 sec) 
Heartbeat CPU 0 instructions: 340000000 cycles: 660769059 heartbeat IPC: 0.396797 cumulative IPC: 0.400953 (Simulation time: 0 hr 11 min 16 sec) 
Heartbeat CPU 0 instructions: 350000002 cycles: 685947448 heartbeat IPC: 0.397166 cumulative IPC: 0.4008 (Simulation time: 0 hr 11 min 39 sec) 
Heartbeat CPU 0 instructions: 360000000 cycles: 711298236 heartbeat IPC: 0.394465 cumulative IPC: 0.400553 (Simulation time: 0 hr 12 min 2 sec) 
Heartbeat CPU 0 instructions: 370000000 cycles: 736402978 heartbeat IPC: 0.398331 cumulative IPC: 0.40047 (Simulation time: 0 hr 12 min 25 sec) 
Heartbeat CPU 0 instructions: 380000000 cycles: 761315787 heartbeat IPC: 0.4014 cumulative IPC: 0.400503 (Simulation time: 0 hr 12 min 48 sec) 
Heartbeat CPU 0 instructions: 390000002 cycles: 786246240 heartbeat IPC: 0.401116 cumulative IPC: 0.400524 (Simulation time: 0 hr 13 min 12 sec) 
Heartbeat CPU 0 instructions: 400000000 cycles: 811333285 heartbeat IPC: 0.398612 cumulative IPC: 0.40046 (Simulation time: 0 hr 13 min 35 sec) 
Heartbeat CPU 0 instructions: 410000002 cycles: 836331937 heartbeat IPC: 0.400022 cumulative IPC: 0.400446 (Simulation time: 0 hr 13 min 58 sec) 
Heartbeat CPU 0 instructions: 420000000 cycles: 861151139 heartbeat IPC: 0.402914 cumulative IPC: 0.400523 (Simulation time: 0 hr 14 min 21 sec) 
Heartbeat CPU 0 instructions: 430000000 cycles: 886200444 heartbeat IPC: 0.399213 cumulative IPC: 0.400483 (Simulation time: 0 hr 14 min 44 sec) 
Heartbeat CPU 0 instructions: 440000000 cycles: 910942192 heartbeat IPC: 0.404175 cumulative IPC: 0.400591 (Simulation time: 0 hr 15 min 8 sec) 
Heartbeat CPU 0 instructions: 450000000 cycles: 936224386 heartbeat IPC: 0.395535 cumulative IPC: 0.400445 (Simulation time: 0 hr 15 min 32 sec) 
Heartbeat CPU 0 instructions: 460000000 cycles: 961356957 heartbeat IPC: 0.39789 cumulative IPC: 0.400373 (Simulation time: 0 hr 15 min 56 sec) 
Heartbeat CPU 0 instructions: 470000001 cycles: 986284585 heartbeat IPC: 0.401161 cumulative IPC: 0.400394 (Simulation time: 0 hr 16 min 20 sec) 
Heartbeat CPU 0 instructions: 480000000 cycles: 1011369123 heartbeat IPC: 0.398652 cumulative IPC: 0.400348 (Simulation time: 0 hr 16 min 45 sec) 
Heartbeat CPU 0 instructions: 490000000 cycles: 1036564781 heartbeat IPC: 0.396894 cumulative IPC: 0.400259 (Simulation time: 0 hr 17 min 9 sec) 
Heartbeat CPU 0 instructions: 500000000 cycles: 1062084651 heartbeat IPC: 0.391852 cumulative IPC: 0.400044 (Simulation time: 0 hr 17 min 33 sec) 
Heartbeat CPU 0 instructions: 510000003 cycles: 1087456968 heartbeat IPC: 0.39413 cumulative IPC: 0.399898 (Simulation time: 0 hr 17 min 57 sec) 
Heartbeat CPU 0 instructions: 520000000 cycles: 1113008037 heartbeat IPC: 0.391373 cumulative IPC: 0.399691 (Simulation time: 0 hr 18 min 22 sec) 
Heartbeat CPU 0 instructions: 530000003 cycles: 1138577535 heartbeat IPC: 0.391091 cumulative IPC: 0.399486 (Simulation time: 0 hr 18 min 46 sec) 
Heartbeat CPU 0 instructions: 540000000 cycles: 1164059368 heartbeat IPC: 0.392436 cumulative IPC: 0.399323 (Simulation time: 0 hr 19 min 10 sec) 
Heartbeat CPU 0 instructions: 550000000 cycles: 1189556989 heartbeat IPC: 0.392193 cumulative IPC: 0.399162 (Simulation time: 0 hr 19 min 35 sec) 
Heartbeat CPU 0 instructions: 560000000 cycles: 1215363750 heartbeat IPC: 0.387495 cumulative IPC: 0.398901 (Simulation time: 0 hr 19 min 59 sec) 
Heartbeat CPU 0 instructions: 570000001 cycles: 1241107436 heartbeat IPC: 0.388445 cumulative IPC: 0.398673 (Simulation time: 0 hr 20 min 23 sec) 
Heartbeat CPU 0 instructions: 580000000 cycles: 1266852522 heartbeat IPC: 0.388424 cumulative IPC: 0.398454 (Simulation time: 0 hr 20 min 48 sec) 
Heartbeat CPU 0 instructions: 590000000 cycles: 1292772875 heartbeat IPC: 0.385797 cumulative IPC: 0.398187 (Simulation time: 0 hr 21 min 12 sec) 
Heartbeat CPU 0 instructions: 600000000 cycles: 1318749582 heartbeat IPC: 0.38496 cumulative IPC: 0.397914 (Simulation time: 0 hr 21 min 37 sec) 
Finished CPU 0 instructions: 500000003 cycles: 1256553941 cumulative IPC: 0.397914 (Simulation time: 0 hr 21 min 37 sec) 

CPU 0 Branch Prediction Accuracy: 91.1342% MPKI: 18.7968
Number of Branches: 106006945 Number of Mispredictions: 9398408
Number of LOAD Instructions: 207894007
Number of LOAD Instructions (ROI): 207894007
Number of STORE Instructions: 54285997
Number of STORE Instructions (ROI): 54285997
Total Destination Memory Operands: 57463404
Total Destination Memory Operands (ROI): 57463404
Total Source Memory Operands: 207894007
Total Source Memory Operands (ROI): 207894007
Number of DEPENDED LOADS: 18118477
Number of DEPENDED LOADS (ROI): 18118477
Number of SQ_ADDED: 57463404
Number of SQ_ADDED (ROI): 57463404
Number of LQ_ADDED: 209261929
Number of LQ_ADDED (ROI): 209261929
Number of Instructions read from trace: 600000039

ChampSim completed all CPUs

Region of Interest Statistics

CPU 0 cumulative IPC: 0.397914 instructions: 500000003 cycles: 1256553941
ITLB TOTAL     ACCESS:   96393271  HIT:   96393271  MISS:          0
ITLB LOAD      ACCESS:   96393271  HIT:   96393271  MISS:          0
ITLB RFO       ACCESS:          0  HIT:          0  MISS:          0
ITLB PREFETCH  ACCESS:          0  HIT:          0  MISS:          0
ITLB WRITEBACK ACCESS:          0  HIT:          0  MISS:          0
ITLB PREFETCH  REQUESTED:          0  ISSUED:          0  USEFUL:          0  USELESS:          0
ITLB TOTAL MSHR MERGED:          0
ITLB LOAD MSHR MERGED:          0
ITLB RFO MSHR MERGED:          0
ITLB PREFETCH MSHR MERGED:          0
ITLB WRITEBACK MSHR MERGED:          0
ITLB TOTAL ACCESSES:   96393271 HITS:   96393271 MISSES:          0
ITLB LOAD ACCESSES:   96393271 HITS:   96393271 MISSES:          0
ITLB RFO ACCESSES:          0 HITS:          0 MISSES:          0
ITLB PREFETCH ACCESSES:          0 HITS:          0 MISSES:          0
ITLB WRITEBACK ACCESSES:          0 HITS:          0 MISSES:          0
ITLB RQ ACCESS:  499999980
ITLB RQ TO_CACHE:   96393271
ITLB RQ MERGED:  403606709
ITLB RQ FORWARD:          0
ITLB WQ ACCESS:          0
ITLB WQ TO_CACHE:          0
ITLB WQ MERGED:          0
ITLB WQ FORWARD:          0
DTLB TOTAL     ACCESS:  155160125  HIT:  150248009  MISS:    4912116
DTLB LOAD      ACCESS:  117708451  HIT:  113318017  MISS:    4390434
DTLB RFO       ACCESS:   37451674  HIT:   36929992  MISS:     521682
DTLB PREFETCH  ACCESS:          0  HIT:          0  MISS:          0
DTLB WRITEBACK ACCESS:          0  HIT:          0  MISS:          0
DTLB PREFETCH  REQUESTED:          0  ISSUED:          0  USEFUL:          0  USELESS:          0
DTLB TOTAL MSHR MERGED:     452392
DTLB LOAD MSHR MERGED:     161057
DTLB RFO MSHR MERGED:     291335
DTLB PREFETCH MSHR MERGED:          0
DTLB WRITEBACK MSHR MERGED:          0
DTLB TOTAL ACCESSES:  155612517 HITS:  150248009 MISSES:    5364508
DTLB LOAD ACCESSES:  117869508 HITS:  113318017 MISSES:    4551491
DTLB RFO ACCESSES:   37743009 HITS:   36929992 MISSES:     813017
DTLB PREFETCH ACCESSES:          0 HITS:          0 MISSES:          0
DTLB WRITEBACK ACCESSES:          0 HITS:          0 MISSES:          0
DTLB RQ ACCESS:  205964984
DTLB RQ TO_CACHE:  155612517
DTLB RQ MERGED:   50352467
DTLB RQ FORWARD:          0
DTLB WQ ACCESS:          0
DTLB WQ TO_CACHE:          0
DTLB WQ MERGED:          0
DTLB WQ FORWARD:          0
L1D TOTAL     ACCESS:  277107346  HIT:  242285358  MISS:   34821988
L1D LOAD      ACCESS:  125398714  HIT:  107753755  MISS:   17644959
L1D RFO       ACCESS:   41128539  HIT:   38816729  MISS:    2311810
L1D PREFETCH  ACCESS:  110580093  HIT:   95714874  MISS:   14865219
L1D WRITEBACK ACCESS:          0  HIT:          0  MISS:          0
L1D PREFETCH  REQUESTED:  126254071  ISSUED:  124734961  USEFUL:    2699524  USELESS:   12165721
L1D TOTAL MSHR MERGED:    8516618
L1D LOAD MSHR MERGED:    1548479
L1D RFO MSHR MERGED:    3774265
L1D PREFETCH MSHR MERGED:    3193874
L1D WRITEBACK MSHR MERGED:          0
L1D TOTAL ACCESSES:  285711242 HITS:  242372634 MISSES:   43338608
L1D LOAD ACCESSES:  126254107 HITS:  107753791 MISSES:   18500316
L1D RFO ACCESSES:   44902310 HITS:   38816729 MISSES:    6085581
L1D PREFETCH ACCESSES:  114554825 HITS:   95802114 MISSES:   18752711
L1D WRITEBACK ACCESSES:          0 HITS:          0 MISSES:          0
L1D RQ ACCESS:  158418103
L1D RQ TO_CACHE:  126254071
L1D RQ MERGED:   32163996
L1D RQ FORWARD:          0
L1D WQ ACCESS:   47546882
L1D WQ TO_CACHE:   44902310
L1D WQ MERGED:    2644572
L1D WQ FORWARD:      87276
L1I TOTAL     ACCESS:  132797136  HIT:  132797136  MISS:          0
L1I LOAD      ACCESS:  132797136  HIT:  132797136  MISS:          0
L1I RFO       ACCESS:          0  HIT:          0  MISS:          0
L1I PREFETCH  ACCESS:          0  HIT:          0  MISS:          0
L1I WRITEBACK ACCESS:          0  HIT:          0  MISS:          0
L1I PREFETCH  REQUESTED:          0  ISSUED:          0  USEFUL:          0  USELESS:          0
L1I TOTAL MSHR MERGED:          0
L1I LOAD MSHR MERGED:          0
L1I RFO MSHR MERGED:          0
L1I PREFETCH MSHR MERGED:          0
L1I WRITEBACK MSHR MERGED:          0
L1I TOTAL ACCESSES:  132797136 HITS:  132797136 MISSES:          0
L1I LOAD ACCESSES:  132797136 HITS:  132797136 MISSES:          0
L1I RFO ACCESSES:          0 HITS:          0 MISSES:          0
L1I PREFETCH ACCESSES:          0 HITS:          0 MISSES:          0
L1I WRITEBACK ACCESSES:          0 HITS:          0 MISSES:          0
L1I RQ ACCESS:  499999980
L1I RQ TO_CACHE:  132797136
L1I RQ MERGED:  367202844
L1I RQ FORWARD:          0
L1I WQ ACCESS:          0
L1I WQ TO_CACHE:          0
L1I WQ MERGED:          0
L1I WQ FORWARD:          0
L2C TOTAL     ACCESS:   39596414  HIT:   20627408  MISS:   18969006
L2C LOAD      ACCESS:   16951775  HIT:    8567048  MISS:    8384727
L2C RFO       ACCESS:    2311264  HIT:     630844  MISS:    1680420
L2C PREFETCH  ACCESS:   17110956  HIT:    8210846  MISS:    8900110
L2C WRITEBACK ACCESS:    3222419  HIT:    3218670  MISS:       3749
L2C PREFETCH  REQUESTED:    2893878  ISSUED:    2893878  USEFUL:    1306431  USELESS:    7593419
L2C TOTAL MSHR MERGED:     538905
L2C LOAD MSHR MERGED:      92949
L2C RFO MSHR MERGED:          0
L2C PREFETCH MSHR MERGED:     445956
L2C WRITEBACK MSHR MERGED:          0
L2C TOTAL ACCESSES:   40263252 HITS:   20627572 MISSES:   19635680
L2C LOAD ACCESSES:   16951837 HITS:    8567110 MISSES:    8384727
L2C RFO ACCESSES:    2311316 HITS:     630896 MISSES:    1680420
L2C PREFETCH ACCESSES:   17777680 HITS:    8210896 MISSES:    9566784
L2C WRITEBACK ACCESSES:    3222419 HITS:    3218670 MISSES:       3749
L2C RQ ACCESS:   19263153
L2C RQ TO_CACHE:   19263039
L2C RQ MERGED:          0
L2C RQ FORWARD:          0
L2C WQ ACCESS:    3222419
L2C WQ TO_CACHE:    3222419
L2C WQ MERGED:          0
L2C WQ FORWARD:        164
LLC TOTAL     ACCESS:   21203766  HIT:   13546046  MISS:    7657720
LLC LOAD      ACCESS:    8291754  HIT:    5737515  MISS:    2554239
LLC RFO       ACCESS:    1680349  HIT:    1601230  MISS:      79119
LLC PREFETCH  ACCESS:    9056043  HIT:    4164760  MISS:    4891283
LLC WRITEBACK ACCESS:    2175620  HIT:    2042541  MISS:     133079
LLC PREFETCH  REQUESTED:          0  ISSUED:          0  USEFUL:     190842  USELESS:    4702359
LLC TOTAL MSHR MERGED:      54621
LLC LOAD MSHR MERGED:      17332
LLC RFO MSHR MERGED:          0
LLC PREFETCH MSHR MERGED:      37289
LLC WRITEBACK MSHR MERGED:          0
LLC TOTAL ACCESSES:   21258513 HITS:   13546170 MISSES:    7712343
LLC LOAD ACCESSES:    8291778 HITS:    5737539 MISSES:    2554239
LLC RFO ACCESSES:    1680420 HITS:    1601301 MISSES:      79119
LLC PREFETCH ACCESSES:    9110695 HITS:    4164789 MISSES:    4945906
LLC WRITEBACK ACCESSES:    2175620 HITS:    2042541 MISSES:     133079
LLC 0 RQ ACCESS:    9972198
LLC 0 RQ TO_CACHE:    9972103
LLC 0 RQ MERGED:          0
LLC 0 RQ FORWARD:          0
LLC WQ ACCESS:    2175621
LLC WQ TO_CACHE:    2175621
LLC WQ MERGED:          0
LLC WQ FORWARD:        124
Major fault: 0 Minor fault: 56391
CPU 0 L1D next line prefetcher final stats
CPU 0 L2C PC-based stride prefetcher final stats
All Misses: 8984734
All Hits: 15595875
SD Algo Stats - Switches: 0 SRR-Repls: 2682150 BRR-Repls: 0

DRAM Statistics
 CHANNEL 0
 RQ ROW_BUFFER_HIT:    4603391  ROW_BUFFER_MISS:    2888414
 DBUS_CONGESTED:    3597458
 WQ ROW_BUFFER_HIT:      18420  ROW_BUFFER_MISS:     185516  FULL:          0

 AVG_CONGESTED_CYCLE: 12
LOADS RETIRED: 173631671
INSTR RETIRED: 500000000
