
*** ChampSim Multicore Out-of-Order Simulator ***

Warmup Instructions: 100000000
Simulation Instructions: 500000000
Number of CPUs: 1
LLC sets: 2048
LLC ways: 16
Clean RRIP Policies: 2213230222132302 Dirty RRIP Policies: 2203130222031302 PSEL Width: 10 Track Set: 4294967295 PSEL Mask: 1 Demote Mask: 4040100240401002DS Algo: 0Window size: 0
Off-chip DRAM Size: 4096 MB Channels: 1 Width: 64-bit Data Rate: 1600 MT/s

CPU 0 runs /mnt/beegfs/iconst01/spec2017/Cam4.trace.gz
NOT SORTED
TRACE STRING: /mnt/beegfs/iconst01/spec2017/Cam4.trace.gz
SORTED
TRACE STRING: /mnt/beegfs/iconst01/spec2017/Cam4.trace.gz
INITIAL
TRACE STRING: /mnt/beegfs/iconst01/spec2017/Cam4.trace.gz

champsim_seed used: 325

CPU 0 L1D next line prefetcher
CPU 0 L2C IP-based stride prefetcher
Initialize DRRIP state
Assign rand_sets[0]: 454  LLC: 2048
rand_sets[0]: 454
Assign rand_sets[1]: 1662  LLC: 2048
rand_sets[1]: 1662
Assign rand_sets[2]: 1921  LLC: 2048
rand_sets[2]: 1921
Assign rand_sets[3]: 1131  LLC: 2048
rand_sets[3]: 1131
Assign rand_sets[4]: 331  LLC: 2048
rand_sets[4]: 331
Assign rand_sets[5]: 1531  LLC: 2048
rand_sets[5]: 1531
Assign rand_sets[6]: 482  LLC: 2048
rand_sets[6]: 482
Assign rand_sets[7]: 1275  LLC: 2048
rand_sets[7]: 1275
Assign rand_sets[8]: 1876  LLC: 2048
rand_sets[8]: 1876
Assign rand_sets[9]: 2038  LLC: 2048
rand_sets[9]: 2038
Assign rand_sets[10]: 701  LLC: 2048
rand_sets[10]: 701
Assign rand_sets[11]: 479  LLC: 2048
rand_sets[11]: 479
Assign rand_sets[12]: 892  LLC: 2048
rand_sets[12]: 892
Assign rand_sets[13]: 1820  LLC: 2048
rand_sets[13]: 1820
Assign rand_sets[14]: 1505  LLC: 2048
rand_sets[14]: 1505
Assign rand_sets[15]: 1159  LLC: 2048
rand_sets[15]: 1159
Assign rand_sets[16]: 513  LLC: 2048
rand_sets[16]: 513
Assign rand_sets[17]: 703  LLC: 2048
rand_sets[17]: 703
Assign rand_sets[18]: 561  LLC: 2048
rand_sets[18]: 561
Assign rand_sets[19]: 990  LLC: 2048
rand_sets[19]: 990
Assign rand_sets[20]: 342  LLC: 2048
rand_sets[20]: 342
Assign rand_sets[21]: 882  LLC: 2048
rand_sets[21]: 882
Assign rand_sets[22]: 15  LLC: 2048
rand_sets[22]: 15
Assign rand_sets[23]: 71  LLC: 2048
rand_sets[23]: 71
Assign rand_sets[24]: 1127  LLC: 2048
rand_sets[24]: 1127
Assign rand_sets[25]: 1382  LLC: 2048
rand_sets[25]: 1382
Assign rand_sets[26]: 647  LLC: 2048
rand_sets[26]: 647
Assign rand_sets[27]: 857  LLC: 2048
rand_sets[27]: 857
Assign rand_sets[28]: 1450  LLC: 2048
rand_sets[28]: 1450
Assign rand_sets[29]: 1160  LLC: 2048
rand_sets[29]: 1160
Assign rand_sets[30]: 1852  LLC: 2048
rand_sets[30]: 1852
Assign rand_sets[31]: 1881  LLC: 2048
rand_sets[31]: 1881
Assign rand_sets[32]: 1770  LLC: 2048
rand_sets[32]: 1770
Assign rand_sets[33]: 1622  LLC: 2048
rand_sets[33]: 1622
Assign rand_sets[34]: 275  LLC: 2048
rand_sets[34]: 275
Assign rand_sets[35]: 635  LLC: 2048
rand_sets[35]: 635
Assign rand_sets[36]: 466  LLC: 2048
rand_sets[36]: 466
Assign rand_sets[37]: 1413  LLC: 2048
rand_sets[37]: 1413
Assign rand_sets[38]: 417  LLC: 2048
rand_sets[38]: 417
Assign rand_sets[39]: 472  LLC: 2048
rand_sets[39]: 472
Assign rand_sets[40]: 1340  LLC: 2048
rand_sets[40]: 1340
Assign rand_sets[41]: 852  LLC: 2048
rand_sets[41]: 852
Assign rand_sets[42]: 1365  LLC: 2048
rand_sets[42]: 1365
Assign rand_sets[43]: 47  LLC: 2048
rand_sets[43]: 47
Assign rand_sets[44]: 823  LLC: 2048
rand_sets[44]: 823
Assign rand_sets[45]: 686  LLC: 2048
rand_sets[45]: 686
Assign rand_sets[46]: 1637  LLC: 2048
rand_sets[46]: 1637
Assign rand_sets[47]: 1115  LLC: 2048
rand_sets[47]: 1115
Assign rand_sets[48]: 986  LLC: 2048
rand_sets[48]: 986
Assign rand_sets[49]: 258  LLC: 2048
rand_sets[49]: 258
Assign rand_sets[50]: 633  LLC: 2048
rand_sets[50]: 633
Assign rand_sets[51]: 920  LLC: 2048
rand_sets[51]: 920
Assign rand_sets[52]: 204  LLC: 2048
rand_sets[52]: 204
Assign rand_sets[53]: 227  LLC: 2048
rand_sets[53]: 227
Assign rand_sets[54]: 1818  LLC: 2048
rand_sets[54]: 1818
Assign rand_sets[55]: 886  LLC: 2048
rand_sets[55]: 886
Assign rand_sets[56]: 1422  LLC: 2048
rand_sets[56]: 1422
Assign rand_sets[57]: 607  LLC: 2048
rand_sets[57]: 607
Assign rand_sets[58]: 217  LLC: 2048
rand_sets[58]: 217
Assign rand_sets[59]: 1945  LLC: 2048
rand_sets[59]: 1945
Assign rand_sets[60]: 143  LLC: 2048
rand_sets[60]: 143
Assign rand_sets[61]: 1311  LLC: 2048
rand_sets[61]: 1311
Assign rand_sets[62]: 319  LLC: 2048
rand_sets[62]: 319
Assign rand_sets[63]: 1846  LLC: 2048
rand_sets[63]: 1846
 CLEAN-RRIP-POLICY-1: 2-2-1-3-2-3-0-2- CLEAN-RRIP-POLICY-2: 2-2-1-3-2-3-0-2-
 DIRTY-RRIP-POLICY-1: 2-2-0-3-1-3-0-2- DIRTY-RRIP-POLICY-2: 2-2-0-3-1-3-0-2-
 PSEL width: 10
Heartbeat CPU 0 instructions: 10000000 cycles: 4859184 heartbeat IPC: 2.05796 cumulative IPC: 2.05796 (Simulation time: 0 hr 0 min 16 sec) 
Heartbeat CPU 0 instructions: 20000000 cycles: 9790786 heartbeat IPC: 2.02774 cumulative IPC: 2.04274 (Simulation time: 0 hr 0 min 33 sec) 
Heartbeat CPU 0 instructions: 30000001 cycles: 14562961 heartbeat IPC: 2.09548 cumulative IPC: 2.06002 (Simulation time: 0 hr 0 min 47 sec) 
Heartbeat CPU 0 instructions: 40000000 cycles: 19399950 heartbeat IPC: 2.0674 cumulative IPC: 2.06186 (Simulation time: 0 hr 1 min 3 sec) 
Heartbeat CPU 0 instructions: 50000000 cycles: 24256466 heartbeat IPC: 2.05909 cumulative IPC: 2.06131 (Simulation time: 0 hr 1 min 20 sec) 
Heartbeat CPU 0 instructions: 60000000 cycles: 29181900 heartbeat IPC: 2.03028 cumulative IPC: 2.05607 (Simulation time: 0 hr 1 min 36 sec) 
Heartbeat CPU 0 instructions: 70000001 cycles: 33956771 heartbeat IPC: 2.0943 cumulative IPC: 2.06144 (Simulation time: 0 hr 1 min 50 sec) 
Heartbeat CPU 0 instructions: 80000000 cycles: 38793013 heartbeat IPC: 2.06772 cumulative IPC: 2.06223 (Simulation time: 0 hr 2 min 7 sec) 
Heartbeat CPU 0 instructions: 90000002 cycles: 43647055 heartbeat IPC: 2.06014 cumulative IPC: 2.06199 (Simulation time: 0 hr 2 min 23 sec) 
Heartbeat CPU 0 instructions: 100000000 cycles: 48565822 heartbeat IPC: 2.03303 cumulative IPC: 2.05906 (Simulation time: 0 hr 2 min 39 sec) 

Warmup complete CPU 0 instructions: 100000001 cycles: 48565823 (Simulation time: 0 hr 2 min 39 sec) 

Heartbeat CPU 0 instructions: 110000000 cycles: 61739350 heartbeat IPC: 0.759098 cumulative IPC: 0.759098 (Simulation time: 0 hr 3 min 1 sec) 
Heartbeat CPU 0 instructions: 120000000 cycles: 75495854 heartbeat IPC: 0.726929 cumulative IPC: 0.742665 (Simulation time: 0 hr 3 min 25 sec) 
Heartbeat CPU 0 instructions: 130000000 cycles: 89244669 heartbeat IPC: 0.727335 cumulative IPC: 0.737484 (Simulation time: 0 hr 3 min 49 sec) 
Heartbeat CPU 0 instructions: 140000000 cycles: 103518820 heartbeat IPC: 0.700567 cumulative IPC: 0.727895 (Simulation time: 0 hr 4 min 14 sec) 
Heartbeat CPU 0 instructions: 150000003 cycles: 116751110 heartbeat IPC: 0.755727 cumulative IPC: 0.733296 (Simulation time: 0 hr 4 min 36 sec) 
Heartbeat CPU 0 instructions: 160000000 cycles: 130496769 heartbeat IPC: 0.727502 cumulative IPC: 0.732324 (Simulation time: 0 hr 5 min 0 sec) 
Heartbeat CPU 0 instructions: 170000001 cycles: 144281383 heartbeat IPC: 0.725447 cumulative IPC: 0.731334 (Simulation time: 0 hr 5 min 24 sec) 
Heartbeat CPU 0 instructions: 180000000 cycles: 158537319 heartbeat IPC: 0.701462 cumulative IPC: 0.727461 (Simulation time: 0 hr 5 min 48 sec) 
Heartbeat CPU 0 instructions: 190000003 cycles: 171726746 heartbeat IPC: 0.758183 cumulative IPC: 0.730751 (Simulation time: 0 hr 6 min 10 sec) 
Heartbeat CPU 0 instructions: 200000000 cycles: 185469489 heartbeat IPC: 0.727657 cumulative IPC: 0.730441 (Simulation time: 0 hr 6 min 34 sec) 
Heartbeat CPU 0 instructions: 210000002 cycles: 199254487 heartbeat IPC: 0.725426 cumulative IPC: 0.729982 (Simulation time: 0 hr 6 min 58 sec) 
Heartbeat CPU 0 instructions: 220000000 cycles: 213503097 heartbeat IPC: 0.701823 cumulative IPC: 0.727549 (Simulation time: 0 hr 7 min 23 sec) 
Heartbeat CPU 0 instructions: 230000001 cycles: 226618220 heartbeat IPC: 0.762479 cumulative IPC: 0.730122 (Simulation time: 0 hr 7 min 45 sec) 
Heartbeat CPU 0 instructions: 240000000 cycles: 240357517 heartbeat IPC: 0.727839 cumulative IPC: 0.729959 (Simulation time: 0 hr 8 min 9 sec) 
Heartbeat CPU 0 instructions: 250000001 cycles: 254086768 heartbeat IPC: 0.728372 cumulative IPC: 0.729853 (Simulation time: 0 hr 8 min 33 sec) 
Heartbeat CPU 0 instructions: 260000000 cycles: 268228800 heartbeat IPC: 0.707112 cumulative IPC: 0.728389 (Simulation time: 0 hr 8 min 57 sec) 
Heartbeat CPU 0 instructions: 270000003 cycles: 281458503 heartbeat IPC: 0.755875 cumulative IPC: 0.72995 (Simulation time: 0 hr 9 min 19 sec) 
Heartbeat CPU 0 instructions: 280000000 cycles: 295210318 heartbeat IPC: 0.727177 cumulative IPC: 0.729795 (Simulation time: 0 hr 9 min 43 sec) 
Heartbeat CPU 0 instructions: 290000001 cycles: 308988253 heartbeat IPC: 0.725798 cumulative IPC: 0.729584 (Simulation time: 0 hr 10 min 7 sec) 
Heartbeat CPU 0 instructions: 300000000 cycles: 323072120 heartbeat IPC: 0.710032 cumulative IPC: 0.728581 (Simulation time: 0 hr 10 min 31 sec) 
Heartbeat CPU 0 instructions: 310000000 cycles: 336316440 heartbeat IPC: 0.755041 cumulative IPC: 0.729799 (Simulation time: 0 hr 10 min 53 sec) 
Heartbeat CPU 0 instructions: 320000000 cycles: 350106582 heartbeat IPC: 0.725156 cumulative IPC: 0.729586 (Simulation time: 0 hr 11 min 17 sec) 
Heartbeat CPU 0 instructions: 330000000 cycles: 363897108 heartbeat IPC: 0.725136 cumulative IPC: 0.729392 (Simulation time: 0 hr 11 min 41 sec) 
Heartbeat CPU 0 instructions: 340000000 cycles: 377957024 heartbeat IPC: 0.711242 cumulative IPC: 0.728617 (Simulation time: 0 hr 12 min 6 sec) 
Heartbeat CPU 0 instructions: 350000000 cycles: 391252012 heartbeat IPC: 0.752163 cumulative IPC: 0.72953 (Simulation time: 0 hr 12 min 27 sec) 
Heartbeat CPU 0 instructions: 360000000 cycles: 405081035 heartbeat IPC: 0.723117 cumulative IPC: 0.729282 (Simulation time: 0 hr 12 min 51 sec) 
Heartbeat CPU 0 instructions: 370000003 cycles: 418879145 heartbeat IPC: 0.724737 cumulative IPC: 0.729112 (Simulation time: 0 hr 13 min 15 sec) 
Heartbeat CPU 0 instructions: 380000000 cycles: 432905060 heartbeat IPC: 0.712966 cumulative IPC: 0.728523 (Simulation time: 0 hr 13 min 39 sec) 
Heartbeat CPU 0 instructions: 390000003 cycles: 446209081 heartbeat IPC: 0.751653 cumulative IPC: 0.729297 (Simulation time: 0 hr 14 min 1 sec) 
Heartbeat CPU 0 instructions: 400000000 cycles: 460026748 heartbeat IPC: 0.723711 cumulative IPC: 0.729109 (Simulation time: 0 hr 14 min 25 sec) 
Heartbeat CPU 0 instructions: 410000000 cycles: 473794625 heartbeat IPC: 0.726328 cumulative IPC: 0.729019 (Simulation time: 0 hr 14 min 49 sec) 
Heartbeat CPU 0 instructions: 420000000 cycles: 487809034 heartbeat IPC: 0.713551 cumulative IPC: 0.728526 (Simulation time: 0 hr 15 min 13 sec) 
Heartbeat CPU 0 instructions: 430000003 cycles: 501139303 heartbeat IPC: 0.750173 cumulative IPC: 0.729163 (Simulation time: 0 hr 15 min 35 sec) 
Heartbeat CPU 0 instructions: 440000000 cycles: 514961700 heartbeat IPC: 0.723463 cumulative IPC: 0.728994 (Simulation time: 0 hr 15 min 59 sec) 
Heartbeat CPU 0 instructions: 450000000 cycles: 528748561 heartbeat IPC: 0.725328 cumulative IPC: 0.728889 (Simulation time: 0 hr 16 min 23 sec) 
Heartbeat CPU 0 instructions: 460000000 cycles: 542745556 heartbeat IPC: 0.714439 cumulative IPC: 0.72848 (Simulation time: 0 hr 16 min 47 sec) 
Heartbeat CPU 0 instructions: 470000001 cycles: 556059756 heartbeat IPC: 0.751078 cumulative IPC: 0.729073 (Simulation time: 0 hr 17 min 9 sec) 
Heartbeat CPU 0 instructions: 480000000 cycles: 569854869 heartbeat IPC: 0.724894 cumulative IPC: 0.728962 (Simulation time: 0 hr 17 min 33 sec) 
Heartbeat CPU 0 instructions: 490000002 cycles: 583612600 heartbeat IPC: 0.726864 cumulative IPC: 0.728908 (Simulation time: 0 hr 17 min 57 sec) 
Heartbeat CPU 0 instructions: 500000000 cycles: 597606716 heartbeat IPC: 0.714586 cumulative IPC: 0.728543 (Simulation time: 0 hr 18 min 21 sec) 
Heartbeat CPU 0 instructions: 510000002 cycles: 610956401 heartbeat IPC: 0.749081 cumulative IPC: 0.729031 (Simulation time: 0 hr 18 min 43 sec) 
Heartbeat CPU 0 instructions: 520000000 cycles: 624730015 heartbeat IPC: 0.726026 cumulative IPC: 0.728959 (Simulation time: 0 hr 19 min 7 sec) 
Heartbeat CPU 0 instructions: 530000003 cycles: 638469378 heartbeat IPC: 0.727836 cumulative IPC: 0.728933 (Simulation time: 0 hr 19 min 31 sec) 
Heartbeat CPU 0 instructions: 540000000 cycles: 652480693 heartbeat IPC: 0.713709 cumulative IPC: 0.72858 (Simulation time: 0 hr 19 min 55 sec) 
Heartbeat CPU 0 instructions: 550000003 cycles: 665834346 heartbeat IPC: 0.748859 cumulative IPC: 0.729018 (Simulation time: 0 hr 20 min 17 sec) 
Heartbeat CPU 0 instructions: 560000000 cycles: 679588774 heartbeat IPC: 0.727038 cumulative IPC: 0.728975 (Simulation time: 0 hr 20 min 41 sec) 
Heartbeat CPU 0 instructions: 570000001 cycles: 693356699 heartbeat IPC: 0.726326 cumulative IPC: 0.728918 (Simulation time: 0 hr 21 min 5 sec) 
Heartbeat CPU 0 instructions: 580000000 cycles: 707392408 heartbeat IPC: 0.712468 cumulative IPC: 0.728568 (Simulation time: 0 hr 21 min 29 sec) 
Heartbeat CPU 0 instructions: 590000000 cycles: 720666527 heartbeat IPC: 0.753346 cumulative IPC: 0.729057 (Simulation time: 0 hr 21 min 50 sec) 
Heartbeat CPU 0 instructions: 600000000 cycles: 734423483 heartbeat IPC: 0.726905 cumulative IPC: 0.729014 (Simulation time: 0 hr 22 min 14 sec) 
Finished CPU 0 instructions: 500000001 cycles: 685857668 cumulative IPC: 0.729014 (Simulation time: 0 hr 22 min 14 sec) 

CPU 0 Branch Prediction Accuracy: 97.5275% MPKI: 2.1997
Number of Branches: 44482865 Number of Mispredictions: 1099852
Number of LOAD Instructions: 144955155
Number of LOAD Instructions (ROI): 144955155
Number of STORE Instructions: 55921098
Number of STORE Instructions (ROI): 55921098
Total Destination Memory Operands: 57111147
Total Destination Memory Operands (ROI): 57111147
Total Source Memory Operands: 144955155
Total Source Memory Operands (ROI): 144955155
Number of DEPENDED LOADS: 13454880
Number of DEPENDED LOADS (ROI): 13454880
Number of SQ_ADDED: 57111126
Number of SQ_ADDED (ROI): 57111126
Number of LQ_ADDED: 174342890
Number of LQ_ADDED (ROI): 174342890
Number of Instructions read from trace: 600000256

ChampSim completed all CPUs

Region of Interest Statistics

CPU 0 cumulative IPC: 0.729014 instructions: 500000001 cycles: 685857668
ITLB TOTAL     ACCESS:  136058704  HIT:  136056151  MISS:       2553
ITLB LOAD      ACCESS:  136058704  HIT:  136056151  MISS:       2553
ITLB RFO       ACCESS:          0  HIT:          0  MISS:          0
ITLB PREFETCH  ACCESS:          0  HIT:          0  MISS:          0
ITLB WRITEBACK ACCESS:          0  HIT:          0  MISS:          0
ITLB PREFETCH  REQUESTED:          0  ISSUED:          0  USEFUL:          0  USELESS:          0
ITLB TOTAL MSHR MERGED:       4390
ITLB LOAD MSHR MERGED:       4390
ITLB RFO MSHR MERGED:          0
ITLB PREFETCH MSHR MERGED:          0
ITLB WRITEBACK MSHR MERGED:          0
ITLB TOTAL ACCESSES:  136063094 HITS:  136056151 MISSES:       6943
ITLB LOAD ACCESSES:  136063094 HITS:  136056151 MISSES:       6943
ITLB RFO ACCESSES:          0 HITS:          0 MISSES:          0
ITLB PREFETCH ACCESSES:          0 HITS:          0 MISSES:          0
ITLB WRITEBACK ACCESSES:          0 HITS:          0 MISSES:          0
ITLB RQ ACCESS:  500000202
ITLB RQ TO_CACHE:  136063094
ITLB RQ MERGED:  363937108
ITLB RQ FORWARD:          0
ITLB WQ ACCESS:          0
ITLB WQ TO_CACHE:          0
ITLB WQ MERGED:          0
ITLB WQ FORWARD:          0
DTLB TOTAL     ACCESS:  111542328  HIT:  111406137  MISS:     136191
DTLB LOAD      ACCESS:   78946520  HIT:   78820898  MISS:     125622
DTLB RFO       ACCESS:   32595808  HIT:   32585239  MISS:      10569
DTLB PREFETCH  ACCESS:          0  HIT:          0  MISS:          0
DTLB WRITEBACK ACCESS:          0  HIT:          0  MISS:          0
DTLB PREFETCH  REQUESTED:          0  ISSUED:          0  USEFUL:          0  USELESS:          0
DTLB TOTAL MSHR MERGED:      63557
DTLB LOAD MSHR MERGED:      50985
DTLB RFO MSHR MERGED:      12572
DTLB PREFETCH MSHR MERGED:          0
DTLB WRITEBACK MSHR MERGED:          0
DTLB TOTAL ACCESSES:  111605885 HITS:  111406137 MISSES:     199748
DTLB LOAD ACCESSES:   78997505 HITS:   78820898 MISSES:     176607
DTLB RFO ACCESSES:   32608380 HITS:   32585239 MISSES:      23141
DTLB PREFETCH ACCESSES:          0 HITS:          0 MISSES:          0
DTLB WRITEBACK ACCESSES:          0 HITS:          0 MISSES:          0
DTLB RQ ACCESS:  157180541
DTLB RQ TO_CACHE:  111605885
DTLB RQ MERGED:   45574656
DTLB RQ FORWARD:          0
DTLB WQ ACCESS:          0
DTLB WQ TO_CACHE:          0
DTLB WQ MERGED:          0
DTLB WQ FORWARD:          0
L1D TOTAL     ACCESS:  198207875  HIT:  188366860  MISS:    9841015
L1D LOAD      ACCESS:   79944683  HIT:   75681259  MISS:    4263424
L1D RFO       ACCESS:   44516866  HIT:   43616359  MISS:     900507
L1D PREFETCH  ACCESS:   73746326  HIT:   69069242  MISS:    4677084
L1D WRITEBACK ACCESS:          0  HIT:          0  MISS:          0
L1D PREFETCH  REQUESTED:   80341617  ISSUED:   79885901  USEFUL:    1818828  USELESS:    2858165
L1D TOTAL MSHR MERGED:    2514878
L1D LOAD MSHR MERGED:     521645
L1D RFO MSHR MERGED:    1435731
L1D PREFETCH MSHR MERGED:     557502
L1D WRITEBACK MSHR MERGED:          0
L1D TOTAL ACCESSES:  200744191 HITS:  188388298 MISSES:   12355893
L1D LOAD ACCESSES:   80354406 HITS:   75694048 MISSES:    4660358
L1D RFO ACCESSES:   45949493 HITS:   43616359 MISSES:    2333134
L1D PREFETCH ACCESSES:   74440292 HITS:   69077891 MISSES:    5362401
L1D WRITEBACK ACCESSES:          0 HITS:          0 MISSES:          0
L1D RQ ACCESS:  109538571
L1D RQ TO_CACHE:   80341617
L1D RQ MERGED:   29184165
L1D RQ FORWARD:          0
L1D WQ ACCESS:   47641970
L1D WQ TO_CACHE:   45949493
L1D WQ MERGED:    1692477
L1D WQ FORWARD:      21438
L1I TOTAL     ACCESS:  161530620  HIT:  161266645  MISS:     263975
L1I LOAD      ACCESS:  161530620  HIT:  161266645  MISS:     263975
L1I RFO       ACCESS:          0  HIT:          0  MISS:          0
L1I PREFETCH  ACCESS:          0  HIT:          0  MISS:          0
L1I WRITEBACK ACCESS:          0  HIT:          0  MISS:          0
L1I PREFETCH  REQUESTED:          0  ISSUED:          0  USEFUL:          0  USELESS:          0
L1I TOTAL MSHR MERGED:     260373
L1I LOAD MSHR MERGED:     260373
L1I RFO MSHR MERGED:          0
L1I PREFETCH MSHR MERGED:          0
L1I WRITEBACK MSHR MERGED:          0
L1I TOTAL ACCESSES:  161790993 HITS:  161266645 MISSES:     524348
L1I LOAD ACCESSES:  161790993 HITS:  161266645 MISSES:     524348
L1I RFO ACCESSES:          0 HITS:          0 MISSES:          0
L1I PREFETCH ACCESSES:          0 HITS:          0 MISSES:          0
L1I WRITEBACK ACCESSES:          0 HITS:          0 MISSES:          0
L1I RQ ACCESS:  500000202
L1I RQ TO_CACHE:  161790993
L1I RQ MERGED:  338209209
L1I RQ FORWARD:          0
L1I WQ ACCESS:          0
L1I WQ TO_CACHE:          0
L1I WQ MERGED:          0
L1I WQ FORWARD:          0
L2C TOTAL     ACCESS:   11771702  HIT:   10382402  MISS:    1389300
L2C LOAD      ACCESS:    4402623  HIT:    3906032  MISS:     496591
L2C RFO       ACCESS:     897337  HIT:     536269  MISS:     361068
L2C PREFETCH  ACCESS:    5284214  HIT:    4755521  MISS:     528693
L2C WRITEBACK ACCESS:    1187528  HIT:    1184580  MISS:       2948
L2C PREFETCH  REQUESTED:     504552  ISSUED:     504552  USEFUL:     114978  USELESS:     413909
L2C TOTAL MSHR MERGED:       2084
L2C LOAD MSHR MERGED:        418
L2C RFO MSHR MERGED:          0
L2C PREFETCH MSHR MERGED:       1666
L2C WRITEBACK MSHR MERGED:          0
L2C TOTAL ACCESSES:   11776473 HITS:   10382619 MISSES:    1393854
L2C LOAD ACCESSES:    4402688 HITS:    3906097 MISSES:     496591
L2C RFO ACCESSES:     897403 HITS:     536335 MISSES:     361068
L2C PREFETCH ACCESSES:    5288854 HITS:    4755607 MISSES:     533247
L2C WRITEBACK ACCESSES:    1187528 HITS:    1184580 MISSES:       2948
L2C RQ ACCESS:    5300091
L2C RQ TO_CACHE:    5299960
L2C RQ MERGED:          0
L2C RQ FORWARD:          0
L2C WQ ACCESS:    1187528
L2C WQ TO_CACHE:    1187528
L2C WQ MERGED:          0
L2C WQ FORWARD:        217
LLC TOTAL     ACCESS:    1849468  HIT:    1099286  MISS:     750182
LLC LOAD      ACCESS:     496171  HIT:     267823  MISS:     228348
LLC RFO       ACCESS:     361064  HIT:     199966  MISS:     161098
LLC PREFETCH  ACCESS:     531496  HIT:     313305  MISS:     218191
LLC WRITEBACK ACCESS:     460737  HIT:     318192  MISS:     142545
LLC PREFETCH  REQUESTED:          0  ISSUED:          0  USEFUL:       3271  USELESS:     215006
LLC TOTAL MSHR MERGED:         61
LLC LOAD MSHR MERGED:         21
LLC RFO MSHR MERGED:          0
LLC PREFETCH MSHR MERGED:         40
LLC WRITEBACK MSHR MERGED:          0
LLC TOTAL ACCESSES:    1849553 HITS:    1099310 MISSES:     750243
LLC LOAD ACCESSES:     496173 HITS:     267825 MISSES:     228348
LLC RFO ACCESSES:     361068 HITS:     199970 MISSES:     161098
LLC PREFETCH ACCESSES:     531575 HITS:     313323 MISSES:     218252
LLC WRITEBACK ACCESSES:     460737 HITS:     318192 MISSES:     142545
LLC 0 RQ ACCESS:     857241
LLC 0 RQ TO_CACHE:     857235
LLC 0 RQ MERGED:          0
LLC 0 RQ FORWARD:          0
LLC WQ ACCESS:     460737
LLC WQ TO_CACHE:     460737
LLC WQ MERGED:          0
LLC WQ FORWARD:         24
Major fault: 0 Minor fault: 3073
CPU 0 L1D next line prefetcher final stats
CPU 0 L2C PC-based stride prefetcher final stats
All Misses: 908953
All Hits: 1267207
SD Algo Stats - Switches: 0 SRR-Repls: 267073 BRR-Repls: 0

DRAM Statistics
 CHANNEL 0
 RQ ROW_BUFFER_HIT:     392275  ROW_BUFFER_MISS:     215037
 DBUS_CONGESTED:     466756
 WQ ROW_BUFFER_HIT:      20064  ROW_BUFFER_MISS:     151303  FULL:          0

 AVG_CONGESTED_CYCLE: 13
LOADS RETIRED: 120673965
INSTR RETIRED: 500000000
