
*** ChampSim Multicore Out-of-Order Simulator ***

Warmup Instructions: 100000000
Simulation Instructions: 500000000
Number of CPUs: 1
LLC sets: 2048
LLC ways: 16
Clean RRIP Policies: 2213230222132302 Dirty RRIP Policies: 2203130222031302 PSEL Width: 10 Track Set: 4294967295 PSEL Mask: 1 Demote Mask: 4040100240401002DS Algo: 0Window size: 0
Off-chip DRAM Size: 4096 MB Channels: 1 Width: 64-bit Data Rate: 1600 MT/s

CPU 0 runs /mnt/beegfs/iconst01/spec2017/Gcc.trace.gz
NOT SORTED
TRACE STRING: /mnt/beegfs/iconst01/spec2017/Gcc.trace.gz
SORTED
TRACE STRING: /mnt/beegfs/iconst01/spec2017/Gcc.trace.gz
INITIAL
TRACE STRING: /mnt/beegfs/iconst01/spec2017/Gcc.trace.gz

champsim_seed used: 269

CPU 0 L1D next line prefetcher
CPU 0 L2C IP-based stride prefetcher
Initialize DRRIP state
Assign rand_sets[0]: 454  LLC: 2048
rand_sets[0]: 454
Assign rand_sets[1]: 1662  LLC: 2048
rand_sets[1]: 1662
Assign rand_sets[2]: 1921  LLC: 2048
rand_sets[2]: 1921
Assign rand_sets[3]: 1131  LLC: 2048
rand_sets[3]: 1131
Assign rand_sets[4]: 331  LLC: 2048
rand_sets[4]: 331
Assign rand_sets[5]: 1531  LLC: 2048
rand_sets[5]: 1531
Assign rand_sets[6]: 482  LLC: 2048
rand_sets[6]: 482
Assign rand_sets[7]: 1275  LLC: 2048
rand_sets[7]: 1275
Assign rand_sets[8]: 1876  LLC: 2048
rand_sets[8]: 1876
Assign rand_sets[9]: 2038  LLC: 2048
rand_sets[9]: 2038
Assign rand_sets[10]: 701  LLC: 2048
rand_sets[10]: 701
Assign rand_sets[11]: 479  LLC: 2048
rand_sets[11]: 479
Assign rand_sets[12]: 892  LLC: 2048
rand_sets[12]: 892
Assign rand_sets[13]: 1820  LLC: 2048
rand_sets[13]: 1820
Assign rand_sets[14]: 1505  LLC: 2048
rand_sets[14]: 1505
Assign rand_sets[15]: 1159  LLC: 2048
rand_sets[15]: 1159
Assign rand_sets[16]: 513  LLC: 2048
rand_sets[16]: 513
Assign rand_sets[17]: 703  LLC: 2048
rand_sets[17]: 703
Assign rand_sets[18]: 561  LLC: 2048
rand_sets[18]: 561
Assign rand_sets[19]: 990  LLC: 2048
rand_sets[19]: 990
Assign rand_sets[20]: 342  LLC: 2048
rand_sets[20]: 342
Assign rand_sets[21]: 882  LLC: 2048
rand_sets[21]: 882
Assign rand_sets[22]: 15  LLC: 2048
rand_sets[22]: 15
Assign rand_sets[23]: 71  LLC: 2048
rand_sets[23]: 71
Assign rand_sets[24]: 1127  LLC: 2048
rand_sets[24]: 1127
Assign rand_sets[25]: 1382  LLC: 2048
rand_sets[25]: 1382
Assign rand_sets[26]: 647  LLC: 2048
rand_sets[26]: 647
Assign rand_sets[27]: 857  LLC: 2048
rand_sets[27]: 857
Assign rand_sets[28]: 1450  LLC: 2048
rand_sets[28]: 1450
Assign rand_sets[29]: 1160  LLC: 2048
rand_sets[29]: 1160
Assign rand_sets[30]: 1852  LLC: 2048
rand_sets[30]: 1852
Assign rand_sets[31]: 1881  LLC: 2048
rand_sets[31]: 1881
Assign rand_sets[32]: 1770  LLC: 2048
rand_sets[32]: 1770
Assign rand_sets[33]: 1622  LLC: 2048
rand_sets[33]: 1622
Assign rand_sets[34]: 275  LLC: 2048
rand_sets[34]: 275
Assign rand_sets[35]: 635  LLC: 2048
rand_sets[35]: 635
Assign rand_sets[36]: 466  LLC: 2048
rand_sets[36]: 466
Assign rand_sets[37]: 1413  LLC: 2048
rand_sets[37]: 1413
Assign rand_sets[38]: 417  LLC: 2048
rand_sets[38]: 417
Assign rand_sets[39]: 472  LLC: 2048
rand_sets[39]: 472
Assign rand_sets[40]: 1340  LLC: 2048
rand_sets[40]: 1340
Assign rand_sets[41]: 852  LLC: 2048
rand_sets[41]: 852
Assign rand_sets[42]: 1365  LLC: 2048
rand_sets[42]: 1365
Assign rand_sets[43]: 47  LLC: 2048
rand_sets[43]: 47
Assign rand_sets[44]: 823  LLC: 2048
rand_sets[44]: 823
Assign rand_sets[45]: 686  LLC: 2048
rand_sets[45]: 686
Assign rand_sets[46]: 1637  LLC: 2048
rand_sets[46]: 1637
Assign rand_sets[47]: 1115  LLC: 2048
rand_sets[47]: 1115
Assign rand_sets[48]: 986  LLC: 2048
rand_sets[48]: 986
Assign rand_sets[49]: 258  LLC: 2048
rand_sets[49]: 258
Assign rand_sets[50]: 633  LLC: 2048
rand_sets[50]: 633
Assign rand_sets[51]: 920  LLC: 2048
rand_sets[51]: 920
Assign rand_sets[52]: 204  LLC: 2048
rand_sets[52]: 204
Assign rand_sets[53]: 227  LLC: 2048
rand_sets[53]: 227
Assign rand_sets[54]: 1818  LLC: 2048
rand_sets[54]: 1818
Assign rand_sets[55]: 886  LLC: 2048
rand_sets[55]: 886
Assign rand_sets[56]: 1422  LLC: 2048
rand_sets[56]: 1422
Assign rand_sets[57]: 607  LLC: 2048
rand_sets[57]: 607
Assign rand_sets[58]: 217  LLC: 2048
rand_sets[58]: 217
Assign rand_sets[59]: 1945  LLC: 2048
rand_sets[59]: 1945
Assign rand_sets[60]: 143  LLC: 2048
rand_sets[60]: 143
Assign rand_sets[61]: 1311  LLC: 2048
rand_sets[61]: 1311
Assign rand_sets[62]: 319  LLC: 2048
rand_sets[62]: 319
Assign rand_sets[63]: 1846  LLC: 2048
rand_sets[63]: 1846
 CLEAN-RRIP-POLICY-1: 2-2-1-3-2-3-0-2- CLEAN-RRIP-POLICY-2: 2-2-1-3-2-3-0-2-
 DIRTY-RRIP-POLICY-1: 2-2-0-3-1-3-0-2- DIRTY-RRIP-POLICY-2: 2-2-0-3-1-3-0-2-
 PSEL width: 10
Heartbeat CPU 0 instructions: 10000001 cycles: 7315981 heartbeat IPC: 1.36687 cumulative IPC: 1.36687 (Simulation time: 0 hr 0 min 13 sec) 
Heartbeat CPU 0 instructions: 20000000 cycles: 14307552 heartbeat IPC: 1.43029 cumulative IPC: 1.39786 (Simulation time: 0 hr 0 min 26 sec) 
Heartbeat CPU 0 instructions: 30000001 cycles: 21020430 heartbeat IPC: 1.48967 cumulative IPC: 1.42718 (Simulation time: 0 hr 0 min 41 sec) 
Heartbeat CPU 0 instructions: 40000000 cycles: 27481184 heartbeat IPC: 1.54781 cumulative IPC: 1.45554 (Simulation time: 0 hr 0 min 56 sec) 
Heartbeat CPU 0 instructions: 50000001 cycles: 33582919 heartbeat IPC: 1.63888 cumulative IPC: 1.48885 (Simulation time: 0 hr 1 min 10 sec) 
Heartbeat CPU 0 instructions: 60000000 cycles: 40064104 heartbeat IPC: 1.54293 cumulative IPC: 1.4976 (Simulation time: 0 hr 1 min 25 sec) 
Heartbeat CPU 0 instructions: 70000000 cycles: 47102711 heartbeat IPC: 1.42074 cumulative IPC: 1.48611 (Simulation time: 0 hr 1 min 38 sec) 
Heartbeat CPU 0 instructions: 80000000 cycles: 54192618 heartbeat IPC: 1.41046 cumulative IPC: 1.47622 (Simulation time: 0 hr 1 min 52 sec) 
Heartbeat CPU 0 instructions: 90000003 cycles: 61197097 heartbeat IPC: 1.42766 cumulative IPC: 1.47066 (Simulation time: 0 hr 2 min 5 sec) 
Heartbeat CPU 0 instructions: 100000000 cycles: 68364357 heartbeat IPC: 1.39523 cumulative IPC: 1.46275 (Simulation time: 0 hr 2 min 19 sec) 

Warmup complete CPU 0 instructions: 100000004 cycles: 68364358 (Simulation time: 0 hr 2 min 19 sec) 

Heartbeat CPU 0 instructions: 110000003 cycles: 95973965 heartbeat IPC: 0.362193 cumulative IPC: 0.362193 (Simulation time: 0 hr 2 min 44 sec) 
Heartbeat CPU 0 instructions: 120000000 cycles: 123423145 heartbeat IPC: 0.364309 cumulative IPC: 0.363248 (Simulation time: 0 hr 3 min 10 sec) 
Heartbeat CPU 0 instructions: 130000000 cycles: 148390859 heartbeat IPC: 0.400517 cumulative IPC: 0.374876 (Simulation time: 0 hr 3 min 35 sec) 
Heartbeat CPU 0 instructions: 140000000 cycles: 177861573 heartbeat IPC: 0.33932 cumulative IPC: 0.365306 (Simulation time: 0 hr 4 min 0 sec) 
Heartbeat CPU 0 instructions: 150000000 cycles: 207725187 heartbeat IPC: 0.334856 cumulative IPC: 0.358781 (Simulation time: 0 hr 4 min 26 sec) 
Heartbeat CPU 0 instructions: 160000000 cycles: 235129450 heartbeat IPC: 0.364907 cumulative IPC: 0.359787 (Simulation time: 0 hr 4 min 50 sec) 
Heartbeat CPU 0 instructions: 170000001 cycles: 263124561 heartbeat IPC: 0.357205 cumulative IPC: 0.359416 (Simulation time: 0 hr 5 min 17 sec) 
Heartbeat CPU 0 instructions: 180000000 cycles: 291559815 heartbeat IPC: 0.351676 cumulative IPC: 0.35843 (Simulation time: 0 hr 5 min 43 sec) 
Heartbeat CPU 0 instructions: 190000002 cycles: 319550935 heartbeat IPC: 0.357256 cumulative IPC: 0.358299 (Simulation time: 0 hr 6 min 8 sec) 
Heartbeat CPU 0 instructions: 200000000 cycles: 347879158 heartbeat IPC: 0.353005 cumulative IPC: 0.357763 (Simulation time: 0 hr 6 min 34 sec) 
Heartbeat CPU 0 instructions: 210000002 cycles: 375700747 heartbeat IPC: 0.359433 cumulative IPC: 0.357914 (Simulation time: 0 hr 6 min 59 sec) 
Heartbeat CPU 0 instructions: 220000000 cycles: 404816050 heartbeat IPC: 0.343462 cumulative IPC: 0.356663 (Simulation time: 0 hr 7 min 24 sec) 
Heartbeat CPU 0 instructions: 230000000 cycles: 432340248 heartbeat IPC: 0.363317 cumulative IPC: 0.357166 (Simulation time: 0 hr 7 min 48 sec) 
Heartbeat CPU 0 instructions: 240000000 cycles: 458256575 heartbeat IPC: 0.385857 cumulative IPC: 0.359074 (Simulation time: 0 hr 8 min 13 sec) 
Heartbeat CPU 0 instructions: 250000000 cycles: 488363358 heartbeat IPC: 0.332151 cumulative IPC: 0.357144 (Simulation time: 0 hr 8 min 39 sec) 
Heartbeat CPU 0 instructions: 260000000 cycles: 515435989 heartbeat IPC: 0.369377 cumulative IPC: 0.357884 (Simulation time: 0 hr 9 min 4 sec) 
Heartbeat CPU 0 instructions: 270000003 cycles: 543825014 heartbeat IPC: 0.352249 cumulative IPC: 0.357548 (Simulation time: 0 hr 9 min 30 sec) 
Heartbeat CPU 0 instructions: 280000000 cycles: 571994686 heartbeat IPC: 0.354992 cumulative IPC: 0.357405 (Simulation time: 0 hr 9 min 57 sec) 
Heartbeat CPU 0 instructions: 290000000 cycles: 600878298 heartbeat IPC: 0.346217 cumulative IPC: 0.356798 (Simulation time: 0 hr 10 min 23 sec) 
Heartbeat CPU 0 instructions: 300000000 cycles: 630786163 heartbeat IPC: 0.33436 cumulative IPC: 0.355605 (Simulation time: 0 hr 10 min 48 sec) 
Heartbeat CPU 0 instructions: 310000001 cycles: 660168172 heartbeat IPC: 0.340344 cumulative IPC: 0.354847 (Simulation time: 0 hr 11 min 13 sec) 
Heartbeat CPU 0 instructions: 320000000 cycles: 688334106 heartbeat IPC: 0.355039 cumulative IPC: 0.354856 (Simulation time: 0 hr 11 min 38 sec) 
Heartbeat CPU 0 instructions: 330000000 cycles: 716937611 heartbeat IPC: 0.349607 cumulative IPC: 0.354625 (Simulation time: 0 hr 12 min 3 sec) 
Heartbeat CPU 0 instructions: 340000000 cycles: 746184746 heartbeat IPC: 0.341914 cumulative IPC: 0.354076 (Simulation time: 0 hr 12 min 28 sec) 
Heartbeat CPU 0 instructions: 350000003 cycles: 773200326 heartbeat IPC: 0.370157 cumulative IPC: 0.354692 (Simulation time: 0 hr 12 min 53 sec) 
Heartbeat CPU 0 instructions: 360000000 cycles: 801286971 heartbeat IPC: 0.356041 cumulative IPC: 0.354744 (Simulation time: 0 hr 13 min 17 sec) 
Heartbeat CPU 0 instructions: 370000000 cycles: 829460840 heartbeat IPC: 0.354939 cumulative IPC: 0.354751 (Simulation time: 0 hr 13 min 41 sec) 
Heartbeat CPU 0 instructions: 380000000 cycles: 857950250 heartbeat IPC: 0.351008 cumulative IPC: 0.354616 (Simulation time: 0 hr 14 min 5 sec) 
Heartbeat CPU 0 instructions: 390000001 cycles: 885548887 heartbeat IPC: 0.362337 cumulative IPC: 0.354877 (Simulation time: 0 hr 14 min 29 sec) 
Heartbeat CPU 0 instructions: 400000000 cycles: 914173378 heartbeat IPC: 0.349351 cumulative IPC: 0.35469 (Simulation time: 0 hr 14 min 53 sec) 
Heartbeat CPU 0 instructions: 410000001 cycles: 941468625 heartbeat IPC: 0.366364 cumulative IPC: 0.355055 (Simulation time: 0 hr 15 min 17 sec) 
Heartbeat CPU 0 instructions: 420000000 cycles: 968780285 heartbeat IPC: 0.366144 cumulative IPC: 0.355391 (Simulation time: 0 hr 15 min 40 sec) 
Heartbeat CPU 0 instructions: 430000002 cycles: 996470604 heartbeat IPC: 0.361137 cumulative IPC: 0.355563 (Simulation time: 0 hr 16 min 4 sec) 
Heartbeat CPU 0 instructions: 440000000 cycles: 1025983829 heartbeat IPC: 0.338831 cumulative IPC: 0.355047 (Simulation time: 0 hr 16 min 28 sec) 
Heartbeat CPU 0 instructions: 450000002 cycles: 1055199802 heartbeat IPC: 0.342279 cumulative IPC: 0.354669 (Simulation time: 0 hr 16 min 53 sec) 
Heartbeat CPU 0 instructions: 460000000 cycles: 1082885066 heartbeat IPC: 0.361203 cumulative IPC: 0.354847 (Simulation time: 0 hr 17 min 17 sec) 
Heartbeat CPU 0 instructions: 470000000 cycles: 1110512156 heartbeat IPC: 0.361964 cumulative IPC: 0.355036 (Simulation time: 0 hr 17 min 40 sec) 
Heartbeat CPU 0 instructions: 480000000 cycles: 1138389584 heartbeat IPC: 0.358713 cumulative IPC: 0.355132 (Simulation time: 0 hr 18 min 4 sec) 
Heartbeat CPU 0 instructions: 490000000 cycles: 1165974465 heartbeat IPC: 0.362517 cumulative IPC: 0.355317 (Simulation time: 0 hr 18 min 28 sec) 
Heartbeat CPU 0 instructions: 500000000 cycles: 1194277753 heartbeat IPC: 0.353316 cumulative IPC: 0.355267 (Simulation time: 0 hr 18 min 52 sec) 
Heartbeat CPU 0 instructions: 510000000 cycles: 1228794207 heartbeat IPC: 0.289717 cumulative IPC: 0.353317 (Simulation time: 0 hr 19 min 20 sec) 
Heartbeat CPU 0 instructions: 520000000 cycles: 1256810266 heartbeat IPC: 0.356938 cumulative IPC: 0.353403 (Simulation time: 0 hr 19 min 45 sec) 
Heartbeat CPU 0 instructions: 530000001 cycles: 1286248898 heartbeat IPC: 0.33969 cumulative IPC: 0.353071 (Simulation time: 0 hr 20 min 10 sec) 
Heartbeat CPU 0 instructions: 540000000 cycles: 1314295009 heartbeat IPC: 0.356556 cumulative IPC: 0.35315 (Simulation time: 0 hr 20 min 35 sec) 
Heartbeat CPU 0 instructions: 550000001 cycles: 1343472274 heartbeat IPC: 0.342733 cumulative IPC: 0.352911 (Simulation time: 0 hr 21 min 1 sec) 
Heartbeat CPU 0 instructions: 560000000 cycles: 1368847597 heartbeat IPC: 0.394084 cumulative IPC: 0.353715 (Simulation time: 0 hr 21 min 26 sec) 
Heartbeat CPU 0 instructions: 570000000 cycles: 1398305233 heartbeat IPC: 0.339471 cumulative IPC: 0.353399 (Simulation time: 0 hr 21 min 51 sec) 
Heartbeat CPU 0 instructions: 580000000 cycles: 1426248566 heartbeat IPC: 0.357867 cumulative IPC: 0.353491 (Simulation time: 0 hr 22 min 16 sec) 
Heartbeat CPU 0 instructions: 590000001 cycles: 1450987972 heartbeat IPC: 0.404213 cumulative IPC: 0.354399 (Simulation time: 0 hr 22 min 40 sec) 
Heartbeat CPU 0 instructions: 600000000 cycles: 1477062759 heartbeat IPC: 0.383512 cumulative IPC: 0.354938 (Simulation time: 0 hr 23 min 4 sec) 
Finished CPU 0 instructions: 500000000 cycles: 1408698423 cumulative IPC: 0.354938 (Simulation time: 0 hr 23 min 4 sec) 

CPU 0 Branch Prediction Accuracy: 86.4311% MPKI: 26.2662
Number of Branches: 96788573 Number of Mispredictions: 13133102
Number of LOAD Instructions: 164682285
Number of LOAD Instructions (ROI): 164682285
Number of STORE Instructions: 78194750
Number of STORE Instructions (ROI): 78194750
Total Destination Memory Operands: 83268534
Total Destination Memory Operands (ROI): 83268534
Total Source Memory Operands: 164712438
Total Source Memory Operands (ROI): 164712438
Number of DEPENDED LOADS: 7058632
Number of DEPENDED LOADS (ROI): 7058632
Number of SQ_ADDED: 83268522
Number of SQ_ADDED (ROI): 83268522
Number of LQ_ADDED: 236752937
Number of LQ_ADDED (ROI): 236752937
Number of Instructions read from trace: 600000066

ChampSim completed all CPUs

Region of Interest Statistics

CPU 0 cumulative IPC: 0.354938 instructions: 500000000 cycles: 1408698423
ITLB TOTAL     ACCESS:  100516396  HIT:  100311950  MISS:     204446
ITLB LOAD      ACCESS:  100516396  HIT:  100311950  MISS:     204446
ITLB RFO       ACCESS:          0  HIT:          0  MISS:          0
ITLB PREFETCH  ACCESS:          0  HIT:          0  MISS:          0
ITLB WRITEBACK ACCESS:          0  HIT:          0  MISS:          0
ITLB PREFETCH  REQUESTED:          0  ISSUED:          0  USEFUL:          0  USELESS:          0
ITLB TOTAL MSHR MERGED:     172424
ITLB LOAD MSHR MERGED:     172424
ITLB RFO MSHR MERGED:          0
ITLB PREFETCH MSHR MERGED:          0
ITLB WRITEBACK MSHR MERGED:          0
ITLB TOTAL ACCESSES:  100688820 HITS:  100311950 MISSES:     376870
ITLB LOAD ACCESSES:  100688820 HITS:  100311950 MISSES:     376870
ITLB RFO ACCESSES:          0 HITS:          0 MISSES:          0
ITLB PREFETCH ACCESSES:          0 HITS:          0 MISSES:          0
ITLB WRITEBACK ACCESSES:          0 HITS:          0 MISSES:          0
ITLB RQ ACCESS:  500000057
ITLB RQ TO_CACHE:  100688820
ITLB RQ MERGED:  399311237
ITLB RQ FORWARD:          0
ITLB WQ ACCESS:          0
ITLB WQ TO_CACHE:          0
ITLB WQ MERGED:          0
ITLB WQ FORWARD:          0
DTLB TOTAL     ACCESS:  165337518  HIT:  164703164  MISS:     634354
DTLB LOAD      ACCESS:  106292891  HIT:  105722942  MISS:     569949
DTLB RFO       ACCESS:   59044627  HIT:   58980222  MISS:      64405
DTLB PREFETCH  ACCESS:          0  HIT:          0  MISS:          0
DTLB WRITEBACK ACCESS:          0  HIT:          0  MISS:          0
DTLB PREFETCH  REQUESTED:          0  ISSUED:          0  USEFUL:          0  USELESS:          0
DTLB TOTAL MSHR MERGED:      99970
DTLB LOAD MSHR MERGED:      59431
DTLB RFO MSHR MERGED:      40539
DTLB PREFETCH MSHR MERGED:          0
DTLB WRITEBACK MSHR MERGED:          0
DTLB TOTAL ACCESSES:  165437488 HITS:  164703164 MISSES:     734324
DTLB LOAD ACCESSES:  106352322 HITS:  105722942 MISSES:     629380
DTLB RFO ACCESSES:   59085166 HITS:   58980222 MISSES:     104944
DTLB PREFETCH ACCESSES:          0 HITS:          0 MISSES:          0
DTLB WRITEBACK ACCESSES:          0 HITS:          0 MISSES:          0
DTLB RQ ACCESS:  200312260
DTLB RQ TO_CACHE:  165437488
DTLB RQ MERGED:   34874772
DTLB RQ FORWARD:          0
DTLB WQ ACCESS:          0
DTLB WQ TO_CACHE:          0
DTLB WQ MERGED:          0
DTLB WQ FORWARD:          0
L1D TOTAL     ACCESS:  281836787  HIT:  273927437  MISS:    7909350
L1D LOAD      ACCESS:  110418162  HIT:  107140354  MISS:    3277808
L1D RFO       ACCESS:   67118662  HIT:   66228053  MISS:     890609
L1D PREFETCH  ACCESS:  104299963  HIT:  100559030  MISS:    3740933
L1D WRITEBACK ACCESS:          0  HIT:          0  MISS:          0
L1D PREFETCH  REQUESTED:  110818018  ISSUED:  109118738  USEFUL:    1661617  USELESS:    2079280
L1D TOTAL MSHR MERGED:    2869027
L1D LOAD MSHR MERGED:     497136
L1D RFO MSHR MERGED:    1867337
L1D PREFETCH MSHR MERGED:     504554
L1D WRITEBACK MSHR MERGED:          0
L1D TOTAL ACCESSES:  284733253 HITS:  273954876 MISSES:   10778377
L1D LOAD ACCESSES:  110819456 HITS:  107141792 MISSES:    3677664
L1D RFO ACCESSES:   68974178 HITS:   66228053 MISSES:    2746125
L1D PREFETCH ACCESSES:  104939619 HITS:  100585031 MISSES:    4354588
L1D WRITEBACK ACCESSES:          0 HITS:          0 MISSES:          0
L1D RQ ACCESS:  130759657
L1D RQ TO_CACHE:  110818021
L1D RQ MERGED:   19940198
L1D RQ FORWARD:          0
L1D WQ ACCESS:   69552603
L1D WQ TO_CACHE:   68974179
L1D WQ MERGED:     578424
L1D WQ FORWARD:      27439
L1I TOTAL     ACCESS:  126563777  HIT:  122325224  MISS:    4238553
L1I LOAD      ACCESS:  126563777  HIT:  122325224  MISS:    4238553
L1I RFO       ACCESS:          0  HIT:          0  MISS:          0
L1I PREFETCH  ACCESS:          0  HIT:          0  MISS:          0
L1I WRITEBACK ACCESS:          0  HIT:          0  MISS:          0
L1I PREFETCH  REQUESTED:          0  ISSUED:          0  USEFUL:          0  USELESS:          0
L1I TOTAL MSHR MERGED:    1834633
L1I LOAD MSHR MERGED:    1834633
L1I RFO MSHR MERGED:          0
L1I PREFETCH MSHR MERGED:          0
L1I WRITEBACK MSHR MERGED:          0
L1I TOTAL ACCESSES:  128398413 HITS:  122325224 MISSES:    6073189
L1I LOAD ACCESSES:  128398413 HITS:  122325224 MISSES:    6073189
L1I RFO ACCESSES:          0 HITS:          0 MISSES:          0
L1I PREFETCH ACCESSES:          0 HITS:          0 MISSES:          0
L1I WRITEBACK ACCESSES:          0 HITS:          0 MISSES:          0
L1I RQ ACCESS:  500000057
L1I RQ TO_CACHE:  128398413
L1I RQ MERGED:  371601644
L1I RQ FORWARD:          0
L1I WQ ACCESS:          0
L1I WQ TO_CACHE:          0
L1I WQ MERGED:          0
L1I WQ FORWARD:          0
L2C TOTAL     ACCESS:   14905123  HIT:   11158603  MISS:    3746520
L2C LOAD      ACCESS:    7418874  HIT:    5098822  MISS:    2320052
L2C RFO       ACCESS:     878689  HIT:     409893  MISS:     468796
L2C PREFETCH  ACCESS:    4568317  HIT:    3627899  MISS:     940418
L2C WRITEBACK ACCESS:    2039243  HIT:    2021989  MISS:      17254
L2C PREFETCH  REQUESTED:     842773  ISSUED:     842773  USEFUL:     203338  USELESS:     736786
L2C TOTAL MSHR MERGED:       7191
L2C LOAD MSHR MERGED:        817
L2C RFO MSHR MERGED:          0
L2C PREFETCH MSHR MERGED:       6374
L2C WRITEBACK MSHR MERGED:          0
L2C TOTAL ACCESSES:   14913193 HITS:   11159052 MISSES:    3754141
L2C LOAD ACCESSES:    7419081 HITS:    5099029 MISSES:    2320052
L2C RFO ACCESSES:     878788 HITS:     409992 MISSES:     468796
L2C PREFETCH ACCESSES:    4576081 HITS:    3628042 MISSES:     948039
L2C WRITEBACK ACCESSES:    2039243 HITS:    2021989 MISSES:      17254
L2C RQ ACCESS:    8297872
L2C RQ TO_CACHE:    8297566
L2C RQ MERGED:          0
L2C RQ FORWARD:          0
L2C WQ ACCESS:    2039243
L2C WQ TO_CACHE:    2039243
L2C WQ MERGED:          0
L2C WQ FORWARD:        449
LLC TOTAL     ACCESS:    4609852  HIT:    3979486  MISS:     630366
LLC LOAD      ACCESS:    2319219  HIT:    2081884  MISS:     237335
LLC RFO       ACCESS:     468786  HIT:     405129  MISS:      63657
LLC PREFETCH  ACCESS:     941547  HIT:     665307  MISS:     276240
LLC WRITEBACK ACCESS:     880300  HIT:     827166  MISS:      53134
LLC PREFETCH  REQUESTED:          0  ISSUED:          0  USEFUL:      15513  USELESS:     261088
LLC TOTAL MSHR MERGED:        101
LLC LOAD MSHR MERGED:         35
LLC RFO MSHR MERGED:          0
LLC PREFETCH MSHR MERGED:         66
LLC WRITEBACK MSHR MERGED:          0
LLC TOTAL ACCESSES:    4609990 HITS:    3979523 MISSES:     630467
LLC LOAD ACCESSES:    2319235 HITS:    2081900 MISSES:     237335
LLC RFO ACCESSES:     468796 HITS:     405139 MISSES:      63657
LLC PREFETCH ACCESSES:     941659 HITS:     665318 MISSES:     276341
LLC WRITEBACK ACCESSES:     880300 HITS:     827166 MISSES:      53134
LLC 0 RQ ACCESS:    2788031
LLC 0 RQ TO_CACHE:    2788005
LLC 0 RQ MERGED:          0
LLC 0 RQ FORWARD:          0
LLC WQ ACCESS:     880300
LLC WQ TO_CACHE:     880300
LLC WQ MERGED:          0
LLC WQ FORWARD:         37
Major fault: 0 Minor fault: 12862
CPU 0 L1D next line prefetcher final stats
CPU 0 L2C PC-based stride prefetcher final stats
All Misses: 753046
All Hits: 4673812
SD Algo Stats - Switches: 0 SRR-Repls: 280331 BRR-Repls: 0

DRAM Statistics
 CHANNEL 0
 RQ ROW_BUFFER_HIT:     114854  ROW_BUFFER_MISS:     461350
 DBUS_CONGESTED:     334986
 WQ ROW_BUFFER_HIT:      12572  ROW_BUFFER_MISS:     165650  FULL:          0

 AVG_CONGESTED_CYCLE: 13
LOADS RETIRED: 136549171
INSTR RETIRED: 500000000
