
*** ChampSim Multicore Out-of-Order Simulator ***

Warmup Instructions: 100000000
Simulation Instructions: 500000000
Number of CPUs: 1
LLC sets: 2048
LLC ways: 16
Clean RRIP Policies: 2213230222132302 Dirty RRIP Policies: 2203130222031302 PSEL Width: 10 Track Set: 4294967295 PSEL Mask: 1 Demote Mask: 4040100240401002DS Algo: 0Window size: 0
Off-chip DRAM Size: 4096 MB Channels: 1 Width: 64-bit Data Rate: 1600 MT/s

CPU 0 runs /mnt/beegfs/iconst01/spec2017/Mcf.trace.gz
NOT SORTED
TRACE STRING: /mnt/beegfs/iconst01/spec2017/Mcf.trace.gz
SORTED
TRACE STRING: /mnt/beegfs/iconst01/spec2017/Mcf.trace.gz
INITIAL
TRACE STRING: /mnt/beegfs/iconst01/spec2017/Mcf.trace.gz

champsim_seed used: 278

CPU 0 L1D next line prefetcher
CPU 0 L2C IP-based stride prefetcher
Initialize DRRIP state
Assign rand_sets[0]: 454  LLC: 2048
rand_sets[0]: 454
Assign rand_sets[1]: 1662  LLC: 2048
rand_sets[1]: 1662
Assign rand_sets[2]: 1921  LLC: 2048
rand_sets[2]: 1921
Assign rand_sets[3]: 1131  LLC: 2048
rand_sets[3]: 1131
Assign rand_sets[4]: 331  LLC: 2048
rand_sets[4]: 331
Assign rand_sets[5]: 1531  LLC: 2048
rand_sets[5]: 1531
Assign rand_sets[6]: 482  LLC: 2048
rand_sets[6]: 482
Assign rand_sets[7]: 1275  LLC: 2048
rand_sets[7]: 1275
Assign rand_sets[8]: 1876  LLC: 2048
rand_sets[8]: 1876
Assign rand_sets[9]: 2038  LLC: 2048
rand_sets[9]: 2038
Assign rand_sets[10]: 701  LLC: 2048
rand_sets[10]: 701
Assign rand_sets[11]: 479  LLC: 2048
rand_sets[11]: 479
Assign rand_sets[12]: 892  LLC: 2048
rand_sets[12]: 892
Assign rand_sets[13]: 1820  LLC: 2048
rand_sets[13]: 1820
Assign rand_sets[14]: 1505  LLC: 2048
rand_sets[14]: 1505
Assign rand_sets[15]: 1159  LLC: 2048
rand_sets[15]: 1159
Assign rand_sets[16]: 513  LLC: 2048
rand_sets[16]: 513
Assign rand_sets[17]: 703  LLC: 2048
rand_sets[17]: 703
Assign rand_sets[18]: 561  LLC: 2048
rand_sets[18]: 561
Assign rand_sets[19]: 990  LLC: 2048
rand_sets[19]: 990
Assign rand_sets[20]: 342  LLC: 2048
rand_sets[20]: 342
Assign rand_sets[21]: 882  LLC: 2048
rand_sets[21]: 882
Assign rand_sets[22]: 15  LLC: 2048
rand_sets[22]: 15
Assign rand_sets[23]: 71  LLC: 2048
rand_sets[23]: 71
Assign rand_sets[24]: 1127  LLC: 2048
rand_sets[24]: 1127
Assign rand_sets[25]: 1382  LLC: 2048
rand_sets[25]: 1382
Assign rand_sets[26]: 647  LLC: 2048
rand_sets[26]: 647
Assign rand_sets[27]: 857  LLC: 2048
rand_sets[27]: 857
Assign rand_sets[28]: 1450  LLC: 2048
rand_sets[28]: 1450
Assign rand_sets[29]: 1160  LLC: 2048
rand_sets[29]: 1160
Assign rand_sets[30]: 1852  LLC: 2048
rand_sets[30]: 1852
Assign rand_sets[31]: 1881  LLC: 2048
rand_sets[31]: 1881
Assign rand_sets[32]: 1770  LLC: 2048
rand_sets[32]: 1770
Assign rand_sets[33]: 1622  LLC: 2048
rand_sets[33]: 1622
Assign rand_sets[34]: 275  LLC: 2048
rand_sets[34]: 275
Assign rand_sets[35]: 635  LLC: 2048
rand_sets[35]: 635
Assign rand_sets[36]: 466  LLC: 2048
rand_sets[36]: 466
Assign rand_sets[37]: 1413  LLC: 2048
rand_sets[37]: 1413
Assign rand_sets[38]: 417  LLC: 2048
rand_sets[38]: 417
Assign rand_sets[39]: 472  LLC: 2048
rand_sets[39]: 472
Assign rand_sets[40]: 1340  LLC: 2048
rand_sets[40]: 1340
Assign rand_sets[41]: 852  LLC: 2048
rand_sets[41]: 852
Assign rand_sets[42]: 1365  LLC: 2048
rand_sets[42]: 1365
Assign rand_sets[43]: 47  LLC: 2048
rand_sets[43]: 47
Assign rand_sets[44]: 823  LLC: 2048
rand_sets[44]: 823
Assign rand_sets[45]: 686  LLC: 2048
rand_sets[45]: 686
Assign rand_sets[46]: 1637  LLC: 2048
rand_sets[46]: 1637
Assign rand_sets[47]: 1115  LLC: 2048
rand_sets[47]: 1115
Assign rand_sets[48]: 986  LLC: 2048
rand_sets[48]: 986
Assign rand_sets[49]: 258  LLC: 2048
rand_sets[49]: 258
Assign rand_sets[50]: 633  LLC: 2048
rand_sets[50]: 633
Assign rand_sets[51]: 920  LLC: 2048
rand_sets[51]: 920
Assign rand_sets[52]: 204  LLC: 2048
rand_sets[52]: 204
Assign rand_sets[53]: 227  LLC: 2048
rand_sets[53]: 227
Assign rand_sets[54]: 1818  LLC: 2048
rand_sets[54]: 1818
Assign rand_sets[55]: 886  LLC: 2048
rand_sets[55]: 886
Assign rand_sets[56]: 1422  LLC: 2048
rand_sets[56]: 1422
Assign rand_sets[57]: 607  LLC: 2048
rand_sets[57]: 607
Assign rand_sets[58]: 217  LLC: 2048
rand_sets[58]: 217
Assign rand_sets[59]: 1945  LLC: 2048
rand_sets[59]: 1945
Assign rand_sets[60]: 143  LLC: 2048
rand_sets[60]: 143
Assign rand_sets[61]: 1311  LLC: 2048
rand_sets[61]: 1311
Assign rand_sets[62]: 319  LLC: 2048
rand_sets[62]: 319
Assign rand_sets[63]: 1846  LLC: 2048
rand_sets[63]: 1846
 CLEAN-RRIP-POLICY-1: 2-2-1-3-2-3-0-2- CLEAN-RRIP-POLICY-2: 2-2-1-3-2-3-0-2-
 DIRTY-RRIP-POLICY-1: 2-2-0-3-1-3-0-2- DIRTY-RRIP-POLICY-2: 2-2-0-3-1-3-0-2-
 PSEL width: 10
Heartbeat CPU 0 instructions: 10000002 cycles: 6248388 heartbeat IPC: 1.60041 cumulative IPC: 1.60041 (Simulation time: 0 hr 0 min 12 sec) 
Heartbeat CPU 0 instructions: 20000000 cycles: 12468966 heartbeat IPC: 1.60757 cumulative IPC: 1.60398 (Simulation time: 0 hr 0 min 25 sec) 
Heartbeat CPU 0 instructions: 30000000 cycles: 18679093 heartbeat IPC: 1.61027 cumulative IPC: 1.60607 (Simulation time: 0 hr 0 min 38 sec) 
Heartbeat CPU 0 instructions: 40000000 cycles: 24889570 heartbeat IPC: 1.61018 cumulative IPC: 1.6071 (Simulation time: 0 hr 0 min 50 sec) 
Heartbeat CPU 0 instructions: 50000003 cycles: 31101895 heartbeat IPC: 1.6097 cumulative IPC: 1.60762 (Simulation time: 0 hr 1 min 3 sec) 
Heartbeat CPU 0 instructions: 60000000 cycles: 37297955 heartbeat IPC: 1.61393 cumulative IPC: 1.60867 (Simulation time: 0 hr 1 min 15 sec) 
Heartbeat CPU 0 instructions: 70000003 cycles: 43516247 heartbeat IPC: 1.60816 cumulative IPC: 1.60859 (Simulation time: 0 hr 1 min 28 sec) 
Heartbeat CPU 0 instructions: 80000000 cycles: 49746601 heartbeat IPC: 1.60504 cumulative IPC: 1.60815 (Simulation time: 0 hr 1 min 40 sec) 
Heartbeat CPU 0 instructions: 90000000 cycles: 55975434 heartbeat IPC: 1.60544 cumulative IPC: 1.60785 (Simulation time: 0 hr 1 min 53 sec) 
Heartbeat CPU 0 instructions: 100000000 cycles: 62194330 heartbeat IPC: 1.608 cumulative IPC: 1.60786 (Simulation time: 0 hr 2 min 6 sec) 

Warmup complete CPU 0 instructions: 100000001 cycles: 62194331 (Simulation time: 0 hr 2 min 6 sec) 

Heartbeat CPU 0 instructions: 110000000 cycles: 86854676 heartbeat IPC: 0.405509 cumulative IPC: 0.405509 (Simulation time: 0 hr 2 min 29 sec) 
Heartbeat CPU 0 instructions: 120000000 cycles: 111619010 heartbeat IPC: 0.403807 cumulative IPC: 0.404656 (Simulation time: 0 hr 2 min 52 sec) 
Heartbeat CPU 0 instructions: 130000000 cycles: 136459236 heartbeat IPC: 0.402573 cumulative IPC: 0.403959 (Simulation time: 0 hr 3 min 16 sec) 
Heartbeat CPU 0 instructions: 140000000 cycles: 161236450 heartbeat IPC: 0.403597 cumulative IPC: 0.403869 (Simulation time: 0 hr 3 min 40 sec) 
Heartbeat CPU 0 instructions: 150000003 cycles: 185911297 heartbeat IPC: 0.405271 cumulative IPC: 0.404148 (Simulation time: 0 hr 4 min 3 sec) 
Heartbeat CPU 0 instructions: 160000000 cycles: 210840543 heartbeat IPC: 0.401135 cumulative IPC: 0.403643 (Simulation time: 0 hr 4 min 26 sec) 
Heartbeat CPU 0 instructions: 170000001 cycles: 235628772 heartbeat IPC: 0.403417 cumulative IPC: 0.403611 (Simulation time: 0 hr 4 min 50 sec) 
Heartbeat CPU 0 instructions: 180000000 cycles: 260431568 heartbeat IPC: 0.40318 cumulative IPC: 0.403557 (Simulation time: 0 hr 5 min 14 sec) 
Heartbeat CPU 0 instructions: 190000003 cycles: 285180328 heartbeat IPC: 0.404061 cumulative IPC: 0.403613 (Simulation time: 0 hr 5 min 37 sec) 
Heartbeat CPU 0 instructions: 200000000 cycles: 309979558 heartbeat IPC: 0.403238 cumulative IPC: 0.403575 (Simulation time: 0 hr 6 min 1 sec) 
Heartbeat CPU 0 instructions: 210000003 cycles: 334837436 heartbeat IPC: 0.402287 cumulative IPC: 0.403458 (Simulation time: 0 hr 6 min 24 sec) 
Heartbeat CPU 0 instructions: 220000000 cycles: 359888853 heartbeat IPC: 0.399179 cumulative IPC: 0.403098 (Simulation time: 0 hr 6 min 48 sec) 
Heartbeat CPU 0 instructions: 230000002 cycles: 384605893 heartbeat IPC: 0.404579 cumulative IPC: 0.403211 (Simulation time: 0 hr 7 min 11 sec) 
Heartbeat CPU 0 instructions: 240000000 cycles: 409614266 heartbeat IPC: 0.399866 cumulative IPC: 0.402971 (Simulation time: 0 hr 7 min 35 sec) 
Heartbeat CPU 0 instructions: 250000000 cycles: 434424116 heartbeat IPC: 0.403066 cumulative IPC: 0.402977 (Simulation time: 0 hr 7 min 58 sec) 
Heartbeat CPU 0 instructions: 260000000 cycles: 459204575 heartbeat IPC: 0.403544 cumulative IPC: 0.403012 (Simulation time: 0 hr 8 min 22 sec) 
Heartbeat CPU 0 instructions: 270000001 cycles: 484060730 heartbeat IPC: 0.402315 cumulative IPC: 0.402971 (Simulation time: 0 hr 8 min 45 sec) 
Heartbeat CPU 0 instructions: 280000000 cycles: 508862370 heartbeat IPC: 0.403199 cumulative IPC: 0.402984 (Simulation time: 0 hr 9 min 9 sec) 
Heartbeat CPU 0 instructions: 290000001 cycles: 533738325 heartbeat IPC: 0.401995 cumulative IPC: 0.402932 (Simulation time: 0 hr 9 min 32 sec) 
Heartbeat CPU 0 instructions: 300000000 cycles: 558769386 heartbeat IPC: 0.399504 cumulative IPC: 0.402759 (Simulation time: 0 hr 9 min 56 sec) 
Heartbeat CPU 0 instructions: 310000003 cycles: 583451037 heartbeat IPC: 0.405159 cumulative IPC: 0.402873 (Simulation time: 0 hr 10 min 19 sec) 
Heartbeat CPU 0 instructions: 320000000 cycles: 608495237 heartbeat IPC: 0.399294 cumulative IPC: 0.402708 (Simulation time: 0 hr 10 min 43 sec) 
Heartbeat CPU 0 instructions: 330000003 cycles: 633294984 heartbeat IPC: 0.40323 cumulative IPC: 0.402731 (Simulation time: 0 hr 11 min 6 sec) 
Heartbeat CPU 0 instructions: 340000000 cycles: 658379748 heartbeat IPC: 0.398648 cumulative IPC: 0.402559 (Simulation time: 0 hr 11 min 30 sec) 
Heartbeat CPU 0 instructions: 350000002 cycles: 683430414 heartbeat IPC: 0.399191 cumulative IPC: 0.402424 (Simulation time: 0 hr 11 min 53 sec) 
Heartbeat CPU 0 instructions: 360000000 cycles: 708626308 heartbeat IPC: 0.39689 cumulative IPC: 0.402208 (Simulation time: 0 hr 12 min 17 sec) 
Heartbeat CPU 0 instructions: 370000000 cycles: 733579828 heartbeat IPC: 0.400745 cumulative IPC: 0.402153 (Simulation time: 0 hr 12 min 40 sec) 
Heartbeat CPU 0 instructions: 380000000 cycles: 758365976 heartbeat IPC: 0.403451 cumulative IPC: 0.4022 (Simulation time: 0 hr 13 min 4 sec) 
Heartbeat CPU 0 instructions: 390000002 cycles: 783185814 heartbeat IPC: 0.402904 cumulative IPC: 0.402224 (Simulation time: 0 hr 13 min 27 sec) 
Heartbeat CPU 0 instructions: 400000000 cycles: 808156335 heartbeat IPC: 0.400472 cumulative IPC: 0.402165 (Simulation time: 0 hr 13 min 51 sec) 
Heartbeat CPU 0 instructions: 410000002 cycles: 833026249 heartbeat IPC: 0.402092 cumulative IPC: 0.402163 (Simulation time: 0 hr 14 min 14 sec) 
Heartbeat CPU 0 instructions: 420000000 cycles: 857707750 heartbeat IPC: 0.405162 cumulative IPC: 0.402256 (Simulation time: 0 hr 14 min 38 sec) 
Heartbeat CPU 0 instructions: 430000000 cycles: 882611008 heartbeat IPC: 0.401554 cumulative IPC: 0.402235 (Simulation time: 0 hr 15 min 2 sec) 
Heartbeat CPU 0 instructions: 440000000 cycles: 907223799 heartbeat IPC: 0.406293 cumulative IPC: 0.402353 (Simulation time: 0 hr 15 min 25 sec) 
Heartbeat CPU 0 instructions: 450000000 cycles: 932283904 heartbeat IPC: 0.399041 cumulative IPC: 0.402257 (Simulation time: 0 hr 15 min 50 sec) 
Heartbeat CPU 0 instructions: 460000000 cycles: 957238283 heartbeat IPC: 0.400731 cumulative IPC: 0.402215 (Simulation time: 0 hr 16 min 14 sec) 
Heartbeat CPU 0 instructions: 470000001 cycles: 981995466 heartbeat IPC: 0.403923 cumulative IPC: 0.402261 (Simulation time: 0 hr 16 min 39 sec) 
Heartbeat CPU 0 instructions: 480000000 cycles: 1006917047 heartbeat IPC: 0.401259 cumulative IPC: 0.402234 (Simulation time: 0 hr 17 min 3 sec) 
Heartbeat CPU 0 instructions: 490000000 cycles: 1031950858 heartbeat IPC: 0.39946 cumulative IPC: 0.402163 (Simulation time: 0 hr 17 min 28 sec) 
Heartbeat CPU 0 instructions: 500000000 cycles: 1057277733 heartbeat IPC: 0.394837 cumulative IPC: 0.401976 (Simulation time: 0 hr 17 min 52 sec) 
Heartbeat CPU 0 instructions: 510000003 cycles: 1082495874 heartbeat IPC: 0.39654 cumulative IPC: 0.401842 (Simulation time: 0 hr 18 min 17 sec) 
Heartbeat CPU 0 instructions: 520000000 cycles: 1107855102 heartbeat IPC: 0.394334 cumulative IPC: 0.40166 (Simulation time: 0 hr 18 min 41 sec) 
Heartbeat CPU 0 instructions: 530000003 cycles: 1133252006 heartbeat IPC: 0.393749 cumulative IPC: 0.401472 (Simulation time: 0 hr 19 min 6 sec) 
Heartbeat CPU 0 instructions: 540000000 cycles: 1158568837 heartbeat IPC: 0.394994 cumulative IPC: 0.401323 (Simulation time: 0 hr 19 min 30 sec) 
Heartbeat CPU 0 instructions: 550000000 cycles: 1183896787 heartbeat IPC: 0.394821 cumulative IPC: 0.401176 (Simulation time: 0 hr 19 min 55 sec) 
Heartbeat CPU 0 instructions: 560000000 cycles: 1209517340 heartbeat IPC: 0.390312 cumulative IPC: 0.400933 (Simulation time: 0 hr 20 min 19 sec) 
Heartbeat CPU 0 instructions: 570000001 cycles: 1235084359 heartbeat IPC: 0.391129 cumulative IPC: 0.40072 (Simulation time: 0 hr 20 min 44 sec) 
Heartbeat CPU 0 instructions: 580000000 cycles: 1260660169 heartbeat IPC: 0.390994 cumulative IPC: 0.400512 (Simulation time: 0 hr 21 min 8 sec) 
Heartbeat CPU 0 instructions: 590000000 cycles: 1286390660 heartbeat IPC: 0.388644 cumulative IPC: 0.400263 (Simulation time: 0 hr 21 min 33 sec) 
Heartbeat CPU 0 instructions: 600000000 cycles: 1312189984 heartbeat IPC: 0.387607 cumulative IPC: 0.400001 (Simulation time: 0 hr 21 min 58 sec) 
Finished CPU 0 instructions: 500000003 cycles: 1249995666 cumulative IPC: 0.400001 (Simulation time: 0 hr 21 min 58 sec) 

CPU 0 Branch Prediction Accuracy: 91.1342% MPKI: 18.7968
Number of Branches: 106006945 Number of Mispredictions: 9398408
Number of LOAD Instructions: 207894007
Number of LOAD Instructions (ROI): 207894007
Number of STORE Instructions: 54285997
Number of STORE Instructions (ROI): 54285997
Total Destination Memory Operands: 57463404
Total Destination Memory Operands (ROI): 57463404
Total Source Memory Operands: 207894007
Total Source Memory Operands (ROI): 207894007
Number of DEPENDED LOADS: 18112752
Number of DEPENDED LOADS (ROI): 18112752
Number of SQ_ADDED: 57463404
Number of SQ_ADDED (ROI): 57463404
Number of LQ_ADDED: 209259319
Number of LQ_ADDED (ROI): 209259319
Number of Instructions read from trace: 600000039

ChampSim completed all CPUs

Region of Interest Statistics

CPU 0 cumulative IPC: 0.400001 instructions: 500000003 cycles: 1249995666
ITLB TOTAL     ACCESS:   96407942  HIT:   96407942  MISS:          0
ITLB LOAD      ACCESS:   96407942  HIT:   96407942  MISS:          0
ITLB RFO       ACCESS:          0  HIT:          0  MISS:          0
ITLB PREFETCH  ACCESS:          0  HIT:          0  MISS:          0
ITLB WRITEBACK ACCESS:          0  HIT:          0  MISS:          0
ITLB PREFETCH  REQUESTED:          0  ISSUED:          0  USEFUL:          0  USELESS:          0
ITLB TOTAL MSHR MERGED:          0
ITLB LOAD MSHR MERGED:          0
ITLB RFO MSHR MERGED:          0
ITLB PREFETCH MSHR MERGED:          0
ITLB WRITEBACK MSHR MERGED:          0
ITLB TOTAL ACCESSES:   96407942 HITS:   96407942 MISSES:          0
ITLB LOAD ACCESSES:   96407942 HITS:   96407942 MISSES:          0
ITLB RFO ACCESSES:          0 HITS:          0 MISSES:          0
ITLB PREFETCH ACCESSES:          0 HITS:          0 MISSES:          0
ITLB WRITEBACK ACCESSES:          0 HITS:          0 MISSES:          0
ITLB RQ ACCESS:  499999980
ITLB RQ TO_CACHE:   96407942
ITLB RQ MERGED:  403592038
ITLB RQ FORWARD:          0
ITLB WQ ACCESS:          0
ITLB WQ TO_CACHE:          0
ITLB WQ MERGED:          0
ITLB WQ FORWARD:          0
DTLB TOTAL     ACCESS:  155165003  HIT:  150252871  MISS:    4912132
DTLB LOAD      ACCESS:  117714525  HIT:  113324078  MISS:    4390447
DTLB RFO       ACCESS:   37450478  HIT:   36928793  MISS:     521685
DTLB PREFETCH  ACCESS:          0  HIT:          0  MISS:          0
DTLB WRITEBACK ACCESS:          0  HIT:          0  MISS:          0
DTLB PREFETCH  REQUESTED:          0  ISSUED:          0  USEFUL:          0  USELESS:          0
DTLB TOTAL MSHR MERGED:     453036
DTLB LOAD MSHR MERGED:     161588
DTLB RFO MSHR MERGED:     291448
DTLB PREFETCH MSHR MERGED:          0
DTLB WRITEBACK MSHR MERGED:          0
DTLB TOTAL ACCESSES:  155618039 HITS:  150252871 MISSES:    5365168
DTLB LOAD ACCESSES:  117876113 HITS:  113324078 MISSES:    4552035
DTLB RFO ACCESSES:   37741926 HITS:   36928793 MISSES:     813133
DTLB PREFETCH ACCESSES:          0 HITS:          0 MISSES:          0
DTLB WRITEBACK ACCESSES:          0 HITS:          0 MISSES:          0
DTLB RQ ACCESS:  205970199
DTLB RQ TO_CACHE:  155618039
DTLB RQ MERGED:   50352160
DTLB RQ FORWARD:          0
DTLB WQ ACCESS:          0
DTLB WQ TO_CACHE:          0
DTLB WQ MERGED:          0
DTLB WQ FORWARD:          0
L1D TOTAL     ACCESS:  277137587  HIT:  242315226  MISS:   34822361
L1D LOAD      ACCESS:  125402509  HIT:  107764788  MISS:   17637721
L1D RFO       ACCESS:   41133077  HIT:   38821242  MISS:    2311835
L1D PREFETCH  ACCESS:  110602001  HIT:   95729196  MISS:   14872805
L1D WRITEBACK ACCESS:          0  HIT:          0  MISS:          0
L1D PREFETCH  REQUESTED:  126263534  ISSUED:  124744353  USEFUL:    2706782  USELESS:   12166049
L1D TOTAL MSHR MERGED:    8515971
L1D LOAD MSHR MERGED:    1555781
L1D RFO MSHR MERGED:    3770523
L1D PREFETCH MSHR MERGED:    3189667
L1D WRITEBACK MSHR MERGED:          0
L1D TOTAL ACCESSES:  285740829 HITS:  242402495 MISSES:   43338334
L1D LOAD ACCESSES:  126263559 HITS:  107764813 MISSES:   18498746
L1D RFO ACCESSES:   44903102 HITS:   38821242 MISSES:    6081860
L1D PREFETCH ACCESSES:  114574168 HITS:   95816440 MISSES:   18757728
L1D WRITEBACK ACCESSES:          0 HITS:          0 MISSES:          0
L1D RQ ACCESS:  158423318
L1D RQ TO_CACHE:  126263534
L1D RQ MERGED:   32159759
L1D RQ FORWARD:          0
L1D WQ ACCESS:   47546882
L1D WQ TO_CACHE:   44903102
L1D WQ MERGED:    2643780
L1D WQ FORWARD:      87269
L1I TOTAL     ACCESS:  132815545  HIT:  132815545  MISS:          0
L1I LOAD      ACCESS:  132815545  HIT:  132815545  MISS:          0
L1I RFO       ACCESS:          0  HIT:          0  MISS:          0
L1I PREFETCH  ACCESS:          0  HIT:          0  MISS:          0
L1I WRITEBACK ACCESS:          0  HIT:          0  MISS:          0
L1I PREFETCH  REQUESTED:          0  ISSUED:          0  USEFUL:          0  USELESS:          0
L1I TOTAL MSHR MERGED:          0
L1I LOAD MSHR MERGED:          0
L1I RFO MSHR MERGED:          0
L1I PREFETCH MSHR MERGED:          0
L1I WRITEBACK MSHR MERGED:          0
L1I TOTAL ACCESSES:  132815545 HITS:  132815545 MISSES:          0
L1I LOAD ACCESSES:  132815545 HITS:  132815545 MISSES:          0
L1I RFO ACCESSES:          0 HITS:          0 MISSES:          0
L1I PREFETCH ACCESSES:          0 HITS:          0 MISSES:          0
L1I WRITEBACK ACCESSES:          0 HITS:          0 MISSES:          0
L1I RQ ACCESS:  499999980
L1I RQ TO_CACHE:  132815545
L1I RQ MERGED:  367184435
L1I RQ FORWARD:          0
L1I WQ ACCESS:          0
L1I WQ TO_CACHE:          0
L1I WQ MERGED:          0
L1I WQ FORWARD:          0
L2C TOTAL     ACCESS:   39594837  HIT:   20625478  MISS:   18969359
L2C LOAD      ACCESS:   16942903  HIT:    8567561  MISS:    8375342
L2C RFO       ACCESS:    2311289  HIT:     630833  MISS:    1680456
L2C PREFETCH  ACCESS:   17118209  HIT:    8208397  MISS:    8909812
L2C WRITEBACK ACCESS:    3222436  HIT:    3218687  MISS:       3749
L2C PREFETCH  REQUESTED:    2868840  ISSUED:    2868840  USEFUL:    1307081  USELESS:    7602475
L2C TOTAL MSHR MERGED:     528760
L2C LOAD MSHR MERGED:      86541
L2C RFO MSHR MERGED:          0
L2C PREFETCH MSHR MERGED:     442219
L2C WRITEBACK MSHR MERGED:          0
L2C TOTAL ACCESSES:   40229940 HITS:   20625638 MISSES:   19604302
L2C LOAD ACCESSES:   16942965 HITS:    8567623 MISSES:    8375342
L2C RFO ACCESSES:    2311337 HITS:     630881 MISSES:    1680456
L2C PREFETCH ACCESSES:   17753202 HITS:    8208447 MISSES:    9544755
L2C WRITEBACK ACCESSES:    3222436 HITS:    3218687 MISSES:       3749
L2C RQ ACCESS:   19254302
L2C RQ TO_CACHE:   19254192
L2C RQ MERGED:          0
L2C RQ FORWARD:          0
L2C WQ ACCESS:    3222436
L2C WQ TO_CACHE:    3222436
L2C WQ MERGED:          0
L2C WQ FORWARD:        160
LLC TOTAL     ACCESS:   21194599  HIT:   14136847  MISS:    7057752
LLC LOAD      ACCESS:    8288772  HIT:    5731703  MISS:    2557069
LLC RFO       ACCESS:    1680375  HIT:    1648299  MISS:      32076
LLC PREFETCH  ACCESS:    9049790  HIT:    4616438  MISS:    4433352
LLC WRITEBACK ACCESS:    2175662  HIT:    2140407  MISS:      35255
LLC PREFETCH  REQUESTED:          0  ISSUED:          0  USEFUL:     201743  USELESS:    4234102
LLC TOTAL MSHR MERGED:      44561
LLC LOAD MSHR MERGED:      13842
LLC RFO MSHR MERGED:          0
LLC PREFETCH MSHR MERGED:      30719
LLC WRITEBACK MSHR MERGED:          0
LLC TOTAL ACCESSES:   21239300 HITS:   14136985 MISSES:    7102315
LLC LOAD ACCESSES:    8288801 HITS:    5731732 MISSES:    2557069
LLC RFO ACCESSES:    1680456 HITS:    1648380 MISSES:      32076
LLC PREFETCH ACCESSES:    9094381 HITS:    4616466 MISSES:    4477915
LLC WRITEBACK ACCESSES:    2175662 HITS:    2140407 MISSES:      35255
LLC 0 RQ ACCESS:    9969257
LLC 0 RQ TO_CACHE:    9969147
LLC 0 RQ MERGED:          0
LLC 0 RQ FORWARD:          0
LLC WQ ACCESS:    2175663
LLC WQ TO_CACHE:    2175663
LLC WQ MERGED:          0
LLC WQ FORWARD:        138
Major fault: 0 Minor fault: 56391
CPU 0 L1D next line prefetcher final stats
CPU 0 L2C PC-based stride prefetcher final stats
All Misses: 8293097
All Hits: 16278345
SD Algo Stats - Switches: 0 SRR-Repls: 2681052 BRR-Repls: 0

DRAM Statistics
 CHANNEL 0
 RQ ROW_BUFFER_HIT:    4611641  ROW_BUFFER_MISS:    2378505
 DBUS_CONGESTED:    3303565
 WQ ROW_BUFFER_HIT:       4167  ROW_BUFFER_MISS:      73903  FULL:          0

 AVG_CONGESTED_CYCLE: 12
LOADS RETIRED: 173631671
INSTR RETIRED: 500000000
