
*** ChampSim Multicore Out-of-Order Simulator ***

Warmup Instructions: 100000000
Simulation Instructions: 500000000
Number of CPUs: 1
LLC sets: 2048
LLC ways: 16
Clean RRIP Policies: 2203230122032301 Dirty RRIP Policies: 1203031112030311 PSEL Width: 10 Track Set: 4294967295 PSEL Mask: 1 Demote Mask: 2102011121020111DS Algo: 0Window size: 0
Off-chip DRAM Size: 4096 MB Channels: 1 Width: 64-bit Data Rate: 1600 MT/s

CPU 0 runs /mnt/beegfs/iconst01/spec2017/Lbm.trace.gz
NOT SORTED
TRACE STRING: /mnt/beegfs/iconst01/spec2017/Lbm.trace.gz
SORTED
TRACE STRING: /mnt/beegfs/iconst01/spec2017/Lbm.trace.gz
INITIAL
TRACE STRING: /mnt/beegfs/iconst01/spec2017/Lbm.trace.gz

champsim_seed used: 283

CPU 0 L1D next line prefetcher
CPU 0 L2C IP-based stride prefetcher
Initialize DRRIP state
Assign rand_sets[0]: 454  LLC: 2048
rand_sets[0]: 454
Assign rand_sets[1]: 1662  LLC: 2048
rand_sets[1]: 1662
Assign rand_sets[2]: 1921  LLC: 2048
rand_sets[2]: 1921
Assign rand_sets[3]: 1131  LLC: 2048
rand_sets[3]: 1131
Assign rand_sets[4]: 331  LLC: 2048
rand_sets[4]: 331
Assign rand_sets[5]: 1531  LLC: 2048
rand_sets[5]: 1531
Assign rand_sets[6]: 482  LLC: 2048
rand_sets[6]: 482
Assign rand_sets[7]: 1275  LLC: 2048
rand_sets[7]: 1275
Assign rand_sets[8]: 1876  LLC: 2048
rand_sets[8]: 1876
Assign rand_sets[9]: 2038  LLC: 2048
rand_sets[9]: 2038
Assign rand_sets[10]: 701  LLC: 2048
rand_sets[10]: 701
Assign rand_sets[11]: 479  LLC: 2048
rand_sets[11]: 479
Assign rand_sets[12]: 892  LLC: 2048
rand_sets[12]: 892
Assign rand_sets[13]: 1820  LLC: 2048
rand_sets[13]: 1820
Assign rand_sets[14]: 1505  LLC: 2048
rand_sets[14]: 1505
Assign rand_sets[15]: 1159  LLC: 2048
rand_sets[15]: 1159
Assign rand_sets[16]: 513  LLC: 2048
rand_sets[16]: 513
Assign rand_sets[17]: 703  LLC: 2048
rand_sets[17]: 703
Assign rand_sets[18]: 561  LLC: 2048
rand_sets[18]: 561
Assign rand_sets[19]: 990  LLC: 2048
rand_sets[19]: 990
Assign rand_sets[20]: 342  LLC: 2048
rand_sets[20]: 342
Assign rand_sets[21]: 882  LLC: 2048
rand_sets[21]: 882
Assign rand_sets[22]: 15  LLC: 2048
rand_sets[22]: 15
Assign rand_sets[23]: 71  LLC: 2048
rand_sets[23]: 71
Assign rand_sets[24]: 1127  LLC: 2048
rand_sets[24]: 1127
Assign rand_sets[25]: 1382  LLC: 2048
rand_sets[25]: 1382
Assign rand_sets[26]: 647  LLC: 2048
rand_sets[26]: 647
Assign rand_sets[27]: 857  LLC: 2048
rand_sets[27]: 857
Assign rand_sets[28]: 1450  LLC: 2048
rand_sets[28]: 1450
Assign rand_sets[29]: 1160  LLC: 2048
rand_sets[29]: 1160
Assign rand_sets[30]: 1852  LLC: 2048
rand_sets[30]: 1852
Assign rand_sets[31]: 1881  LLC: 2048
rand_sets[31]: 1881
Assign rand_sets[32]: 1770  LLC: 2048
rand_sets[32]: 1770
Assign rand_sets[33]: 1622  LLC: 2048
rand_sets[33]: 1622
Assign rand_sets[34]: 275  LLC: 2048
rand_sets[34]: 275
Assign rand_sets[35]: 635  LLC: 2048
rand_sets[35]: 635
Assign rand_sets[36]: 466  LLC: 2048
rand_sets[36]: 466
Assign rand_sets[37]: 1413  LLC: 2048
rand_sets[37]: 1413
Assign rand_sets[38]: 417  LLC: 2048
rand_sets[38]: 417
Assign rand_sets[39]: 472  LLC: 2048
rand_sets[39]: 472
Assign rand_sets[40]: 1340  LLC: 2048
rand_sets[40]: 1340
Assign rand_sets[41]: 852  LLC: 2048
rand_sets[41]: 852
Assign rand_sets[42]: 1365  LLC: 2048
rand_sets[42]: 1365
Assign rand_sets[43]: 47  LLC: 2048
rand_sets[43]: 47
Assign rand_sets[44]: 823  LLC: 2048
rand_sets[44]: 823
Assign rand_sets[45]: 686  LLC: 2048
rand_sets[45]: 686
Assign rand_sets[46]: 1637  LLC: 2048
rand_sets[46]: 1637
Assign rand_sets[47]: 1115  LLC: 2048
rand_sets[47]: 1115
Assign rand_sets[48]: 986  LLC: 2048
rand_sets[48]: 986
Assign rand_sets[49]: 258  LLC: 2048
rand_sets[49]: 258
Assign rand_sets[50]: 633  LLC: 2048
rand_sets[50]: 633
Assign rand_sets[51]: 920  LLC: 2048
rand_sets[51]: 920
Assign rand_sets[52]: 204  LLC: 2048
rand_sets[52]: 204
Assign rand_sets[53]: 227  LLC: 2048
rand_sets[53]: 227
Assign rand_sets[54]: 1818  LLC: 2048
rand_sets[54]: 1818
Assign rand_sets[55]: 886  LLC: 2048
rand_sets[55]: 886
Assign rand_sets[56]: 1422  LLC: 2048
rand_sets[56]: 1422
Assign rand_sets[57]: 607  LLC: 2048
rand_sets[57]: 607
Assign rand_sets[58]: 217  LLC: 2048
rand_sets[58]: 217
Assign rand_sets[59]: 1945  LLC: 2048
rand_sets[59]: 1945
Assign rand_sets[60]: 143  LLC: 2048
rand_sets[60]: 143
Assign rand_sets[61]: 1311  LLC: 2048
rand_sets[61]: 1311
Assign rand_sets[62]: 319  LLC: 2048
rand_sets[62]: 319
Assign rand_sets[63]: 1846  LLC: 2048
rand_sets[63]: 1846
 CLEAN-RRIP-POLICY-1: 2-2-0-3-2-3-0-1- CLEAN-RRIP-POLICY-2: 2-2-0-3-2-3-0-1-
 DIRTY-RRIP-POLICY-1: 1-2-0-3-0-3-1-1- DIRTY-RRIP-POLICY-2: 1-2-0-3-0-3-1-1-
 PSEL width: 10
Heartbeat CPU 0 instructions: 10000000 cycles: 4321562 heartbeat IPC: 2.31398 cumulative IPC: 2.31398 (Simulation time: 0 hr 0 min 18 sec) 
Heartbeat CPU 0 instructions: 20000000 cycles: 8643679 heartbeat IPC: 2.31368 cumulative IPC: 2.31383 (Simulation time: 0 hr 0 min 37 sec) 
Heartbeat CPU 0 instructions: 30000000 cycles: 12965533 heartbeat IPC: 2.31382 cumulative IPC: 2.31383 (Simulation time: 0 hr 0 min 55 sec) 
Heartbeat CPU 0 instructions: 40000000 cycles: 17291448 heartbeat IPC: 2.31165 cumulative IPC: 2.31328 (Simulation time: 0 hr 1 min 13 sec) 
Heartbeat CPU 0 instructions: 50000000 cycles: 21613404 heartbeat IPC: 2.31377 cumulative IPC: 2.31338 (Simulation time: 0 hr 1 min 32 sec) 
Heartbeat CPU 0 instructions: 60000000 cycles: 25935369 heartbeat IPC: 2.31376 cumulative IPC: 2.31344 (Simulation time: 0 hr 1 min 50 sec) 
Heartbeat CPU 0 instructions: 70000000 cycles: 30256937 heartbeat IPC: 2.31397 cumulative IPC: 2.31352 (Simulation time: 0 hr 2 min 9 sec) 
Heartbeat CPU 0 instructions: 80000000 cycles: 34583216 heartbeat IPC: 2.31146 cumulative IPC: 2.31326 (Simulation time: 0 hr 2 min 28 sec) 
Heartbeat CPU 0 instructions: 90000003 cycles: 38905354 heartbeat IPC: 2.31367 cumulative IPC: 2.31331 (Simulation time: 0 hr 2 min 47 sec) 
Heartbeat CPU 0 instructions: 100000000 cycles: 43226936 heartbeat IPC: 2.31397 cumulative IPC: 2.31337 (Simulation time: 0 hr 3 min 5 sec) 

Warmup complete CPU 0 instructions: 100000001 cycles: 43226937 (Simulation time: 0 hr 3 min 5 sec) 

Heartbeat CPU 0 instructions: 110000000 cycles: 58027785 heartbeat IPC: 0.675637 cumulative IPC: 0.675637 (Simulation time: 0 hr 3 min 32 sec) 
Heartbeat CPU 0 instructions: 120000000 cycles: 72876464 heartbeat IPC: 0.673461 cumulative IPC: 0.674547 (Simulation time: 0 hr 3 min 59 sec) 
Heartbeat CPU 0 instructions: 130000000 cycles: 87562939 heartbeat IPC: 0.680899 cumulative IPC: 0.676651 (Simulation time: 0 hr 4 min 27 sec) 
Heartbeat CPU 0 instructions: 140000000 cycles: 102163755 heartbeat IPC: 0.684893 cumulative IPC: 0.678693 (Simulation time: 0 hr 4 min 54 sec) 
Heartbeat CPU 0 instructions: 150000003 cycles: 116475220 heartbeat IPC: 0.698741 cumulative IPC: 0.68261 (Simulation time: 0 hr 5 min 20 sec) 
Heartbeat CPU 0 instructions: 160000000 cycles: 130573557 heartbeat IPC: 0.709303 cumulative IPC: 0.686918 (Simulation time: 0 hr 5 min 47 sec) 
Heartbeat CPU 0 instructions: 170000002 cycles: 145359939 heartbeat IPC: 0.676298 cumulative IPC: 0.685381 (Simulation time: 0 hr 6 min 14 sec) 
Heartbeat CPU 0 instructions: 180000000 cycles: 159802459 heartbeat IPC: 0.6924 cumulative IPC: 0.68625 (Simulation time: 0 hr 6 min 41 sec) 
Heartbeat CPU 0 instructions: 190000003 cycles: 177523357 heartbeat IPC: 0.564306 cumulative IPC: 0.670159 (Simulation time: 0 hr 7 min 12 sec) 
Heartbeat CPU 0 instructions: 200000000 cycles: 198575904 heartbeat IPC: 0.475002 cumulative IPC: 0.643712 (Simulation time: 0 hr 7 min 45 sec) 
Heartbeat CPU 0 instructions: 210000001 cycles: 212987522 heartbeat IPC: 0.693885 cumulative IPC: 0.647971 (Simulation time: 0 hr 8 min 12 sec) 
Heartbeat CPU 0 instructions: 220000000 cycles: 227518871 heartbeat IPC: 0.688167 cumulative IPC: 0.651141 (Simulation time: 0 hr 8 min 39 sec) 
Heartbeat CPU 0 instructions: 230000001 cycles: 242218182 heartbeat IPC: 0.680304 cumulative IPC: 0.653295 (Simulation time: 0 hr 9 min 6 sec) 
Heartbeat CPU 0 instructions: 240000000 cycles: 256974222 heartbeat IPC: 0.677689 cumulative IPC: 0.654979 (Simulation time: 0 hr 9 min 33 sec) 
Heartbeat CPU 0 instructions: 250000000 cycles: 272025438 heartbeat IPC: 0.664398 cumulative IPC: 0.655599 (Simulation time: 0 hr 10 min 1 sec) 
Heartbeat CPU 0 instructions: 260000000 cycles: 287112693 heartbeat IPC: 0.662811 cumulative IPC: 0.656045 (Simulation time: 0 hr 10 min 29 sec) 
Heartbeat CPU 0 instructions: 270000002 cycles: 302660298 heartbeat IPC: 0.643186 cumulative IPC: 0.655274 (Simulation time: 0 hr 10 min 57 sec) 
Heartbeat CPU 0 instructions: 280000000 cycles: 318075695 heartbeat IPC: 0.648702 cumulative IPC: 0.654906 (Simulation time: 0 hr 11 min 24 sec) 
Heartbeat CPU 0 instructions: 290000003 cycles: 334318731 heartbeat IPC: 0.615649 cumulative IPC: 0.652715 (Simulation time: 0 hr 11 min 53 sec) 
Heartbeat CPU 0 instructions: 300000000 cycles: 349802599 heartbeat IPC: 0.645833 cumulative IPC: 0.652368 (Simulation time: 0 hr 12 min 21 sec) 
Heartbeat CPU 0 instructions: 310000000 cycles: 366379552 heartbeat IPC: 0.603247 cumulative IPC: 0.649848 (Simulation time: 0 hr 12 min 49 sec) 
Heartbeat CPU 0 instructions: 320000000 cycles: 382552344 heartbeat IPC: 0.618322 cumulative IPC: 0.648345 (Simulation time: 0 hr 13 min 17 sec) 
Heartbeat CPU 0 instructions: 330000002 cycles: 398214764 heartbeat IPC: 0.638471 cumulative IPC: 0.64791 (Simulation time: 0 hr 13 min 44 sec) 
Heartbeat CPU 0 instructions: 340000000 cycles: 414734702 heartbeat IPC: 0.605329 cumulative IPC: 0.646016 (Simulation time: 0 hr 14 min 13 sec) 
Heartbeat CPU 0 instructions: 350000001 cycles: 430318628 heartbeat IPC: 0.641687 cumulative IPC: 0.645842 (Simulation time: 0 hr 14 min 40 sec) 
Heartbeat CPU 0 instructions: 360000000 cycles: 446265184 heartbeat IPC: 0.627095 cumulative IPC: 0.6451 (Simulation time: 0 hr 15 min 8 sec) 
Heartbeat CPU 0 instructions: 370000000 cycles: 461548077 heartbeat IPC: 0.654326 cumulative IPC: 0.645437 (Simulation time: 0 hr 15 min 35 sec) 
Heartbeat CPU 0 instructions: 380000000 cycles: 476999739 heartbeat IPC: 0.64718 cumulative IPC: 0.645499 (Simulation time: 0 hr 16 min 2 sec) 
Heartbeat CPU 0 instructions: 390000000 cycles: 491877350 heartbeat IPC: 0.672151 cumulative IPC: 0.646383 (Simulation time: 0 hr 16 min 28 sec) 
Heartbeat CPU 0 instructions: 400000000 cycles: 507035599 heartbeat IPC: 0.659707 cumulative IPC: 0.646818 (Simulation time: 0 hr 16 min 55 sec) 
Heartbeat CPU 0 instructions: 410000000 cycles: 521752222 heartbeat IPC: 0.679504 cumulative IPC: 0.647824 (Simulation time: 0 hr 17 min 21 sec) 
Heartbeat CPU 0 instructions: 420000000 cycles: 536420562 heartbeat IPC: 0.68174 cumulative IPC: 0.648832 (Simulation time: 0 hr 17 min 47 sec) 
Heartbeat CPU 0 instructions: 430000002 cycles: 550875213 heartbeat IPC: 0.691819 cumulative IPC: 0.650056 (Simulation time: 0 hr 18 min 12 sec) 
Heartbeat CPU 0 instructions: 440000000 cycles: 565050324 heartbeat IPC: 0.705462 cumulative IPC: 0.651561 (Simulation time: 0 hr 18 min 38 sec) 
Heartbeat CPU 0 instructions: 450000000 cycles: 579820595 heartbeat IPC: 0.677036 cumulative IPC: 0.652263 (Simulation time: 0 hr 19 min 3 sec) 
Heartbeat CPU 0 instructions: 460000000 cycles: 595038753 heartbeat IPC: 0.65711 cumulative IPC: 0.652396 (Simulation time: 0 hr 19 min 30 sec) 
Heartbeat CPU 0 instructions: 470000000 cycles: 609510958 heartbeat IPC: 0.69098 cumulative IPC: 0.653382 (Simulation time: 0 hr 19 min 55 sec) 
Heartbeat CPU 0 instructions: 480000000 cycles: 624013382 heartbeat IPC: 0.68954 cumulative IPC: 0.654285 (Simulation time: 0 hr 20 min 21 sec) 
Heartbeat CPU 0 instructions: 490000001 cycles: 638876871 heartbeat IPC: 0.67279 cumulative IPC: 0.654747 (Simulation time: 0 hr 20 min 47 sec) 
Heartbeat CPU 0 instructions: 500000000 cycles: 653423130 heartbeat IPC: 0.687462 cumulative IPC: 0.655527 (Simulation time: 0 hr 21 min 12 sec) 
Heartbeat CPU 0 instructions: 510000002 cycles: 667805352 heartbeat IPC: 0.695303 cumulative IPC: 0.656443 (Simulation time: 0 hr 21 min 38 sec) 
Heartbeat CPU 0 instructions: 520000000 cycles: 682073561 heartbeat IPC: 0.700859 cumulative IPC: 0.657435 (Simulation time: 0 hr 22 min 3 sec) 
Heartbeat CPU 0 instructions: 530000001 cycles: 696512379 heartbeat IPC: 0.692578 cumulative IPC: 0.658212 (Simulation time: 0 hr 22 min 29 sec) 
Heartbeat CPU 0 instructions: 540000000 cycles: 711094717 heartbeat IPC: 0.685761 cumulative IPC: 0.658813 (Simulation time: 0 hr 22 min 54 sec) 
Heartbeat CPU 0 instructions: 550000003 cycles: 725490020 heartbeat IPC: 0.694671 cumulative IPC: 0.65957 (Simulation time: 0 hr 23 min 20 sec) 
Heartbeat CPU 0 instructions: 560000000 cycles: 740443413 heartbeat IPC: 0.668744 cumulative IPC: 0.659766 (Simulation time: 0 hr 23 min 46 sec) 
Heartbeat CPU 0 instructions: 570000001 cycles: 755169657 heartbeat IPC: 0.67906 cumulative IPC: 0.660165 (Simulation time: 0 hr 24 min 12 sec) 
Heartbeat CPU 0 instructions: 580000000 cycles: 769286640 heartbeat IPC: 0.708367 cumulative IPC: 0.661103 (Simulation time: 0 hr 24 min 37 sec) 
Heartbeat CPU 0 instructions: 590000003 cycles: 782997992 heartbeat IPC: 0.729323 cumulative IPC: 0.662367 (Simulation time: 0 hr 25 min 2 sec) 
Heartbeat CPU 0 instructions: 600000000 cycles: 797603709 heartbeat IPC: 0.684663 cumulative IPC: 0.662799 (Simulation time: 0 hr 25 min 28 sec) 
Finished CPU 0 instructions: 500000000 cycles: 754376780 cumulative IPC: 0.662799 (Simulation time: 0 hr 25 min 28 sec) 

CPU 0 Branch Prediction Accuracy: 99.5915% MPKI: 0.037126
Number of Branches: 4544106 Number of Mispredictions: 18563
Number of LOAD Instructions: 149787067
Number of LOAD Instructions (ROI): 149787067
Number of STORE Instructions: 77239062
Number of STORE Instructions (ROI): 77239062
Total Destination Memory Operands: 77239062
Total Destination Memory Operands (ROI): 77239062
Total Source Memory Operands: 149787067
Total Source Memory Operands (ROI): 149787067
Number of DEPENDED LOADS: 19252468
Number of DEPENDED LOADS (ROI): 19252468
Number of SQ_ADDED: 77239036
Number of SQ_ADDED (ROI): 77239036
Number of LQ_ADDED: 149787020
Number of LQ_ADDED (ROI): 149787020
Number of Instructions read from trace: 600000256

ChampSim completed all CPUs

Region of Interest Statistics

CPU 0 cumulative IPC: 0.662799 instructions: 500000000 cycles: 754376780
ITLB TOTAL     ACCESS:   86441904  HIT:   86441903  MISS:          1
ITLB LOAD      ACCESS:   86441904  HIT:   86441903  MISS:          1
ITLB RFO       ACCESS:          0  HIT:          0  MISS:          0
ITLB PREFETCH  ACCESS:          0  HIT:          0  MISS:          0
ITLB WRITEBACK ACCESS:          0  HIT:          0  MISS:          0
ITLB PREFETCH  REQUESTED:          0  ISSUED:          0  USEFUL:          0  USELESS:          0
ITLB TOTAL MSHR MERGED:          1
ITLB LOAD MSHR MERGED:          1
ITLB RFO MSHR MERGED:          0
ITLB PREFETCH MSHR MERGED:          0
ITLB WRITEBACK MSHR MERGED:          0
ITLB TOTAL ACCESSES:   86441905 HITS:   86441903 MISSES:          2
ITLB LOAD ACCESSES:   86441905 HITS:   86441903 MISSES:          2
ITLB RFO ACCESSES:          0 HITS:          0 MISSES:          0
ITLB PREFETCH ACCESSES:          0 HITS:          0 MISSES:          0
ITLB WRITEBACK ACCESSES:          0 HITS:          0 MISSES:          0
ITLB RQ ACCESS:  500000002
ITLB RQ TO_CACHE:   86441905
ITLB RQ MERGED:  413558097
ITLB RQ FORWARD:          0
ITLB WQ ACCESS:          0
ITLB WQ TO_CACHE:          0
ITLB WQ MERGED:          0
ITLB WQ FORWARD:          0
DTLB TOTAL     ACCESS:   98096334  HIT:   97911073  MISS:     185261
DTLB LOAD      ACCESS:   55036880  HIT:   54990569  MISS:      46311
DTLB RFO       ACCESS:   43059454  HIT:   42920504  MISS:     138950
DTLB PREFETCH  ACCESS:          0  HIT:          0  MISS:          0
DTLB WRITEBACK ACCESS:          0  HIT:          0  MISS:          0
DTLB PREFETCH  REQUESTED:          0  ISSUED:          0  USEFUL:          0  USELESS:          0
DTLB TOTAL MSHR MERGED:      83571
DTLB LOAD MSHR MERGED:      83566
DTLB RFO MSHR MERGED:          5
DTLB PREFETCH MSHR MERGED:          0
DTLB WRITEBACK MSHR MERGED:          0
DTLB TOTAL ACCESSES:   98179905 HITS:   97911073 MISSES:     268832
DTLB LOAD ACCESSES:   55120446 HITS:   54990569 MISSES:     129877
DTLB RFO ACCESSES:   43059459 HITS:   42920504 MISSES:     138955
DTLB PREFETCH ACCESSES:          0 HITS:          0 MISSES:          0
DTLB WRITEBACK ACCESSES:          0 HITS:          0 MISSES:          0
DTLB RQ ACCESS:  173630059
DTLB RQ TO_CACHE:   98179905
DTLB RQ MERGED:   75450154
DTLB RQ FORWARD:          0
DTLB WQ ACCESS:          0
DTLB WQ TO_CACHE:          0
DTLB WQ MERGED:          0
DTLB WQ FORWARD:          0
L1D TOTAL     ACCESS:  164458498  HIT:  144885952  MISS:   19572546
L1D LOAD      ACCESS:   60447778  HIT:   58595911  MISS:    1851867
L1D RFO       ACCESS:   64512492  HIT:   47910375  MISS:   16602117
L1D PREFETCH  ACCESS:   39498228  HIT:   38379666  MISS:    1118562
L1D WRITEBACK ACCESS:          0  HIT:          0  MISS:          0
L1D PREFETCH  REQUESTED:   61576354  ISSUED:   61285173  USEFUL:    1116645  USELESS:       1917
L1D TOTAL MSHR MERGED:    3459336
L1D LOAD MSHR MERGED:    1198475
L1D RFO MSHR MERGED:      11247
L1D PREFETCH MSHR MERGED:    2249614
L1D WRITEBACK MSHR MERGED:          0
L1D TOTAL ACCESSES:  168510337 HITS:  145478456 MISSES:   23031881
L1D LOAD ACCESSES:   61862549 HITS:   58882106 MISSES:    2980443
L1D RFO ACCESSES:   64523691 HITS:   47910375 MISSES:   16613316
L1D PREFETCH ACCESSES:   42124097 HITS:   38685975 MISSES:    3438122
L1D WRITEBACK ACCESSES:          0 HITS:          0 MISSES:          0
L1D RQ ACCESS:  109088744
L1D RQ TO_CACHE:   61576354
L1D RQ MERGED:   47226195
L1D RQ FORWARD:          0
L1D WQ ACCESS:   64541313
L1D WQ TO_CACHE:   64523692
L1D WQ MERGED:      17621
L1D WQ FORWARD:     592504
L1I TOTAL     ACCESS:  107750623  HIT:  107750615  MISS:          8
L1I LOAD      ACCESS:  107750623  HIT:  107750615  MISS:          8
L1I RFO       ACCESS:          0  HIT:          0  MISS:          0
L1I PREFETCH  ACCESS:          0  HIT:          0  MISS:          0
L1I WRITEBACK ACCESS:          0  HIT:          0  MISS:          0
L1I PREFETCH  REQUESTED:          0  ISSUED:          0  USEFUL:          0  USELESS:          0
L1I TOTAL MSHR MERGED:          3
L1I LOAD MSHR MERGED:          3
L1I RFO MSHR MERGED:          0
L1I PREFETCH MSHR MERGED:          0
L1I WRITEBACK MSHR MERGED:          0
L1I TOTAL ACCESSES:  107750626 HITS:  107750615 MISSES:         11
L1I LOAD ACCESSES:  107750626 HITS:  107750615 MISSES:         11
L1I RFO ACCESSES:          0 HITS:          0 MISSES:          0
L1I PREFETCH ACCESSES:          0 HITS:          0 MISSES:          0
L1I WRITEBACK ACCESSES:          0 HITS:          0 MISSES:          0
L1I RQ ACCESS:  500000007
L1I RQ TO_CACHE:  107750626
L1I RQ MERGED:  392249381
L1I RQ FORWARD:          0
L1I WQ ACCESS:          0
L1I WQ TO_CACHE:          0
L1I WQ MERGED:          0
L1I WQ FORWARD:          0
L2C TOTAL     ACCESS:   36778075  HIT:   24820498  MISS:   11957577
L2C LOAD      ACCESS:    1781976  HIT:     244761  MISS:    1537215
L2C RFO       ACCESS:   16602066  HIT:    7610696  MISS:    8991370
L2C PREFETCH  ACCESS:    1791853  HIT:     364087  MISS:    1427766
L2C WRITEBACK ACCESS:   16602180  HIT:   16600954  MISS:       1226
L2C PREFETCH  REQUESTED:     816059  ISSUED:     816059  USEFUL:     242430  USELESS:    1185617
L2C TOTAL MSHR MERGED:       2438
L2C LOAD MSHR MERGED:        586
L2C RFO MSHR MERGED:          0
L2C PREFETCH MSHR MERGED:       1852
L2C WRITEBACK MSHR MERGED:          0
L2C TOTAL ACCESSES:   36990727 HITS:   24820502 MISSES:   12170225
L2C LOAD ACCESSES:    1781976 HITS:     244761 MISSES:    1537215
L2C RFO ACCESSES:   16602069 HITS:    7610700 MISSES:    8991369
L2C PREFETCH ACCESSES:    2004502 HITS:     364087 MISSES:    1640415
L2C WRITEBACK ACCESSES:   16602180 HITS:   16600954 MISSES:       1226
L2C RQ ACCESS:   18384045
L2C RQ TO_CACHE:   18384041
L2C RQ MERGED:          0
L2C RQ FORWARD:          0
L2C WQ ACCESS:   16602180
L2C WQ TO_CACHE:   16602180
L2C WQ MERGED:          0
L2C WQ FORWARD:          4
LLC TOTAL     ACCESS:   21155290  HIT:     547967  MISS:   20607323
LLC LOAD      ACCESS:    1536629  HIT:      76247  MISS:    1460382
LLC RFO       ACCESS:    8991350  HIT:     106493  MISS:    8884857
LLC PREFETCH  ACCESS:    1635117  HIT:     130521  MISS:    1504596
LLC WRITEBACK ACCESS:    8992194  HIT:     234706  MISS:    8757488
LLC PREFETCH  REQUESTED:          0  ISSUED:          0  USEFUL:      75773  USELESS:    1427944
LLC TOTAL MSHR MERGED:       3057
LLC LOAD MSHR MERGED:        283
LLC RFO MSHR MERGED:          0
LLC PREFETCH MSHR MERGED:       2774
LLC WRITEBACK MSHR MERGED:          0
LLC TOTAL ACCESSES:   21158366 HITS:     547987 MISSES:   20610379
LLC LOAD ACCESSES:    1536629 HITS:      76247 MISSES:    1460382
LLC RFO ACCESSES:    8991369 HITS:     106513 MISSES:    8884856
LLC PREFETCH ACCESSES:    1638174 HITS:     130521 MISSES:    1507653
LLC WRITEBACK ACCESSES:    8992194 HITS:     234706 MISSES:    8757488
LLC 0 RQ ACCESS:   10527998
LLC 0 RQ TO_CACHE:   10527978
LLC 0 RQ MERGED:          0
LLC 0 RQ FORWARD:          0
LLC WQ ACCESS:    8992194
LLC WQ TO_CACHE:    8992194
LLC WQ MERGED:          0
LLC WQ FORWARD:         20
Major fault: 0 Minor fault: 102360
CPU 0 L1D next line prefetcher final stats
CPU 0 L2C PC-based stride prefetcher final stats
All Misses: 24503770
All Hits: 627031
SD Algo Stats - Switches: 0 SRR-Repls: 1638959 BRR-Repls: 0

DRAM Statistics
 CHANNEL 0
 RQ ROW_BUFFER_HIT:    3719696  ROW_BUFFER_MISS:    8130065
 DBUS_CONGESTED:   14325452
 WQ ROW_BUFFER_HIT:    1040496  ROW_BUFFER_MISS:    7841631  FULL:          0

 AVG_CONGESTED_CYCLE: 13
LOADS RETIRED: 124982196
INSTR RETIRED: 500000000
