
*** ChampSim Multicore Out-of-Order Simulator ***

Warmup Instructions: 100000000
Simulation Instructions: 500000000
Number of CPUs: 1
LLC sets: 2048
LLC ways: 16
Clean RRIP Policies: 2203230122032301 Dirty RRIP Policies: 1203031112030311 PSEL Width: 10 Track Set: 4294967295 PSEL Mask: 1 Demote Mask: 2102011121020111DS Algo: 0Window size: 0
Off-chip DRAM Size: 4096 MB Channels: 1 Width: 64-bit Data Rate: 1600 MT/s

CPU 0 runs /mnt/beegfs/iconst01/spec2017/Mcf.trace.gz
NOT SORTED
TRACE STRING: /mnt/beegfs/iconst01/spec2017/Mcf.trace.gz
SORTED
TRACE STRING: /mnt/beegfs/iconst01/spec2017/Mcf.trace.gz
INITIAL
TRACE STRING: /mnt/beegfs/iconst01/spec2017/Mcf.trace.gz

champsim_seed used: 278

CPU 0 L1D next line prefetcher
CPU 0 L2C IP-based stride prefetcher
Initialize DRRIP state
Assign rand_sets[0]: 454  LLC: 2048
rand_sets[0]: 454
Assign rand_sets[1]: 1662  LLC: 2048
rand_sets[1]: 1662
Assign rand_sets[2]: 1921  LLC: 2048
rand_sets[2]: 1921
Assign rand_sets[3]: 1131  LLC: 2048
rand_sets[3]: 1131
Assign rand_sets[4]: 331  LLC: 2048
rand_sets[4]: 331
Assign rand_sets[5]: 1531  LLC: 2048
rand_sets[5]: 1531
Assign rand_sets[6]: 482  LLC: 2048
rand_sets[6]: 482
Assign rand_sets[7]: 1275  LLC: 2048
rand_sets[7]: 1275
Assign rand_sets[8]: 1876  LLC: 2048
rand_sets[8]: 1876
Assign rand_sets[9]: 2038  LLC: 2048
rand_sets[9]: 2038
Assign rand_sets[10]: 701  LLC: 2048
rand_sets[10]: 701
Assign rand_sets[11]: 479  LLC: 2048
rand_sets[11]: 479
Assign rand_sets[12]: 892  LLC: 2048
rand_sets[12]: 892
Assign rand_sets[13]: 1820  LLC: 2048
rand_sets[13]: 1820
Assign rand_sets[14]: 1505  LLC: 2048
rand_sets[14]: 1505
Assign rand_sets[15]: 1159  LLC: 2048
rand_sets[15]: 1159
Assign rand_sets[16]: 513  LLC: 2048
rand_sets[16]: 513
Assign rand_sets[17]: 703  LLC: 2048
rand_sets[17]: 703
Assign rand_sets[18]: 561  LLC: 2048
rand_sets[18]: 561
Assign rand_sets[19]: 990  LLC: 2048
rand_sets[19]: 990
Assign rand_sets[20]: 342  LLC: 2048
rand_sets[20]: 342
Assign rand_sets[21]: 882  LLC: 2048
rand_sets[21]: 882
Assign rand_sets[22]: 15  LLC: 2048
rand_sets[22]: 15
Assign rand_sets[23]: 71  LLC: 2048
rand_sets[23]: 71
Assign rand_sets[24]: 1127  LLC: 2048
rand_sets[24]: 1127
Assign rand_sets[25]: 1382  LLC: 2048
rand_sets[25]: 1382
Assign rand_sets[26]: 647  LLC: 2048
rand_sets[26]: 647
Assign rand_sets[27]: 857  LLC: 2048
rand_sets[27]: 857
Assign rand_sets[28]: 1450  LLC: 2048
rand_sets[28]: 1450
Assign rand_sets[29]: 1160  LLC: 2048
rand_sets[29]: 1160
Assign rand_sets[30]: 1852  LLC: 2048
rand_sets[30]: 1852
Assign rand_sets[31]: 1881  LLC: 2048
rand_sets[31]: 1881
Assign rand_sets[32]: 1770  LLC: 2048
rand_sets[32]: 1770
Assign rand_sets[33]: 1622  LLC: 2048
rand_sets[33]: 1622
Assign rand_sets[34]: 275  LLC: 2048
rand_sets[34]: 275
Assign rand_sets[35]: 635  LLC: 2048
rand_sets[35]: 635
Assign rand_sets[36]: 466  LLC: 2048
rand_sets[36]: 466
Assign rand_sets[37]: 1413  LLC: 2048
rand_sets[37]: 1413
Assign rand_sets[38]: 417  LLC: 2048
rand_sets[38]: 417
Assign rand_sets[39]: 472  LLC: 2048
rand_sets[39]: 472
Assign rand_sets[40]: 1340  LLC: 2048
rand_sets[40]: 1340
Assign rand_sets[41]: 852  LLC: 2048
rand_sets[41]: 852
Assign rand_sets[42]: 1365  LLC: 2048
rand_sets[42]: 1365
Assign rand_sets[43]: 47  LLC: 2048
rand_sets[43]: 47
Assign rand_sets[44]: 823  LLC: 2048
rand_sets[44]: 823
Assign rand_sets[45]: 686  LLC: 2048
rand_sets[45]: 686
Assign rand_sets[46]: 1637  LLC: 2048
rand_sets[46]: 1637
Assign rand_sets[47]: 1115  LLC: 2048
rand_sets[47]: 1115
Assign rand_sets[48]: 986  LLC: 2048
rand_sets[48]: 986
Assign rand_sets[49]: 258  LLC: 2048
rand_sets[49]: 258
Assign rand_sets[50]: 633  LLC: 2048
rand_sets[50]: 633
Assign rand_sets[51]: 920  LLC: 2048
rand_sets[51]: 920
Assign rand_sets[52]: 204  LLC: 2048
rand_sets[52]: 204
Assign rand_sets[53]: 227  LLC: 2048
rand_sets[53]: 227
Assign rand_sets[54]: 1818  LLC: 2048
rand_sets[54]: 1818
Assign rand_sets[55]: 886  LLC: 2048
rand_sets[55]: 886
Assign rand_sets[56]: 1422  LLC: 2048
rand_sets[56]: 1422
Assign rand_sets[57]: 607  LLC: 2048
rand_sets[57]: 607
Assign rand_sets[58]: 217  LLC: 2048
rand_sets[58]: 217
Assign rand_sets[59]: 1945  LLC: 2048
rand_sets[59]: 1945
Assign rand_sets[60]: 143  LLC: 2048
rand_sets[60]: 143
Assign rand_sets[61]: 1311  LLC: 2048
rand_sets[61]: 1311
Assign rand_sets[62]: 319  LLC: 2048
rand_sets[62]: 319
Assign rand_sets[63]: 1846  LLC: 2048
rand_sets[63]: 1846
 CLEAN-RRIP-POLICY-1: 2-2-0-3-2-3-0-1- CLEAN-RRIP-POLICY-2: 2-2-0-3-2-3-0-1-
 DIRTY-RRIP-POLICY-1: 1-2-0-3-0-3-1-1- DIRTY-RRIP-POLICY-2: 1-2-0-3-0-3-1-1-
 PSEL width: 10
Heartbeat CPU 0 instructions: 10000002 cycles: 6248458 heartbeat IPC: 1.6004 cumulative IPC: 1.6004 (Simulation time: 0 hr 0 min 13 sec) 
Heartbeat CPU 0 instructions: 20000000 cycles: 12469172 heartbeat IPC: 1.60753 cumulative IPC: 1.60396 (Simulation time: 0 hr 0 min 26 sec) 
Heartbeat CPU 0 instructions: 30000000 cycles: 18679483 heartbeat IPC: 1.61023 cumulative IPC: 1.60604 (Simulation time: 0 hr 0 min 39 sec) 
Heartbeat CPU 0 instructions: 40000000 cycles: 24890189 heartbeat IPC: 1.61012 cumulative IPC: 1.60706 (Simulation time: 0 hr 0 min 52 sec) 
Heartbeat CPU 0 instructions: 50000003 cycles: 31102597 heartbeat IPC: 1.60968 cumulative IPC: 1.60758 (Simulation time: 0 hr 1 min 5 sec) 
Heartbeat CPU 0 instructions: 60000000 cycles: 37298824 heartbeat IPC: 1.61388 cumulative IPC: 1.60863 (Simulation time: 0 hr 1 min 18 sec) 
Heartbeat CPU 0 instructions: 70000003 cycles: 43517252 heartbeat IPC: 1.60812 cumulative IPC: 1.60856 (Simulation time: 0 hr 1 min 31 sec) 
Heartbeat CPU 0 instructions: 80000000 cycles: 49747794 heartbeat IPC: 1.605 cumulative IPC: 1.60811 (Simulation time: 0 hr 1 min 44 sec) 
Heartbeat CPU 0 instructions: 90000000 cycles: 55976798 heartbeat IPC: 1.60539 cumulative IPC: 1.60781 (Simulation time: 0 hr 1 min 57 sec) 
Heartbeat CPU 0 instructions: 100000000 cycles: 62195828 heartbeat IPC: 1.60797 cumulative IPC: 1.60782 (Simulation time: 0 hr 2 min 11 sec) 

Warmup complete CPU 0 instructions: 100000001 cycles: 62195829 (Simulation time: 0 hr 2 min 11 sec) 

Heartbeat CPU 0 instructions: 110000000 cycles: 86864568 heartbeat IPC: 0.405371 cumulative IPC: 0.405371 (Simulation time: 0 hr 2 min 35 sec) 
Heartbeat CPU 0 instructions: 120000000 cycles: 111692283 heartbeat IPC: 0.402776 cumulative IPC: 0.404069 (Simulation time: 0 hr 3 min 0 sec) 
Heartbeat CPU 0 instructions: 130000000 cycles: 136568687 heartbeat IPC: 0.401987 cumulative IPC: 0.403373 (Simulation time: 0 hr 3 min 25 sec) 
Heartbeat CPU 0 instructions: 140000000 cycles: 161391199 heartbeat IPC: 0.40286 cumulative IPC: 0.403245 (Simulation time: 0 hr 3 min 50 sec) 
Heartbeat CPU 0 instructions: 150000003 cycles: 186115232 heartbeat IPC: 0.404465 cumulative IPC: 0.403488 (Simulation time: 0 hr 4 min 16 sec) 
Heartbeat CPU 0 instructions: 160000000 cycles: 211098800 heartbeat IPC: 0.400263 cumulative IPC: 0.402947 (Simulation time: 0 hr 4 min 41 sec) 
Heartbeat CPU 0 instructions: 170000001 cycles: 235921284 heartbeat IPC: 0.402861 cumulative IPC: 0.402935 (Simulation time: 0 hr 5 min 6 sec) 
Heartbeat CPU 0 instructions: 180000000 cycles: 260764225 heartbeat IPC: 0.402529 cumulative IPC: 0.402884 (Simulation time: 0 hr 5 min 31 sec) 
Heartbeat CPU 0 instructions: 190000003 cycles: 285556979 heartbeat IPC: 0.403344 cumulative IPC: 0.402935 (Simulation time: 0 hr 5 min 56 sec) 
Heartbeat CPU 0 instructions: 200000000 cycles: 310410102 heartbeat IPC: 0.402364 cumulative IPC: 0.402878 (Simulation time: 0 hr 6 min 21 sec) 
Heartbeat CPU 0 instructions: 210000003 cycles: 335306696 heartbeat IPC: 0.401661 cumulative IPC: 0.402767 (Simulation time: 0 hr 6 min 46 sec) 
Heartbeat CPU 0 instructions: 220000000 cycles: 360400917 heartbeat IPC: 0.398498 cumulative IPC: 0.402408 (Simulation time: 0 hr 7 min 12 sec) 
Heartbeat CPU 0 instructions: 230000002 cycles: 385146931 heartbeat IPC: 0.404106 cumulative IPC: 0.402538 (Simulation time: 0 hr 7 min 37 sec) 
Heartbeat CPU 0 instructions: 240000000 cycles: 410208390 heartbeat IPC: 0.399019 cumulative IPC: 0.402284 (Simulation time: 0 hr 8 min 2 sec) 
Heartbeat CPU 0 instructions: 250000000 cycles: 435089788 heartbeat IPC: 0.401907 cumulative IPC: 0.402259 (Simulation time: 0 hr 8 min 27 sec) 
Heartbeat CPU 0 instructions: 260000000 cycles: 459920594 heartbeat IPC: 0.402726 cumulative IPC: 0.402288 (Simulation time: 0 hr 8 min 53 sec) 
Heartbeat CPU 0 instructions: 270000001 cycles: 484852682 heartbeat IPC: 0.40109 cumulative IPC: 0.402218 (Simulation time: 0 hr 9 min 18 sec) 
Heartbeat CPU 0 instructions: 280000000 cycles: 509709753 heartbeat IPC: 0.4023 cumulative IPC: 0.402222 (Simulation time: 0 hr 9 min 43 sec) 
Heartbeat CPU 0 instructions: 290000001 cycles: 534637190 heartbeat IPC: 0.401164 cumulative IPC: 0.402166 (Simulation time: 0 hr 10 min 9 sec) 
Heartbeat CPU 0 instructions: 300000000 cycles: 559743455 heartbeat IPC: 0.398307 cumulative IPC: 0.401972 (Simulation time: 0 hr 10 min 34 sec) 
Heartbeat CPU 0 instructions: 310000003 cycles: 584488195 heartbeat IPC: 0.404126 cumulative IPC: 0.402074 (Simulation time: 0 hr 10 min 59 sec) 
Heartbeat CPU 0 instructions: 320000000 cycles: 609605902 heartbeat IPC: 0.398125 cumulative IPC: 0.401892 (Simulation time: 0 hr 11 min 25 sec) 
Heartbeat CPU 0 instructions: 330000003 cycles: 634453857 heartbeat IPC: 0.402448 cumulative IPC: 0.401917 (Simulation time: 0 hr 11 min 50 sec) 
Heartbeat CPU 0 instructions: 340000000 cycles: 659608430 heartbeat IPC: 0.397542 cumulative IPC: 0.401732 (Simulation time: 0 hr 12 min 15 sec) 
Heartbeat CPU 0 instructions: 350000002 cycles: 684731552 heartbeat IPC: 0.39804 cumulative IPC: 0.401583 (Simulation time: 0 hr 12 min 40 sec) 
Heartbeat CPU 0 instructions: 360000000 cycles: 710040843 heartbeat IPC: 0.395112 cumulative IPC: 0.401331 (Simulation time: 0 hr 13 min 5 sec) 
Heartbeat CPU 0 instructions: 370000000 cycles: 735067574 heartbeat IPC: 0.399573 cumulative IPC: 0.401265 (Simulation time: 0 hr 13 min 30 sec) 
Heartbeat CPU 0 instructions: 380000000 cycles: 759916084 heartbeat IPC: 0.402439 cumulative IPC: 0.401307 (Simulation time: 0 hr 13 min 55 sec) 
Heartbeat CPU 0 instructions: 390000002 cycles: 784776751 heartbeat IPC: 0.402242 cumulative IPC: 0.401339 (Simulation time: 0 hr 14 min 20 sec) 
Heartbeat CPU 0 instructions: 400000000 cycles: 809811753 heartbeat IPC: 0.399441 cumulative IPC: 0.401276 (Simulation time: 0 hr 14 min 45 sec) 
Heartbeat CPU 0 instructions: 410000002 cycles: 834772035 heartbeat IPC: 0.400637 cumulative IPC: 0.401255 (Simulation time: 0 hr 15 min 10 sec) 
Heartbeat CPU 0 instructions: 420000000 cycles: 859512433 heartbeat IPC: 0.404197 cumulative IPC: 0.401346 (Simulation time: 0 hr 15 min 35 sec) 
Heartbeat CPU 0 instructions: 430000000 cycles: 884478168 heartbeat IPC: 0.400549 cumulative IPC: 0.401322 (Simulation time: 0 hr 16 min 0 sec) 
Heartbeat CPU 0 instructions: 440000000 cycles: 909144471 heartbeat IPC: 0.405411 cumulative IPC: 0.401441 (Simulation time: 0 hr 16 min 24 sec) 
Heartbeat CPU 0 instructions: 450000000 cycles: 934367842 heartbeat IPC: 0.396458 cumulative IPC: 0.401297 (Simulation time: 0 hr 16 min 50 sec) 
Heartbeat CPU 0 instructions: 460000000 cycles: 959383706 heartbeat IPC: 0.399746 cumulative IPC: 0.401254 (Simulation time: 0 hr 17 min 16 sec) 
Heartbeat CPU 0 instructions: 470000001 cycles: 984208604 heartbeat IPC: 0.402821 cumulative IPC: 0.401296 (Simulation time: 0 hr 17 min 41 sec) 
Heartbeat CPU 0 instructions: 480000000 cycles: 1009210419 heartbeat IPC: 0.399971 cumulative IPC: 0.401261 (Simulation time: 0 hr 18 min 6 sec) 
Heartbeat CPU 0 instructions: 490000000 cycles: 1034308848 heartbeat IPC: 0.398431 cumulative IPC: 0.401188 (Simulation time: 0 hr 18 min 32 sec) 
Heartbeat CPU 0 instructions: 500000000 cycles: 1059708069 heartbeat IPC: 0.393713 cumulative IPC: 0.400998 (Simulation time: 0 hr 18 min 57 sec) 
Heartbeat CPU 0 instructions: 510000003 cycles: 1084994636 heartbeat IPC: 0.395467 cumulative IPC: 0.400861 (Simulation time: 0 hr 19 min 22 sec) 
Heartbeat CPU 0 instructions: 520000000 cycles: 1110432345 heartbeat IPC: 0.393117 cumulative IPC: 0.400673 (Simulation time: 0 hr 19 min 48 sec) 
Heartbeat CPU 0 instructions: 530000003 cycles: 1135889610 heartbeat IPC: 0.392815 cumulative IPC: 0.400487 (Simulation time: 0 hr 20 min 13 sec) 
Heartbeat CPU 0 instructions: 540000000 cycles: 1161259577 heartbeat IPC: 0.394167 cumulative IPC: 0.400341 (Simulation time: 0 hr 20 min 38 sec) 
Heartbeat CPU 0 instructions: 550000000 cycles: 1186630686 heartbeat IPC: 0.394149 cumulative IPC: 0.400201 (Simulation time: 0 hr 21 min 3 sec) 
Heartbeat CPU 0 instructions: 560000000 cycles: 1212310335 heartbeat IPC: 0.389413 cumulative IPC: 0.39996 (Simulation time: 0 hr 21 min 29 sec) 
Heartbeat CPU 0 instructions: 570000001 cycles: 1237918238 heartbeat IPC: 0.390504 cumulative IPC: 0.399754 (Simulation time: 0 hr 21 min 54 sec) 
Heartbeat CPU 0 instructions: 580000000 cycles: 1263541677 heartbeat IPC: 0.390268 cumulative IPC: 0.399552 (Simulation time: 0 hr 22 min 19 sec) 
Heartbeat CPU 0 instructions: 590000000 cycles: 1289347425 heartbeat IPC: 0.387511 cumulative IPC: 0.399299 (Simulation time: 0 hr 22 min 45 sec) 
Heartbeat CPU 0 instructions: 600000000 cycles: 1315201436 heartbeat IPC: 0.386787 cumulative IPC: 0.399041 (Simulation time: 0 hr 23 min 11 sec) 
Finished CPU 0 instructions: 500000003 cycles: 1253005620 cumulative IPC: 0.399041 (Simulation time: 0 hr 23 min 11 sec) 

CPU 0 Branch Prediction Accuracy: 91.1342% MPKI: 18.7968
Number of Branches: 106006945 Number of Mispredictions: 9398408
Number of LOAD Instructions: 207894007
Number of LOAD Instructions (ROI): 207894007
Number of STORE Instructions: 54285997
Number of STORE Instructions (ROI): 54285997
Total Destination Memory Operands: 57463404
Total Destination Memory Operands (ROI): 57463404
Total Source Memory Operands: 207894007
Total Source Memory Operands (ROI): 207894007
Number of DEPENDED LOADS: 18112208
Number of DEPENDED LOADS (ROI): 18112208
Number of SQ_ADDED: 57463404
Number of SQ_ADDED (ROI): 57463404
Number of LQ_ADDED: 209257073
Number of LQ_ADDED (ROI): 209257073
Number of Instructions read from trace: 600000039

ChampSim completed all CPUs

Region of Interest Statistics

CPU 0 cumulative IPC: 0.399041 instructions: 500000003 cycles: 1253005620
ITLB TOTAL     ACCESS:   96383012  HIT:   96383012  MISS:          0
ITLB LOAD      ACCESS:   96383012  HIT:   96383012  MISS:          0
ITLB RFO       ACCESS:          0  HIT:          0  MISS:          0
ITLB PREFETCH  ACCESS:          0  HIT:          0  MISS:          0
ITLB WRITEBACK ACCESS:          0  HIT:          0  MISS:          0
ITLB PREFETCH  REQUESTED:          0  ISSUED:          0  USEFUL:          0  USELESS:          0
ITLB TOTAL MSHR MERGED:          0
ITLB LOAD MSHR MERGED:          0
ITLB RFO MSHR MERGED:          0
ITLB PREFETCH MSHR MERGED:          0
ITLB WRITEBACK MSHR MERGED:          0
ITLB TOTAL ACCESSES:   96383012 HITS:   96383012 MISSES:          0
ITLB LOAD ACCESSES:   96383012 HITS:   96383012 MISSES:          0
ITLB RFO ACCESSES:          0 HITS:          0 MISSES:          0
ITLB PREFETCH ACCESSES:          0 HITS:          0 MISSES:          0
ITLB WRITEBACK ACCESSES:          0 HITS:          0 MISSES:          0
ITLB RQ ACCESS:  499999980
ITLB RQ TO_CACHE:   96383012
ITLB RQ MERGED:  403616968
ITLB RQ FORWARD:          0
ITLB WQ ACCESS:          0
ITLB WQ TO_CACHE:          0
ITLB WQ MERGED:          0
ITLB WQ FORWARD:          0
DTLB TOTAL     ACCESS:  155159843  HIT:  150247706  MISS:    4912137
DTLB LOAD      ACCESS:  117709553  HIT:  113319093  MISS:    4390460
DTLB RFO       ACCESS:   37450290  HIT:   36928613  MISS:     521677
DTLB PREFETCH  ACCESS:          0  HIT:          0  MISS:          0
DTLB WRITEBACK ACCESS:          0  HIT:          0  MISS:          0
DTLB PREFETCH  REQUESTED:          0  ISSUED:          0  USEFUL:          0  USELESS:          0
DTLB TOTAL MSHR MERGED:     453107
DTLB LOAD MSHR MERGED:     161666
DTLB RFO MSHR MERGED:     291441
DTLB PREFETCH MSHR MERGED:          0
DTLB WRITEBACK MSHR MERGED:          0
DTLB TOTAL ACCESSES:  155612950 HITS:  150247706 MISSES:    5365244
DTLB LOAD ACCESSES:  117871219 HITS:  113319093 MISSES:    4552126
DTLB RFO ACCESSES:   37741731 HITS:   36928613 MISSES:     813118
DTLB PREFETCH ACCESSES:          0 HITS:          0 MISSES:          0
DTLB WRITEBACK ACCESSES:          0 HITS:          0 MISSES:          0
DTLB RQ ACCESS:  205971046
DTLB RQ TO_CACHE:  155612950
DTLB RQ MERGED:   50358096
DTLB RQ FORWARD:          0
DTLB WQ ACCESS:          0
DTLB WQ TO_CACHE:          0
DTLB WQ MERGED:          0
DTLB WQ FORWARD:          0
L1D TOTAL     ACCESS:  277096501  HIT:  242274343  MISS:   34822158
L1D LOAD      ACCESS:  125396253  HIT:  107761457  MISS:   17634796
L1D RFO       ACCESS:   41129843  HIT:   38818033  MISS:    2311810
L1D PREFETCH  ACCESS:  110570405  HIT:   95694853  MISS:   14875552
L1D WRITEBACK ACCESS:          0  HIT:          0  MISS:          0
L1D PREFETCH  REQUESTED:  126258091  ISSUED:  124738974  USEFUL:    2709410  USELESS:   12166167
L1D TOTAL MSHR MERGED:    8543787
L1D LOAD MSHR MERGED:    1560289
L1D RFO MSHR MERGED:    3774118
L1D PREFETCH MSHR MERGED:    3209380
L1D WRITEBACK MSHR MERGED:          0
L1D TOTAL ACCESSES:  285727583 HITS:  242361637 MISSES:   43365946
L1D LOAD ACCESSES:  126258120 HITS:  107761486 MISSES:   18496634
L1D RFO ACCESSES:   44903461 HITS:   38818033 MISSES:    6085428
L1D PREFETCH ACCESSES:  114566002 HITS:   95782118 MISSES:   18783884
L1D WRITEBACK ACCESSES:          0 HITS:          0 MISSES:          0
L1D RQ ACCESS:  158424165
L1D RQ TO_CACHE:  126258091
L1D RQ MERGED:   32166045
L1D RQ FORWARD:          0
L1D WQ ACCESS:   47546882
L1D WQ TO_CACHE:   44903461
L1D WQ MERGED:    2643421
L1D WQ FORWARD:      87294
L1I TOTAL     ACCESS:  132786821  HIT:  132786821  MISS:          0
L1I LOAD      ACCESS:  132786821  HIT:  132786821  MISS:          0
L1I RFO       ACCESS:          0  HIT:          0  MISS:          0
L1I PREFETCH  ACCESS:          0  HIT:          0  MISS:          0
L1I WRITEBACK ACCESS:          0  HIT:          0  MISS:          0
L1I PREFETCH  REQUESTED:          0  ISSUED:          0  USEFUL:          0  USELESS:          0
L1I TOTAL MSHR MERGED:          0
L1I LOAD MSHR MERGED:          0
L1I RFO MSHR MERGED:          0
L1I PREFETCH MSHR MERGED:          0
L1I WRITEBACK MSHR MERGED:          0
L1I TOTAL ACCESSES:  132786821 HITS:  132786821 MISSES:          0
L1I LOAD ACCESSES:  132786821 HITS:  132786821 MISSES:          0
L1I RFO ACCESSES:          0 HITS:          0 MISSES:          0
L1I PREFETCH ACCESSES:          0 HITS:          0 MISSES:          0
L1I WRITEBACK ACCESSES:          0 HITS:          0 MISSES:          0
L1I RQ ACCESS:  499999980
L1I RQ TO_CACHE:  132786821
L1I RQ MERGED:  367213159
L1I RQ FORWARD:          0
L1I WQ ACCESS:          0
L1I WQ TO_CACHE:          0
L1I WQ MERGED:          0
L1I WQ FORWARD:          0
L2C TOTAL     ACCESS:   39591064  HIT:   20621793  MISS:   18969271
L2C LOAD      ACCESS:   16936284  HIT:    8566248  MISS:    8370036
L2C RFO       ACCESS:    2311260  HIT:     630826  MISS:    1680434
L2C PREFETCH  ACCESS:   17121110  HIT:    8206059  MISS:    8915051
L2C WRITEBACK ACCESS:    3222410  HIT:    3218660  MISS:       3750
L2C PREFETCH  REQUESTED:    2849881  ISSUED:    2849881  USEFUL:    1305996  USELESS:    7608796
L2C TOTAL MSHR MERGED:     521378
L2C LOAD MSHR MERGED:      82549
L2C RFO MSHR MERGED:          0
L2C PREFETCH MSHR MERGED:     438829
L2C WRITEBACK MSHR MERGED:          0
L2C TOTAL ACCESSES:   40208829 HITS:   20621953 MISSES:   19586876
L2C LOAD ACCESSES:   16936345 HITS:    8566309 MISSES:    8370036
L2C RFO ACCESSES:    2311310 HITS:     630876 MISSES:    1680434
L2C PREFETCH ACCESSES:   17738764 HITS:    8206108 MISSES:    9532656
L2C WRITEBACK ACCESSES:    3222410 HITS:    3218660 MISSES:       3750
L2C RQ ACCESS:   19247655
L2C RQ TO_CACHE:   19247544
L2C RQ MERGED:          0
L2C RQ FORWARD:          0
L2C WQ ACCESS:    3222410
L2C WQ TO_CACHE:    3222410
L2C WQ MERGED:          0
L2C WQ FORWARD:        160
LLC TOTAL     ACCESS:   21190354  HIT:   14247103  MISS:    6943251
LLC LOAD      ACCESS:    8287463  HIT:    5713567  MISS:    2573896
LLC RFO       ACCESS:    1680369  HIT:    1583051  MISS:      97318
LLC PREFETCH  ACCESS:    9046887  HIT:    4861377  MISS:    4185510
LLC WRITEBACK ACCESS:    2175635  HIT:    2089108  MISS:      86527
LLC PREFETCH  REQUESTED:          0  ISSUED:          0  USEFUL:     200657  USELESS:    3987367
LLC TOTAL MSHR MERGED:      39652
LLC LOAD MSHR MERGED:      12033
LLC RFO MSHR MERGED:          0
LLC PREFETCH MSHR MERGED:      27619
LLC WRITEBACK MSHR MERGED:          0
LLC TOTAL ACCESSES:   21230122 HITS:   14247218 MISSES:    6982904
LLC LOAD ACCESSES:    8287487 HITS:    5713591 MISSES:    2573896
LLC RFO ACCESSES:    1680434 HITS:    1583116 MISSES:      97318
LLC PREFETCH ACCESSES:    9086566 HITS:    4861403 MISSES:    4225163
LLC WRITEBACK ACCESSES:    2175635 HITS:    2089108 MISSES:      86527
LLC 0 RQ ACCESS:    9967921
LLC 0 RQ TO_CACHE:    9967832
LLC 0 RQ MERGED:          0
LLC 0 RQ FORWARD:          0
LLC WQ ACCESS:    2175636
LLC WQ TO_CACHE:    2175636
LLC WQ MERGED:          0
LLC WQ FORWARD:        115
Major fault: 0 Minor fault: 56391
CPU 0 L1D next line prefetcher final stats
CPU 0 L2C PC-based stride prefetcher final stats
All Misses: 8192448
All Hits: 16374752
SD Algo Stats - Switches: 0 SRR-Repls: 2698688 BRR-Repls: 0

DRAM Statistics
 CHANNEL 0
 RQ ROW_BUFFER_HIT:    4600346  ROW_BUFFER_MISS:    2214006
 DBUS_CONGESTED:    3322924
 WQ ROW_BUFFER_HIT:      20380  ROW_BUFFER_MISS:     167083  FULL:          0

 AVG_CONGESTED_CYCLE: 13
LOADS RETIRED: 173631671
INSTR RETIRED: 500000000
