
*** ChampSim Multicore Out-of-Order Simulator ***

Warmup Instructions: 100000000
Simulation Instructions: 500000000
Number of CPUs: 1
LLC sets: 2048
LLC ways: 16
Clean RRIP Policies: 1213230012132300 Dirty RRIP Policies: 2213030022130300 PSEL Width: 10 Track Set: 4294967295 PSEL Mask: 1 Demote Mask: 3340021433400214DS Algo: 0Window size: 0
Off-chip DRAM Size: 4096 MB Channels: 1 Width: 64-bit Data Rate: 1600 MT/s

CPU 0 runs /mnt/beegfs/iconst01/spec2017/Parest.trace.gz
NOT SORTED
TRACE STRING: /mnt/beegfs/iconst01/spec2017/Parest.trace.gz
SORTED
TRACE STRING: /mnt/beegfs/iconst01/spec2017/Parest.trace.gz
INITIAL
TRACE STRING: /mnt/beegfs/iconst01/spec2017/Parest.trace.gz

champsim_seed used: 623

CPU 0 L1D next line prefetcher
CPU 0 L2C IP-based stride prefetcher
Initialize DRRIP state
Assign rand_sets[0]: 454  LLC: 2048
rand_sets[0]: 454
Assign rand_sets[1]: 1662  LLC: 2048
rand_sets[1]: 1662
Assign rand_sets[2]: 1921  LLC: 2048
rand_sets[2]: 1921
Assign rand_sets[3]: 1131  LLC: 2048
rand_sets[3]: 1131
Assign rand_sets[4]: 331  LLC: 2048
rand_sets[4]: 331
Assign rand_sets[5]: 1531  LLC: 2048
rand_sets[5]: 1531
Assign rand_sets[6]: 482  LLC: 2048
rand_sets[6]: 482
Assign rand_sets[7]: 1275  LLC: 2048
rand_sets[7]: 1275
Assign rand_sets[8]: 1876  LLC: 2048
rand_sets[8]: 1876
Assign rand_sets[9]: 2038  LLC: 2048
rand_sets[9]: 2038
Assign rand_sets[10]: 701  LLC: 2048
rand_sets[10]: 701
Assign rand_sets[11]: 479  LLC: 2048
rand_sets[11]: 479
Assign rand_sets[12]: 892  LLC: 2048
rand_sets[12]: 892
Assign rand_sets[13]: 1820  LLC: 2048
rand_sets[13]: 1820
Assign rand_sets[14]: 1505  LLC: 2048
rand_sets[14]: 1505
Assign rand_sets[15]: 1159  LLC: 2048
rand_sets[15]: 1159
Assign rand_sets[16]: 513  LLC: 2048
rand_sets[16]: 513
Assign rand_sets[17]: 703  LLC: 2048
rand_sets[17]: 703
Assign rand_sets[18]: 561  LLC: 2048
rand_sets[18]: 561
Assign rand_sets[19]: 990  LLC: 2048
rand_sets[19]: 990
Assign rand_sets[20]: 342  LLC: 2048
rand_sets[20]: 342
Assign rand_sets[21]: 882  LLC: 2048
rand_sets[21]: 882
Assign rand_sets[22]: 15  LLC: 2048
rand_sets[22]: 15
Assign rand_sets[23]: 71  LLC: 2048
rand_sets[23]: 71
Assign rand_sets[24]: 1127  LLC: 2048
rand_sets[24]: 1127
Assign rand_sets[25]: 1382  LLC: 2048
rand_sets[25]: 1382
Assign rand_sets[26]: 647  LLC: 2048
rand_sets[26]: 647
Assign rand_sets[27]: 857  LLC: 2048
rand_sets[27]: 857
Assign rand_sets[28]: 1450  LLC: 2048
rand_sets[28]: 1450
Assign rand_sets[29]: 1160  LLC: 2048
rand_sets[29]: 1160
Assign rand_sets[30]: 1852  LLC: 2048
rand_sets[30]: 1852
Assign rand_sets[31]: 1881  LLC: 2048
rand_sets[31]: 1881
Assign rand_sets[32]: 1770  LLC: 2048
rand_sets[32]: 1770
Assign rand_sets[33]: 1622  LLC: 2048
rand_sets[33]: 1622
Assign rand_sets[34]: 275  LLC: 2048
rand_sets[34]: 275
Assign rand_sets[35]: 635  LLC: 2048
rand_sets[35]: 635
Assign rand_sets[36]: 466  LLC: 2048
rand_sets[36]: 466
Assign rand_sets[37]: 1413  LLC: 2048
rand_sets[37]: 1413
Assign rand_sets[38]: 417  LLC: 2048
rand_sets[38]: 417
Assign rand_sets[39]: 472  LLC: 2048
rand_sets[39]: 472
Assign rand_sets[40]: 1340  LLC: 2048
rand_sets[40]: 1340
Assign rand_sets[41]: 852  LLC: 2048
rand_sets[41]: 852
Assign rand_sets[42]: 1365  LLC: 2048
rand_sets[42]: 1365
Assign rand_sets[43]: 47  LLC: 2048
rand_sets[43]: 47
Assign rand_sets[44]: 823  LLC: 2048
rand_sets[44]: 823
Assign rand_sets[45]: 686  LLC: 2048
rand_sets[45]: 686
Assign rand_sets[46]: 1637  LLC: 2048
rand_sets[46]: 1637
Assign rand_sets[47]: 1115  LLC: 2048
rand_sets[47]: 1115
Assign rand_sets[48]: 986  LLC: 2048
rand_sets[48]: 986
Assign rand_sets[49]: 258  LLC: 2048
rand_sets[49]: 258
Assign rand_sets[50]: 633  LLC: 2048
rand_sets[50]: 633
Assign rand_sets[51]: 920  LLC: 2048
rand_sets[51]: 920
Assign rand_sets[52]: 204  LLC: 2048
rand_sets[52]: 204
Assign rand_sets[53]: 227  LLC: 2048
rand_sets[53]: 227
Assign rand_sets[54]: 1818  LLC: 2048
rand_sets[54]: 1818
Assign rand_sets[55]: 886  LLC: 2048
rand_sets[55]: 886
Assign rand_sets[56]: 1422  LLC: 2048
rand_sets[56]: 1422
Assign rand_sets[57]: 607  LLC: 2048
rand_sets[57]: 607
Assign rand_sets[58]: 217  LLC: 2048
rand_sets[58]: 217
Assign rand_sets[59]: 1945  LLC: 2048
rand_sets[59]: 1945
Assign rand_sets[60]: 143  LLC: 2048
rand_sets[60]: 143
Assign rand_sets[61]: 1311  LLC: 2048
rand_sets[61]: 1311
Assign rand_sets[62]: 319  LLC: 2048
rand_sets[62]: 319
Assign rand_sets[63]: 1846  LLC: 2048
rand_sets[63]: 1846
 CLEAN-RRIP-POLICY-1: 1-2-1-3-2-3-0-0- CLEAN-RRIP-POLICY-2: 1-2-1-3-2-3-0-0-
 DIRTY-RRIP-POLICY-1: 2-2-1-3-0-3-0-0- DIRTY-RRIP-POLICY-2: 2-2-1-3-0-3-0-0-
 PSEL width: 10
Heartbeat CPU 0 instructions: 10000001 cycles: 4387124 heartbeat IPC: 2.2794 cumulative IPC: 2.2794 (Simulation time: 0 hr 0 min 14 sec) 
Heartbeat CPU 0 instructions: 20000000 cycles: 8781249 heartbeat IPC: 2.27577 cumulative IPC: 2.27758 (Simulation time: 0 hr 0 min 28 sec) 
Heartbeat CPU 0 instructions: 30000003 cycles: 13213188 heartbeat IPC: 2.25635 cumulative IPC: 2.27046 (Simulation time: 0 hr 0 min 42 sec) 
Heartbeat CPU 0 instructions: 40000000 cycles: 17643811 heartbeat IPC: 2.25702 cumulative IPC: 2.26708 (Simulation time: 0 hr 0 min 56 sec) 
Heartbeat CPU 0 instructions: 50000000 cycles: 22052001 heartbeat IPC: 2.2685 cumulative IPC: 2.26737 (Simulation time: 0 hr 1 min 10 sec) 
Heartbeat CPU 0 instructions: 60000000 cycles: 26457678 heartbeat IPC: 2.2698 cumulative IPC: 2.26777 (Simulation time: 0 hr 1 min 24 sec) 
Heartbeat CPU 0 instructions: 70000000 cycles: 30858502 heartbeat IPC: 2.2723 cumulative IPC: 2.26842 (Simulation time: 0 hr 1 min 38 sec) 
Heartbeat CPU 0 instructions: 80000000 cycles: 35254089 heartbeat IPC: 2.27501 cumulative IPC: 2.26924 (Simulation time: 0 hr 1 min 52 sec) 
Heartbeat CPU 0 instructions: 90000000 cycles: 39648368 heartbeat IPC: 2.27569 cumulative IPC: 2.26995 (Simulation time: 0 hr 2 min 6 sec) 
Heartbeat CPU 0 instructions: 100000000 cycles: 44045708 heartbeat IPC: 2.2741 cumulative IPC: 2.27037 (Simulation time: 0 hr 2 min 20 sec) 

Warmup complete CPU 0 instructions: 100000002 cycles: 44045718 (Simulation time: 0 hr 2 min 20 sec) 

Heartbeat CPU 0 instructions: 110000000 cycles: 54453050 heartbeat IPC: 0.96086 cumulative IPC: 0.960861 (Simulation time: 0 hr 2 min 38 sec) 
Heartbeat CPU 0 instructions: 120000000 cycles: 64084610 heartbeat IPC: 1.03825 cumulative IPC: 0.998059 (Simulation time: 0 hr 2 min 56 sec) 
Heartbeat CPU 0 instructions: 130000000 cycles: 73656214 heartbeat IPC: 1.04476 cumulative IPC: 1.01315 (Simulation time: 0 hr 3 min 14 sec) 
Heartbeat CPU 0 instructions: 140000000 cycles: 83421915 heartbeat IPC: 1.02399 cumulative IPC: 1.01584 (Simulation time: 0 hr 3 min 32 sec) 
Heartbeat CPU 0 instructions: 150000002 cycles: 94433221 heartbeat IPC: 0.908158 cumulative IPC: 0.99231 (Simulation time: 0 hr 3 min 50 sec) 
Heartbeat CPU 0 instructions: 160000000 cycles: 104575919 heartbeat IPC: 0.985931 cumulative IPC: 0.991241 (Simulation time: 0 hr 4 min 8 sec) 
Heartbeat CPU 0 instructions: 170000000 cycles: 114612187 heartbeat IPC: 0.996386 cumulative IPC: 0.991973 (Simulation time: 0 hr 4 min 26 sec) 
Heartbeat CPU 0 instructions: 180000000 cycles: 124596000 heartbeat IPC: 1.00162 cumulative IPC: 0.993168 (Simulation time: 0 hr 4 min 43 sec) 
Heartbeat CPU 0 instructions: 190000002 cycles: 134719962 heartbeat IPC: 0.987756 cumulative IPC: 0.992564 (Simulation time: 0 hr 5 min 1 sec) 
Heartbeat CPU 0 instructions: 200000000 cycles: 144421285 heartbeat IPC: 1.03079 cumulative IPC: 0.996258 (Simulation time: 0 hr 5 min 19 sec) 
Heartbeat CPU 0 instructions: 210000000 cycles: 154460541 heartbeat IPC: 0.99609 cumulative IPC: 0.996243 (Simulation time: 0 hr 5 min 37 sec) 
Heartbeat CPU 0 instructions: 220000000 cycles: 164012447 heartbeat IPC: 1.04691 cumulative IPC: 1.00028 (Simulation time: 0 hr 5 min 55 sec) 
Heartbeat CPU 0 instructions: 230000001 cycles: 176487590 heartbeat IPC: 0.801594 cumulative IPC: 0.981563 (Simulation time: 0 hr 6 min 14 sec) 
Heartbeat CPU 0 instructions: 240000000 cycles: 187729100 heartbeat IPC: 0.88956 cumulative IPC: 0.974365 (Simulation time: 0 hr 6 min 33 sec) 
Heartbeat CPU 0 instructions: 250000002 cycles: 198244962 heartbeat IPC: 0.950945 cumulative IPC: 0.972767 (Simulation time: 0 hr 6 min 51 sec) 
Heartbeat CPU 0 instructions: 260000000 cycles: 208465153 heartbeat IPC: 0.978455 cumulative IPC: 0.973121 (Simulation time: 0 hr 7 min 9 sec) 
Heartbeat CPU 0 instructions: 270000001 cycles: 218482745 heartbeat IPC: 0.998244 cumulative IPC: 0.974564 (Simulation time: 0 hr 7 min 27 sec) 
Heartbeat CPU 0 instructions: 280000000 cycles: 228741993 heartbeat IPC: 0.97473 cumulative IPC: 0.974573 (Simulation time: 0 hr 7 min 45 sec) 
Heartbeat CPU 0 instructions: 290000002 cycles: 238427424 heartbeat IPC: 1.03248 cumulative IPC: 0.977458 (Simulation time: 0 hr 8 min 2 sec) 
Heartbeat CPU 0 instructions: 300000000 cycles: 248466352 heartbeat IPC: 0.996122 cumulative IPC: 0.978375 (Simulation time: 0 hr 8 min 20 sec) 
Heartbeat CPU 0 instructions: 310000000 cycles: 258051623 heartbeat IPC: 1.04327 cumulative IPC: 0.981281 (Simulation time: 0 hr 8 min 38 sec) 
Heartbeat CPU 0 instructions: 320000000 cycles: 267654161 heartbeat IPC: 1.04139 cumulative IPC: 0.983863 (Simulation time: 0 hr 8 min 56 sec) 
Heartbeat CPU 0 instructions: 330000003 cycles: 277349732 heartbeat IPC: 1.0314 cumulative IPC: 0.985838 (Simulation time: 0 hr 9 min 14 sec) 
Heartbeat CPU 0 instructions: 340000000 cycles: 287545669 heartbeat IPC: 0.980783 cumulative IPC: 0.985626 (Simulation time: 0 hr 9 min 32 sec) 
Heartbeat CPU 0 instructions: 350000000 cycles: 297827024 heartbeat IPC: 0.972634 cumulative IPC: 0.9851 (Simulation time: 0 hr 9 min 50 sec) 
Heartbeat CPU 0 instructions: 360000000 cycles: 307733902 heartbeat IPC: 1.0094 cumulative IPC: 0.986013 (Simulation time: 0 hr 10 min 7 sec) 
Heartbeat CPU 0 instructions: 370000000 cycles: 317525864 heartbeat IPC: 1.02125 cumulative IPC: 0.987275 (Simulation time: 0 hr 10 min 25 sec) 
Heartbeat CPU 0 instructions: 380000000 cycles: 327299695 heartbeat IPC: 1.02314 cumulative IPC: 0.988512 (Simulation time: 0 hr 10 min 43 sec) 
Heartbeat CPU 0 instructions: 390000002 cycles: 336899238 heartbeat IPC: 1.04172 cumulative IPC: 0.990256 (Simulation time: 0 hr 11 min 0 sec) 
Heartbeat CPU 0 instructions: 400000000 cycles: 346831378 heartbeat IPC: 1.00683 cumulative IPC: 0.9908 (Simulation time: 0 hr 11 min 18 sec) 
Heartbeat CPU 0 instructions: 410000000 cycles: 356348447 heartbeat IPC: 1.05074 cumulative IPC: 0.992627 (Simulation time: 0 hr 11 min 36 sec) 
Heartbeat CPU 0 instructions: 420000000 cycles: 367588162 heartbeat IPC: 0.889702 cumulative IPC: 0.989051 (Simulation time: 0 hr 11 min 54 sec) 
Heartbeat CPU 0 instructions: 430000000 cycles: 379234212 heartbeat IPC: 0.85866 cumulative IPC: 0.984521 (Simulation time: 0 hr 12 min 13 sec) 
Heartbeat CPU 0 instructions: 440000000 cycles: 389844456 heartbeat IPC: 0.942485 cumulative IPC: 0.983231 (Simulation time: 0 hr 12 min 31 sec) 
Heartbeat CPU 0 instructions: 450000000 cycles: 400306472 heartbeat IPC: 0.955839 cumulative IPC: 0.982426 (Simulation time: 0 hr 12 min 49 sec) 
Heartbeat CPU 0 instructions: 460000000 cycles: 410651977 heartbeat IPC: 0.966603 cumulative IPC: 0.98198 (Simulation time: 0 hr 13 min 7 sec) 
Heartbeat CPU 0 instructions: 470000001 cycles: 421000118 heartbeat IPC: 0.966357 cumulative IPC: 0.981551 (Simulation time: 0 hr 13 min 25 sec) 
Heartbeat CPU 0 instructions: 480000000 cycles: 430822429 heartbeat IPC: 1.01809 cumulative IPC: 0.982479 (Simulation time: 0 hr 13 min 43 sec) 
Heartbeat CPU 0 instructions: 490000002 cycles: 441012027 heartbeat IPC: 0.981393 cumulative IPC: 0.982451 (Simulation time: 0 hr 14 min 0 sec) 
Heartbeat CPU 0 instructions: 500000000 cycles: 450860004 heartbeat IPC: 1.01544 cumulative IPC: 0.98325 (Simulation time: 0 hr 14 min 18 sec) 
Heartbeat CPU 0 instructions: 510000000 cycles: 460493018 heartbeat IPC: 1.0381 cumulative IPC: 0.984518 (Simulation time: 0 hr 14 min 36 sec) 
Heartbeat CPU 0 instructions: 520000000 cycles: 470299954 heartbeat IPC: 1.01969 cumulative IPC: 0.985327 (Simulation time: 0 hr 14 min 54 sec) 
Heartbeat CPU 0 instructions: 530000001 cycles: 480769593 heartbeat IPC: 0.955143 cumulative IPC: 0.984604 (Simulation time: 0 hr 15 min 12 sec) 
Heartbeat CPU 0 instructions: 540000000 cycles: 491232378 heartbeat IPC: 0.955768 cumulative IPC: 0.983929 (Simulation time: 0 hr 15 min 30 sec) 
Heartbeat CPU 0 instructions: 550000003 cycles: 501380958 heartbeat IPC: 0.98536 cumulative IPC: 0.983961 (Simulation time: 0 hr 15 min 47 sec) 
Heartbeat CPU 0 instructions: 560000000 cycles: 511366002 heartbeat IPC: 1.0015 cumulative IPC: 0.984336 (Simulation time: 0 hr 16 min 5 sec) 
Heartbeat CPU 0 instructions: 570000002 cycles: 521310365 heartbeat IPC: 1.0056 cumulative IPC: 0.984779 (Simulation time: 0 hr 16 min 22 sec) 
Heartbeat CPU 0 instructions: 580000000 cycles: 531105713 heartbeat IPC: 1.02089 cumulative IPC: 0.985505 (Simulation time: 0 hr 16 min 40 sec) 
Heartbeat CPU 0 instructions: 590000001 cycles: 541165362 heartbeat IPC: 0.994071 cumulative IPC: 0.985678 (Simulation time: 0 hr 16 min 58 sec) 
Heartbeat CPU 0 instructions: 600000000 cycles: 550917279 heartbeat IPC: 1.02544 cumulative IPC: 0.986443 (Simulation time: 0 hr 17 min 16 sec) 
Finished CPU 0 instructions: 500000000 cycles: 506871575 cumulative IPC: 0.986443 (Simulation time: 0 hr 17 min 16 sec) 

CPU 0 Branch Prediction Accuracy: 97.8526% MPKI: 2.66709
Number of Branches: 62099103 Number of Mispredictions: 1333545
Number of LOAD Instructions: 210576465
Number of LOAD Instructions (ROI): 210576465
Number of STORE Instructions: 16915507
Number of STORE Instructions (ROI): 16915507
Total Destination Memory Operands: 16918869
Total Destination Memory Operands (ROI): 16918869
Total Source Memory Operands: 210576465
Total Source Memory Operands (ROI): 210576465
Number of DEPENDED LOADS: 339925
Number of DEPENDED LOADS (ROI): 339925
Number of SQ_ADDED: 16918826
Number of SQ_ADDED (ROI): 16918826
Number of LQ_ADDED: 210616099
Number of LQ_ADDED (ROI): 210616099
Number of Instructions read from trace: 600000257

ChampSim completed all CPUs

Region of Interest Statistics

CPU 0 cumulative IPC: 0.986443 instructions: 500000000 cycles: 506871575
ITLB TOTAL     ACCESS:   76308542  HIT:   76308504  MISS:         38
ITLB LOAD      ACCESS:   76308542  HIT:   76308504  MISS:         38
ITLB RFO       ACCESS:          0  HIT:          0  MISS:          0
ITLB PREFETCH  ACCESS:          0  HIT:          0  MISS:          0
ITLB WRITEBACK ACCESS:          0  HIT:          0  MISS:          0
ITLB PREFETCH  REQUESTED:          0  ISSUED:          0  USEFUL:          0  USELESS:          0
ITLB TOTAL MSHR MERGED:         37
ITLB LOAD MSHR MERGED:         37
ITLB RFO MSHR MERGED:          0
ITLB PREFETCH MSHR MERGED:          0
ITLB WRITEBACK MSHR MERGED:          0
ITLB TOTAL ACCESSES:   76308579 HITS:   76308504 MISSES:         75
ITLB LOAD ACCESSES:   76308579 HITS:   76308504 MISSES:         75
ITLB RFO ACCESSES:          0 HITS:          0 MISSES:          0
ITLB PREFETCH ACCESSES:          0 HITS:          0 MISSES:          0
ITLB WRITEBACK ACCESSES:          0 HITS:          0 MISSES:          0
ITLB RQ ACCESS:  500000188
ITLB RQ TO_CACHE:   76308580
ITLB RQ MERGED:  423691608
ITLB RQ FORWARD:          0
ITLB WQ ACCESS:          0
ITLB WQ TO_CACHE:          0
ITLB WQ MERGED:          0
ITLB WQ FORWARD:          0
DTLB TOTAL     ACCESS:  136848837  HIT:  136646048  MISS:     202789
DTLB LOAD      ACCESS:  128786485  HIT:  128586417  MISS:     200068
DTLB RFO       ACCESS:    8062352  HIT:    8059631  MISS:       2721
DTLB PREFETCH  ACCESS:          0  HIT:          0  MISS:          0
DTLB WRITEBACK ACCESS:          0  HIT:          0  MISS:          0
DTLB PREFETCH  REQUESTED:          0  ISSUED:          0  USEFUL:          0  USELESS:          0
DTLB TOTAL MSHR MERGED:     446570
DTLB LOAD MSHR MERGED:     442945
DTLB RFO MSHR MERGED:       3625
DTLB PREFETCH MSHR MERGED:          0
DTLB WRITEBACK MSHR MERGED:          0
DTLB TOTAL ACCESSES:  137295407 HITS:  136646048 MISSES:     649359
DTLB LOAD ACCESSES:  129229430 HITS:  128586417 MISSES:     643013
DTLB RFO ACCESSES:    8065977 HITS:    8059631 MISSES:       6346
DTLB PREFETCH ACCESSES:          0 HITS:          0 MISSES:          0
DTLB WRITEBACK ACCESSES:          0 HITS:          0 MISSES:          0
DTLB RQ ACCESS:  189424640
DTLB RQ TO_CACHE:  137295407
DTLB RQ MERGED:   52129233
DTLB RQ FORWARD:          0
DTLB WQ ACCESS:          0
DTLB WQ TO_CACHE:          0
DTLB WQ MERGED:          0
DTLB WQ FORWARD:          0
L1D TOTAL     ACCESS:  125543105  HIT:  107986254  MISS:   17556851
L1D LOAD      ACCESS:   72355898  HIT:   62083484  MISS:   10272414
L1D RFO       ACCESS:   14013400  HIT:   13860568  MISS:     152832
L1D PREFETCH  ACCESS:   39173807  HIT:   32042202  MISS:    7131605
L1D WRITEBACK ACCESS:          0  HIT:          0  MISS:          0
L1D PREFETCH  REQUESTED:   85621188  ISSUED:   84298196  USEFUL:    5872382  USELESS:    1259234
L1D TOTAL MSHR MERGED:   31626100
L1D LOAD MSHR MERGED:   18441310
L1D RFO MSHR MERGED:     266769
L1D PREFETCH MSHR MERGED:   12918021
L1D WRITEBACK MSHR MERGED:          0
L1D TOTAL ACCESSES:  157169726 HITS:  107986776 MISSES:   49182950
L1D LOAD ACCESSES:   85621211 HITS:   62083507 MISSES:   23537704
L1D RFO ACCESSES:   14280146 HITS:   13860568 MISSES:     419578
L1D PREFETCH ACCESSES:   57268369 HITS:   32042701 MISSES:   25225668
L1D WRITEBACK ACCESSES:          0 HITS:          0 MISSES:          0
L1D RQ ACCESS:  175135618
L1D RQ TO_CACHE:   85621188
L1D RQ MERGED:   89514407
L1D RQ FORWARD:          0
L1D WQ ACCESS:   14289037
L1D WQ TO_CACHE:   14280146
L1D WQ MERGED:       8891
L1D WQ FORWARD:        522
L1I TOTAL     ACCESS:   93335827  HIT:   93334031  MISS:       1796
L1I LOAD      ACCESS:   93335827  HIT:   93334031  MISS:       1796
L1I RFO       ACCESS:          0  HIT:          0  MISS:          0
L1I PREFETCH  ACCESS:          0  HIT:          0  MISS:          0
L1I WRITEBACK ACCESS:          0  HIT:          0  MISS:          0
L1I PREFETCH  REQUESTED:          0  ISSUED:          0  USEFUL:          0  USELESS:          0
L1I TOTAL MSHR MERGED:       2311
L1I LOAD MSHR MERGED:       2311
L1I RFO MSHR MERGED:          0
L1I PREFETCH MSHR MERGED:          0
L1I WRITEBACK MSHR MERGED:          0
L1I TOTAL ACCESSES:   93338138 HITS:   93334031 MISSES:       4107
L1I LOAD ACCESSES:   93338138 HITS:   93334031 MISSES:       4107
L1I RFO ACCESSES:          0 HITS:          0 MISSES:          0
L1I PREFETCH ACCESSES:          0 HITS:          0 MISSES:          0
L1I WRITEBACK ACCESSES:          0 HITS:          0 MISSES:          0
L1I RQ ACCESS:  500000187
L1I RQ TO_CACHE:   93338138
L1I RQ MERGED:  406662049
L1I RQ FORWARD:          0
L1I WQ ACCESS:          0
L1I WQ TO_CACHE:          0
L1I WQ MERGED:          0
L1I WQ FORWARD:          0
L2C TOTAL     ACCESS:   20897705  HIT:    8668796  MISS:   12228909
L2C LOAD      ACCESS:    5098168  HIT:    2141007  MISS:    2957161
L2C RFO       ACCESS:     152809  HIT:       6492  MISS:     146317
L2C PREFETCH  ACCESS:   13873975  HIT:    4748652  MISS:    9125323
L2C WRITEBACK ACCESS:    1772753  HIT:    1772645  MISS:        108
L2C PREFETCH  REQUESTED:    1799963  ISSUED:    1799963  USEFUL:    1069206  USELESS:    8057725
L2C TOTAL MSHR MERGED:      92531
L2C LOAD MSHR MERGED:      21424
L2C RFO MSHR MERGED:          0
L2C PREFETCH MSHR MERGED:      71107
L2C WRITEBACK MSHR MERGED:          0
L2C TOTAL ACCESSES:   21016600 HITS:    8668835 MISSES:   12347765
L2C LOAD ACCESSES:    5098190 HITS:    2141029 MISSES:    2957161
L2C RFO ACCESSES:     152809 HITS:       6492 MISSES:     146317
L2C PREFETCH ACCESSES:   13992848 HITS:    4748669 MISSES:    9244179
L2C WRITEBACK ACCESSES:    1772753 HITS:    1772645 MISSES:        108
L2C RQ ACCESS:    5250999
L2C RQ TO_CACHE:    5250977
L2C RQ MERGED:          0
L2C RQ FORWARD:          0
L2C WQ ACCESS:    1772753
L2C WQ TO_CACHE:    1772753
L2C WQ MERGED:          0
L2C WQ FORWARD:         39
LLC TOTAL     ACCESS:   12534200  HIT:    6203293  MISS:    6330907
LLC LOAD      ACCESS:    2935719  HIT:    2313913  MISS:     621806
LLC RFO       ACCESS:     146317  HIT:      54228  MISS:      92089
LLC PREFETCH  ACCESS:    9166182  HIT:    3630600  MISS:    5535582
LLC WRITEBACK ACCESS:     285982  HIT:     204552  MISS:      81430
LLC PREFETCH  REQUESTED:          0  ISSUED:          0  USEFUL:      17551  USELESS:    5518121
LLC TOTAL MSHR MERGED:       2610
LLC LOAD MSHR MERGED:        675
LLC RFO MSHR MERGED:          0
LLC PREFETCH MSHR MERGED:       1935
LLC WRITEBACK MSHR MERGED:          0
LLC TOTAL ACCESSES:   12536838 HITS:    6203321 MISSES:    6333517
LLC LOAD ACCESSES:    2935737 HITS:    2313931 MISSES:     621806
LLC RFO ACCESSES:     146317 HITS:      54228 MISSES:      92089
LLC PREFETCH ACCESSES:    9168802 HITS:    3630610 MISSES:    5538192
LLC WRITEBACK ACCESSES:     285982 HITS:     204552 MISSES:      81430
LLC 0 RQ ACCESS:    3082054
LLC 0 RQ TO_CACHE:    3082036
LLC 0 RQ MERGED:          0
LLC 0 RQ FORWARD:          0
LLC WQ ACCESS:     285982
LLC WQ TO_CACHE:     285982
LLC WQ MERGED:          0
LLC WQ FORWARD:         28
Major fault: 0 Minor fault: 6524
CPU 0 L1D next line prefetcher final stats
CPU 0 L2C PC-based stride prefetcher final stats
All Misses: 8143936
All Hits: 6915277
SD Algo Stats - Switches: 0 SRR-Repls: 651776 BRR-Repls: 0

DRAM Statistics
 CHANNEL 0
 RQ ROW_BUFFER_HIT:    5357132  ROW_BUFFER_MISS:     881523
 DBUS_CONGESTED:    2226039
 WQ ROW_BUFFER_HIT:      20913  ROW_BUFFER_MISS:     111467  FULL:          0

 AVG_CONGESTED_CYCLE: 12
LOADS RETIRED: 175418235
INSTR RETIRED: 500000000
