
*** ChampSim Multicore Out-of-Order Simulator ***

Warmup Instructions: 100000000
Simulation Instructions: 500000000
Number of CPUs: 1
LLC sets: 2048
LLC ways: 16
Clean RRIP Policies: 1023130210231302 Dirty RRIP Policies: 1003130210031302 PSEL Width: 10 Track Set: 4294967295 PSEL Mask: 1 Demote Mask: 4034144440341444DS Algo: 0Window size: 0
Off-chip DRAM Size: 4096 MB Channels: 1 Width: 64-bit Data Rate: 1600 MT/s

CPU 0 runs /mnt/beegfs/iconst01/spec2017/Gcc.trace.gz
NOT SORTED
TRACE STRING: /mnt/beegfs/iconst01/spec2017/Gcc.trace.gz
SORTED
TRACE STRING: /mnt/beegfs/iconst01/spec2017/Gcc.trace.gz
INITIAL
TRACE STRING: /mnt/beegfs/iconst01/spec2017/Gcc.trace.gz

champsim_seed used: 269

CPU 0 L1D next line prefetcher
CPU 0 L2C IP-based stride prefetcher
Initialize DRRIP state
Assign rand_sets[0]: 454  LLC: 2048
rand_sets[0]: 454
Assign rand_sets[1]: 1662  LLC: 2048
rand_sets[1]: 1662
Assign rand_sets[2]: 1921  LLC: 2048
rand_sets[2]: 1921
Assign rand_sets[3]: 1131  LLC: 2048
rand_sets[3]: 1131
Assign rand_sets[4]: 331  LLC: 2048
rand_sets[4]: 331
Assign rand_sets[5]: 1531  LLC: 2048
rand_sets[5]: 1531
Assign rand_sets[6]: 482  LLC: 2048
rand_sets[6]: 482
Assign rand_sets[7]: 1275  LLC: 2048
rand_sets[7]: 1275
Assign rand_sets[8]: 1876  LLC: 2048
rand_sets[8]: 1876
Assign rand_sets[9]: 2038  LLC: 2048
rand_sets[9]: 2038
Assign rand_sets[10]: 701  LLC: 2048
rand_sets[10]: 701
Assign rand_sets[11]: 479  LLC: 2048
rand_sets[11]: 479
Assign rand_sets[12]: 892  LLC: 2048
rand_sets[12]: 892
Assign rand_sets[13]: 1820  LLC: 2048
rand_sets[13]: 1820
Assign rand_sets[14]: 1505  LLC: 2048
rand_sets[14]: 1505
Assign rand_sets[15]: 1159  LLC: 2048
rand_sets[15]: 1159
Assign rand_sets[16]: 513  LLC: 2048
rand_sets[16]: 513
Assign rand_sets[17]: 703  LLC: 2048
rand_sets[17]: 703
Assign rand_sets[18]: 561  LLC: 2048
rand_sets[18]: 561
Assign rand_sets[19]: 990  LLC: 2048
rand_sets[19]: 990
Assign rand_sets[20]: 342  LLC: 2048
rand_sets[20]: 342
Assign rand_sets[21]: 882  LLC: 2048
rand_sets[21]: 882
Assign rand_sets[22]: 15  LLC: 2048
rand_sets[22]: 15
Assign rand_sets[23]: 71  LLC: 2048
rand_sets[23]: 71
Assign rand_sets[24]: 1127  LLC: 2048
rand_sets[24]: 1127
Assign rand_sets[25]: 1382  LLC: 2048
rand_sets[25]: 1382
Assign rand_sets[26]: 647  LLC: 2048
rand_sets[26]: 647
Assign rand_sets[27]: 857  LLC: 2048
rand_sets[27]: 857
Assign rand_sets[28]: 1450  LLC: 2048
rand_sets[28]: 1450
Assign rand_sets[29]: 1160  LLC: 2048
rand_sets[29]: 1160
Assign rand_sets[30]: 1852  LLC: 2048
rand_sets[30]: 1852
Assign rand_sets[31]: 1881  LLC: 2048
rand_sets[31]: 1881
Assign rand_sets[32]: 1770  LLC: 2048
rand_sets[32]: 1770
Assign rand_sets[33]: 1622  LLC: 2048
rand_sets[33]: 1622
Assign rand_sets[34]: 275  LLC: 2048
rand_sets[34]: 275
Assign rand_sets[35]: 635  LLC: 2048
rand_sets[35]: 635
Assign rand_sets[36]: 466  LLC: 2048
rand_sets[36]: 466
Assign rand_sets[37]: 1413  LLC: 2048
rand_sets[37]: 1413
Assign rand_sets[38]: 417  LLC: 2048
rand_sets[38]: 417
Assign rand_sets[39]: 472  LLC: 2048
rand_sets[39]: 472
Assign rand_sets[40]: 1340  LLC: 2048
rand_sets[40]: 1340
Assign rand_sets[41]: 852  LLC: 2048
rand_sets[41]: 852
Assign rand_sets[42]: 1365  LLC: 2048
rand_sets[42]: 1365
Assign rand_sets[43]: 47  LLC: 2048
rand_sets[43]: 47
Assign rand_sets[44]: 823  LLC: 2048
rand_sets[44]: 823
Assign rand_sets[45]: 686  LLC: 2048
rand_sets[45]: 686
Assign rand_sets[46]: 1637  LLC: 2048
rand_sets[46]: 1637
Assign rand_sets[47]: 1115  LLC: 2048
rand_sets[47]: 1115
Assign rand_sets[48]: 986  LLC: 2048
rand_sets[48]: 986
Assign rand_sets[49]: 258  LLC: 2048
rand_sets[49]: 258
Assign rand_sets[50]: 633  LLC: 2048
rand_sets[50]: 633
Assign rand_sets[51]: 920  LLC: 2048
rand_sets[51]: 920
Assign rand_sets[52]: 204  LLC: 2048
rand_sets[52]: 204
Assign rand_sets[53]: 227  LLC: 2048
rand_sets[53]: 227
Assign rand_sets[54]: 1818  LLC: 2048
rand_sets[54]: 1818
Assign rand_sets[55]: 886  LLC: 2048
rand_sets[55]: 886
Assign rand_sets[56]: 1422  LLC: 2048
rand_sets[56]: 1422
Assign rand_sets[57]: 607  LLC: 2048
rand_sets[57]: 607
Assign rand_sets[58]: 217  LLC: 2048
rand_sets[58]: 217
Assign rand_sets[59]: 1945  LLC: 2048
rand_sets[59]: 1945
Assign rand_sets[60]: 143  LLC: 2048
rand_sets[60]: 143
Assign rand_sets[61]: 1311  LLC: 2048
rand_sets[61]: 1311
Assign rand_sets[62]: 319  LLC: 2048
rand_sets[62]: 319
Assign rand_sets[63]: 1846  LLC: 2048
rand_sets[63]: 1846
 CLEAN-RRIP-POLICY-1: 1-0-2-3-1-3-0-2- CLEAN-RRIP-POLICY-2: 1-0-2-3-1-3-0-2-
 DIRTY-RRIP-POLICY-1: 1-0-0-3-1-3-0-2- DIRTY-RRIP-POLICY-2: 1-0-0-3-1-3-0-2-
 PSEL width: 10
Heartbeat CPU 0 instructions: 10000001 cycles: 7315999 heartbeat IPC: 1.36687 cumulative IPC: 1.36687 (Simulation time: 0 hr 0 min 14 sec) 
Heartbeat CPU 0 instructions: 20000000 cycles: 14307784 heartbeat IPC: 1.43025 cumulative IPC: 1.39784 (Simulation time: 0 hr 0 min 29 sec) 
Heartbeat CPU 0 instructions: 30000001 cycles: 21020715 heartbeat IPC: 1.48966 cumulative IPC: 1.42716 (Simulation time: 0 hr 0 min 45 sec) 
Heartbeat CPU 0 instructions: 40000000 cycles: 27481389 heartbeat IPC: 1.54783 cumulative IPC: 1.45553 (Simulation time: 0 hr 1 min 1 sec) 
Heartbeat CPU 0 instructions: 50000001 cycles: 33582882 heartbeat IPC: 1.63894 cumulative IPC: 1.48885 (Simulation time: 0 hr 1 min 17 sec) 
Heartbeat CPU 0 instructions: 60000000 cycles: 40063907 heartbeat IPC: 1.54297 cumulative IPC: 1.49761 (Simulation time: 0 hr 1 min 33 sec) 
Heartbeat CPU 0 instructions: 70000000 cycles: 47101205 heartbeat IPC: 1.421 cumulative IPC: 1.48616 (Simulation time: 0 hr 1 min 47 sec) 
Heartbeat CPU 0 instructions: 80000000 cycles: 54191119 heartbeat IPC: 1.41045 cumulative IPC: 1.47626 (Simulation time: 0 hr 2 min 2 sec) 
Heartbeat CPU 0 instructions: 90000003 cycles: 61195655 heartbeat IPC: 1.42765 cumulative IPC: 1.47069 (Simulation time: 0 hr 2 min 17 sec) 
Heartbeat CPU 0 instructions: 100000000 cycles: 68362808 heartbeat IPC: 1.39525 cumulative IPC: 1.46278 (Simulation time: 0 hr 2 min 31 sec) 

Warmup complete CPU 0 instructions: 100000004 cycles: 68362809 (Simulation time: 0 hr 2 min 31 sec) 

Heartbeat CPU 0 instructions: 110000003 cycles: 95945401 heartbeat IPC: 0.362548 cumulative IPC: 0.362547 (Simulation time: 0 hr 3 min 0 sec) 
Heartbeat CPU 0 instructions: 120000000 cycles: 123364734 heartbeat IPC: 0.364706 cumulative IPC: 0.363624 (Simulation time: 0 hr 3 min 29 sec) 
Heartbeat CPU 0 instructions: 130000000 cycles: 148276177 heartbeat IPC: 0.401422 cumulative IPC: 0.375406 (Simulation time: 0 hr 3 min 57 sec) 
Heartbeat CPU 0 instructions: 140000000 cycles: 177661552 heartbeat IPC: 0.340305 cumulative IPC: 0.365969 (Simulation time: 0 hr 4 min 25 sec) 
Heartbeat CPU 0 instructions: 150000000 cycles: 207523485 heartbeat IPC: 0.334875 cumulative IPC: 0.359297 (Simulation time: 0 hr 4 min 54 sec) 
Heartbeat CPU 0 instructions: 160000000 cycles: 234916659 heartbeat IPC: 0.365054 cumulative IPC: 0.360244 (Simulation time: 0 hr 5 min 22 sec) 
Heartbeat CPU 0 instructions: 170000001 cycles: 262860890 heartbeat IPC: 0.357856 cumulative IPC: 0.359901 (Simulation time: 0 hr 5 min 52 sec) 
Heartbeat CPU 0 instructions: 180000000 cycles: 291261018 heartbeat IPC: 0.352111 cumulative IPC: 0.358908 (Simulation time: 0 hr 6 min 21 sec) 
Heartbeat CPU 0 instructions: 190000002 cycles: 319179618 heartbeat IPC: 0.358184 cumulative IPC: 0.358828 (Simulation time: 0 hr 6 min 49 sec) 
Heartbeat CPU 0 instructions: 200000000 cycles: 347539816 heartbeat IPC: 0.352607 cumulative IPC: 0.358196 (Simulation time: 0 hr 7 min 19 sec) 
Heartbeat CPU 0 instructions: 210000002 cycles: 375322413 heartbeat IPC: 0.359938 cumulative IPC: 0.358353 (Simulation time: 0 hr 7 min 47 sec) 
Heartbeat CPU 0 instructions: 220000000 cycles: 404346845 heartbeat IPC: 0.344537 cumulative IPC: 0.35716 (Simulation time: 0 hr 8 min 15 sec) 
Heartbeat CPU 0 instructions: 230000000 cycles: 431837511 heartbeat IPC: 0.36376 cumulative IPC: 0.357659 (Simulation time: 0 hr 8 min 43 sec) 
Heartbeat CPU 0 instructions: 240000000 cycles: 457834796 heartbeat IPC: 0.384656 cumulative IPC: 0.359461 (Simulation time: 0 hr 9 min 10 sec) 
Heartbeat CPU 0 instructions: 250000000 cycles: 487858379 heartbeat IPC: 0.333072 cumulative IPC: 0.357572 (Simulation time: 0 hr 9 min 40 sec) 
Heartbeat CPU 0 instructions: 260000000 cycles: 514822452 heartbeat IPC: 0.370864 cumulative IPC: 0.358375 (Simulation time: 0 hr 10 min 8 sec) 
Heartbeat CPU 0 instructions: 270000003 cycles: 543018977 heartbeat IPC: 0.354654 cumulative IPC: 0.358154 (Simulation time: 0 hr 10 min 37 sec) 
Heartbeat CPU 0 instructions: 280000000 cycles: 571082557 heartbeat IPC: 0.356334 cumulative IPC: 0.358052 (Simulation time: 0 hr 11 min 7 sec) 
Heartbeat CPU 0 instructions: 290000000 cycles: 599833190 heartbeat IPC: 0.347818 cumulative IPC: 0.357499 (Simulation time: 0 hr 11 min 37 sec) 
Heartbeat CPU 0 instructions: 300000000 cycles: 629547903 heartbeat IPC: 0.336534 cumulative IPC: 0.356389 (Simulation time: 0 hr 12 min 5 sec) 
Heartbeat CPU 0 instructions: 310000001 cycles: 658917862 heartbeat IPC: 0.340484 cumulative IPC: 0.355598 (Simulation time: 0 hr 12 min 33 sec) 
Heartbeat CPU 0 instructions: 320000000 cycles: 687033761 heartbeat IPC: 0.355671 cumulative IPC: 0.355601 (Simulation time: 0 hr 13 min 1 sec) 
Heartbeat CPU 0 instructions: 330000000 cycles: 715579597 heartbeat IPC: 0.350314 cumulative IPC: 0.355368 (Simulation time: 0 hr 13 min 30 sec) 
Heartbeat CPU 0 instructions: 340000000 cycles: 744855251 heartbeat IPC: 0.341581 cumulative IPC: 0.354771 (Simulation time: 0 hr 13 min 58 sec) 
Heartbeat CPU 0 instructions: 350000003 cycles: 771830202 heartbeat IPC: 0.370714 cumulative IPC: 0.355383 (Simulation time: 0 hr 14 min 26 sec) 
Heartbeat CPU 0 instructions: 360000000 cycles: 800002903 heartbeat IPC: 0.354953 cumulative IPC: 0.355366 (Simulation time: 0 hr 14 min 54 sec) 
Heartbeat CPU 0 instructions: 370000000 cycles: 828325753 heartbeat IPC: 0.353072 cumulative IPC: 0.35528 (Simulation time: 0 hr 15 min 21 sec) 
Heartbeat CPU 0 instructions: 380000000 cycles: 856947394 heartbeat IPC: 0.349386 cumulative IPC: 0.355067 (Simulation time: 0 hr 15 min 48 sec) 
Heartbeat CPU 0 instructions: 390000001 cycles: 884637029 heartbeat IPC: 0.361146 cumulative IPC: 0.355273 (Simulation time: 0 hr 16 min 16 sec) 
Heartbeat CPU 0 instructions: 400000000 cycles: 913345542 heartbeat IPC: 0.348329 cumulative IPC: 0.355037 (Simulation time: 0 hr 16 min 43 sec) 
Heartbeat CPU 0 instructions: 410000001 cycles: 940718097 heartbeat IPC: 0.365329 cumulative IPC: 0.35536 (Simulation time: 0 hr 17 min 10 sec) 
Heartbeat CPU 0 instructions: 420000000 cycles: 968108690 heartbeat IPC: 0.365089 cumulative IPC: 0.355656 (Simulation time: 0 hr 17 min 37 sec) 
Heartbeat CPU 0 instructions: 430000002 cycles: 995847069 heartbeat IPC: 0.360511 cumulative IPC: 0.355801 (Simulation time: 0 hr 18 min 4 sec) 
Heartbeat CPU 0 instructions: 440000000 cycles: 1025363285 heartbeat IPC: 0.338797 cumulative IPC: 0.355277 (Simulation time: 0 hr 18 min 32 sec) 
Heartbeat CPU 0 instructions: 450000002 cycles: 1054675842 heartbeat IPC: 0.341151 cumulative IPC: 0.354857 (Simulation time: 0 hr 19 min 0 sec) 
Heartbeat CPU 0 instructions: 460000000 cycles: 1082432774 heartbeat IPC: 0.36027 cumulative IPC: 0.355005 (Simulation time: 0 hr 19 min 27 sec) 
Heartbeat CPU 0 instructions: 470000000 cycles: 1110131598 heartbeat IPC: 0.361026 cumulative IPC: 0.355165 (Simulation time: 0 hr 19 min 54 sec) 
Heartbeat CPU 0 instructions: 480000000 cycles: 1138075745 heartbeat IPC: 0.357857 cumulative IPC: 0.355235 (Simulation time: 0 hr 20 min 22 sec) 
Heartbeat CPU 0 instructions: 490000000 cycles: 1165733030 heartbeat IPC: 0.361568 cumulative IPC: 0.355395 (Simulation time: 0 hr 20 min 49 sec) 
Heartbeat CPU 0 instructions: 500000000 cycles: 1194000641 heartbeat IPC: 0.353762 cumulative IPC: 0.355354 (Simulation time: 0 hr 21 min 16 sec) 
Heartbeat CPU 0 instructions: 510000000 cycles: 1228325508 heartbeat IPC: 0.291334 cumulative IPC: 0.35346 (Simulation time: 0 hr 21 min 47 sec) 
Heartbeat CPU 0 instructions: 520000000 cycles: 1255778052 heartbeat IPC: 0.364265 cumulative IPC: 0.353709 (Simulation time: 0 hr 22 min 15 sec) 
Heartbeat CPU 0 instructions: 530000001 cycles: 1284933255 heartbeat IPC: 0.342992 cumulative IPC: 0.353453 (Simulation time: 0 hr 22 min 44 sec) 
Heartbeat CPU 0 instructions: 540000000 cycles: 1313005567 heartbeat IPC: 0.356223 cumulative IPC: 0.353515 (Simulation time: 0 hr 23 min 12 sec) 
Heartbeat CPU 0 instructions: 550000001 cycles: 1342174099 heartbeat IPC: 0.342835 cumulative IPC: 0.353271 (Simulation time: 0 hr 23 min 42 sec) 
Heartbeat CPU 0 instructions: 560000000 cycles: 1367484602 heartbeat IPC: 0.395093 cumulative IPC: 0.354085 (Simulation time: 0 hr 24 min 9 sec) 
Heartbeat CPU 0 instructions: 570000000 cycles: 1396815465 heartbeat IPC: 0.340938 cumulative IPC: 0.353795 (Simulation time: 0 hr 24 min 38 sec) 
Heartbeat CPU 0 instructions: 580000000 cycles: 1424794132 heartbeat IPC: 0.357415 cumulative IPC: 0.35387 (Simulation time: 0 hr 25 min 7 sec) 
Heartbeat CPU 0 instructions: 590000001 cycles: 1449635592 heartbeat IPC: 0.402553 cumulative IPC: 0.354745 (Simulation time: 0 hr 25 min 34 sec) 
Heartbeat CPU 0 instructions: 600000000 cycles: 1476076776 heartbeat IPC: 0.378198 cumulative IPC: 0.355186 (Simulation time: 0 hr 26 min 2 sec) 
Finished CPU 0 instructions: 500000000 cycles: 1407713989 cumulative IPC: 0.355186 (Simulation time: 0 hr 26 min 2 sec) 

CPU 0 Branch Prediction Accuracy: 86.4311% MPKI: 26.2662
Number of Branches: 96788573 Number of Mispredictions: 13133102
Number of LOAD Instructions: 164682285
Number of LOAD Instructions (ROI): 164682285
Number of STORE Instructions: 78194750
Number of STORE Instructions (ROI): 78194750
Total Destination Memory Operands: 83268534
Total Destination Memory Operands (ROI): 83268534
Total Source Memory Operands: 164712438
Total Source Memory Operands (ROI): 164712438
Number of DEPENDED LOADS: 7063293
Number of DEPENDED LOADS (ROI): 7063293
Number of SQ_ADDED: 83268522
Number of SQ_ADDED (ROI): 83268522
Number of LQ_ADDED: 236700507
Number of LQ_ADDED (ROI): 236700507
Number of Instructions read from trace: 600000066

ChampSim completed all CPUs

Region of Interest Statistics

CPU 0 cumulative IPC: 0.355186 instructions: 500000000 cycles: 1407713989
ITLB TOTAL     ACCESS:  100507944  HIT:  100303498  MISS:     204446
ITLB LOAD      ACCESS:  100507944  HIT:  100303498  MISS:     204446
ITLB RFO       ACCESS:          0  HIT:          0  MISS:          0
ITLB PREFETCH  ACCESS:          0  HIT:          0  MISS:          0
ITLB WRITEBACK ACCESS:          0  HIT:          0  MISS:          0
ITLB PREFETCH  REQUESTED:          0  ISSUED:          0  USEFUL:          0  USELESS:          0
ITLB TOTAL MSHR MERGED:     172424
ITLB LOAD MSHR MERGED:     172424
ITLB RFO MSHR MERGED:          0
ITLB PREFETCH MSHR MERGED:          0
ITLB WRITEBACK MSHR MERGED:          0
ITLB TOTAL ACCESSES:  100680368 HITS:  100303498 MISSES:     376870
ITLB LOAD ACCESSES:  100680368 HITS:  100303498 MISSES:     376870
ITLB RFO ACCESSES:          0 HITS:          0 MISSES:          0
ITLB PREFETCH ACCESSES:          0 HITS:          0 MISSES:          0
ITLB WRITEBACK ACCESSES:          0 HITS:          0 MISSES:          0
ITLB RQ ACCESS:  500000057
ITLB RQ TO_CACHE:  100680368
ITLB RQ MERGED:  399319689
ITLB RQ FORWARD:          0
ITLB WQ ACCESS:          0
ITLB WQ TO_CACHE:          0
ITLB WQ MERGED:          0
ITLB WQ FORWARD:          0
DTLB TOTAL     ACCESS:  165332874  HIT:  164698525  MISS:     634349
DTLB LOAD      ACCESS:  106288825  HIT:  105718861  MISS:     569964
DTLB RFO       ACCESS:   59044049  HIT:   58979664  MISS:      64385
DTLB PREFETCH  ACCESS:          0  HIT:          0  MISS:          0
DTLB WRITEBACK ACCESS:          0  HIT:          0  MISS:          0
DTLB PREFETCH  REQUESTED:          0  ISSUED:          0  USEFUL:          0  USELESS:          0
DTLB TOTAL MSHR MERGED:     100020
DTLB LOAD MSHR MERGED:      59452
DTLB RFO MSHR MERGED:      40568
DTLB PREFETCH MSHR MERGED:          0
DTLB WRITEBACK MSHR MERGED:          0
DTLB TOTAL ACCESSES:  165432894 HITS:  164698525 MISSES:     734369
DTLB LOAD ACCESSES:  106348277 HITS:  105718861 MISSES:     629416
DTLB RFO ACCESSES:   59084617 HITS:   58979664 MISSES:     104953
DTLB PREFETCH ACCESSES:          0 HITS:          0 MISSES:          0
DTLB WRITEBACK ACCESSES:          0 HITS:          0 MISSES:          0
DTLB RQ ACCESS:  200307613
DTLB RQ TO_CACHE:  165432894
DTLB RQ MERGED:   34874719
DTLB RQ FORWARD:          0
DTLB WQ ACCESS:          0
DTLB WQ TO_CACHE:          0
DTLB WQ MERGED:          0
DTLB WQ FORWARD:          0
L1D TOTAL     ACCESS:  281794446  HIT:  273885198  MISS:    7909248
L1D LOAD      ACCESS:  110407088  HIT:  107125939  MISS:    3281149
L1D RFO       ACCESS:   67115093  HIT:   66224424  MISS:     890669
L1D PREFETCH  ACCESS:  104272265  HIT:  100534835  MISS:    3737430
L1D WRITEBACK ACCESS:          0  HIT:          0  MISS:          0
L1D PREFETCH  REQUESTED:  110813691  ISSUED:  109114450  USEFUL:    1658199  USELESS:    2079195
L1D TOTAL MSHR MERGED:    2902297
L1D LOAD MSHR MERGED:     507185
L1D RFO MSHR MERGED:    1870657
L1D PREFETCH MSHR MERGED:     524455
L1D WRITEBACK MSHR MERGED:          0
L1D TOTAL ACCESSES:  284724204 HITS:  273912659 MISSES:   10811545
L1D LOAD ACCESSES:  110815179 HITS:  107127427 MISSES:    3687752
L1D RFO ACCESSES:   68973867 HITS:   66224424 MISSES:    2749443
L1D PREFETCH ACCESSES:  104935158 HITS:  100560808 MISSES:    4374350
L1D WRITEBACK ACCESSES:          0 HITS:          0 MISSES:          0
L1D RQ ACCESS:  130755010
L1D RQ TO_CACHE:  110813694
L1D RQ MERGED:   19939828
L1D RQ FORWARD:          0
L1D WQ ACCESS:   69552603
L1D WQ TO_CACHE:   68973868
L1D WQ MERGED:     578735
L1D WQ FORWARD:      27461
L1I TOTAL     ACCESS:  126555959  HIT:  122317405  MISS:    4238554
L1I LOAD      ACCESS:  126555959  HIT:  122317405  MISS:    4238554
L1I RFO       ACCESS:          0  HIT:          0  MISS:          0
L1I PREFETCH  ACCESS:          0  HIT:          0  MISS:          0
L1I WRITEBACK ACCESS:          0  HIT:          0  MISS:          0
L1I PREFETCH  REQUESTED:          0  ISSUED:          0  USEFUL:          0  USELESS:          0
L1I TOTAL MSHR MERGED:    1834198
L1I LOAD MSHR MERGED:    1834198
L1I RFO MSHR MERGED:          0
L1I PREFETCH MSHR MERGED:          0
L1I WRITEBACK MSHR MERGED:          0
L1I TOTAL ACCESSES:  128390160 HITS:  122317405 MISSES:    6072755
L1I LOAD ACCESSES:  128390160 HITS:  122317405 MISSES:    6072755
L1I RFO ACCESSES:          0 HITS:          0 MISSES:          0
L1I PREFETCH ACCESSES:          0 HITS:          0 MISSES:          0
L1I WRITEBACK ACCESSES:          0 HITS:          0 MISSES:          0
L1I RQ ACCESS:  500000057
L1I RQ TO_CACHE:  128390160
L1I RQ MERGED:  371609897
L1I RQ FORWARD:          0
L1I WQ ACCESS:          0
L1I WQ TO_CACHE:          0
L1I WQ MERGED:          0
L1I WQ FORWARD:          0
L2C TOTAL     ACCESS:   14904642  HIT:   11158169  MISS:    3746473
L2C LOAD      ACCESS:    7418915  HIT:    5098797  MISS:    2320118
L2C RFO       ACCESS:     878688  HIT:     409889  MISS:     468799
L2C PREFETCH  ACCESS:    4567816  HIT:    3627524  MISS:     940292
L2C WRITEBACK ACCESS:    2039223  HIT:    2021959  MISS:      17264
L2C PREFETCH  REQUESTED:     842797  ISSUED:     842797  USEFUL:     203294  USELESS:     736704
L2C TOTAL MSHR MERGED:       7520
L2C LOAD MSHR MERGED:        856
L2C RFO MSHR MERGED:          0
L2C PREFETCH MSHR MERGED:       6664
L2C WRITEBACK MSHR MERGED:          0
L2C TOTAL ACCESSES:   14913091 HITS:   11158615 MISSES:    3754476
L2C LOAD ACCESSES:    7419121 HITS:    5099003 MISSES:    2320118
L2C RFO ACCESSES:     878786 HITS:     409987 MISSES:     468799
L2C PREFETCH ACCESSES:    4575961 HITS:    3627666 MISSES:     948295
L2C WRITEBACK ACCESSES:    2039223 HITS:    2021959 MISSES:      17264
L2C RQ ACCESS:    8297910
L2C RQ TO_CACHE:    8297606
L2C RQ MERGED:          0
L2C RQ FORWARD:          0
L2C WQ ACCESS:    2039223
L2C WQ TO_CACHE:    2039223
L2C WQ MERGED:          0
L2C WQ FORWARD:        446
LLC TOTAL     ACCESS:    4609812  HIT:    3893550  MISS:     716262
LLC LOAD      ACCESS:    2319245  HIT:    2103935  MISS:     215310
LLC RFO       ACCESS:     468789  HIT:     401074  MISS:      67715
LLC PREFETCH  ACCESS:     941485  HIT:     586326  MISS:     355159
LLC WRITEBACK ACCESS:     880293  HIT:     802215  MISS:      78078
LLC PREFETCH  REQUESTED:          0  ISSUED:          0  USEFUL:      15128  USELESS:     341313
LLC TOTAL MSHR MERGED:        122
LLC LOAD MSHR MERGED:         42
LLC RFO MSHR MERGED:          0
LLC PREFETCH MSHR MERGED:         80
LLC WRITEBACK MSHR MERGED:          0
LLC TOTAL ACCESSES:    4609970 HITS:    3893586 MISSES:     716384
LLC LOAD ACCESSES:    2319262 HITS:    2103952 MISSES:     215310
LLC RFO ACCESSES:     468799 HITS:     401084 MISSES:      67715
LLC PREFETCH ACCESSES:     941616 HITS:     586335 MISSES:     355281
LLC WRITEBACK ACCESSES:     880293 HITS:     802215 MISSES:      78078
LLC 0 RQ ACCESS:    2788061
LLC 0 RQ TO_CACHE:    2788034
LLC 0 RQ MERGED:          0
LLC 0 RQ FORWARD:          0
LLC WQ ACCESS:     880293
LLC WQ TO_CACHE:     880293
LLC WQ MERGED:          0
LLC WQ FORWARD:         36
Major fault: 0 Minor fault: 12862
CPU 0 L1D next line prefetcher final stats
CPU 0 L2C PC-based stride prefetcher final stats
All Misses: 839966
All Hits: 4586852
SD Algo Stats - Switches: 0 SRR-Repls: 255228 BRR-Repls: 0

DRAM Statistics
 CHANNEL 0
 RQ ROW_BUFFER_HIT:     112205  ROW_BUFFER_MISS:     525166
 DBUS_CONGESTED:     365672
 WQ ROW_BUFFER_HIT:      13974  ROW_BUFFER_MISS:     181776  FULL:          0

 AVG_CONGESTED_CYCLE: 13
LOADS RETIRED: 136549171
INSTR RETIRED: 500000000
