
*** ChampSim Multicore Out-of-Order Simulator ***

Warmup Instructions: 100000000
Simulation Instructions: 500000000
Number of CPUs: 1
LLC sets: 2048
LLC ways: 16
Clean RRIP Policies: 2213130222131302 Dirty RRIP Policies: 1203130212031302 PSEL Width: 10 Track Set: 4294967295 PSEL Mask: 1 Demote Mask: 1040100010401000DS Algo: 0Window size: 0
Off-chip DRAM Size: 4096 MB Channels: 1 Width: 64-bit Data Rate: 1600 MT/s

CPU 0 runs /mnt/beegfs/iconst01/spec2017/Parest.trace.gz
NOT SORTED
TRACE STRING: /mnt/beegfs/iconst01/spec2017/Parest.trace.gz
SORTED
TRACE STRING: /mnt/beegfs/iconst01/spec2017/Parest.trace.gz
INITIAL
TRACE STRING: /mnt/beegfs/iconst01/spec2017/Parest.trace.gz

champsim_seed used: 623

CPU 0 L1D next line prefetcher
CPU 0 L2C IP-based stride prefetcher
Initialize DRRIP state
Assign rand_sets[0]: 454  LLC: 2048
rand_sets[0]: 454
Assign rand_sets[1]: 1662  LLC: 2048
rand_sets[1]: 1662
Assign rand_sets[2]: 1921  LLC: 2048
rand_sets[2]: 1921
Assign rand_sets[3]: 1131  LLC: 2048
rand_sets[3]: 1131
Assign rand_sets[4]: 331  LLC: 2048
rand_sets[4]: 331
Assign rand_sets[5]: 1531  LLC: 2048
rand_sets[5]: 1531
Assign rand_sets[6]: 482  LLC: 2048
rand_sets[6]: 482
Assign rand_sets[7]: 1275  LLC: 2048
rand_sets[7]: 1275
Assign rand_sets[8]: 1876  LLC: 2048
rand_sets[8]: 1876
Assign rand_sets[9]: 2038  LLC: 2048
rand_sets[9]: 2038
Assign rand_sets[10]: 701  LLC: 2048
rand_sets[10]: 701
Assign rand_sets[11]: 479  LLC: 2048
rand_sets[11]: 479
Assign rand_sets[12]: 892  LLC: 2048
rand_sets[12]: 892
Assign rand_sets[13]: 1820  LLC: 2048
rand_sets[13]: 1820
Assign rand_sets[14]: 1505  LLC: 2048
rand_sets[14]: 1505
Assign rand_sets[15]: 1159  LLC: 2048
rand_sets[15]: 1159
Assign rand_sets[16]: 513  LLC: 2048
rand_sets[16]: 513
Assign rand_sets[17]: 703  LLC: 2048
rand_sets[17]: 703
Assign rand_sets[18]: 561  LLC: 2048
rand_sets[18]: 561
Assign rand_sets[19]: 990  LLC: 2048
rand_sets[19]: 990
Assign rand_sets[20]: 342  LLC: 2048
rand_sets[20]: 342
Assign rand_sets[21]: 882  LLC: 2048
rand_sets[21]: 882
Assign rand_sets[22]: 15  LLC: 2048
rand_sets[22]: 15
Assign rand_sets[23]: 71  LLC: 2048
rand_sets[23]: 71
Assign rand_sets[24]: 1127  LLC: 2048
rand_sets[24]: 1127
Assign rand_sets[25]: 1382  LLC: 2048
rand_sets[25]: 1382
Assign rand_sets[26]: 647  LLC: 2048
rand_sets[26]: 647
Assign rand_sets[27]: 857  LLC: 2048
rand_sets[27]: 857
Assign rand_sets[28]: 1450  LLC: 2048
rand_sets[28]: 1450
Assign rand_sets[29]: 1160  LLC: 2048
rand_sets[29]: 1160
Assign rand_sets[30]: 1852  LLC: 2048
rand_sets[30]: 1852
Assign rand_sets[31]: 1881  LLC: 2048
rand_sets[31]: 1881
Assign rand_sets[32]: 1770  LLC: 2048
rand_sets[32]: 1770
Assign rand_sets[33]: 1622  LLC: 2048
rand_sets[33]: 1622
Assign rand_sets[34]: 275  LLC: 2048
rand_sets[34]: 275
Assign rand_sets[35]: 635  LLC: 2048
rand_sets[35]: 635
Assign rand_sets[36]: 466  LLC: 2048
rand_sets[36]: 466
Assign rand_sets[37]: 1413  LLC: 2048
rand_sets[37]: 1413
Assign rand_sets[38]: 417  LLC: 2048
rand_sets[38]: 417
Assign rand_sets[39]: 472  LLC: 2048
rand_sets[39]: 472
Assign rand_sets[40]: 1340  LLC: 2048
rand_sets[40]: 1340
Assign rand_sets[41]: 852  LLC: 2048
rand_sets[41]: 852
Assign rand_sets[42]: 1365  LLC: 2048
rand_sets[42]: 1365
Assign rand_sets[43]: 47  LLC: 2048
rand_sets[43]: 47
Assign rand_sets[44]: 823  LLC: 2048
rand_sets[44]: 823
Assign rand_sets[45]: 686  LLC: 2048
rand_sets[45]: 686
Assign rand_sets[46]: 1637  LLC: 2048
rand_sets[46]: 1637
Assign rand_sets[47]: 1115  LLC: 2048
rand_sets[47]: 1115
Assign rand_sets[48]: 986  LLC: 2048
rand_sets[48]: 986
Assign rand_sets[49]: 258  LLC: 2048
rand_sets[49]: 258
Assign rand_sets[50]: 633  LLC: 2048
rand_sets[50]: 633
Assign rand_sets[51]: 920  LLC: 2048
rand_sets[51]: 920
Assign rand_sets[52]: 204  LLC: 2048
rand_sets[52]: 204
Assign rand_sets[53]: 227  LLC: 2048
rand_sets[53]: 227
Assign rand_sets[54]: 1818  LLC: 2048
rand_sets[54]: 1818
Assign rand_sets[55]: 886  LLC: 2048
rand_sets[55]: 886
Assign rand_sets[56]: 1422  LLC: 2048
rand_sets[56]: 1422
Assign rand_sets[57]: 607  LLC: 2048
rand_sets[57]: 607
Assign rand_sets[58]: 217  LLC: 2048
rand_sets[58]: 217
Assign rand_sets[59]: 1945  LLC: 2048
rand_sets[59]: 1945
Assign rand_sets[60]: 143  LLC: 2048
rand_sets[60]: 143
Assign rand_sets[61]: 1311  LLC: 2048
rand_sets[61]: 1311
Assign rand_sets[62]: 319  LLC: 2048
rand_sets[62]: 319
Assign rand_sets[63]: 1846  LLC: 2048
rand_sets[63]: 1846
 CLEAN-RRIP-POLICY-1: 2-2-1-3-1-3-0-2- CLEAN-RRIP-POLICY-2: 2-2-1-3-1-3-0-2-
 DIRTY-RRIP-POLICY-1: 1-2-0-3-1-3-0-2- DIRTY-RRIP-POLICY-2: 1-2-0-3-1-3-0-2-
 PSEL width: 10
Heartbeat CPU 0 instructions: 10000001 cycles: 4387143 heartbeat IPC: 2.27939 cumulative IPC: 2.27939 (Simulation time: 0 hr 0 min 14 sec) 
Heartbeat CPU 0 instructions: 20000000 cycles: 8781328 heartbeat IPC: 2.27573 cumulative IPC: 2.27756 (Simulation time: 0 hr 0 min 29 sec) 
Heartbeat CPU 0 instructions: 30000003 cycles: 13213265 heartbeat IPC: 2.25635 cumulative IPC: 2.27045 (Simulation time: 0 hr 0 min 44 sec) 
Heartbeat CPU 0 instructions: 40000000 cycles: 17643899 heartbeat IPC: 2.25701 cumulative IPC: 2.26707 (Simulation time: 0 hr 0 min 58 sec) 
Heartbeat CPU 0 instructions: 50000000 cycles: 22052176 heartbeat IPC: 2.26846 cumulative IPC: 2.26735 (Simulation time: 0 hr 1 min 12 sec) 
Heartbeat CPU 0 instructions: 60000000 cycles: 26457930 heartbeat IPC: 2.26976 cumulative IPC: 2.26775 (Simulation time: 0 hr 1 min 26 sec) 
Heartbeat CPU 0 instructions: 70000000 cycles: 30858855 heartbeat IPC: 2.27225 cumulative IPC: 2.26839 (Simulation time: 0 hr 1 min 41 sec) 
Heartbeat CPU 0 instructions: 80000000 cycles: 35254466 heartbeat IPC: 2.275 cumulative IPC: 2.26922 (Simulation time: 0 hr 1 min 56 sec) 
Heartbeat CPU 0 instructions: 90000000 cycles: 39648756 heartbeat IPC: 2.27568 cumulative IPC: 2.26993 (Simulation time: 0 hr 2 min 11 sec) 
Heartbeat CPU 0 instructions: 100000000 cycles: 44046099 heartbeat IPC: 2.2741 cumulative IPC: 2.27035 (Simulation time: 0 hr 2 min 26 sec) 

Warmup complete CPU 0 instructions: 100000002 cycles: 44046109 (Simulation time: 0 hr 2 min 26 sec) 

Heartbeat CPU 0 instructions: 110000000 cycles: 53999238 heartbeat IPC: 1.00471 cumulative IPC: 1.00471 (Simulation time: 0 hr 2 min 44 sec) 
Heartbeat CPU 0 instructions: 120000000 cycles: 62971642 heartbeat IPC: 1.11453 cumulative IPC: 1.05677 (Simulation time: 0 hr 3 min 3 sec) 
Heartbeat CPU 0 instructions: 130000000 cycles: 71988428 heartbeat IPC: 1.10904 cumulative IPC: 1.07364 (Simulation time: 0 hr 3 min 21 sec) 
Heartbeat CPU 0 instructions: 140000000 cycles: 81145142 heartbeat IPC: 1.09209 cumulative IPC: 1.0782 (Simulation time: 0 hr 3 min 40 sec) 
Heartbeat CPU 0 instructions: 150000000 cycles: 92236469 heartbeat IPC: 0.901605 cumulative IPC: 1.03755 (Simulation time: 0 hr 3 min 59 sec) 
Heartbeat CPU 0 instructions: 160000000 cycles: 102305895 heartbeat IPC: 0.993105 cumulative IPC: 1.02987 (Simulation time: 0 hr 4 min 18 sec) 
Heartbeat CPU 0 instructions: 170000000 cycles: 112129767 heartbeat IPC: 1.01793 cumulative IPC: 1.02815 (Simulation time: 0 hr 4 min 36 sec) 
Heartbeat CPU 0 instructions: 180000000 cycles: 121780907 heartbeat IPC: 1.03615 cumulative IPC: 1.02914 (Simulation time: 0 hr 4 min 55 sec) 
Heartbeat CPU 0 instructions: 190000002 cycles: 131559943 heartbeat IPC: 1.0226 cumulative IPC: 1.02841 (Simulation time: 0 hr 5 min 14 sec) 
Heartbeat CPU 0 instructions: 200000000 cycles: 140782262 heartbeat IPC: 1.08433 cumulative IPC: 1.03374 (Simulation time: 0 hr 5 min 32 sec) 
Heartbeat CPU 0 instructions: 210000000 cycles: 150404159 heartbeat IPC: 1.0393 cumulative IPC: 1.03424 (Simulation time: 0 hr 5 min 51 sec) 
Heartbeat CPU 0 instructions: 220000000 cycles: 159318908 heartbeat IPC: 1.12174 cumulative IPC: 1.04101 (Simulation time: 0 hr 6 min 9 sec) 
Heartbeat CPU 0 instructions: 230000001 cycles: 171459930 heartbeat IPC: 0.823654 cumulative IPC: 1.0203 (Simulation time: 0 hr 6 min 30 sec) 
Heartbeat CPU 0 instructions: 240000000 cycles: 181931492 heartbeat IPC: 0.954967 cumulative IPC: 1.01534 (Simulation time: 0 hr 6 min 49 sec) 
Heartbeat CPU 0 instructions: 250000002 cycles: 191787408 heartbeat IPC: 1.01462 cumulative IPC: 1.01529 (Simulation time: 0 hr 7 min 7 sec) 
Heartbeat CPU 0 instructions: 260000000 cycles: 201361116 heartbeat IPC: 1.04453 cumulative IPC: 1.01707 (Simulation time: 0 hr 7 min 26 sec) 
Heartbeat CPU 0 instructions: 270000001 cycles: 210750749 heartbeat IPC: 1.065 cumulative IPC: 1.01977 (Simulation time: 0 hr 7 min 44 sec) 
Heartbeat CPU 0 instructions: 280000000 cycles: 220442088 heartbeat IPC: 1.03185 cumulative IPC: 1.02043 (Simulation time: 0 hr 8 min 3 sec) 
Heartbeat CPU 0 instructions: 290000002 cycles: 229491803 heartbeat IPC: 1.10501 cumulative IPC: 1.02456 (Simulation time: 0 hr 8 min 21 sec) 
Heartbeat CPU 0 instructions: 300000000 cycles: 239012985 heartbeat IPC: 1.05029 cumulative IPC: 1.02582 (Simulation time: 0 hr 8 min 40 sec) 
Heartbeat CPU 0 instructions: 310000000 cycles: 247978059 heartbeat IPC: 1.11544 cumulative IPC: 1.02976 (Simulation time: 0 hr 8 min 58 sec) 
Heartbeat CPU 0 instructions: 320000000 cycles: 257080860 heartbeat IPC: 1.09856 cumulative IPC: 1.0327 (Simulation time: 0 hr 9 min 17 sec) 
Heartbeat CPU 0 instructions: 330000003 cycles: 266355279 heartbeat IPC: 1.07824 cumulative IPC: 1.0346 (Simulation time: 0 hr 9 min 35 sec) 
Heartbeat CPU 0 instructions: 340000000 cycles: 276272592 heartbeat IPC: 1.00834 cumulative IPC: 1.03347 (Simulation time: 0 hr 9 min 54 sec) 
Heartbeat CPU 0 instructions: 350000000 cycles: 286608613 heartbeat IPC: 0.96749 cumulative IPC: 1.03066 (Simulation time: 0 hr 10 min 13 sec) 
Heartbeat CPU 0 instructions: 360000000 cycles: 296400262 heartbeat IPC: 1.02128 cumulative IPC: 1.0303 (Simulation time: 0 hr 10 min 31 sec) 
Heartbeat CPU 0 instructions: 370000000 cycles: 305899618 heartbeat IPC: 1.0527 cumulative IPC: 1.03111 (Simulation time: 0 hr 10 min 50 sec) 
Heartbeat CPU 0 instructions: 380000000 cycles: 315225444 heartbeat IPC: 1.07229 cumulative IPC: 1.03253 (Simulation time: 0 hr 11 min 8 sec) 
Heartbeat CPU 0 instructions: 390000002 cycles: 324311149 heartbeat IPC: 1.10063 cumulative IPC: 1.03473 (Simulation time: 0 hr 11 min 27 sec) 
Heartbeat CPU 0 instructions: 400000000 cycles: 333814720 heartbeat IPC: 1.05224 cumulative IPC: 1.03531 (Simulation time: 0 hr 11 min 45 sec) 
Heartbeat CPU 0 instructions: 410000000 cycles: 342682752 heartbeat IPC: 1.12765 cumulative IPC: 1.03805 (Simulation time: 0 hr 12 min 4 sec) 
Heartbeat CPU 0 instructions: 420000000 cycles: 353496557 heartbeat IPC: 0.924744 cumulative IPC: 1.03409 (Simulation time: 0 hr 12 min 23 sec) 
Heartbeat CPU 0 instructions: 430000000 cycles: 364341748 heartbeat IPC: 0.922068 cumulative IPC: 1.0303 (Simulation time: 0 hr 12 min 42 sec) 
Heartbeat CPU 0 instructions: 440000000 cycles: 374221758 heartbeat IPC: 1.01214 cumulative IPC: 1.02975 (Simulation time: 0 hr 13 min 0 sec) 
Heartbeat CPU 0 instructions: 450000000 cycles: 383980554 heartbeat IPC: 1.02472 cumulative IPC: 1.02961 (Simulation time: 0 hr 13 min 18 sec) 
Heartbeat CPU 0 instructions: 460000000 cycles: 393678778 heartbeat IPC: 1.03112 cumulative IPC: 1.02965 (Simulation time: 0 hr 13 min 36 sec) 
Heartbeat CPU 0 instructions: 470000001 cycles: 403425623 heartbeat IPC: 1.02597 cumulative IPC: 1.02955 (Simulation time: 0 hr 13 min 55 sec) 
Heartbeat CPU 0 instructions: 480000000 cycles: 412593114 heartbeat IPC: 1.09081 cumulative IPC: 1.03108 (Simulation time: 0 hr 14 min 13 sec) 
Heartbeat CPU 0 instructions: 490000002 cycles: 422259854 heartbeat IPC: 1.03448 cumulative IPC: 1.03116 (Simulation time: 0 hr 14 min 31 sec) 
Heartbeat CPU 0 instructions: 500000000 cycles: 431516048 heartbeat IPC: 1.08036 cumulative IPC: 1.03234 (Simulation time: 0 hr 14 min 49 sec) 
Heartbeat CPU 0 instructions: 510000000 cycles: 440571092 heartbeat IPC: 1.10436 cumulative IPC: 1.03398 (Simulation time: 0 hr 15 min 7 sec) 
Heartbeat CPU 0 instructions: 520000000 cycles: 449929516 heartbeat IPC: 1.06856 cumulative IPC: 1.03478 (Simulation time: 0 hr 15 min 26 sec) 
Heartbeat CPU 0 instructions: 530000001 cycles: 460076246 heartbeat IPC: 0.985539 cumulative IPC: 1.03358 (Simulation time: 0 hr 15 min 44 sec) 
Heartbeat CPU 0 instructions: 540000000 cycles: 470587083 heartbeat IPC: 0.951399 cumulative IPC: 1.03155 (Simulation time: 0 hr 16 min 3 sec) 
Heartbeat CPU 0 instructions: 550000003 cycles: 480553909 heartbeat IPC: 1.00333 cumulative IPC: 1.03091 (Simulation time: 0 hr 16 min 21 sec) 
Heartbeat CPU 0 instructions: 560000000 cycles: 490250411 heartbeat IPC: 1.0313 cumulative IPC: 1.03092 (Simulation time: 0 hr 16 min 39 sec) 
Heartbeat CPU 0 instructions: 570000002 cycles: 499744218 heartbeat IPC: 1.05332 cumulative IPC: 1.03138 (Simulation time: 0 hr 16 min 57 sec) 
Heartbeat CPU 0 instructions: 580000000 cycles: 509016587 heartbeat IPC: 1.07847 cumulative IPC: 1.03232 (Simulation time: 0 hr 17 min 15 sec) 
Heartbeat CPU 0 instructions: 590000002 cycles: 518649454 heartbeat IPC: 1.03811 cumulative IPC: 1.03244 (Simulation time: 0 hr 17 min 33 sec) 
Heartbeat CPU 0 instructions: 600000000 cycles: 527815649 heartbeat IPC: 1.09097 cumulative IPC: 1.03355 (Simulation time: 0 hr 17 min 51 sec) 
Finished CPU 0 instructions: 500000000 cycles: 483769554 cumulative IPC: 1.03355 (Simulation time: 0 hr 17 min 51 sec) 

CPU 0 Branch Prediction Accuracy: 97.8526% MPKI: 2.66709
Number of Branches: 62099103 Number of Mispredictions: 1333545
Number of LOAD Instructions: 210576465
Number of LOAD Instructions (ROI): 210576465
Number of STORE Instructions: 16915507
Number of STORE Instructions (ROI): 16915507
Total Destination Memory Operands: 16918869
Total Destination Memory Operands (ROI): 16918869
Total Source Memory Operands: 210576465
Total Source Memory Operands (ROI): 210576465
Number of DEPENDED LOADS: 345063
Number of DEPENDED LOADS (ROI): 345063
Number of SQ_ADDED: 16918826
Number of SQ_ADDED (ROI): 16918826
Number of LQ_ADDED: 210607290
Number of LQ_ADDED (ROI): 210607290
Number of Instructions read from trace: 600000257

ChampSim completed all CPUs

Region of Interest Statistics

CPU 0 cumulative IPC: 1.03355 instructions: 500000000 cycles: 483769554
ITLB TOTAL     ACCESS:   76360132  HIT:   76360094  MISS:         38
ITLB LOAD      ACCESS:   76360132  HIT:   76360094  MISS:         38
ITLB RFO       ACCESS:          0  HIT:          0  MISS:          0
ITLB PREFETCH  ACCESS:          0  HIT:          0  MISS:          0
ITLB WRITEBACK ACCESS:          0  HIT:          0  MISS:          0
ITLB PREFETCH  REQUESTED:          0  ISSUED:          0  USEFUL:          0  USELESS:          0
ITLB TOTAL MSHR MERGED:         37
ITLB LOAD MSHR MERGED:         37
ITLB RFO MSHR MERGED:          0
ITLB PREFETCH MSHR MERGED:          0
ITLB WRITEBACK MSHR MERGED:          0
ITLB TOTAL ACCESSES:   76360169 HITS:   76360094 MISSES:         75
ITLB LOAD ACCESSES:   76360169 HITS:   76360094 MISSES:         75
ITLB RFO ACCESSES:          0 HITS:          0 MISSES:          0
ITLB PREFETCH ACCESSES:          0 HITS:          0 MISSES:          0
ITLB WRITEBACK ACCESSES:          0 HITS:          0 MISSES:          0
ITLB RQ ACCESS:  500000188
ITLB RQ TO_CACHE:   76360170
ITLB RQ MERGED:  423640018
ITLB RQ FORWARD:          0
ITLB WQ ACCESS:          0
ITLB WQ TO_CACHE:          0
ITLB WQ MERGED:          0
ITLB WQ FORWARD:          0
DTLB TOTAL     ACCESS:  136723139  HIT:  136520346  MISS:     202793
DTLB LOAD      ACCESS:  128661019  HIT:  128460947  MISS:     200072
DTLB RFO       ACCESS:    8062120  HIT:    8059399  MISS:       2721
DTLB PREFETCH  ACCESS:          0  HIT:          0  MISS:          0
DTLB WRITEBACK ACCESS:          0  HIT:          0  MISS:          0
DTLB PREFETCH  REQUESTED:          0  ISSUED:          0  USEFUL:          0  USELESS:          0
DTLB TOTAL MSHR MERGED:     448548
DTLB LOAD MSHR MERGED:     444854
DTLB RFO MSHR MERGED:       3694
DTLB PREFETCH MSHR MERGED:          0
DTLB WRITEBACK MSHR MERGED:          0
DTLB TOTAL ACCESSES:  137171687 HITS:  136520346 MISSES:     651341
DTLB LOAD ACCESSES:  129105873 HITS:  128460947 MISSES:     644926
DTLB RFO ACCESSES:    8065814 HITS:    8059399 MISSES:       6415
DTLB PREFETCH ACCESSES:          0 HITS:          0 MISSES:          0
DTLB WRITEBACK ACCESSES:          0 HITS:          0 MISSES:          0
DTLB RQ ACCESS:  189419499
DTLB RQ TO_CACHE:  137171687
DTLB RQ MERGED:   52247812
DTLB RQ FORWARD:          0
DTLB WQ ACCESS:          0
DTLB WQ TO_CACHE:          0
DTLB WQ MERGED:          0
DTLB WQ FORWARD:          0
L1D TOTAL     ACCESS:  125170187  HIT:  107613136  MISS:   17557051
L1D LOAD      ACCESS:   72276057  HIT:   61996561  MISS:   10279496
L1D RFO       ACCESS:   14013856  HIT:   13861017  MISS:     152839
L1D PREFETCH  ACCESS:   38880274  HIT:   31755558  MISS:    7124716
L1D WRITEBACK ACCESS:          0  HIT:          0  MISS:          0
L1D PREFETCH  REQUESTED:   85477454  ISSUED:   84156435  USEFUL:    5865270  USELESS:    1259457
L1D TOTAL MSHR MERGED:   31657792
L1D LOAD MSHR MERGED:   18369021
L1D RFO MSHR MERGED:     266827
L1D PREFETCH MSHR MERGED:   13021944
L1D WRITEBACK MSHR MERGED:          0
L1D TOTAL ACCESSES:  156828474 HITS:  107613632 MISSES:   49214842
L1D LOAD ACCESSES:   85477461 HITS:   61996568 MISSES:   23480893
L1D RFO ACCESSES:   14280654 HITS:   13861017 MISSES:     419637
L1D PREFETCH ACCESSES:   57070359 HITS:   31756047 MISSES:   25314312
L1D WRITEBACK ACCESSES:          0 HITS:          0 MISSES:          0
L1D RQ ACCESS:  175130477
L1D RQ TO_CACHE:   85477454
L1D RQ MERGED:   89653016
L1D RQ FORWARD:          0
L1D WQ ACCESS:   14289037
L1D WQ TO_CACHE:   14280654
L1D WQ MERGED:       8383
L1D WQ FORWARD:        496
L1I TOTAL     ACCESS:   93388987  HIT:   93387191  MISS:       1796
L1I LOAD      ACCESS:   93388987  HIT:   93387191  MISS:       1796
L1I RFO       ACCESS:          0  HIT:          0  MISS:          0
L1I PREFETCH  ACCESS:          0  HIT:          0  MISS:          0
L1I WRITEBACK ACCESS:          0  HIT:          0  MISS:          0
L1I PREFETCH  REQUESTED:          0  ISSUED:          0  USEFUL:          0  USELESS:          0
L1I TOTAL MSHR MERGED:       2338
L1I LOAD MSHR MERGED:       2338
L1I RFO MSHR MERGED:          0
L1I PREFETCH MSHR MERGED:          0
L1I WRITEBACK MSHR MERGED:          0
L1I TOTAL ACCESSES:   93391325 HITS:   93387191 MISSES:       4134
L1I LOAD ACCESSES:   93391325 HITS:   93387191 MISSES:       4134
L1I RFO ACCESSES:          0 HITS:          0 MISSES:          0
L1I PREFETCH ACCESSES:          0 HITS:          0 MISSES:          0
L1I WRITEBACK ACCESSES:          0 HITS:          0 MISSES:          0
L1I RQ ACCESS:  500000187
L1I RQ TO_CACHE:   93391325
L1I RQ MERGED:  406608862
L1I RQ FORWARD:          0
L1I WQ ACCESS:          0
L1I WQ TO_CACHE:          0
L1I WQ MERGED:          0
L1I WQ FORWARD:          0
L2C TOTAL     ACCESS:   20902049  HIT:    8672824  MISS:   12229225
L2C LOAD      ACCESS:    5113643  HIT:    2145271  MISS:    2968372
L2C RFO       ACCESS:     152810  HIT:       6517  MISS:     146293
L2C PREFETCH  ACCESS:   13862844  HIT:    4748393  MISS:    9114451
L2C WRITEBACK ACCESS:    1772752  HIT:    1772643  MISS:        109
L2C PREFETCH  REQUESTED:    1812862  ISSUED:    1812862  USEFUL:    1065972  USELESS:    8050142
L2C TOTAL MSHR MERGED:      97838
L2C LOAD MSHR MERGED:      22541
L2C RFO MSHR MERGED:          0
L2C PREFETCH MSHR MERGED:      75297
L2C WRITEBACK MSHR MERGED:          0
L2C TOTAL ACCESSES:   21024438 HITS:    8672864 MISSES:   12351574
L2C LOAD ACCESSES:    5113668 HITS:    2145296 MISSES:    2968372
L2C RFO ACCESSES:     152810 HITS:       6517 MISSES:     146293
L2C PREFETCH ACCESSES:   13985208 HITS:    4748408 MISSES:    9236800
L2C WRITEBACK ACCESSES:    1772752 HITS:    1772643 MISSES:        109
L2C RQ ACCESS:    5266478
L2C RQ TO_CACHE:    5266453
L2C RQ MERGED:          0
L2C RQ FORWARD:          0
L2C WQ ACCESS:    1772752
L2C WQ TO_CACHE:    1772752
L2C WQ MERGED:          0
L2C WQ FORWARD:         40
LLC TOTAL     ACCESS:   12534065  HIT:    6805896  MISS:    5728169
LLC LOAD      ACCESS:    2945814  HIT:    2475960  MISS:     469854
LLC RFO       ACCESS:     146293  HIT:      81468  MISS:      64825
LLC PREFETCH  ACCESS:    9155975  HIT:    4010365  MISS:    5145610
LLC WRITEBACK ACCESS:     285983  HIT:     238103  MISS:      47880
LLC PREFETCH  REQUESTED:          0  ISSUED:          0  USEFUL:       6790  USELESS:    5138764
LLC TOTAL MSHR MERGED:        898
LLC LOAD MSHR MERGED:        181
LLC RFO MSHR MERGED:          0
LLC PREFETCH MSHR MERGED:        717
LLC WRITEBACK MSHR MERGED:          0
LLC TOTAL ACCESSES:   12534991 HITS:    6805924 MISSES:    5729067
LLC LOAD ACCESSES:    2945831 HITS:    2475977 MISSES:     469854
LLC RFO ACCESSES:     146293 HITS:      81468 MISSES:      64825
LLC PREFETCH ACCESSES:    9156884 HITS:    4010376 MISSES:    5146508
LLC WRITEBACK ACCESSES:     285983 HITS:     238103 MISSES:      47880
LLC 0 RQ ACCESS:    3092124
LLC 0 RQ TO_CACHE:    3092107
LLC 0 RQ MERGED:          0
LLC 0 RQ FORWARD:          0
LLC WQ ACCESS:     285983
LLC WQ TO_CACHE:     285983
LLC WQ MERGED:          0
LLC WQ FORWARD:         28
Major fault: 0 Minor fault: 6524
CPU 0 L1D next line prefetcher final stats
CPU 0 L2C PC-based stride prefetcher final stats
All Misses: 7527215
All Hits: 7531864
SD Algo Stats - Switches: 0 SRR-Repls: 499749 BRR-Repls: 0

DRAM Statistics
 CHANNEL 0
 RQ ROW_BUFFER_HIT:    4888994  ROW_BUFFER_MISS:     784371
 DBUS_CONGESTED:    2061073
 WQ ROW_BUFFER_HIT:      13988  ROW_BUFFER_MISS:      67036  FULL:          0

 AVG_CONGESTED_CYCLE: 12
LOADS RETIRED: 175418235
INSTR RETIRED: 500000000
