
*** ChampSim Multicore Out-of-Order Simulator ***

Warmup Instructions: 100000000
Simulation Instructions: 500000000
Number of CPUs: 1
LLC sets: 2048
LLC ways: 16
Clean RRIP Policies: 1213130112131301 Dirty RRIP Policies: 2213130122131301 PSEL Width: 10 Track Set: 4294967295 PSEL Mask: 1 Demote Mask: 3040101030401010DS Algo: 0Window size: 0
Off-chip DRAM Size: 4096 MB Channels: 1 Width: 64-bit Data Rate: 1600 MT/s

CPU 0 runs /mnt/beegfs/iconst01/spec2017/Xalancbmk.trace.gz
NOT SORTED
TRACE STRING: /mnt/beegfs/iconst01/spec2017/Xalancbmk.trace.gz
SORTED
TRACE STRING: /mnt/beegfs/iconst01/spec2017/Xalancbmk.trace.gz
INITIAL
TRACE STRING: /mnt/beegfs/iconst01/spec2017/Xalancbmk.trace.gz

champsim_seed used: 913

CPU 0 L1D next line prefetcher
CPU 0 L2C IP-based stride prefetcher
Initialize DRRIP state
Assign rand_sets[0]: 454  LLC: 2048
rand_sets[0]: 454
Assign rand_sets[1]: 1662  LLC: 2048
rand_sets[1]: 1662
Assign rand_sets[2]: 1921  LLC: 2048
rand_sets[2]: 1921
Assign rand_sets[3]: 1131  LLC: 2048
rand_sets[3]: 1131
Assign rand_sets[4]: 331  LLC: 2048
rand_sets[4]: 331
Assign rand_sets[5]: 1531  LLC: 2048
rand_sets[5]: 1531
Assign rand_sets[6]: 482  LLC: 2048
rand_sets[6]: 482
Assign rand_sets[7]: 1275  LLC: 2048
rand_sets[7]: 1275
Assign rand_sets[8]: 1876  LLC: 2048
rand_sets[8]: 1876
Assign rand_sets[9]: 2038  LLC: 2048
rand_sets[9]: 2038
Assign rand_sets[10]: 701  LLC: 2048
rand_sets[10]: 701
Assign rand_sets[11]: 479  LLC: 2048
rand_sets[11]: 479
Assign rand_sets[12]: 892  LLC: 2048
rand_sets[12]: 892
Assign rand_sets[13]: 1820  LLC: 2048
rand_sets[13]: 1820
Assign rand_sets[14]: 1505  LLC: 2048
rand_sets[14]: 1505
Assign rand_sets[15]: 1159  LLC: 2048
rand_sets[15]: 1159
Assign rand_sets[16]: 513  LLC: 2048
rand_sets[16]: 513
Assign rand_sets[17]: 703  LLC: 2048
rand_sets[17]: 703
Assign rand_sets[18]: 561  LLC: 2048
rand_sets[18]: 561
Assign rand_sets[19]: 990  LLC: 2048
rand_sets[19]: 990
Assign rand_sets[20]: 342  LLC: 2048
rand_sets[20]: 342
Assign rand_sets[21]: 882  LLC: 2048
rand_sets[21]: 882
Assign rand_sets[22]: 15  LLC: 2048
rand_sets[22]: 15
Assign rand_sets[23]: 71  LLC: 2048
rand_sets[23]: 71
Assign rand_sets[24]: 1127  LLC: 2048
rand_sets[24]: 1127
Assign rand_sets[25]: 1382  LLC: 2048
rand_sets[25]: 1382
Assign rand_sets[26]: 647  LLC: 2048
rand_sets[26]: 647
Assign rand_sets[27]: 857  LLC: 2048
rand_sets[27]: 857
Assign rand_sets[28]: 1450  LLC: 2048
rand_sets[28]: 1450
Assign rand_sets[29]: 1160  LLC: 2048
rand_sets[29]: 1160
Assign rand_sets[30]: 1852  LLC: 2048
rand_sets[30]: 1852
Assign rand_sets[31]: 1881  LLC: 2048
rand_sets[31]: 1881
Assign rand_sets[32]: 1770  LLC: 2048
rand_sets[32]: 1770
Assign rand_sets[33]: 1622  LLC: 2048
rand_sets[33]: 1622
Assign rand_sets[34]: 275  LLC: 2048
rand_sets[34]: 275
Assign rand_sets[35]: 635  LLC: 2048
rand_sets[35]: 635
Assign rand_sets[36]: 466  LLC: 2048
rand_sets[36]: 466
Assign rand_sets[37]: 1413  LLC: 2048
rand_sets[37]: 1413
Assign rand_sets[38]: 417  LLC: 2048
rand_sets[38]: 417
Assign rand_sets[39]: 472  LLC: 2048
rand_sets[39]: 472
Assign rand_sets[40]: 1340  LLC: 2048
rand_sets[40]: 1340
Assign rand_sets[41]: 852  LLC: 2048
rand_sets[41]: 852
Assign rand_sets[42]: 1365  LLC: 2048
rand_sets[42]: 1365
Assign rand_sets[43]: 47  LLC: 2048
rand_sets[43]: 47
Assign rand_sets[44]: 823  LLC: 2048
rand_sets[44]: 823
Assign rand_sets[45]: 686  LLC: 2048
rand_sets[45]: 686
Assign rand_sets[46]: 1637  LLC: 2048
rand_sets[46]: 1637
Assign rand_sets[47]: 1115  LLC: 2048
rand_sets[47]: 1115
Assign rand_sets[48]: 986  LLC: 2048
rand_sets[48]: 986
Assign rand_sets[49]: 258  LLC: 2048
rand_sets[49]: 258
Assign rand_sets[50]: 633  LLC: 2048
rand_sets[50]: 633
Assign rand_sets[51]: 920  LLC: 2048
rand_sets[51]: 920
Assign rand_sets[52]: 204  LLC: 2048
rand_sets[52]: 204
Assign rand_sets[53]: 227  LLC: 2048
rand_sets[53]: 227
Assign rand_sets[54]: 1818  LLC: 2048
rand_sets[54]: 1818
Assign rand_sets[55]: 886  LLC: 2048
rand_sets[55]: 886
Assign rand_sets[56]: 1422  LLC: 2048
rand_sets[56]: 1422
Assign rand_sets[57]: 607  LLC: 2048
rand_sets[57]: 607
Assign rand_sets[58]: 217  LLC: 2048
rand_sets[58]: 217
Assign rand_sets[59]: 1945  LLC: 2048
rand_sets[59]: 1945
Assign rand_sets[60]: 143  LLC: 2048
rand_sets[60]: 143
Assign rand_sets[61]: 1311  LLC: 2048
rand_sets[61]: 1311
Assign rand_sets[62]: 319  LLC: 2048
rand_sets[62]: 319
Assign rand_sets[63]: 1846  LLC: 2048
rand_sets[63]: 1846
 CLEAN-RRIP-POLICY-1: 1-2-1-3-1-3-0-1- CLEAN-RRIP-POLICY-2: 1-2-1-3-1-3-0-1-
 DIRTY-RRIP-POLICY-1: 2-2-1-3-1-3-0-1- DIRTY-RRIP-POLICY-2: 2-2-1-3-1-3-0-1-
 PSEL width: 10
Heartbeat CPU 0 instructions: 10000003 cycles: 4586235 heartbeat IPC: 2.18044 cumulative IPC: 2.18044 (Simulation time: 0 hr 0 min 15 sec) 
Heartbeat CPU 0 instructions: 20000000 cycles: 8977103 heartbeat IPC: 2.27745 cumulative IPC: 2.22789 (Simulation time: 0 hr 0 min 29 sec) 
Heartbeat CPU 0 instructions: 30000000 cycles: 13386387 heartbeat IPC: 2.26794 cumulative IPC: 2.24108 (Simulation time: 0 hr 0 min 44 sec) 
Heartbeat CPU 0 instructions: 40000000 cycles: 18011675 heartbeat IPC: 2.16203 cumulative IPC: 2.22078 (Simulation time: 0 hr 0 min 59 sec) 
Heartbeat CPU 0 instructions: 50000002 cycles: 22423528 heartbeat IPC: 2.26662 cumulative IPC: 2.2298 (Simulation time: 0 hr 1 min 14 sec) 
Heartbeat CPU 0 instructions: 60000000 cycles: 27075265 heartbeat IPC: 2.14973 cumulative IPC: 2.21604 (Simulation time: 0 hr 1 min 30 sec) 
Heartbeat CPU 0 instructions: 70000003 cycles: 31478170 heartbeat IPC: 2.27123 cumulative IPC: 2.22376 (Simulation time: 0 hr 1 min 45 sec) 
Heartbeat CPU 0 instructions: 80000000 cycles: 35902405 heartbeat IPC: 2.26028 cumulative IPC: 2.22826 (Simulation time: 0 hr 1 min 59 sec) 
Heartbeat CPU 0 instructions: 90000002 cycles: 40359204 heartbeat IPC: 2.24376 cumulative IPC: 2.22997 (Simulation time: 0 hr 2 min 14 sec) 
Heartbeat CPU 0 instructions: 100000000 cycles: 44833495 heartbeat IPC: 2.23499 cumulative IPC: 2.23048 (Simulation time: 0 hr 2 min 29 sec) 

Warmup complete CPU 0 instructions: 100000003 cycles: 44833496 (Simulation time: 0 hr 2 min 29 sec) 

Heartbeat CPU 0 instructions: 110000000 cycles: 71349834 heartbeat IPC: 0.377126 cumulative IPC: 0.377126 (Simulation time: 0 hr 3 min 1 sec) 
Heartbeat CPU 0 instructions: 120000000 cycles: 99552339 heartbeat IPC: 0.354578 cumulative IPC: 0.365505 (Simulation time: 0 hr 3 min 35 sec) 
Heartbeat CPU 0 instructions: 130000000 cycles: 123090821 heartbeat IPC: 0.424836 cumulative IPC: 0.383351 (Simulation time: 0 hr 4 min 5 sec) 
Heartbeat CPU 0 instructions: 140000000 cycles: 145638379 heartbeat IPC: 0.443507 cumulative IPC: 0.396806 (Simulation time: 0 hr 4 min 34 sec) 
Heartbeat CPU 0 instructions: 150000000 cycles: 170053027 heartbeat IPC: 0.40959 cumulative IPC: 0.399299 (Simulation time: 0 hr 5 min 5 sec) 
Heartbeat CPU 0 instructions: 160000000 cycles: 194840500 heartbeat IPC: 0.40343 cumulative IPC: 0.399981 (Simulation time: 0 hr 5 min 36 sec) 
Heartbeat CPU 0 instructions: 170000002 cycles: 216104749 heartbeat IPC: 0.470273 cumulative IPC: 0.408708 (Simulation time: 0 hr 6 min 4 sec) 
Heartbeat CPU 0 instructions: 180000000 cycles: 239073420 heartbeat IPC: 0.435376 cumulative IPC: 0.411862 (Simulation time: 0 hr 6 min 34 sec) 
Heartbeat CPU 0 instructions: 190000000 cycles: 258142043 heartbeat IPC: 0.524422 cumulative IPC: 0.421924 (Simulation time: 0 hr 7 min 0 sec) 
Heartbeat CPU 0 instructions: 200000000 cycles: 279422561 heartbeat IPC: 0.469913 cumulative IPC: 0.426277 (Simulation time: 0 hr 7 min 29 sec) 
Heartbeat CPU 0 instructions: 210000001 cycles: 305735828 heartbeat IPC: 0.380036 cumulative IPC: 0.421614 (Simulation time: 0 hr 8 min 1 sec) 
Heartbeat CPU 0 instructions: 220000000 cycles: 331542255 heartbeat IPC: 0.3875 cumulative IPC: 0.418543 (Simulation time: 0 hr 8 min 32 sec) 
Heartbeat CPU 0 instructions: 230000000 cycles: 353759300 heartbeat IPC: 0.450105 cumulative IPC: 0.420813 (Simulation time: 0 hr 9 min 1 sec) 
Heartbeat CPU 0 instructions: 240000000 cycles: 379347522 heartbeat IPC: 0.390805 cumulative IPC: 0.418518 (Simulation time: 0 hr 9 min 33 sec) 
Heartbeat CPU 0 instructions: 250000001 cycles: 404191133 heartbeat IPC: 0.402518 cumulative IPC: 0.417411 (Simulation time: 0 hr 10 min 4 sec) 
Heartbeat CPU 0 instructions: 260000000 cycles: 425213278 heartbeat IPC: 0.475689 cumulative IPC: 0.420632 (Simulation time: 0 hr 10 min 32 sec) 
Heartbeat CPU 0 instructions: 270000000 cycles: 447200919 heartbeat IPC: 0.454801 cumulative IPC: 0.422499 (Simulation time: 0 hr 11 min 1 sec) 
Heartbeat CPU 0 instructions: 280000000 cycles: 474676509 heartbeat IPC: 0.363959 cumulative IPC: 0.418758 (Simulation time: 0 hr 11 min 34 sec) 
Heartbeat CPU 0 instructions: 290000000 cycles: 495904967 heartbeat IPC: 0.471066 cumulative IPC: 0.421219 (Simulation time: 0 hr 12 min 2 sec) 
Heartbeat CPU 0 instructions: 300000000 cycles: 516558811 heartbeat IPC: 0.484171 cumulative IPC: 0.423976 (Simulation time: 0 hr 12 min 30 sec) 
Heartbeat CPU 0 instructions: 310000000 cycles: 535854264 heartbeat IPC: 0.518257 cumulative IPC: 0.42768 (Simulation time: 0 hr 12 min 56 sec) 
Heartbeat CPU 0 instructions: 320000000 cycles: 565039009 heartbeat IPC: 0.342645 cumulative IPC: 0.42291 (Simulation time: 0 hr 13 min 30 sec) 
Heartbeat CPU 0 instructions: 330000001 cycles: 584414872 heartbeat IPC: 0.516106 cumulative IPC: 0.426256 (Simulation time: 0 hr 13 min 56 sec) 
Heartbeat CPU 0 instructions: 340000000 cycles: 603791604 heartbeat IPC: 0.516083 cumulative IPC: 0.42937 (Simulation time: 0 hr 14 min 22 sec) 
Heartbeat CPU 0 instructions: 350000001 cycles: 628623185 heartbeat IPC: 0.402713 cumulative IPC: 0.428236 (Simulation time: 0 hr 14 min 53 sec) 
Heartbeat CPU 0 instructions: 360000000 cycles: 650907822 heartbeat IPC: 0.44874 cumulative IPC: 0.42899 (Simulation time: 0 hr 15 min 21 sec) 
Heartbeat CPU 0 instructions: 370000001 cycles: 676008222 heartbeat IPC: 0.3984 cumulative IPC: 0.427774 (Simulation time: 0 hr 15 min 52 sec) 
Heartbeat CPU 0 instructions: 380000000 cycles: 698989541 heartbeat IPC: 0.435136 cumulative IPC: 0.428032 (Simulation time: 0 hr 16 min 20 sec) 
Heartbeat CPU 0 instructions: 390000000 cycles: 717752142 heartbeat IPC: 0.532975 cumulative IPC: 0.430958 (Simulation time: 0 hr 16 min 46 sec) 
Heartbeat CPU 0 instructions: 400000000 cycles: 737629113 heartbeat IPC: 0.503095 cumulative IPC: 0.433028 (Simulation time: 0 hr 17 min 12 sec) 
Heartbeat CPU 0 instructions: 410000001 cycles: 763515256 heartbeat IPC: 0.386307 cumulative IPC: 0.431345 (Simulation time: 0 hr 17 min 42 sec) 
Heartbeat CPU 0 instructions: 420000000 cycles: 788111049 heartbeat IPC: 0.406574 cumulative IPC: 0.430526 (Simulation time: 0 hr 18 min 11 sec) 
Heartbeat CPU 0 instructions: 430000002 cycles: 809485056 heartbeat IPC: 0.467858 cumulative IPC: 0.431569 (Simulation time: 0 hr 18 min 38 sec) 
Heartbeat CPU 0 instructions: 440000000 cycles: 829907679 heartbeat IPC: 0.489653 cumulative IPC: 0.43308 (Simulation time: 0 hr 19 min 4 sec) 
Heartbeat CPU 0 instructions: 450000002 cycles: 856402445 heartbeat IPC: 0.377433 cumulative IPC: 0.431263 (Simulation time: 0 hr 19 min 35 sec) 
Heartbeat CPU 0 instructions: 460000000 cycles: 882269838 heartbeat IPC: 0.386587 cumulative IPC: 0.429883 (Simulation time: 0 hr 20 min 5 sec) 
Heartbeat CPU 0 instructions: 470000002 cycles: 908144627 heartbeat IPC: 0.386477 cumulative IPC: 0.428582 (Simulation time: 0 hr 20 min 35 sec) 
Heartbeat CPU 0 instructions: 480000000 cycles: 932818021 heartbeat IPC: 0.405295 cumulative IPC: 0.427935 (Simulation time: 0 hr 21 min 4 sec) 
Heartbeat CPU 0 instructions: 490000000 cycles: 953689793 heartbeat IPC: 0.479116 cumulative IPC: 0.429111 (Simulation time: 0 hr 21 min 31 sec) 
Heartbeat CPU 0 instructions: 500000000 cycles: 978435713 heartbeat IPC: 0.404107 cumulative IPC: 0.428448 (Simulation time: 0 hr 22 min 0 sec) 
Heartbeat CPU 0 instructions: 510000000 cycles: 1003471892 heartbeat IPC: 0.399422 cumulative IPC: 0.42769 (Simulation time: 0 hr 22 min 30 sec) 
Heartbeat CPU 0 instructions: 520000000 cycles: 1024621993 heartbeat IPC: 0.472811 cumulative IPC: 0.428664 (Simulation time: 0 hr 22 min 57 sec) 
Heartbeat CPU 0 instructions: 530000003 cycles: 1050155595 heartbeat IPC: 0.391641 cumulative IPC: 0.427724 (Simulation time: 0 hr 23 min 26 sec) 
Heartbeat CPU 0 instructions: 540000000 cycles: 1072988115 heartbeat IPC: 0.437972 cumulative IPC: 0.427951 (Simulation time: 0 hr 23 min 54 sec) 
Heartbeat CPU 0 instructions: 550000000 cycles: 1098247841 heartbeat IPC: 0.395887 cumulative IPC: 0.427182 (Simulation time: 0 hr 24 min 24 sec) 
Heartbeat CPU 0 instructions: 560000000 cycles: 1121909600 heartbeat IPC: 0.422623 cumulative IPC: 0.427082 (Simulation time: 0 hr 24 min 52 sec) 
Heartbeat CPU 0 instructions: 570000002 cycles: 1145332343 heartbeat IPC: 0.426936 cumulative IPC: 0.427079 (Simulation time: 0 hr 25 min 21 sec) 
Heartbeat CPU 0 instructions: 580000000 cycles: 1166498876 heartbeat IPC: 0.472444 cumulative IPC: 0.427935 (Simulation time: 0 hr 25 min 48 sec) 
Heartbeat CPU 0 instructions: 590000001 cycles: 1190376730 heartbeat IPC: 0.418798 cumulative IPC: 0.427745 (Simulation time: 0 hr 26 min 16 sec) 
Heartbeat CPU 0 instructions: 600000000 cycles: 1209593069 heartbeat IPC: 0.52039 cumulative IPC: 0.429273 (Simulation time: 0 hr 26 min 42 sec) 
Finished CPU 0 instructions: 500000000 cycles: 1164759594 cumulative IPC: 0.429273 (Simulation time: 0 hr 26 min 42 sec) 

CPU 0 Branch Prediction Accuracy: 99.5434% MPKI: 1.33026
Number of Branches: 145676990 Number of Mispredictions: 665128
Number of LOAD Instructions: 188863207
Number of LOAD Instructions (ROI): 188863207
Number of STORE Instructions: 7332002
Number of STORE Instructions (ROI): 7332002
Total Destination Memory Operands: 10029285
Total Destination Memory Operands (ROI): 10029285
Total Source Memory Operands: 188863207
Total Source Memory Operands (ROI): 188863207
Number of DEPENDED LOADS: 291805
Number of DEPENDED LOADS (ROI): 291805
Number of SQ_ADDED: 10029285
Number of SQ_ADDED (ROI): 10029285
Number of LQ_ADDED: 200675333
Number of LQ_ADDED (ROI): 200675333
Number of Instructions read from trace: 600000010

ChampSim completed all CPUs

Region of Interest Statistics

CPU 0 cumulative IPC: 0.429273 instructions: 500000000 cycles: 1164759594
ITLB TOTAL     ACCESS:  145805843  HIT:  145766316  MISS:      39527
ITLB LOAD      ACCESS:  145805843  HIT:  145766316  MISS:      39527
ITLB RFO       ACCESS:          0  HIT:          0  MISS:          0
ITLB PREFETCH  ACCESS:          0  HIT:          0  MISS:          0
ITLB WRITEBACK ACCESS:          0  HIT:          0  MISS:          0
ITLB PREFETCH  REQUESTED:          0  ISSUED:          0  USEFUL:          0  USELESS:          0
ITLB TOTAL MSHR MERGED:      57385
ITLB LOAD MSHR MERGED:      57385
ITLB RFO MSHR MERGED:          0
ITLB PREFETCH MSHR MERGED:          0
ITLB WRITEBACK MSHR MERGED:          0
ITLB TOTAL ACCESSES:  145863228 HITS:  145766316 MISSES:      96912
ITLB LOAD ACCESSES:  145863228 HITS:  145766316 MISSES:      96912
ITLB RFO ACCESSES:          0 HITS:          0 MISSES:          0
ITLB PREFETCH ACCESSES:          0 HITS:          0 MISSES:          0
ITLB WRITEBACK ACCESSES:          0 HITS:          0 MISSES:          0
ITLB RQ ACCESS:  499999754
ITLB RQ TO_CACHE:  145863228
ITLB RQ MERGED:  354136526
ITLB RQ FORWARD:          0
ITLB WQ ACCESS:          0
ITLB WQ TO_CACHE:          0
ITLB WQ MERGED:          0
ITLB WQ FORWARD:          0
DTLB TOTAL     ACCESS:  135188720  HIT:  134020360  MISS:    1168360
DTLB LOAD      ACCESS:  127147747  HIT:  125988489  MISS:    1159258
DTLB RFO       ACCESS:    8040973  HIT:    8031871  MISS:       9102
DTLB PREFETCH  ACCESS:          0  HIT:          0  MISS:          0
DTLB WRITEBACK ACCESS:          0  HIT:          0  MISS:          0
DTLB PREFETCH  REQUESTED:          0  ISSUED:          0  USEFUL:          0  USELESS:          0
DTLB TOTAL MSHR MERGED:     581553
DTLB LOAD MSHR MERGED:     577172
DTLB RFO MSHR MERGED:       4381
DTLB PREFETCH MSHR MERGED:          0
DTLB WRITEBACK MSHR MERGED:          0
DTLB TOTAL ACCESSES:  135770273 HITS:  134020360 MISSES:    1749913
DTLB LOAD ACCESSES:  127724919 HITS:  125988489 MISSES:    1736430
DTLB RFO ACCESSES:    8045354 HITS:    8031871 MISSES:      13483
DTLB PREFETCH ACCESSES:          0 HITS:          0 MISSES:          0
DTLB WRITEBACK ACCESSES:          0 HITS:          0 MISSES:          0
DTLB RQ ACCESS:  165762531
DTLB RQ TO_CACHE:  135770273
DTLB RQ MERGED:   29992258
DTLB RQ FORWARD:          0
DTLB WQ ACCESS:          0
DTLB WQ TO_CACHE:          0
DTLB WQ MERGED:          0
DTLB WQ FORWARD:          0
L1D TOTAL     ACCESS:  156948128  HIT:  139632450  MISS:   17315678
L1D LOAD      ACCESS:   89975505  HIT:   78831249  MISS:   11144256
L1D RFO       ACCESS:    8497165  HIT:    8409950  MISS:      87215
L1D PREFETCH  ACCESS:   58475458  HIT:   52391251  MISS:    6084207
L1D WRITEBACK ACCESS:          0  HIT:          0  MISS:          0
L1D PREFETCH  REQUESTED:   93717203  ISSUED:   92849712  USEFUL:    2002785  USELESS:    4081496
L1D TOTAL MSHR MERGED:   15110433
L1D LOAD MSHR MERGED:    7141734
L1D RFO MSHR MERGED:     127484
L1D PREFETCH MSHR MERGED:    7841215
L1D WRITEBACK MSHR MERGED:          0
L1D TOTAL ACCESSES:  172058721 HITS:  139632609 MISSES:   32426112
L1D LOAD ACCESSES:   93717206 HITS:   78831252 MISSES:   14885954
L1D RFO ACCESSES:    8622746 HITS:    8409950 MISSES:     212796
L1D PREFETCH ACCESSES:   69718769 HITS:   52391407 MISSES:   17327362
L1D WRITEBACK ACCESSES:          0 HITS:          0 MISSES:          0
L1D RQ ACCESS:  157123325
L1D RQ TO_CACHE:   93717203
L1D RQ MERGED:   63406119
L1D RQ FORWARD:          0
L1D WQ ACCESS:    8639208
L1D WQ TO_CACHE:    8622746
L1D WQ MERGED:      16462
L1D WQ FORWARD:        159
L1I TOTAL     ACCESS:  178794240  HIT:  178130584  MISS:     663656
L1I LOAD      ACCESS:  178794240  HIT:  178130584  MISS:     663656
L1I RFO       ACCESS:          0  HIT:          0  MISS:          0
L1I PREFETCH  ACCESS:          0  HIT:          0  MISS:          0
L1I WRITEBACK ACCESS:          0  HIT:          0  MISS:          0
L1I PREFETCH  REQUESTED:          0  ISSUED:          0  USEFUL:          0  USELESS:          0
L1I TOTAL MSHR MERGED:     597755
L1I LOAD MSHR MERGED:     597755
L1I RFO MSHR MERGED:          0
L1I PREFETCH MSHR MERGED:          0
L1I WRITEBACK MSHR MERGED:          0
L1I TOTAL ACCESSES:  179391995 HITS:  178130584 MISSES:    1261411
L1I LOAD ACCESSES:  179391995 HITS:  178130584 MISSES:    1261411
L1I RFO ACCESSES:          0 HITS:          0 MISSES:          0
L1I PREFETCH ACCESSES:          0 HITS:          0 MISSES:          0
L1I WRITEBACK ACCESSES:          0 HITS:          0 MISSES:          0
L1I RQ ACCESS:  499999757
L1I RQ TO_CACHE:  179391995
L1I RQ MERGED:  320607762
L1I RQ FORWARD:          0
L1I WQ ACCESS:          0
L1I WQ TO_CACHE:          0
L1I WQ MERGED:          0
L1I WQ FORWARD:          0
L2C TOTAL     ACCESS:   19276691  HIT:    2057241  MISS:   17219450
L2C LOAD      ACCESS:    8407773  HIT:     951119  MISS:    7456654
L2C RFO       ACCESS:      85288  HIT:      53727  MISS:      31561
L2C PREFETCH  ACCESS:   10498630  HIT:     770205  MISS:    9728425
L2C WRITEBACK ACCESS:     285000  HIT:     282190  MISS:       2810
L2C PREFETCH  REQUESTED:    1016886  ISSUED:    1016886  USEFUL:     274791  USELESS:    9452728
L2C TOTAL MSHR MERGED:       1068
L2C LOAD MSHR MERGED:        224
L2C RFO MSHR MERGED:          1
L2C PREFETCH MSHR MERGED:        843
L2C WRITEBACK MSHR MERGED:          0
L2C TOTAL ACCESSES:   19279960 HITS:    2057434 MISSES:   17222526
L2C LOAD ACCESSES:    8407876 HITS:     951222 MISSES:    7456654
L2C RFO ACCESSES:      85312 HITS:      53751 MISSES:      31561
L2C PREFETCH ACCESSES:   10501772 HITS:     770271 MISSES:    9731501
L2C WRITEBACK ACCESSES:     285000 HITS:     282190 MISSES:       2810
L2C RQ ACCESS:    8493188
L2C RQ TO_CACHE:    8493061
L2C RQ MERGED:          0
L2C RQ FORWARD:          0
L2C WQ ACCESS:     285000
L2C WQ TO_CACHE:     285000
L2C WQ MERGED:          0
L2C WQ FORWARD:        193
LLC TOTAL     ACCESS:   17324704  HIT:    4857624  MISS:   12467080
LLC LOAD      ACCESS:    7456430  HIT:    3998825  MISS:    3457605
LLC RFO       ACCESS:      31560  HIT:      14163  MISS:      17397
LLC PREFETCH  ACCESS:    9730656  HIT:     765191  MISS:    8965465
LLC WRITEBACK ACCESS:     106058  HIT:      79445  MISS:      26613
LLC PREFETCH  REQUESTED:          0  ISSUED:          0  USEFUL:       2081  USELESS:    8962657
LLC TOTAL MSHR MERGED:          1
LLC LOAD MSHR MERGED:          0
LLC RFO MSHR MERGED:          0
LLC PREFETCH MSHR MERGED:          1
LLC WRITEBACK MSHR MERGED:          0
LLC TOTAL ACCESSES:   17324706 HITS:    4857624 MISSES:   12467082
LLC LOAD ACCESSES:    7456430 HITS:    3998825 MISSES:    3457605
LLC RFO ACCESSES:      31560 HITS:      14163 MISSES:      17397
LLC PREFETCH ACCESSES:    9730658 HITS:     765191 MISSES:    8965467
LLC WRITEBACK ACCESSES:     106058 HITS:      79445 MISSES:      26613
LLC 0 RQ ACCESS:    7487990
LLC 0 RQ TO_CACHE:    7487990
LLC 0 RQ MERGED:          0
LLC 0 RQ FORWARD:          0
LLC WQ ACCESS:     106058
LLC WQ TO_CACHE:     106058
LLC WQ MERGED:          0
LLC WQ FORWARD:          0
Major fault: 0 Minor fault: 6432
CPU 0 L1D next line prefetcher final stats
CPU 0 L2C PC-based stride prefetcher final stats
All Misses: 14700524
All Hits: 5843842
SD Algo Stats - Switches: 0 SRR-Repls: 3685598 BRR-Repls: 0

DRAM Statistics
 CHANNEL 0
 RQ ROW_BUFFER_HIT:    9395465  ROW_BUFFER_MISS:    3038942
 DBUS_CONGESTED:    5795266
 WQ ROW_BUFFER_HIT:       1595  ROW_BUFFER_MISS:      49291  FULL:          0

 AVG_CONGESTED_CYCLE: 12
LOADS RETIRED: 157382665
INSTR RETIRED: 500000000
