
*** ChampSim Multicore Out-of-Order Simulator ***

Warmup Instructions: 100000000
Simulation Instructions: 500000000
Number of CPUs: 1
LLC sets: 2048
LLC ways: 16
Clean RRIP Policies: 2213230222132302 Dirty RRIP Policies: 2203130222031302 PSEL Width: 10 Track Set: 4294967295 PSEL Mask: 1 Demote Mask: 3240100032401000DS Algo: 0Window size: 0
Off-chip DRAM Size: 4096 MB Channels: 1 Width: 64-bit Data Rate: 1600 MT/s

CPU 0 runs /mnt/beegfs/iconst01/spec2017/Wrf.trace.gz
NOT SORTED
TRACE STRING: /mnt/beegfs/iconst01/spec2017/Wrf.trace.gz
SORTED
TRACE STRING: /mnt/beegfs/iconst01/spec2017/Wrf.trace.gz
INITIAL
TRACE STRING: /mnt/beegfs/iconst01/spec2017/Wrf.trace.gz

champsim_seed used: 303

CPU 0 L1D next line prefetcher
CPU 0 L2C IP-based stride prefetcher
Initialize DRRIP state
Assign rand_sets[0]: 454  LLC: 2048
rand_sets[0]: 454
Assign rand_sets[1]: 1662  LLC: 2048
rand_sets[1]: 1662
Assign rand_sets[2]: 1921  LLC: 2048
rand_sets[2]: 1921
Assign rand_sets[3]: 1131  LLC: 2048
rand_sets[3]: 1131
Assign rand_sets[4]: 331  LLC: 2048
rand_sets[4]: 331
Assign rand_sets[5]: 1531  LLC: 2048
rand_sets[5]: 1531
Assign rand_sets[6]: 482  LLC: 2048
rand_sets[6]: 482
Assign rand_sets[7]: 1275  LLC: 2048
rand_sets[7]: 1275
Assign rand_sets[8]: 1876  LLC: 2048
rand_sets[8]: 1876
Assign rand_sets[9]: 2038  LLC: 2048
rand_sets[9]: 2038
Assign rand_sets[10]: 701  LLC: 2048
rand_sets[10]: 701
Assign rand_sets[11]: 479  LLC: 2048
rand_sets[11]: 479
Assign rand_sets[12]: 892  LLC: 2048
rand_sets[12]: 892
Assign rand_sets[13]: 1820  LLC: 2048
rand_sets[13]: 1820
Assign rand_sets[14]: 1505  LLC: 2048
rand_sets[14]: 1505
Assign rand_sets[15]: 1159  LLC: 2048
rand_sets[15]: 1159
Assign rand_sets[16]: 513  LLC: 2048
rand_sets[16]: 513
Assign rand_sets[17]: 703  LLC: 2048
rand_sets[17]: 703
Assign rand_sets[18]: 561  LLC: 2048
rand_sets[18]: 561
Assign rand_sets[19]: 990  LLC: 2048
rand_sets[19]: 990
Assign rand_sets[20]: 342  LLC: 2048
rand_sets[20]: 342
Assign rand_sets[21]: 882  LLC: 2048
rand_sets[21]: 882
Assign rand_sets[22]: 15  LLC: 2048
rand_sets[22]: 15
Assign rand_sets[23]: 71  LLC: 2048
rand_sets[23]: 71
Assign rand_sets[24]: 1127  LLC: 2048
rand_sets[24]: 1127
Assign rand_sets[25]: 1382  LLC: 2048
rand_sets[25]: 1382
Assign rand_sets[26]: 647  LLC: 2048
rand_sets[26]: 647
Assign rand_sets[27]: 857  LLC: 2048
rand_sets[27]: 857
Assign rand_sets[28]: 1450  LLC: 2048
rand_sets[28]: 1450
Assign rand_sets[29]: 1160  LLC: 2048
rand_sets[29]: 1160
Assign rand_sets[30]: 1852  LLC: 2048
rand_sets[30]: 1852
Assign rand_sets[31]: 1881  LLC: 2048
rand_sets[31]: 1881
Assign rand_sets[32]: 1770  LLC: 2048
rand_sets[32]: 1770
Assign rand_sets[33]: 1622  LLC: 2048
rand_sets[33]: 1622
Assign rand_sets[34]: 275  LLC: 2048
rand_sets[34]: 275
Assign rand_sets[35]: 635  LLC: 2048
rand_sets[35]: 635
Assign rand_sets[36]: 466  LLC: 2048
rand_sets[36]: 466
Assign rand_sets[37]: 1413  LLC: 2048
rand_sets[37]: 1413
Assign rand_sets[38]: 417  LLC: 2048
rand_sets[38]: 417
Assign rand_sets[39]: 472  LLC: 2048
rand_sets[39]: 472
Assign rand_sets[40]: 1340  LLC: 2048
rand_sets[40]: 1340
Assign rand_sets[41]: 852  LLC: 2048
rand_sets[41]: 852
Assign rand_sets[42]: 1365  LLC: 2048
rand_sets[42]: 1365
Assign rand_sets[43]: 47  LLC: 2048
rand_sets[43]: 47
Assign rand_sets[44]: 823  LLC: 2048
rand_sets[44]: 823
Assign rand_sets[45]: 686  LLC: 2048
rand_sets[45]: 686
Assign rand_sets[46]: 1637  LLC: 2048
rand_sets[46]: 1637
Assign rand_sets[47]: 1115  LLC: 2048
rand_sets[47]: 1115
Assign rand_sets[48]: 986  LLC: 2048
rand_sets[48]: 986
Assign rand_sets[49]: 258  LLC: 2048
rand_sets[49]: 258
Assign rand_sets[50]: 633  LLC: 2048
rand_sets[50]: 633
Assign rand_sets[51]: 920  LLC: 2048
rand_sets[51]: 920
Assign rand_sets[52]: 204  LLC: 2048
rand_sets[52]: 204
Assign rand_sets[53]: 227  LLC: 2048
rand_sets[53]: 227
Assign rand_sets[54]: 1818  LLC: 2048
rand_sets[54]: 1818
Assign rand_sets[55]: 886  LLC: 2048
rand_sets[55]: 886
Assign rand_sets[56]: 1422  LLC: 2048
rand_sets[56]: 1422
Assign rand_sets[57]: 607  LLC: 2048
rand_sets[57]: 607
Assign rand_sets[58]: 217  LLC: 2048
rand_sets[58]: 217
Assign rand_sets[59]: 1945  LLC: 2048
rand_sets[59]: 1945
Assign rand_sets[60]: 143  LLC: 2048
rand_sets[60]: 143
Assign rand_sets[61]: 1311  LLC: 2048
rand_sets[61]: 1311
Assign rand_sets[62]: 319  LLC: 2048
rand_sets[62]: 319
Assign rand_sets[63]: 1846  LLC: 2048
rand_sets[63]: 1846
 CLEAN-RRIP-POLICY-1: 2-2-1-3-2-3-0-2- CLEAN-RRIP-POLICY-2: 2-2-1-3-2-3-0-2-
 DIRTY-RRIP-POLICY-1: 2-2-0-3-1-3-0-2- DIRTY-RRIP-POLICY-2: 2-2-0-3-1-3-0-2-
 PSEL width: 10
Heartbeat CPU 0 instructions: 10000002 cycles: 6559548 heartbeat IPC: 1.5245 cumulative IPC: 1.5245 (Simulation time: 0 hr 0 min 22 sec) 
Heartbeat CPU 0 instructions: 20000000 cycles: 12222146 heartbeat IPC: 1.76597 cumulative IPC: 1.63637 (Simulation time: 0 hr 0 min 41 sec) 
Heartbeat CPU 0 instructions: 30000003 cycles: 18203937 heartbeat IPC: 1.67174 cumulative IPC: 1.648 (Simulation time: 0 hr 1 min 1 sec) 
Heartbeat CPU 0 instructions: 40000000 cycles: 24059269 heartbeat IPC: 1.70784 cumulative IPC: 1.66256 (Simulation time: 0 hr 1 min 21 sec) 
Heartbeat CPU 0 instructions: 50000000 cycles: 29527755 heartbeat IPC: 1.82866 cumulative IPC: 1.69332 (Simulation time: 0 hr 1 min 41 sec) 
Heartbeat CPU 0 instructions: 60000000 cycles: 35640565 heartbeat IPC: 1.63591 cumulative IPC: 1.68348 (Simulation time: 0 hr 2 min 2 sec) 
Heartbeat CPU 0 instructions: 70000000 cycles: 41360256 heartbeat IPC: 1.74835 cumulative IPC: 1.69245 (Simulation time: 0 hr 2 min 22 sec) 
Heartbeat CPU 0 instructions: 80000000 cycles: 47231154 heartbeat IPC: 1.70332 cumulative IPC: 1.6938 (Simulation time: 0 hr 2 min 42 sec) 
Heartbeat CPU 0 instructions: 90000000 cycles: 52984681 heartbeat IPC: 1.73806 cumulative IPC: 1.6986 (Simulation time: 0 hr 3 min 2 sec) 
Heartbeat CPU 0 instructions: 100000000 cycles: 58537543 heartbeat IPC: 1.80087 cumulative IPC: 1.70831 (Simulation time: 0 hr 3 min 22 sec) 

Warmup complete CPU 0 instructions: 100000004 cycles: 58537545 (Simulation time: 0 hr 3 min 22 sec) 

Heartbeat CPU 0 instructions: 110000001 cycles: 72723626 heartbeat IPC: 0.704916 cumulative IPC: 0.704916 (Simulation time: 0 hr 3 min 47 sec) 
Heartbeat CPU 0 instructions: 120000000 cycles: 84265604 heartbeat IPC: 0.866403 cumulative IPC: 0.777361 (Simulation time: 0 hr 4 min 11 sec) 
Heartbeat CPU 0 instructions: 130000000 cycles: 94655048 heartbeat IPC: 0.962515 cumulative IPC: 0.830622 (Simulation time: 0 hr 4 min 33 sec) 
Heartbeat CPU 0 instructions: 140000000 cycles: 105604562 heartbeat IPC: 0.913283 cumulative IPC: 0.849852 (Simulation time: 0 hr 4 min 55 sec) 
Heartbeat CPU 0 instructions: 150000002 cycles: 116935554 heartbeat IPC: 0.882535 cumulative IPC: 0.856194 (Simulation time: 0 hr 5 min 19 sec) 
Heartbeat CPU 0 instructions: 160000000 cycles: 125942313 heartbeat IPC: 1.11028 cumulative IPC: 0.890145 (Simulation time: 0 hr 5 min 40 sec) 
Heartbeat CPU 0 instructions: 170000003 cycles: 136672607 heartbeat IPC: 0.931941 cumulative IPC: 0.895885 (Simulation time: 0 hr 6 min 3 sec) 
Heartbeat CPU 0 instructions: 180000000 cycles: 149565048 heartbeat IPC: 0.775648 cumulative IPC: 0.878855 (Simulation time: 0 hr 6 min 27 sec) 
Heartbeat CPU 0 instructions: 190000000 cycles: 164647181 heartbeat IPC: 0.663036 cumulative IPC: 0.848179 (Simulation time: 0 hr 6 min 50 sec) 
Heartbeat CPU 0 instructions: 200000000 cycles: 179706683 heartbeat IPC: 0.664033 cumulative IPC: 0.825293 (Simulation time: 0 hr 7 min 14 sec) 
Heartbeat CPU 0 instructions: 210000000 cycles: 194759570 heartbeat IPC: 0.664324 cumulative IPC: 0.807505 (Simulation time: 0 hr 7 min 37 sec) 
Heartbeat CPU 0 instructions: 220000000 cycles: 210512577 heartbeat IPC: 0.634799 cumulative IPC: 0.789603 (Simulation time: 0 hr 8 min 3 sec) 
Heartbeat CPU 0 instructions: 230000003 cycles: 229241059 heartbeat IPC: 0.533946 cumulative IPC: 0.761554 (Simulation time: 0 hr 8 min 30 sec) 
Heartbeat CPU 0 instructions: 240000000 cycles: 238758657 heartbeat IPC: 1.05068 cumulative IPC: 0.776824 (Simulation time: 0 hr 8 min 52 sec) 
Heartbeat CPU 0 instructions: 250000000 cycles: 247964733 heartbeat IPC: 1.08624 cumulative IPC: 0.791861 (Simulation time: 0 hr 9 min 13 sec) 
Heartbeat CPU 0 instructions: 260000000 cycles: 257703721 heartbeat IPC: 1.0268 cumulative IPC: 0.803349 (Simulation time: 0 hr 9 min 34 sec) 
Heartbeat CPU 0 instructions: 270000000 cycles: 267539187 heartbeat IPC: 1.01673 cumulative IPC: 0.813391 (Simulation time: 0 hr 9 min 57 sec) 
Heartbeat CPU 0 instructions: 280000000 cycles: 277273358 heartbeat IPC: 1.02731 cumulative IPC: 0.82291 (Simulation time: 0 hr 10 min 20 sec) 
Heartbeat CPU 0 instructions: 290000000 cycles: 287291388 heartbeat IPC: 0.9982 cumulative IPC: 0.830587 (Simulation time: 0 hr 10 min 44 sec) 
Heartbeat CPU 0 instructions: 300000000 cycles: 295965321 heartbeat IPC: 1.15288 cumulative IPC: 0.842361 (Simulation time: 0 hr 11 min 5 sec) 
Heartbeat CPU 0 instructions: 310000002 cycles: 309594043 heartbeat IPC: 0.733745 cumulative IPC: 0.836465 (Simulation time: 0 hr 11 min 31 sec) 
Heartbeat CPU 0 instructions: 320000000 cycles: 325778141 heartbeat IPC: 0.61789 cumulative IPC: 0.823228 (Simulation time: 0 hr 11 min 58 sec) 
Heartbeat CPU 0 instructions: 330000002 cycles: 336365924 heartbeat IPC: 0.944485 cumulative IPC: 0.827849 (Simulation time: 0 hr 12 min 21 sec) 
Heartbeat CPU 0 instructions: 340000000 cycles: 346837171 heartbeat IPC: 0.954996 cumulative IPC: 0.832467 (Simulation time: 0 hr 12 min 44 sec) 
Heartbeat CPU 0 instructions: 350000002 cycles: 360209620 heartbeat IPC: 0.747806 cumulative IPC: 0.828714 (Simulation time: 0 hr 13 min 9 sec) 
Heartbeat CPU 0 instructions: 360000000 cycles: 371193372 heartbeat IPC: 0.910435 cumulative IPC: 0.831585 (Simulation time: 0 hr 13 min 32 sec) 
Heartbeat CPU 0 instructions: 370000002 cycles: 381917859 heartbeat IPC: 0.932446 cumulative IPC: 0.83493 (Simulation time: 0 hr 13 min 56 sec) 
Heartbeat CPU 0 instructions: 380000000 cycles: 392367814 heartbeat IPC: 0.956942 cumulative IPC: 0.83875 (Simulation time: 0 hr 14 min 19 sec) 
Heartbeat CPU 0 instructions: 390000003 cycles: 409860050 heartbeat IPC: 0.571682 cumulative IPC: 0.825452 (Simulation time: 0 hr 14 min 47 sec) 
Heartbeat CPU 0 instructions: 400000000 cycles: 421771913 heartbeat IPC: 0.839499 cumulative IPC: 0.825913 (Simulation time: 0 hr 15 min 9 sec) 
Heartbeat CPU 0 instructions: 410000002 cycles: 432171505 heartbeat IPC: 0.961576 cumulative IPC: 0.829689 (Simulation time: 0 hr 15 min 31 sec) 
Heartbeat CPU 0 instructions: 420000000 cycles: 442107560 heartbeat IPC: 1.00644 cumulative IPC: 0.834267 (Simulation time: 0 hr 15 min 52 sec) 
Heartbeat CPU 0 instructions: 430000001 cycles: 452006382 heartbeat IPC: 1.01022 cumulative IPC: 0.838694 (Simulation time: 0 hr 16 min 13 sec) 
Heartbeat CPU 0 instructions: 440000000 cycles: 463738249 heartbeat IPC: 0.852379 cumulative IPC: 0.83909 (Simulation time: 0 hr 16 min 36 sec) 
Heartbeat CPU 0 instructions: 450000002 cycles: 478822143 heartbeat IPC: 0.662959 cumulative IPC: 0.832769 (Simulation time: 0 hr 16 min 59 sec) 
Heartbeat CPU 0 instructions: 460000000 cycles: 493875921 heartbeat IPC: 0.664285 cumulative IPC: 0.826943 (Simulation time: 0 hr 17 min 22 sec) 
Heartbeat CPU 0 instructions: 470000003 cycles: 508921363 heartbeat IPC: 0.664653 cumulative IPC: 0.821522 (Simulation time: 0 hr 17 min 45 sec) 
Heartbeat CPU 0 instructions: 480000000 cycles: 524713870 heartbeat IPC: 0.633211 cumulative IPC: 0.815142 (Simulation time: 0 hr 18 min 11 sec) 
Heartbeat CPU 0 instructions: 490000002 cycles: 543522836 heartbeat IPC: 0.531661 cumulative IPC: 0.804148 (Simulation time: 0 hr 18 min 38 sec) 
Heartbeat CPU 0 instructions: 500000000 cycles: 553011048 heartbeat IPC: 1.05394 cumulative IPC: 0.808941 (Simulation time: 0 hr 18 min 59 sec) 
Heartbeat CPU 0 instructions: 510000002 cycles: 562232304 heartbeat IPC: 1.08445 cumulative IPC: 0.813985 (Simulation time: 0 hr 19 min 20 sec) 
Heartbeat CPU 0 instructions: 520000000 cycles: 571939364 heartbeat IPC: 1.03018 cumulative IPC: 0.818073 (Simulation time: 0 hr 19 min 42 sec) 
Heartbeat CPU 0 instructions: 530000002 cycles: 581797652 heartbeat IPC: 1.01438 cumulative IPC: 0.821771 (Simulation time: 0 hr 20 min 4 sec) 
Heartbeat CPU 0 instructions: 540000000 cycles: 591472149 heartbeat IPC: 1.03365 cumulative IPC: 0.825617 (Simulation time: 0 hr 20 min 27 sec) 
Heartbeat CPU 0 instructions: 550000002 cycles: 601511142 heartbeat IPC: 0.996116 cumulative IPC: 0.82877 (Simulation time: 0 hr 20 min 50 sec) 
Heartbeat CPU 0 instructions: 560000000 cycles: 610193899 heartbeat IPC: 1.15171 cumulative IPC: 0.833852 (Simulation time: 0 hr 21 min 12 sec) 
Heartbeat CPU 0 instructions: 570000003 cycles: 623657841 heartbeat IPC: 0.742725 cumulative IPC: 0.831681 (Simulation time: 0 hr 21 min 36 sec) 
Heartbeat CPU 0 instructions: 580000000 cycles: 639992702 heartbeat IPC: 0.612187 cumulative IPC: 0.825515 (Simulation time: 0 hr 22 min 4 sec) 
Heartbeat CPU 0 instructions: 590000002 cycles: 650141642 heartbeat IPC: 0.985325 cumulative IPC: 0.828257 (Simulation time: 0 hr 22 min 26 sec) 
Heartbeat CPU 0 instructions: 600000000 cycles: 661062464 heartbeat IPC: 0.915682 cumulative IPC: 0.829841 (Simulation time: 0 hr 22 min 50 sec) 
Finished CPU 0 instructions: 500000000 cycles: 602524938 cumulative IPC: 0.829841 (Simulation time: 0 hr 22 min 50 sec) 

CPU 0 Branch Prediction Accuracy: 99.5219% MPKI: 0.251582
Number of Branches: 26312578 Number of Mispredictions: 125791
Number of LOAD Instructions: 235643083
Number of LOAD Instructions (ROI): 235643083
Number of STORE Instructions: 37593550
Number of STORE Instructions (ROI): 37593550
Total Destination Memory Operands: 40480968
Total Destination Memory Operands (ROI): 40480968
Total Source Memory Operands: 235643083
Total Source Memory Operands (ROI): 235643083
Number of DEPENDED LOADS: 6699576
Number of DEPENDED LOADS (ROI): 6699576
Number of SQ_ADDED: 40480950
Number of SQ_ADDED (ROI): 40480950
Number of LQ_ADDED: 389482095
Number of LQ_ADDED (ROI): 389482095
Number of Instructions read from trace: 600000259

ChampSim completed all CPUs

Region of Interest Statistics

CPU 0 cumulative IPC: 0.829841 instructions: 500000000 cycles: 602524938
ITLB TOTAL     ACCESS:  109352984  HIT:  109352471  MISS:        513
ITLB LOAD      ACCESS:  109352984  HIT:  109352471  MISS:        513
ITLB RFO       ACCESS:          0  HIT:          0  MISS:          0
ITLB PREFETCH  ACCESS:          0  HIT:          0  MISS:          0
ITLB WRITEBACK ACCESS:          0  HIT:          0  MISS:          0
ITLB PREFETCH  REQUESTED:          0  ISSUED:          0  USEFUL:          0  USELESS:          0
ITLB TOTAL MSHR MERGED:        967
ITLB LOAD MSHR MERGED:        967
ITLB RFO MSHR MERGED:          0
ITLB PREFETCH MSHR MERGED:          0
ITLB WRITEBACK MSHR MERGED:          0
ITLB TOTAL ACCESSES:  109353951 HITS:  109352471 MISSES:       1480
ITLB LOAD ACCESSES:  109353951 HITS:  109352471 MISSES:       1480
ITLB RFO ACCESSES:          0 HITS:          0 MISSES:          0
ITLB PREFETCH ACCESSES:          0 HITS:          0 MISSES:          0
ITLB WRITEBACK ACCESSES:          0 HITS:          0 MISSES:          0
ITLB RQ ACCESS:  500000003
ITLB RQ TO_CACHE:  109353951
ITLB RQ MERGED:  390646052
ITLB RQ FORWARD:          0
ITLB WQ ACCESS:          0
ITLB WQ TO_CACHE:          0
ITLB WQ MERGED:          0
ITLB WQ FORWARD:          0
DTLB TOTAL     ACCESS:  130420641  HIT:  130163021  MISS:     257620
DTLB LOAD      ACCESS:  109049428  HIT:  108828645  MISS:     220783
DTLB RFO       ACCESS:   21371213  HIT:   21334376  MISS:      36837
DTLB PREFETCH  ACCESS:          0  HIT:          0  MISS:          0
DTLB WRITEBACK ACCESS:          0  HIT:          0  MISS:          0
DTLB PREFETCH  REQUESTED:          0  ISSUED:          0  USEFUL:          0  USELESS:          0
DTLB TOTAL MSHR MERGED:     121718
DTLB LOAD MSHR MERGED:      83686
DTLB RFO MSHR MERGED:      38032
DTLB PREFETCH MSHR MERGED:          0
DTLB WRITEBACK MSHR MERGED:          0
DTLB TOTAL ACCESSES:  130542359 HITS:  130163021 MISSES:     379338
DTLB LOAD ACCESSES:  109133114 HITS:  108828645 MISSES:     304469
DTLB RFO ACCESSES:   21409245 HITS:   21334376 MISSES:      74869
DTLB PREFETCH ACCESSES:          0 HITS:          0 MISSES:          0
DTLB WRITEBACK ACCESSES:          0 HITS:          0 MISSES:          0
DTLB RQ ACCESS:  218634830
DTLB RQ TO_CACHE:  130542360
DTLB RQ MERGED:   88092470
DTLB RQ FORWARD:          0
DTLB WQ ACCESS:          0
DTLB WQ TO_CACHE:          0
DTLB WQ MERGED:          0
DTLB WQ FORWARD:          0
L1D TOTAL     ACCESS:  204716513  HIT:  193639150  MISS:   11077363
L1D LOAD      ACCESS:  106277796  HIT:  103118459  MISS:    3159337
L1D RFO       ACCESS:   26948361  HIT:   25198139  MISS:    1750222
L1D PREFETCH  ACCESS:   71490356  HIT:   65322552  MISS:    6167804
L1D WRITEBACK ACCESS:          0  HIT:          0  MISS:          0
L1D PREFETCH  REQUESTED:  108942247  ISSUED:  107283478  USEFUL:    5708359  USELESS:     459439
L1D TOTAL MSHR MERGED:   18288596
L1D LOAD MSHR MERGED:    4661672
L1D RFO MSHR MERGED:    6490279
L1D PREFETCH MSHR MERGED:    7136645
L1D WRITEBACK MSHR MERGED:          0
L1D TOTAL ACCESSES:  223066160 HITS:  193700201 MISSES:   29365959
L1D LOAD ACCESSES:  108967205 HITS:  103143417 MISSES:    5823788
L1D RFO ACCESSES:   33436418 HITS:   25198139 MISSES:    8238279
L1D PREFETCH ACCESSES:   80662537 HITS:   65358645 MISSES:   15303892
L1D WRITEBACK ACCESSES:          0 HITS:          0 MISSES:          0
L1D RQ ACCESS:  184991392
L1D RQ TO_CACHE:  108942247
L1D RQ MERGED:   76024187
L1D RQ FORWARD:          0
L1D WQ ACCESS:   33643426
L1D WQ TO_CACHE:   33436417
L1D WQ MERGED:     207009
L1D WQ FORWARD:      61051
L1I TOTAL     ACCESS:  134034417  HIT:  134009839  MISS:      24578
L1I LOAD      ACCESS:  134034417  HIT:  134009839  MISS:      24578
L1I RFO       ACCESS:          0  HIT:          0  MISS:          0
L1I PREFETCH  ACCESS:          0  HIT:          0  MISS:          0
L1I WRITEBACK ACCESS:          0  HIT:          0  MISS:          0
L1I PREFETCH  REQUESTED:          0  ISSUED:          0  USEFUL:          0  USELESS:          0
L1I TOTAL MSHR MERGED:      30499
L1I LOAD MSHR MERGED:      30499
L1I RFO MSHR MERGED:          0
L1I PREFETCH MSHR MERGED:          0
L1I WRITEBACK MSHR MERGED:          0
L1I TOTAL ACCESSES:  134064916 HITS:  134009839 MISSES:      55077
L1I LOAD ACCESSES:  134064916 HITS:  134009839 MISSES:      55077
L1I RFO ACCESSES:          0 HITS:          0 MISSES:          0
L1I PREFETCH ACCESSES:          0 HITS:          0 MISSES:          0
L1I WRITEBACK ACCESSES:          0 HITS:          0 MISSES:          0
L1I RQ ACCESS:  500000005
L1I RQ TO_CACHE:  134064916
L1I RQ MERGED:  365935089
L1I RQ FORWARD:          0
L1I WQ ACCESS:          0
L1I WQ TO_CACHE:          0
L1I WQ MERGED:          0
L1I WQ FORWARD:          0
L2C TOTAL     ACCESS:   14945322  HIT:    6944119  MISS:    8001203
L2C LOAD      ACCESS:    1186500  HIT:     298337  MISS:     888163
L2C RFO       ACCESS:    1747781  HIT:     369537  MISS:    1378244
L2C PREFETCH  ACCESS:    8328935  HIT:    2602834  MISS:    5726101
L2C WRITEBACK ACCESS:    3682106  HIT:    3673411  MISS:       8695
L2C PREFETCH  REQUESTED:     387866  ISSUED:     387866  USEFUL:     113890  USELESS:    5613045
L2C TOTAL MSHR MERGED:      41633
L2C LOAD MSHR MERGED:       2241
L2C RFO MSHR MERGED:       1355
L2C PREFETCH MSHR MERGED:      38037
L2C WRITEBACK MSHR MERGED:          0
L2C TOTAL ACCESSES:   15108732 HITS:    6944813 MISSES:    8163919
L2C LOAD ACCESSES:    1186694 HITS:     298531 MISSES:     888163
L2C RFO ACCESSES:    1748000 HITS:     369756 MISSES:    1378244
L2C PREFETCH ACCESSES:    8491932 HITS:    2603115 MISSES:    5888817
L2C WRITEBACK ACCESSES:    3682106 HITS:    3673411 MISSES:       8695
L2C RQ ACCESS:    2934694
L2C RQ TO_CACHE:    2934281
L2C RQ MERGED:          0
L2C RQ FORWARD:          0
L2C WQ ACCESS:    3682106
L2C WQ TO_CACHE:    3682106
L2C WQ MERGED:          0
L2C WQ FORWARD:        694
LLC TOTAL     ACCESS:   11188966  HIT:    2855464  MISS:    8333502
LLC LOAD      ACCESS:     885920  HIT:     264749  MISS:     621171
LLC RFO       ACCESS:    1376888  HIT:     225881  MISS:    1151007
LLC PREFETCH  ACCESS:    5821051  HIT:    1123477  MISS:    4697574
LLC WRITEBACK ACCESS:    3105107  HIT:    1241357  MISS:    1863750
LLC PREFETCH  REQUESTED:          0  ISSUED:          0  USEFUL:      30099  USELESS:    4667159
LLC TOTAL MSHR MERGED:      22591
LLC LOAD MSHR MERGED:       6861
LLC RFO MSHR MERGED:        581
LLC PREFETCH MSHR MERGED:      15149
LLC WRITEBACK MSHR MERGED:          0
LLC TOTAL ACCESSES:   11211569 HITS:    2855476 MISSES:    8356093
LLC LOAD ACCESSES:     885922 HITS:     264751 MISSES:     621171
LLC RFO ACCESSES:    1376889 HITS:     225882 MISSES:    1151007
LLC PREFETCH ACCESSES:    5843651 HITS:    1123486 MISSES:    4720165
LLC WRITEBACK ACCESSES:    3105107 HITS:    1241357 MISSES:    1863750
LLC 0 RQ ACCESS:    2262811
LLC 0 RQ TO_CACHE:    2262808
LLC 0 RQ MERGED:          0
LLC 0 RQ FORWARD:          0
LLC WQ ACCESS:    3105107
LLC WQ TO_CACHE:    3105107
LLC WQ MERGED:          0
LLC WQ FORWARD:         12
Major fault: 0 Minor fault: 11519
CPU 0 L1D next line prefetcher final stats
CPU 0 L2C PC-based stride prefetcher final stats
All Misses: 10474354
All Hits: 3325849
SD Algo Stats - Switches: 0 SRR-Repls: 698154 BRR-Repls: 0

DRAM Statistics
 CHANNEL 0
 RQ ROW_BUFFER_HIT:    3925582  ROW_BUFFER_MISS:    2543555
 DBUS_CONGESTED:    4447419
 WQ ROW_BUFFER_HIT:     494711  ROW_BUFFER_MISS:    1708627  FULL:          0

 AVG_CONGESTED_CYCLE: 13
LOADS RETIRED: 190375692
INSTR RETIRED: 500000000
