
*** ChampSim Multicore Out-of-Order Simulator ***

Warmup Instructions: 100000000
Simulation Instructions: 500000000
Number of CPUs: 1
LLC sets: 2048
LLC ways: 16
Clean RRIP Policies: 2323020023230200 Dirty RRIP Policies: 2323022023230220 PSEL Width: 10 Track Set: 4294967295 PSEL Mask: 1 Demote Mask: 4340333443403334DS Algo: 0Window size: 0
Off-chip DRAM Size: 4096 MB Channels: 1 Width: 64-bit Data Rate: 1600 MT/s

CPU 0 runs /mnt/beegfs/iconst01/spec2017/Gcc.trace.gz
NOT SORTED
TRACE STRING: /mnt/beegfs/iconst01/spec2017/Gcc.trace.gz
SORTED
TRACE STRING: /mnt/beegfs/iconst01/spec2017/Gcc.trace.gz
INITIAL
TRACE STRING: /mnt/beegfs/iconst01/spec2017/Gcc.trace.gz

champsim_seed used: 269

CPU 0 L1D next line prefetcher
CPU 0 L2C IP-based stride prefetcher
Initialize DRRIP state
Assign rand_sets[0]: 454  LLC: 2048
rand_sets[0]: 454
Assign rand_sets[1]: 1662  LLC: 2048
rand_sets[1]: 1662
Assign rand_sets[2]: 1921  LLC: 2048
rand_sets[2]: 1921
Assign rand_sets[3]: 1131  LLC: 2048
rand_sets[3]: 1131
Assign rand_sets[4]: 331  LLC: 2048
rand_sets[4]: 331
Assign rand_sets[5]: 1531  LLC: 2048
rand_sets[5]: 1531
Assign rand_sets[6]: 482  LLC: 2048
rand_sets[6]: 482
Assign rand_sets[7]: 1275  LLC: 2048
rand_sets[7]: 1275
Assign rand_sets[8]: 1876  LLC: 2048
rand_sets[8]: 1876
Assign rand_sets[9]: 2038  LLC: 2048
rand_sets[9]: 2038
Assign rand_sets[10]: 701  LLC: 2048
rand_sets[10]: 701
Assign rand_sets[11]: 479  LLC: 2048
rand_sets[11]: 479
Assign rand_sets[12]: 892  LLC: 2048
rand_sets[12]: 892
Assign rand_sets[13]: 1820  LLC: 2048
rand_sets[13]: 1820
Assign rand_sets[14]: 1505  LLC: 2048
rand_sets[14]: 1505
Assign rand_sets[15]: 1159  LLC: 2048
rand_sets[15]: 1159
Assign rand_sets[16]: 513  LLC: 2048
rand_sets[16]: 513
Assign rand_sets[17]: 703  LLC: 2048
rand_sets[17]: 703
Assign rand_sets[18]: 561  LLC: 2048
rand_sets[18]: 561
Assign rand_sets[19]: 990  LLC: 2048
rand_sets[19]: 990
Assign rand_sets[20]: 342  LLC: 2048
rand_sets[20]: 342
Assign rand_sets[21]: 882  LLC: 2048
rand_sets[21]: 882
Assign rand_sets[22]: 15  LLC: 2048
rand_sets[22]: 15
Assign rand_sets[23]: 71  LLC: 2048
rand_sets[23]: 71
Assign rand_sets[24]: 1127  LLC: 2048
rand_sets[24]: 1127
Assign rand_sets[25]: 1382  LLC: 2048
rand_sets[25]: 1382
Assign rand_sets[26]: 647  LLC: 2048
rand_sets[26]: 647
Assign rand_sets[27]: 857  LLC: 2048
rand_sets[27]: 857
Assign rand_sets[28]: 1450  LLC: 2048
rand_sets[28]: 1450
Assign rand_sets[29]: 1160  LLC: 2048
rand_sets[29]: 1160
Assign rand_sets[30]: 1852  LLC: 2048
rand_sets[30]: 1852
Assign rand_sets[31]: 1881  LLC: 2048
rand_sets[31]: 1881
Assign rand_sets[32]: 1770  LLC: 2048
rand_sets[32]: 1770
Assign rand_sets[33]: 1622  LLC: 2048
rand_sets[33]: 1622
Assign rand_sets[34]: 275  LLC: 2048
rand_sets[34]: 275
Assign rand_sets[35]: 635  LLC: 2048
rand_sets[35]: 635
Assign rand_sets[36]: 466  LLC: 2048
rand_sets[36]: 466
Assign rand_sets[37]: 1413  LLC: 2048
rand_sets[37]: 1413
Assign rand_sets[38]: 417  LLC: 2048
rand_sets[38]: 417
Assign rand_sets[39]: 472  LLC: 2048
rand_sets[39]: 472
Assign rand_sets[40]: 1340  LLC: 2048
rand_sets[40]: 1340
Assign rand_sets[41]: 852  LLC: 2048
rand_sets[41]: 852
Assign rand_sets[42]: 1365  LLC: 2048
rand_sets[42]: 1365
Assign rand_sets[43]: 47  LLC: 2048
rand_sets[43]: 47
Assign rand_sets[44]: 823  LLC: 2048
rand_sets[44]: 823
Assign rand_sets[45]: 686  LLC: 2048
rand_sets[45]: 686
Assign rand_sets[46]: 1637  LLC: 2048
rand_sets[46]: 1637
Assign rand_sets[47]: 1115  LLC: 2048
rand_sets[47]: 1115
Assign rand_sets[48]: 986  LLC: 2048
rand_sets[48]: 986
Assign rand_sets[49]: 258  LLC: 2048
rand_sets[49]: 258
Assign rand_sets[50]: 633  LLC: 2048
rand_sets[50]: 633
Assign rand_sets[51]: 920  LLC: 2048
rand_sets[51]: 920
Assign rand_sets[52]: 204  LLC: 2048
rand_sets[52]: 204
Assign rand_sets[53]: 227  LLC: 2048
rand_sets[53]: 227
Assign rand_sets[54]: 1818  LLC: 2048
rand_sets[54]: 1818
Assign rand_sets[55]: 886  LLC: 2048
rand_sets[55]: 886
Assign rand_sets[56]: 1422  LLC: 2048
rand_sets[56]: 1422
Assign rand_sets[57]: 607  LLC: 2048
rand_sets[57]: 607
Assign rand_sets[58]: 217  LLC: 2048
rand_sets[58]: 217
Assign rand_sets[59]: 1945  LLC: 2048
rand_sets[59]: 1945
Assign rand_sets[60]: 143  LLC: 2048
rand_sets[60]: 143
Assign rand_sets[61]: 1311  LLC: 2048
rand_sets[61]: 1311
Assign rand_sets[62]: 319  LLC: 2048
rand_sets[62]: 319
Assign rand_sets[63]: 1846  LLC: 2048
rand_sets[63]: 1846
 CLEAN-RRIP-POLICY-1: 2-3-2-3-0-2-0-0- CLEAN-RRIP-POLICY-2: 2-3-2-3-0-2-0-0-
 DIRTY-RRIP-POLICY-1: 2-3-2-3-0-2-2-0- DIRTY-RRIP-POLICY-2: 2-3-2-3-0-2-2-0-
 PSEL width: 10
Heartbeat CPU 0 instructions: 10000001 cycles: 7316004 heartbeat IPC: 1.36687 cumulative IPC: 1.36687 (Simulation time: 0 hr 0 min 15 sec) 
Heartbeat CPU 0 instructions: 20000000 cycles: 14307540 heartbeat IPC: 1.4303 cumulative IPC: 1.39786 (Simulation time: 0 hr 0 min 29 sec) 
Heartbeat CPU 0 instructions: 30000001 cycles: 21020555 heartbeat IPC: 1.48964 cumulative IPC: 1.42717 (Simulation time: 0 hr 0 min 46 sec) 
Heartbeat CPU 0 instructions: 40000000 cycles: 27481567 heartbeat IPC: 1.54774 cumulative IPC: 1.45552 (Simulation time: 0 hr 1 min 2 sec) 
Heartbeat CPU 0 instructions: 50000001 cycles: 33583044 heartbeat IPC: 1.63895 cumulative IPC: 1.48885 (Simulation time: 0 hr 1 min 17 sec) 
Heartbeat CPU 0 instructions: 60000000 cycles: 40064115 heartbeat IPC: 1.54295 cumulative IPC: 1.4976 (Simulation time: 0 hr 1 min 33 sec) 
Heartbeat CPU 0 instructions: 70000000 cycles: 47101306 heartbeat IPC: 1.42102 cumulative IPC: 1.48616 (Simulation time: 0 hr 1 min 48 sec) 
Heartbeat CPU 0 instructions: 80000000 cycles: 54190851 heartbeat IPC: 1.41053 cumulative IPC: 1.47626 (Simulation time: 0 hr 2 min 3 sec) 
Heartbeat CPU 0 instructions: 90000003 cycles: 61195113 heartbeat IPC: 1.4277 cumulative IPC: 1.47071 (Simulation time: 0 hr 2 min 17 sec) 
Heartbeat CPU 0 instructions: 100000000 cycles: 68362326 heartbeat IPC: 1.39524 cumulative IPC: 1.46279 (Simulation time: 0 hr 2 min 32 sec) 

Warmup complete CPU 0 instructions: 100000004 cycles: 68362327 (Simulation time: 0 hr 2 min 32 sec) 

Heartbeat CPU 0 instructions: 110000003 cycles: 96068508 heartbeat IPC: 0.36093 cumulative IPC: 0.36093 (Simulation time: 0 hr 3 min 1 sec) 
Heartbeat CPU 0 instructions: 120000000 cycles: 123614240 heartbeat IPC: 0.363033 cumulative IPC: 0.361978 (Simulation time: 0 hr 3 min 30 sec) 
Heartbeat CPU 0 instructions: 130000000 cycles: 148637295 heartbeat IPC: 0.399631 cumulative IPC: 0.373715 (Simulation time: 0 hr 3 min 58 sec) 
Heartbeat CPU 0 instructions: 140000000 cycles: 178112442 heartbeat IPC: 0.339269 cumulative IPC: 0.364464 (Simulation time: 0 hr 4 min 26 sec) 
Heartbeat CPU 0 instructions: 150000000 cycles: 208042573 heartbeat IPC: 0.334111 cumulative IPC: 0.35796 (Simulation time: 0 hr 4 min 55 sec) 
Heartbeat CPU 0 instructions: 160000000 cycles: 235464610 heartbeat IPC: 0.36467 cumulative IPC: 0.359062 (Simulation time: 0 hr 5 min 23 sec) 
Heartbeat CPU 0 instructions: 170000001 cycles: 263550319 heartbeat IPC: 0.356053 cumulative IPC: 0.358629 (Simulation time: 0 hr 5 min 53 sec) 
Heartbeat CPU 0 instructions: 180000000 cycles: 292053194 heartbeat IPC: 0.350842 cumulative IPC: 0.357636 (Simulation time: 0 hr 6 min 22 sec) 
Heartbeat CPU 0 instructions: 190000002 cycles: 320105074 heartbeat IPC: 0.356482 cumulative IPC: 0.357508 (Simulation time: 0 hr 6 min 51 sec) 
Heartbeat CPU 0 instructions: 200000000 cycles: 348539992 heartbeat IPC: 0.35168 cumulative IPC: 0.356916 (Simulation time: 0 hr 7 min 20 sec) 
Heartbeat CPU 0 instructions: 210000002 cycles: 376417148 heartbeat IPC: 0.358717 cumulative IPC: 0.357079 (Simulation time: 0 hr 7 min 49 sec) 
Heartbeat CPU 0 instructions: 220000000 cycles: 405553174 heartbeat IPC: 0.343218 cumulative IPC: 0.355882 (Simulation time: 0 hr 8 min 16 sec) 
Heartbeat CPU 0 instructions: 230000000 cycles: 433205031 heartbeat IPC: 0.361639 cumulative IPC: 0.356318 (Simulation time: 0 hr 8 min 44 sec) 
Heartbeat CPU 0 instructions: 240000000 cycles: 459455515 heartbeat IPC: 0.380945 cumulative IPC: 0.357971 (Simulation time: 0 hr 9 min 11 sec) 
Heartbeat CPU 0 instructions: 250000000 cycles: 489724823 heartbeat IPC: 0.330368 cumulative IPC: 0.355988 (Simulation time: 0 hr 9 min 41 sec) 
Heartbeat CPU 0 instructions: 260000000 cycles: 516880564 heartbeat IPC: 0.368246 cumulative IPC: 0.35673 (Simulation time: 0 hr 10 min 10 sec) 
Heartbeat CPU 0 instructions: 270000003 cycles: 545302327 heartbeat IPC: 0.351843 cumulative IPC: 0.356439 (Simulation time: 0 hr 10 min 39 sec) 
Heartbeat CPU 0 instructions: 280000000 cycles: 573576789 heartbeat IPC: 0.353676 cumulative IPC: 0.356284 (Simulation time: 0 hr 11 min 9 sec) 
Heartbeat CPU 0 instructions: 290000000 cycles: 602458502 heartbeat IPC: 0.34624 cumulative IPC: 0.355741 (Simulation time: 0 hr 11 min 39 sec) 
Heartbeat CPU 0 instructions: 300000000 cycles: 632383205 heartbeat IPC: 0.334172 cumulative IPC: 0.354597 (Simulation time: 0 hr 12 min 7 sec) 
Heartbeat CPU 0 instructions: 310000001 cycles: 661878079 heartbeat IPC: 0.339042 cumulative IPC: 0.353824 (Simulation time: 0 hr 12 min 36 sec) 
Heartbeat CPU 0 instructions: 320000000 cycles: 690195016 heartbeat IPC: 0.353146 cumulative IPC: 0.353793 (Simulation time: 0 hr 13 min 4 sec) 
Heartbeat CPU 0 instructions: 330000000 cycles: 718854706 heartbeat IPC: 0.348922 cumulative IPC: 0.353578 (Simulation time: 0 hr 13 min 32 sec) 
Heartbeat CPU 0 instructions: 340000000 cycles: 748270230 heartbeat IPC: 0.339957 cumulative IPC: 0.352989 (Simulation time: 0 hr 14 min 1 sec) 
Heartbeat CPU 0 instructions: 350000003 cycles: 775313557 heartbeat IPC: 0.369777 cumulative IPC: 0.353631 (Simulation time: 0 hr 14 min 29 sec) 
Heartbeat CPU 0 instructions: 360000000 cycles: 803596357 heartbeat IPC: 0.353572 cumulative IPC: 0.353629 (Simulation time: 0 hr 14 min 57 sec) 
Heartbeat CPU 0 instructions: 370000000 cycles: 831973571 heartbeat IPC: 0.352395 cumulative IPC: 0.353583 (Simulation time: 0 hr 15 min 24 sec) 
Heartbeat CPU 0 instructions: 380000000 cycles: 860690504 heartbeat IPC: 0.348227 cumulative IPC: 0.353389 (Simulation time: 0 hr 15 min 52 sec) 
Heartbeat CPU 0 instructions: 390000001 cycles: 888475420 heartbeat IPC: 0.359908 cumulative IPC: 0.35361 (Simulation time: 0 hr 16 min 19 sec) 
Heartbeat CPU 0 instructions: 400000000 cycles: 917277833 heartbeat IPC: 0.347193 cumulative IPC: 0.353392 (Simulation time: 0 hr 16 min 46 sec) 
Heartbeat CPU 0 instructions: 410000001 cycles: 944737725 heartbeat IPC: 0.364168 cumulative IPC: 0.35373 (Simulation time: 0 hr 17 min 14 sec) 
Heartbeat CPU 0 instructions: 420000000 cycles: 972194248 heartbeat IPC: 0.364212 cumulative IPC: 0.354048 (Simulation time: 0 hr 17 min 41 sec) 
Heartbeat CPU 0 instructions: 430000002 cycles: 1000012195 heartbeat IPC: 0.35948 cumulative IPC: 0.35421 (Simulation time: 0 hr 18 min 8 sec) 
Heartbeat CPU 0 instructions: 440000000 cycles: 1029622316 heartbeat IPC: 0.337722 cumulative IPC: 0.353702 (Simulation time: 0 hr 18 min 36 sec) 
Heartbeat CPU 0 instructions: 450000002 cycles: 1059039726 heartbeat IPC: 0.339935 cumulative IPC: 0.353294 (Simulation time: 0 hr 19 min 4 sec) 
Heartbeat CPU 0 instructions: 460000000 cycles: 1086885931 heartbeat IPC: 0.359115 cumulative IPC: 0.353453 (Simulation time: 0 hr 19 min 31 sec) 
Heartbeat CPU 0 instructions: 470000000 cycles: 1114656433 heartbeat IPC: 0.360094 cumulative IPC: 0.353629 (Simulation time: 0 hr 19 min 58 sec) 
Heartbeat CPU 0 instructions: 480000000 cycles: 1142661555 heartbeat IPC: 0.357078 cumulative IPC: 0.353719 (Simulation time: 0 hr 20 min 26 sec) 
Heartbeat CPU 0 instructions: 490000000 cycles: 1170386127 heartbeat IPC: 0.360691 cumulative IPC: 0.353894 (Simulation time: 0 hr 20 min 53 sec) 
Heartbeat CPU 0 instructions: 500000000 cycles: 1198744841 heartbeat IPC: 0.352625 cumulative IPC: 0.353863 (Simulation time: 0 hr 21 min 21 sec) 
Heartbeat CPU 0 instructions: 510000000 cycles: 1234171859 heartbeat IPC: 0.28227 cumulative IPC: 0.351687 (Simulation time: 0 hr 21 min 52 sec) 
Heartbeat CPU 0 instructions: 520000000 cycles: 1262075780 heartbeat IPC: 0.358373 cumulative IPC: 0.351843 (Simulation time: 0 hr 22 min 20 sec) 
Heartbeat CPU 0 instructions: 530000001 cycles: 1291752987 heartbeat IPC: 0.336959 cumulative IPC: 0.351482 (Simulation time: 0 hr 22 min 49 sec) 
Heartbeat CPU 0 instructions: 540000000 cycles: 1320111732 heartbeat IPC: 0.352625 cumulative IPC: 0.351508 (Simulation time: 0 hr 23 min 17 sec) 
Heartbeat CPU 0 instructions: 550000001 cycles: 1349633104 heartbeat IPC: 0.338738 cumulative IPC: 0.351214 (Simulation time: 0 hr 23 min 47 sec) 
Heartbeat CPU 0 instructions: 560000000 cycles: 1375275222 heartbeat IPC: 0.389983 cumulative IPC: 0.351974 (Simulation time: 0 hr 24 min 15 sec) 
Heartbeat CPU 0 instructions: 570000000 cycles: 1405071149 heartbeat IPC: 0.335616 cumulative IPC: 0.35161 (Simulation time: 0 hr 24 min 44 sec) 
Heartbeat CPU 0 instructions: 580000000 cycles: 1433362255 heartbeat IPC: 0.353468 cumulative IPC: 0.351648 (Simulation time: 0 hr 25 min 13 sec) 
Heartbeat CPU 0 instructions: 590000001 cycles: 1458584345 heartbeat IPC: 0.396478 cumulative IPC: 0.352462 (Simulation time: 0 hr 25 min 40 sec) 
Heartbeat CPU 0 instructions: 600000000 cycles: 1485449728 heartbeat IPC: 0.372226 cumulative IPC: 0.352836 (Simulation time: 0 hr 26 min 8 sec) 
Finished CPU 0 instructions: 500000000 cycles: 1417087423 cumulative IPC: 0.352836 (Simulation time: 0 hr 26 min 8 sec) 

CPU 0 Branch Prediction Accuracy: 86.4311% MPKI: 26.2662
Number of Branches: 96788573 Number of Mispredictions: 13133102
Number of LOAD Instructions: 164682285
Number of LOAD Instructions (ROI): 164682285
Number of STORE Instructions: 78194750
Number of STORE Instructions (ROI): 78194750
Total Destination Memory Operands: 83268534
Total Destination Memory Operands (ROI): 83268534
Total Source Memory Operands: 164712438
Total Source Memory Operands (ROI): 164712438
Number of DEPENDED LOADS: 7076260
Number of DEPENDED LOADS (ROI): 7076260
Number of SQ_ADDED: 83268522
Number of SQ_ADDED (ROI): 83268522
Number of LQ_ADDED: 236981026
Number of LQ_ADDED (ROI): 236981026
Number of Instructions read from trace: 600000066

ChampSim completed all CPUs

Region of Interest Statistics

CPU 0 cumulative IPC: 0.352836 instructions: 500000000 cycles: 1417087423
ITLB TOTAL     ACCESS:  100495292  HIT:  100290846  MISS:     204446
ITLB LOAD      ACCESS:  100495292  HIT:  100290846  MISS:     204446
ITLB RFO       ACCESS:          0  HIT:          0  MISS:          0
ITLB PREFETCH  ACCESS:          0  HIT:          0  MISS:          0
ITLB WRITEBACK ACCESS:          0  HIT:          0  MISS:          0
ITLB PREFETCH  REQUESTED:          0  ISSUED:          0  USEFUL:          0  USELESS:          0
ITLB TOTAL MSHR MERGED:     172423
ITLB LOAD MSHR MERGED:     172423
ITLB RFO MSHR MERGED:          0
ITLB PREFETCH MSHR MERGED:          0
ITLB WRITEBACK MSHR MERGED:          0
ITLB TOTAL ACCESSES:  100667715 HITS:  100290846 MISSES:     376869
ITLB LOAD ACCESSES:  100667715 HITS:  100290846 MISSES:     376869
ITLB RFO ACCESSES:          0 HITS:          0 MISSES:          0
ITLB PREFETCH ACCESSES:          0 HITS:          0 MISSES:          0
ITLB WRITEBACK ACCESSES:          0 HITS:          0 MISSES:          0
ITLB RQ ACCESS:  500000057
ITLB RQ TO_CACHE:  100667715
ITLB RQ MERGED:  399332342
ITLB RQ FORWARD:          0
ITLB WQ ACCESS:          0
ITLB WQ TO_CACHE:          0
ITLB WQ MERGED:          0
ITLB WQ FORWARD:          0
DTLB TOTAL     ACCESS:  165320509  HIT:  164686160  MISS:     634349
DTLB LOAD      ACCESS:  106278937  HIT:  105708908  MISS:     570029
DTLB RFO       ACCESS:   59041572  HIT:   58977252  MISS:      64320
DTLB PREFETCH  ACCESS:          0  HIT:          0  MISS:          0
DTLB WRITEBACK ACCESS:          0  HIT:          0  MISS:          0
DTLB PREFETCH  REQUESTED:          0  ISSUED:          0  USEFUL:          0  USELESS:          0
DTLB TOTAL MSHR MERGED:      99857
DTLB LOAD MSHR MERGED:      59427
DTLB RFO MSHR MERGED:      40430
DTLB PREFETCH MSHR MERGED:          0
DTLB WRITEBACK MSHR MERGED:          0
DTLB TOTAL ACCESSES:  165420366 HITS:  164686160 MISSES:     734206
DTLB LOAD ACCESSES:  106338364 HITS:  105708908 MISSES:     629456
DTLB RFO ACCESSES:   59082002 HITS:   58977252 MISSES:     104750
DTLB PREFETCH ACCESSES:          0 HITS:          0 MISSES:          0
DTLB WRITEBACK ACCESSES:          0 HITS:          0 MISSES:          0
DTLB RQ ACCESS:  200294723
DTLB RQ TO_CACHE:  165420366
DTLB RQ MERGED:   34874357
DTLB RQ FORWARD:          0
DTLB WQ ACCESS:          0
DTLB WQ TO_CACHE:          0
DTLB WQ MERGED:          0
DTLB WQ FORWARD:          0
L1D TOTAL     ACCESS:  281689076  HIT:  273779921  MISS:    7909155
L1D LOAD      ACCESS:  110391446  HIT:  107106381  MISS:    3285065
L1D RFO       ACCESS:   67066565  HIT:   66173144  MISS:     893421
L1D PREFETCH  ACCESS:  104231065  HIT:  100500396  MISS:    3730669
L1D WRITEBACK ACCESS:          0  HIT:          0  MISS:          0
L1D PREFETCH  REQUESTED:  110804356  ISSUED:  109105183  USEFUL:    1651751  USELESS:    2078882
L1D TOTAL MSHR MERGED:    2990578
L1D LOAD MSHR MERGED:     517575
L1D RFO MSHR MERGED:    1921373
L1D PREFETCH MSHR MERGED:     551630
L1D WRITEBACK MSHR MERGED:          0
L1D TOTAL ACCESSES:  284707510 HITS:  273807777 MISSES:   10899733
L1D LOAD ACCESSES:  110806195 HITS:  107108220 MISSES:    3697975
L1D RFO ACCESSES:   68973314 HITS:   66173144 MISSES:    2800170
L1D PREFETCH ACCESSES:  104928001 HITS:  100526413 MISSES:    4401588
L1D WRITEBACK ACCESSES:          0 HITS:          0 MISSES:          0
L1D RQ ACCESS:  130742120
L1D RQ TO_CACHE:  110804359
L1D RQ MERGED:   19935922
L1D RQ FORWARD:          0
L1D WQ ACCESS:   69552603
L1D WQ TO_CACHE:   68973315
L1D WQ MERGED:     579288
L1D WQ FORWARD:      27856
L1I TOTAL     ACCESS:  126541968  HIT:  122303413  MISS:    4238555
L1I LOAD      ACCESS:  126541968  HIT:  122303413  MISS:    4238555
L1I RFO       ACCESS:          0  HIT:          0  MISS:          0
L1I PREFETCH  ACCESS:          0  HIT:          0  MISS:          0
L1I WRITEBACK ACCESS:          0  HIT:          0  MISS:          0
L1I PREFETCH  REQUESTED:          0  ISSUED:          0  USEFUL:          0  USELESS:          0
L1I TOTAL MSHR MERGED:    1834547
L1I LOAD MSHR MERGED:    1834547
L1I RFO MSHR MERGED:          0
L1I PREFETCH MSHR MERGED:          0
L1I WRITEBACK MSHR MERGED:          0
L1I TOTAL ACCESSES:  128376518 HITS:  122303413 MISSES:    6073105
L1I LOAD ACCESSES:  128376518 HITS:  122303413 MISSES:    6073105
L1I RFO ACCESSES:          0 HITS:          0 MISSES:          0
L1I PREFETCH ACCESSES:          0 HITS:          0 MISSES:          0
L1I WRITEBACK ACCESSES:          0 HITS:          0 MISSES:          0
L1I RQ ACCESS:  500000057
L1I RQ TO_CACHE:  128376518
L1I RQ MERGED:  371623539
L1I RQ FORWARD:          0
L1I WQ ACCESS:          0
L1I WQ TO_CACHE:          0
L1I WQ MERGED:          0
L1I WQ FORWARD:          0
L2C TOTAL     ACCESS:   14901335  HIT:   11155003  MISS:    3746332
L2C LOAD      ACCESS:    7418752  HIT:    5097841  MISS:    2320911
L2C RFO       ACCESS:     878698  HIT:     409911  MISS:     468787
L2C PREFETCH  ACCESS:    4564688  HIT:    3625312  MISS:     939376
L2C WRITEBACK ACCESS:    2039197  HIT:    2021939  MISS:      17258
L2C PREFETCH  REQUESTED:     842244  ISSUED:     842244  USEFUL:     202410  USELESS:     736672
L2C TOTAL MSHR MERGED:      10348
L2C LOAD MSHR MERGED:       1739
L2C RFO MSHR MERGED:          0
L2C PREFETCH MSHR MERGED:       8609
L2C WRITEBACK MSHR MERGED:          0
L2C TOTAL ACCESSES:   14912701 HITS:   11155448 MISSES:    3757253
L2C LOAD ACCESSES:    7418955 HITS:    5098044 MISSES:    2320911
L2C RFO ACCESSES:     878797 HITS:     410010 MISSES:     468787
L2C PREFETCH ACCESSES:    4575752 HITS:    3625455 MISSES:     950297
L2C WRITEBACK ACCESSES:    2039197 HITS:    2021939 MISSES:      17258
L2C RQ ACCESS:    8297755
L2C RQ TO_CACHE:    8297453
L2C RQ MERGED:          0
L2C RQ FORWARD:          0
L2C WQ ACCESS:    2039197
L2C WQ TO_CACHE:    2039197
L2C WQ MERGED:          0
L2C WQ FORWARD:        445
LLC TOTAL     ACCESS:    4609710  HIT:    3602877  MISS:    1006833
LLC LOAD      ACCESS:    2319159  HIT:    2047253  MISS:     271906
LLC RFO       ACCESS:     468776  HIT:     309752  MISS:     159024
LLC PREFETCH  ACCESS:     941527  HIT:     510149  MISS:     431378
LLC WRITEBACK ACCESS:     880248  HIT:     735723  MISS:     144525
LLC PREFETCH  REQUESTED:          0  ISSUED:          0  USEFUL:      15534  USELESS:     416245
LLC TOTAL MSHR MERGED:        142
LLC LOAD MSHR MERGED:         44
LLC RFO MSHR MERGED:          0
LLC PREFETCH MSHR MERGED:         98
LLC WRITEBACK MSHR MERGED:          0
LLC TOTAL ACCESSES:    4609886 HITS:    3602911 MISSES:    1006975
LLC LOAD ACCESSES:    2319172 HITS:    2047266 MISSES:     271906
LLC RFO ACCESSES:     468787 HITS:     309763 MISSES:     159024
LLC PREFETCH ACCESSES:     941679 HITS:     510159 MISSES:     431520
LLC WRITEBACK ACCESSES:     880248 HITS:     735723 MISSES:     144525
LLC 0 RQ ACCESS:    2787959
LLC 0 RQ TO_CACHE:    2787935
LLC 0 RQ MERGED:          0
LLC 0 RQ FORWARD:          0
LLC WQ ACCESS:     880248
LLC WQ TO_CACHE:     880248
LLC WQ MERGED:          0
LLC WQ FORWARD:         34
Major fault: 0 Minor fault: 12862
CPU 0 L1D next line prefetcher final stats
CPU 0 L2C PC-based stride prefetcher final stats
All Misses: 1163121
All Hits: 4263593
SD Algo Stats - Switches: 0 SRR-Repls: 309393 BRR-Repls: 0

DRAM Statistics
 CHANNEL 0
 RQ ROW_BUFFER_HIT:     180480  ROW_BUFFER_MISS:     676541
 DBUS_CONGESTED:     590834
 WQ ROW_BUFFER_HIT:      45479  ROW_BUFFER_MISS:     342378  FULL:          0

 AVG_CONGESTED_CYCLE: 13
LOADS RETIRED: 136549171
INSTR RETIRED: 500000000
