
*** ChampSim Multicore Out-of-Order Simulator ***

Warmup Instructions: 100000000
Simulation Instructions: 500000000
Number of CPUs: 1
LLC sets: 2048
LLC ways: 16
Clean RRIP Policies: 2213230222132302 Dirty RRIP Policies: 1203130212031302 PSEL Width: 10 Track Set: 4294967295 PSEL Mask: 1 Demote Mask: 3040130030401300DS Algo: 0Window size: 0
Off-chip DRAM Size: 4096 MB Channels: 1 Width: 64-bit Data Rate: 1600 MT/s

CPU 0 runs /mnt/beegfs/iconst01/spec2017/x264.trace.gz
NOT SORTED
TRACE STRING: /mnt/beegfs/iconst01/spec2017/x264.trace.gz
SORTED
TRACE STRING: /mnt/beegfs/iconst01/spec2017/x264.trace.gz
INITIAL
TRACE STRING: /mnt/beegfs/iconst01/spec2017/x264.trace.gz

champsim_seed used: 276

CPU 0 L1D next line prefetcher
CPU 0 L2C IP-based stride prefetcher
Initialize DRRIP state
Assign rand_sets[0]: 454  LLC: 2048
rand_sets[0]: 454
Assign rand_sets[1]: 1662  LLC: 2048
rand_sets[1]: 1662
Assign rand_sets[2]: 1921  LLC: 2048
rand_sets[2]: 1921
Assign rand_sets[3]: 1131  LLC: 2048
rand_sets[3]: 1131
Assign rand_sets[4]: 331  LLC: 2048
rand_sets[4]: 331
Assign rand_sets[5]: 1531  LLC: 2048
rand_sets[5]: 1531
Assign rand_sets[6]: 482  LLC: 2048
rand_sets[6]: 482
Assign rand_sets[7]: 1275  LLC: 2048
rand_sets[7]: 1275
Assign rand_sets[8]: 1876  LLC: 2048
rand_sets[8]: 1876
Assign rand_sets[9]: 2038  LLC: 2048
rand_sets[9]: 2038
Assign rand_sets[10]: 701  LLC: 2048
rand_sets[10]: 701
Assign rand_sets[11]: 479  LLC: 2048
rand_sets[11]: 479
Assign rand_sets[12]: 892  LLC: 2048
rand_sets[12]: 892
Assign rand_sets[13]: 1820  LLC: 2048
rand_sets[13]: 1820
Assign rand_sets[14]: 1505  LLC: 2048
rand_sets[14]: 1505
Assign rand_sets[15]: 1159  LLC: 2048
rand_sets[15]: 1159
Assign rand_sets[16]: 513  LLC: 2048
rand_sets[16]: 513
Assign rand_sets[17]: 703  LLC: 2048
rand_sets[17]: 703
Assign rand_sets[18]: 561  LLC: 2048
rand_sets[18]: 561
Assign rand_sets[19]: 990  LLC: 2048
rand_sets[19]: 990
Assign rand_sets[20]: 342  LLC: 2048
rand_sets[20]: 342
Assign rand_sets[21]: 882  LLC: 2048
rand_sets[21]: 882
Assign rand_sets[22]: 15  LLC: 2048
rand_sets[22]: 15
Assign rand_sets[23]: 71  LLC: 2048
rand_sets[23]: 71
Assign rand_sets[24]: 1127  LLC: 2048
rand_sets[24]: 1127
Assign rand_sets[25]: 1382  LLC: 2048
rand_sets[25]: 1382
Assign rand_sets[26]: 647  LLC: 2048
rand_sets[26]: 647
Assign rand_sets[27]: 857  LLC: 2048
rand_sets[27]: 857
Assign rand_sets[28]: 1450  LLC: 2048
rand_sets[28]: 1450
Assign rand_sets[29]: 1160  LLC: 2048
rand_sets[29]: 1160
Assign rand_sets[30]: 1852  LLC: 2048
rand_sets[30]: 1852
Assign rand_sets[31]: 1881  LLC: 2048
rand_sets[31]: 1881
Assign rand_sets[32]: 1770  LLC: 2048
rand_sets[32]: 1770
Assign rand_sets[33]: 1622  LLC: 2048
rand_sets[33]: 1622
Assign rand_sets[34]: 275  LLC: 2048
rand_sets[34]: 275
Assign rand_sets[35]: 635  LLC: 2048
rand_sets[35]: 635
Assign rand_sets[36]: 466  LLC: 2048
rand_sets[36]: 466
Assign rand_sets[37]: 1413  LLC: 2048
rand_sets[37]: 1413
Assign rand_sets[38]: 417  LLC: 2048
rand_sets[38]: 417
Assign rand_sets[39]: 472  LLC: 2048
rand_sets[39]: 472
Assign rand_sets[40]: 1340  LLC: 2048
rand_sets[40]: 1340
Assign rand_sets[41]: 852  LLC: 2048
rand_sets[41]: 852
Assign rand_sets[42]: 1365  LLC: 2048
rand_sets[42]: 1365
Assign rand_sets[43]: 47  LLC: 2048
rand_sets[43]: 47
Assign rand_sets[44]: 823  LLC: 2048
rand_sets[44]: 823
Assign rand_sets[45]: 686  LLC: 2048
rand_sets[45]: 686
Assign rand_sets[46]: 1637  LLC: 2048
rand_sets[46]: 1637
Assign rand_sets[47]: 1115  LLC: 2048
rand_sets[47]: 1115
Assign rand_sets[48]: 986  LLC: 2048
rand_sets[48]: 986
Assign rand_sets[49]: 258  LLC: 2048
rand_sets[49]: 258
Assign rand_sets[50]: 633  LLC: 2048
rand_sets[50]: 633
Assign rand_sets[51]: 920  LLC: 2048
rand_sets[51]: 920
Assign rand_sets[52]: 204  LLC: 2048
rand_sets[52]: 204
Assign rand_sets[53]: 227  LLC: 2048
rand_sets[53]: 227
Assign rand_sets[54]: 1818  LLC: 2048
rand_sets[54]: 1818
Assign rand_sets[55]: 886  LLC: 2048
rand_sets[55]: 886
Assign rand_sets[56]: 1422  LLC: 2048
rand_sets[56]: 1422
Assign rand_sets[57]: 607  LLC: 2048
rand_sets[57]: 607
Assign rand_sets[58]: 217  LLC: 2048
rand_sets[58]: 217
Assign rand_sets[59]: 1945  LLC: 2048
rand_sets[59]: 1945
Assign rand_sets[60]: 143  LLC: 2048
rand_sets[60]: 143
Assign rand_sets[61]: 1311  LLC: 2048
rand_sets[61]: 1311
Assign rand_sets[62]: 319  LLC: 2048
rand_sets[62]: 319
Assign rand_sets[63]: 1846  LLC: 2048
rand_sets[63]: 1846
 CLEAN-RRIP-POLICY-1: 2-2-1-3-2-3-0-2- CLEAN-RRIP-POLICY-2: 2-2-1-3-2-3-0-2-
 DIRTY-RRIP-POLICY-1: 1-2-0-3-1-3-0-2- DIRTY-RRIP-POLICY-2: 1-2-0-3-1-3-0-2-
 PSEL width: 10
Heartbeat CPU 0 instructions: 10000000 cycles: 4124759 heartbeat IPC: 2.42438 cumulative IPC: 2.42438 (Simulation time: 0 hr 0 min 13 sec) 
Heartbeat CPU 0 instructions: 20000000 cycles: 8233863 heartbeat IPC: 2.43362 cumulative IPC: 2.42899 (Simulation time: 0 hr 0 min 26 sec) 
Heartbeat CPU 0 instructions: 30000003 cycles: 12464696 heartbeat IPC: 2.3636 cumulative IPC: 2.4068 (Simulation time: 0 hr 0 min 39 sec) 
Heartbeat CPU 0 instructions: 40000000 cycles: 16636669 heartbeat IPC: 2.39695 cumulative IPC: 2.40433 (Simulation time: 0 hr 0 min 52 sec) 
Heartbeat CPU 0 instructions: 50000000 cycles: 20699150 heartbeat IPC: 2.46155 cumulative IPC: 2.41556 (Simulation time: 0 hr 1 min 5 sec) 
Heartbeat CPU 0 instructions: 60000000 cycles: 25022635 heartbeat IPC: 2.31295 cumulative IPC: 2.39783 (Simulation time: 0 hr 1 min 18 sec) 
Heartbeat CPU 0 instructions: 70000000 cycles: 29370910 heartbeat IPC: 2.29976 cumulative IPC: 2.38331 (Simulation time: 0 hr 1 min 30 sec) 
Heartbeat CPU 0 instructions: 80000000 cycles: 33721041 heartbeat IPC: 2.29878 cumulative IPC: 2.37241 (Simulation time: 0 hr 1 min 43 sec) 
Heartbeat CPU 0 instructions: 90000002 cycles: 38032022 heartbeat IPC: 2.31966 cumulative IPC: 2.36643 (Simulation time: 0 hr 1 min 56 sec) 
Heartbeat CPU 0 instructions: 100000000 cycles: 42328938 heartbeat IPC: 2.32725 cumulative IPC: 2.36245 (Simulation time: 0 hr 2 min 9 sec) 

Warmup complete CPU 0 instructions: 100000001 cycles: 42328939 (Simulation time: 0 hr 2 min 9 sec) 

Heartbeat CPU 0 instructions: 110000001 cycles: 49390541 heartbeat IPC: 1.41611 cumulative IPC: 1.41611 (Simulation time: 0 hr 2 min 25 sec) 
Heartbeat CPU 0 instructions: 120000000 cycles: 58888746 heartbeat IPC: 1.05283 cumulative IPC: 1.20774 (Simulation time: 0 hr 2 min 43 sec) 
Heartbeat CPU 0 instructions: 130000000 cycles: 63696790 heartbeat IPC: 2.07985 cumulative IPC: 1.40398 (Simulation time: 0 hr 3 min 0 sec) 
Heartbeat CPU 0 instructions: 140000000 cycles: 68600396 heartbeat IPC: 2.03932 cumulative IPC: 1.52256 (Simulation time: 0 hr 3 min 16 sec) 
Heartbeat CPU 0 instructions: 150000002 cycles: 75422434 heartbeat IPC: 1.46584 cumulative IPC: 1.51087 (Simulation time: 0 hr 3 min 33 sec) 
Heartbeat CPU 0 instructions: 160000000 cycles: 83263199 heartbeat IPC: 1.27539 cumulative IPC: 1.46576 (Simulation time: 0 hr 3 min 50 sec) 
Heartbeat CPU 0 instructions: 170000000 cycles: 90665774 heartbeat IPC: 1.35088 cumulative IPC: 1.44817 (Simulation time: 0 hr 4 min 7 sec) 
Heartbeat CPU 0 instructions: 180000000 cycles: 97964715 heartbeat IPC: 1.37006 cumulative IPC: 1.43792 (Simulation time: 0 hr 4 min 23 sec) 
Heartbeat CPU 0 instructions: 190000002 cycles: 105137525 heartbeat IPC: 1.39415 cumulative IPC: 1.43293 (Simulation time: 0 hr 4 min 39 sec) 
Heartbeat CPU 0 instructions: 200000000 cycles: 112372397 heartbeat IPC: 1.38219 cumulative IPC: 1.42769 (Simulation time: 0 hr 4 min 56 sec) 
Heartbeat CPU 0 instructions: 210000000 cycles: 119242394 heartbeat IPC: 1.4556 cumulative IPC: 1.43018 (Simulation time: 0 hr 5 min 12 sec) 
Heartbeat CPU 0 instructions: 220000000 cycles: 126016780 heartbeat IPC: 1.47615 cumulative IPC: 1.4339 (Simulation time: 0 hr 5 min 28 sec) 
Heartbeat CPU 0 instructions: 230000003 cycles: 132744105 heartbeat IPC: 1.48648 cumulative IPC: 1.43781 (Simulation time: 0 hr 5 min 44 sec) 
Heartbeat CPU 0 instructions: 240000000 cycles: 139489059 heartbeat IPC: 1.48259 cumulative IPC: 1.44092 (Simulation time: 0 hr 6 min 0 sec) 
Heartbeat CPU 0 instructions: 250000001 cycles: 146215806 heartbeat IPC: 1.4866 cumulative IPC: 1.44388 (Simulation time: 0 hr 6 min 16 sec) 
Heartbeat CPU 0 instructions: 260000000 cycles: 152923317 heartbeat IPC: 1.49087 cumulative IPC: 1.44673 (Simulation time: 0 hr 6 min 32 sec) 
Heartbeat CPU 0 instructions: 270000001 cycles: 159902506 heartbeat IPC: 1.43283 cumulative IPC: 1.4459 (Simulation time: 0 hr 6 min 48 sec) 
Heartbeat CPU 0 instructions: 280000000 cycles: 167436485 heartbeat IPC: 1.32732 cumulative IPC: 1.43876 (Simulation time: 0 hr 7 min 5 sec) 
Heartbeat CPU 0 instructions: 290000000 cycles: 175359766 heartbeat IPC: 1.2621 cumulative IPC: 1.42824 (Simulation time: 0 hr 7 min 22 sec) 
Heartbeat CPU 0 instructions: 300000000 cycles: 183543266 heartbeat IPC: 1.22197 cumulative IPC: 1.41629 (Simulation time: 0 hr 7 min 39 sec) 
Heartbeat CPU 0 instructions: 310000002 cycles: 191855190 heartbeat IPC: 1.20309 cumulative IPC: 1.40444 (Simulation time: 0 hr 7 min 56 sec) 
Heartbeat CPU 0 instructions: 320000000 cycles: 201861270 heartbeat IPC: 0.999392 cumulative IPC: 1.37903 (Simulation time: 0 hr 8 min 16 sec) 
Heartbeat CPU 0 instructions: 330000002 cycles: 206497497 heartbeat IPC: 2.15693 cumulative IPC: 1.401 (Simulation time: 0 hr 8 min 32 sec) 
Heartbeat CPU 0 instructions: 340000000 cycles: 211698059 heartbeat IPC: 1.92287 cumulative IPC: 1.41702 (Simulation time: 0 hr 8 min 48 sec) 
Heartbeat CPU 0 instructions: 350000000 cycles: 218906642 heartbeat IPC: 1.38724 cumulative IPC: 1.41581 (Simulation time: 0 hr 9 min 5 sec) 
Heartbeat CPU 0 instructions: 360000000 cycles: 226558051 heartbeat IPC: 1.30695 cumulative IPC: 1.41129 (Simulation time: 0 hr 9 min 22 sec) 
Heartbeat CPU 0 instructions: 370000000 cycles: 233959446 heartbeat IPC: 1.3511 cumulative IPC: 1.40896 (Simulation time: 0 hr 9 min 39 sec) 
Heartbeat CPU 0 instructions: 380000000 cycles: 241234535 heartbeat IPC: 1.37455 cumulative IPC: 1.4077 (Simulation time: 0 hr 9 min 55 sec) 
Heartbeat CPU 0 instructions: 390000000 cycles: 249352292 heartbeat IPC: 1.23187 cumulative IPC: 1.40081 (Simulation time: 0 hr 10 min 12 sec) 
Heartbeat CPU 0 instructions: 400000000 cycles: 257559949 heartbeat IPC: 1.21837 cumulative IPC: 1.39385 (Simulation time: 0 hr 10 min 30 sec) 
Heartbeat CPU 0 instructions: 410000001 cycles: 265385466 heartbeat IPC: 1.27787 cumulative IPC: 1.38978 (Simulation time: 0 hr 10 min 47 sec) 
Heartbeat CPU 0 instructions: 420000000 cycles: 273436388 heartbeat IPC: 1.24209 cumulative IPC: 1.38464 (Simulation time: 0 hr 11 min 4 sec) 
Heartbeat CPU 0 instructions: 430000001 cycles: 281696169 heartbeat IPC: 1.21069 cumulative IPC: 1.37863 (Simulation time: 0 hr 11 min 22 sec) 
Heartbeat CPU 0 instructions: 440000000 cycles: 289743713 heartbeat IPC: 1.24261 cumulative IPC: 1.37421 (Simulation time: 0 hr 11 min 39 sec) 
Heartbeat CPU 0 instructions: 450000001 cycles: 297616517 heartbeat IPC: 1.2702 cumulative IPC: 1.371 (Simulation time: 0 hr 11 min 56 sec) 
Heartbeat CPU 0 instructions: 460000000 cycles: 307561045 heartbeat IPC: 1.00558 cumulative IPC: 1.3573 (Simulation time: 0 hr 12 min 15 sec) 
Heartbeat CPU 0 instructions: 470000002 cycles: 312191015 heartbeat IPC: 2.15984 cumulative IPC: 1.37107 (Simulation time: 0 hr 12 min 31 sec) 
Heartbeat CPU 0 instructions: 480000000 cycles: 317420536 heartbeat IPC: 1.91222 cumulative IPC: 1.38136 (Simulation time: 0 hr 12 min 47 sec) 
Heartbeat CPU 0 instructions: 490000001 cycles: 324736284 heartbeat IPC: 1.36691 cumulative IPC: 1.38098 (Simulation time: 0 hr 13 min 5 sec) 
Heartbeat CPU 0 instructions: 500000000 cycles: 333468018 heartbeat IPC: 1.14525 cumulative IPC: 1.37391 (Simulation time: 0 hr 13 min 24 sec) 
Heartbeat CPU 0 instructions: 510000002 cycles: 342200122 heartbeat IPC: 1.1452 cumulative IPC: 1.36725 (Simulation time: 0 hr 13 min 43 sec) 
Heartbeat CPU 0 instructions: 520000000 cycles: 350928523 heartbeat IPC: 1.14568 cumulative IPC: 1.36099 (Simulation time: 0 hr 14 min 3 sec) 
Heartbeat CPU 0 instructions: 530000000 cycles: 359636243 heartbeat IPC: 1.14841 cumulative IPC: 1.35515 (Simulation time: 0 hr 14 min 22 sec) 
Heartbeat CPU 0 instructions: 540000000 cycles: 367891573 heartbeat IPC: 1.21134 cumulative IPC: 1.35151 (Simulation time: 0 hr 14 min 41 sec) 
Heartbeat CPU 0 instructions: 550000000 cycles: 374930280 heartbeat IPC: 1.42072 cumulative IPC: 1.35297 (Simulation time: 0 hr 14 min 58 sec) 
Heartbeat CPU 0 instructions: 560000000 cycles: 381544035 heartbeat IPC: 1.512 cumulative IPC: 1.35607 (Simulation time: 0 hr 15 min 14 sec) 
Heartbeat CPU 0 instructions: 570000002 cycles: 388133043 heartbeat IPC: 1.51768 cumulative IPC: 1.35915 (Simulation time: 0 hr 15 min 30 sec) 
Heartbeat CPU 0 instructions: 580000000 cycles: 394781993 heartbeat IPC: 1.504 cumulative IPC: 1.36188 (Simulation time: 0 hr 15 min 47 sec) 
Heartbeat CPU 0 instructions: 590000002 cycles: 401476735 heartbeat IPC: 1.49371 cumulative IPC: 1.36434 (Simulation time: 0 hr 16 min 3 sec) 
Heartbeat CPU 0 instructions: 600000000 cycles: 408290885 heartbeat IPC: 1.46753 cumulative IPC: 1.36626 (Simulation time: 0 hr 16 min 20 sec) 
Finished CPU 0 instructions: 500000000 cycles: 365961954 cumulative IPC: 1.36626 (Simulation time: 0 hr 16 min 20 sec) 

CPU 0 Branch Prediction Accuracy: 93.4682% MPKI: 2.44079
Number of Branches: 18683822 Number of Mispredictions: 1220394
Number of LOAD Instructions: 142551610
Number of LOAD Instructions (ROI): 142551610
Number of STORE Instructions: 44807454
Number of STORE Instructions (ROI): 44807454
Total Destination Memory Operands: 48357071
Total Destination Memory Operands (ROI): 48357071
Total Source Memory Operands: 142551610
Total Source Memory Operands (ROI): 142551610
Number of DEPENDED LOADS: 7395140
Number of DEPENDED LOADS (ROI): 7395140
Number of SQ_ADDED: 48357051
Number of SQ_ADDED (ROI): 48357051
Number of LQ_ADDED: 157215046
Number of LQ_ADDED (ROI): 157215046
Number of Instructions read from trace: 600000256

ChampSim completed all CPUs

Region of Interest Statistics

CPU 0 cumulative IPC: 1.36626 instructions: 500000000 cycles: 365961954
ITLB TOTAL     ACCESS:   88176568  HIT:   88176499  MISS:         69
ITLB LOAD      ACCESS:   88176568  HIT:   88176499  MISS:         69
ITLB RFO       ACCESS:          0  HIT:          0  MISS:          0
ITLB PREFETCH  ACCESS:          0  HIT:          0  MISS:          0
ITLB WRITEBACK ACCESS:          0  HIT:          0  MISS:          0
ITLB PREFETCH  REQUESTED:          0  ISSUED:          0  USEFUL:          0  USELESS:          0
ITLB TOTAL MSHR MERGED:         86
ITLB LOAD MSHR MERGED:         86
ITLB RFO MSHR MERGED:          0
ITLB PREFETCH MSHR MERGED:          0
ITLB WRITEBACK MSHR MERGED:          0
ITLB TOTAL ACCESSES:   88176654 HITS:   88176499 MISSES:        155
ITLB LOAD ACCESSES:   88176654 HITS:   88176499 MISSES:        155
ITLB RFO ACCESSES:          0 HITS:          0 MISSES:          0
ITLB PREFETCH ACCESSES:          0 HITS:          0 MISSES:          0
ITLB WRITEBACK ACCESSES:          0 HITS:          0 MISSES:          0
ITLB RQ ACCESS:  500000000
ITLB RQ TO_CACHE:   88176654
ITLB RQ MERGED:  411823346
ITLB RQ FORWARD:          0
ITLB WQ ACCESS:          0
ITLB WQ TO_CACHE:          0
ITLB WQ MERGED:          0
ITLB WQ FORWARD:          0
DTLB TOTAL     ACCESS:   88203115  HIT:   88075698  MISS:     127417
DTLB LOAD      ACCESS:   59485312  HIT:   59392849  MISS:      92463
DTLB RFO       ACCESS:   28717803  HIT:   28682849  MISS:      34954
DTLB PREFETCH  ACCESS:          0  HIT:          0  MISS:          0
DTLB WRITEBACK ACCESS:          0  HIT:          0  MISS:          0
DTLB PREFETCH  REQUESTED:          0  ISSUED:          0  USEFUL:          0  USELESS:          0
DTLB TOTAL MSHR MERGED:     141114
DTLB LOAD MSHR MERGED:     107702
DTLB RFO MSHR MERGED:      33412
DTLB PREFETCH MSHR MERGED:          0
DTLB WRITEBACK MSHR MERGED:          0
DTLB TOTAL ACCESSES:   88344229 HITS:   88075698 MISSES:     268531
DTLB LOAD ACCESSES:   59593014 HITS:   59392849 MISSES:     200165
DTLB RFO ACCESSES:   28751215 HITS:   28682849 MISSES:      68366
DTLB PREFETCH ACCESSES:          0 HITS:          0 MISSES:          0
DTLB WRITEBACK ACCESSES:          0 HITS:          0 MISSES:          0
DTLB RQ ACCESS:  154558750
DTLB RQ TO_CACHE:   88344229
DTLB RQ MERGED:   66214521
DTLB RQ FORWARD:          0
DTLB WQ ACCESS:          0
DTLB WQ TO_CACHE:          0
DTLB WQ MERGED:          0
DTLB WQ FORWARD:          0
L1D TOTAL     ACCESS:  128081258  HIT:  124855709  MISS:    3225549
L1D LOAD      ACCESS:   53172505  HIT:   51977330  MISS:    1195175
L1D RFO       ACCESS:   37394380  HIT:   36780215  MISS:     614165
L1D PREFETCH  ACCESS:   37514373  HIT:   36098164  MISS:    1416209
L1D WRITEBACK ACCESS:          0  HIT:          0  MISS:          0
L1D PREFETCH  REQUESTED:   53657110  ISSUED:   52457151  USEFUL:     352199  USELESS:    1063975
L1D TOTAL MSHR MERGED:    2814949
L1D LOAD MSHR MERGED:     523213
L1D RFO MSHR MERGED:    1560387
L1D PREFETCH MSHR MERGED:     731349
L1D WRITEBACK MSHR MERGED:          0
L1D TOTAL ACCESSES:  130931108 HITS:  124890610 MISSES:    6040498
L1D LOAD ACCESSES:   53660020 HITS:   51980240 MISSES:    1679780
L1D RFO ACCESSES:   38952827 HITS:   36780215 MISSES:    2172612
L1D PREFETCH ACCESSES:   38318261 HITS:   36130155 MISSES:    2188106
L1D WRITEBACK ACCESSES:          0 HITS:          0 MISSES:          0
L1D RQ ACCESS:  113713858
L1D RQ TO_CACHE:   53657110
L1D RQ MERGED:   60053838
L1D RQ FORWARD:          0
L1D WQ ACCESS:   40844891
L1D WQ TO_CACHE:   38952827
L1D WQ MERGED:    1892064
L1D WQ FORWARD:      34901
L1I TOTAL     ACCESS:  108368461  HIT:  107809329  MISS:     559132
L1I LOAD      ACCESS:  108368461  HIT:  107809329  MISS:     559132
L1I RFO       ACCESS:          0  HIT:          0  MISS:          0
L1I PREFETCH  ACCESS:          0  HIT:          0  MISS:          0
L1I WRITEBACK ACCESS:          0  HIT:          0  MISS:          0
L1I PREFETCH  REQUESTED:          0  ISSUED:          0  USEFUL:          0  USELESS:          0
L1I TOTAL MSHR MERGED:     525595
L1I LOAD MSHR MERGED:     525595
L1I RFO MSHR MERGED:          0
L1I PREFETCH MSHR MERGED:          0
L1I WRITEBACK MSHR MERGED:          0
L1I TOTAL ACCESSES:  108894056 HITS:  107809329 MISSES:    1084727
L1I LOAD ACCESSES:  108894056 HITS:  107809329 MISSES:    1084727
L1I RFO ACCESSES:          0 HITS:          0 MISSES:          0
L1I PREFETCH ACCESSES:          0 HITS:          0 MISSES:          0
L1I WRITEBACK ACCESSES:          0 HITS:          0 MISSES:          0
L1I RQ ACCESS:  500000002
L1I RQ TO_CACHE:  108894056
L1I RQ MERGED:  391105946
L1I RQ FORWARD:          0
L1I WQ ACCESS:          0
L1I WQ TO_CACHE:          0
L1I WQ MERGED:          0
L1I WQ FORWARD:          0
L2C TOTAL     ACCESS:    4692107  HIT:    3866010  MISS:     826097
L2C LOAD      ACCESS:    1715590  HIT:    1562780  MISS:     152810
L2C RFO       ACCESS:     610799  HIT:     421157  MISS:     189642
L2C PREFETCH  ACCESS:    1662845  HIT:    1181385  MISS:     481460
L2C WRITEBACK ACCESS:     702873  HIT:     700688  MISS:       2185
L2C PREFETCH  REQUESTED:     256346  ISSUED:     256346  USEFUL:     173197  USELESS:     308929
L2C TOTAL MSHR MERGED:      13346
L2C LOAD MSHR MERGED:       4103
L2C RFO MSHR MERGED:          0
L2C PREFETCH MSHR MERGED:       9243
L2C WRITEBACK MSHR MERGED:          0
L2C TOTAL ACCESSES:    4712011 HITS:    3867610 MISSES:     844401
L2C LOAD ACCESSES:    1715699 HITS:    1562889 MISSES:     152810
L2C RFO ACCESSES:     612225 HITS:     422583 MISSES:     189642
L2C PREFETCH ACCESSES:    1681214 HITS:    1181450 MISSES:     499764
L2C WRITEBACK ACCESSES:     702873 HITS:     700688 MISSES:       2185
L2C RQ ACCESS:    2327924
L2C RQ TO_CACHE:    2326389
L2C RQ MERGED:          0
L2C RQ FORWARD:          0
L2C WQ ACCESS:     702873
L2C WQ TO_CACHE:     702873
L2C WQ MERGED:          0
L2C WQ FORWARD:       1600
LLC TOTAL     ACCESS:    1047621  HIT:     281977  MISS:     765644
LLC LOAD      ACCESS:     148703  HIT:      90196  MISS:      58507
LLC RFO       ACCESS:     189633  HIT:       7034  MISS:     182599
LLC PREFETCH  ACCESS:     488406  HIT:     145557  MISS:     342849
LLC WRITEBACK ACCESS:     220879  HIT:      39190  MISS:     181689
LLC PREFETCH  REQUESTED:          0  ISSUED:          0  USEFUL:       2185  USELESS:     341214
LLC TOTAL MSHR MERGED:       1445
LLC LOAD MSHR MERGED:        455
LLC RFO MSHR MERGED:          0
LLC PREFETCH MSHR MERGED:        990
LLC WRITEBACK MSHR MERGED:          0
LLC TOTAL ACCESSES:    1049079 HITS:     281990 MISSES:     767089
LLC LOAD ACCESSES:     148707 HITS:      90200 MISSES:      58507
LLC RFO ACCESSES:     189642 HITS:       7043 MISSES:     182599
LLC PREFETCH ACCESSES:     489851 HITS:     145557 MISSES:     344294
LLC WRITEBACK ACCESSES:     220879 HITS:      39190 MISSES:     181689
LLC 0 RQ ACCESS:     338349
LLC 0 RQ TO_CACHE:     338336
LLC 0 RQ MERGED:          0
LLC 0 RQ FORWARD:          0
LLC WQ ACCESS:     220879
LLC WQ TO_CACHE:     220879
LLC WQ MERGED:          0
LLC WQ FORWARD:         13
Major fault: 0 Minor fault: 6811
CPU 0 L1D next line prefetcher final stats
CPU 0 L2C PC-based stride prefetcher final stats
All Misses: 904658
All Hits: 349946
SD Algo Stats - Switches: 0 SRR-Repls: 65886 BRR-Repls: 0

DRAM Statistics
 CHANNEL 0
 RQ ROW_BUFFER_HIT:     295458  ROW_BUFFER_MISS:     288431
 DBUS_CONGESTED:     403789
 WQ ROW_BUFFER_HIT:      22509  ROW_BUFFER_MISS:     193057  FULL:          0

 AVG_CONGESTED_CYCLE: 13
LOADS RETIRED: 119922929
INSTR RETIRED: 500000000
