
*** ChampSim Multicore Out-of-Order Simulator ***

Warmup Instructions: 100000000
Simulation Instructions: 500000000
Number of CPUs: 1
LLC sets: 2048
LLC ways: 16
Clean RRIP Policies: 2213230222132302 Dirty RRIP Policies: 1203130212031302 PSEL Width: 10 Track Set: 4294967295 PSEL Mask: 1 Demote Mask: 1040130010401300DS Algo: 0Window size: 0
Off-chip DRAM Size: 4096 MB Channels: 1 Width: 64-bit Data Rate: 1600 MT/s

CPU 0 runs /mnt/beegfs/iconst01/spec2017/Wrf.trace.gz
NOT SORTED
TRACE STRING: /mnt/beegfs/iconst01/spec2017/Wrf.trace.gz
SORTED
TRACE STRING: /mnt/beegfs/iconst01/spec2017/Wrf.trace.gz
INITIAL
TRACE STRING: /mnt/beegfs/iconst01/spec2017/Wrf.trace.gz

champsim_seed used: 303

CPU 0 L1D next line prefetcher
CPU 0 L2C IP-based stride prefetcher
Initialize DRRIP state
Assign rand_sets[0]: 454  LLC: 2048
rand_sets[0]: 454
Assign rand_sets[1]: 1662  LLC: 2048
rand_sets[1]: 1662
Assign rand_sets[2]: 1921  LLC: 2048
rand_sets[2]: 1921
Assign rand_sets[3]: 1131  LLC: 2048
rand_sets[3]: 1131
Assign rand_sets[4]: 331  LLC: 2048
rand_sets[4]: 331
Assign rand_sets[5]: 1531  LLC: 2048
rand_sets[5]: 1531
Assign rand_sets[6]: 482  LLC: 2048
rand_sets[6]: 482
Assign rand_sets[7]: 1275  LLC: 2048
rand_sets[7]: 1275
Assign rand_sets[8]: 1876  LLC: 2048
rand_sets[8]: 1876
Assign rand_sets[9]: 2038  LLC: 2048
rand_sets[9]: 2038
Assign rand_sets[10]: 701  LLC: 2048
rand_sets[10]: 701
Assign rand_sets[11]: 479  LLC: 2048
rand_sets[11]: 479
Assign rand_sets[12]: 892  LLC: 2048
rand_sets[12]: 892
Assign rand_sets[13]: 1820  LLC: 2048
rand_sets[13]: 1820
Assign rand_sets[14]: 1505  LLC: 2048
rand_sets[14]: 1505
Assign rand_sets[15]: 1159  LLC: 2048
rand_sets[15]: 1159
Assign rand_sets[16]: 513  LLC: 2048
rand_sets[16]: 513
Assign rand_sets[17]: 703  LLC: 2048
rand_sets[17]: 703
Assign rand_sets[18]: 561  LLC: 2048
rand_sets[18]: 561
Assign rand_sets[19]: 990  LLC: 2048
rand_sets[19]: 990
Assign rand_sets[20]: 342  LLC: 2048
rand_sets[20]: 342
Assign rand_sets[21]: 882  LLC: 2048
rand_sets[21]: 882
Assign rand_sets[22]: 15  LLC: 2048
rand_sets[22]: 15
Assign rand_sets[23]: 71  LLC: 2048
rand_sets[23]: 71
Assign rand_sets[24]: 1127  LLC: 2048
rand_sets[24]: 1127
Assign rand_sets[25]: 1382  LLC: 2048
rand_sets[25]: 1382
Assign rand_sets[26]: 647  LLC: 2048
rand_sets[26]: 647
Assign rand_sets[27]: 857  LLC: 2048
rand_sets[27]: 857
Assign rand_sets[28]: 1450  LLC: 2048
rand_sets[28]: 1450
Assign rand_sets[29]: 1160  LLC: 2048
rand_sets[29]: 1160
Assign rand_sets[30]: 1852  LLC: 2048
rand_sets[30]: 1852
Assign rand_sets[31]: 1881  LLC: 2048
rand_sets[31]: 1881
Assign rand_sets[32]: 1770  LLC: 2048
rand_sets[32]: 1770
Assign rand_sets[33]: 1622  LLC: 2048
rand_sets[33]: 1622
Assign rand_sets[34]: 275  LLC: 2048
rand_sets[34]: 275
Assign rand_sets[35]: 635  LLC: 2048
rand_sets[35]: 635
Assign rand_sets[36]: 466  LLC: 2048
rand_sets[36]: 466
Assign rand_sets[37]: 1413  LLC: 2048
rand_sets[37]: 1413
Assign rand_sets[38]: 417  LLC: 2048
rand_sets[38]: 417
Assign rand_sets[39]: 472  LLC: 2048
rand_sets[39]: 472
Assign rand_sets[40]: 1340  LLC: 2048
rand_sets[40]: 1340
Assign rand_sets[41]: 852  LLC: 2048
rand_sets[41]: 852
Assign rand_sets[42]: 1365  LLC: 2048
rand_sets[42]: 1365
Assign rand_sets[43]: 47  LLC: 2048
rand_sets[43]: 47
Assign rand_sets[44]: 823  LLC: 2048
rand_sets[44]: 823
Assign rand_sets[45]: 686  LLC: 2048
rand_sets[45]: 686
Assign rand_sets[46]: 1637  LLC: 2048
rand_sets[46]: 1637
Assign rand_sets[47]: 1115  LLC: 2048
rand_sets[47]: 1115
Assign rand_sets[48]: 986  LLC: 2048
rand_sets[48]: 986
Assign rand_sets[49]: 258  LLC: 2048
rand_sets[49]: 258
Assign rand_sets[50]: 633  LLC: 2048
rand_sets[50]: 633
Assign rand_sets[51]: 920  LLC: 2048
rand_sets[51]: 920
Assign rand_sets[52]: 204  LLC: 2048
rand_sets[52]: 204
Assign rand_sets[53]: 227  LLC: 2048
rand_sets[53]: 227
Assign rand_sets[54]: 1818  LLC: 2048
rand_sets[54]: 1818
Assign rand_sets[55]: 886  LLC: 2048
rand_sets[55]: 886
Assign rand_sets[56]: 1422  LLC: 2048
rand_sets[56]: 1422
Assign rand_sets[57]: 607  LLC: 2048
rand_sets[57]: 607
Assign rand_sets[58]: 217  LLC: 2048
rand_sets[58]: 217
Assign rand_sets[59]: 1945  LLC: 2048
rand_sets[59]: 1945
Assign rand_sets[60]: 143  LLC: 2048
rand_sets[60]: 143
Assign rand_sets[61]: 1311  LLC: 2048
rand_sets[61]: 1311
Assign rand_sets[62]: 319  LLC: 2048
rand_sets[62]: 319
Assign rand_sets[63]: 1846  LLC: 2048
rand_sets[63]: 1846
 CLEAN-RRIP-POLICY-1: 2-2-1-3-2-3-0-2- CLEAN-RRIP-POLICY-2: 2-2-1-3-2-3-0-2-
 DIRTY-RRIP-POLICY-1: 1-2-0-3-1-3-0-2- DIRTY-RRIP-POLICY-2: 1-2-0-3-1-3-0-2-
 PSEL width: 10
Heartbeat CPU 0 instructions: 10000002 cycles: 6559548 heartbeat IPC: 1.5245 cumulative IPC: 1.5245 (Simulation time: 0 hr 0 min 21 sec) 
Heartbeat CPU 0 instructions: 20000000 cycles: 12222140 heartbeat IPC: 1.76598 cumulative IPC: 1.63637 (Simulation time: 0 hr 0 min 41 sec) 
Heartbeat CPU 0 instructions: 30000003 cycles: 18203940 heartbeat IPC: 1.67174 cumulative IPC: 1.64799 (Simulation time: 0 hr 1 min 0 sec) 
Heartbeat CPU 0 instructions: 40000000 cycles: 24059282 heartbeat IPC: 1.70784 cumulative IPC: 1.66256 (Simulation time: 0 hr 1 min 21 sec) 
Heartbeat CPU 0 instructions: 50000000 cycles: 29527689 heartbeat IPC: 1.82869 cumulative IPC: 1.69333 (Simulation time: 0 hr 1 min 40 sec) 
Heartbeat CPU 0 instructions: 60000000 cycles: 35640485 heartbeat IPC: 1.63591 cumulative IPC: 1.68348 (Simulation time: 0 hr 2 min 1 sec) 
Heartbeat CPU 0 instructions: 70000000 cycles: 41360128 heartbeat IPC: 1.74836 cumulative IPC: 1.69245 (Simulation time: 0 hr 2 min 21 sec) 
Heartbeat CPU 0 instructions: 80000000 cycles: 47231103 heartbeat IPC: 1.70329 cumulative IPC: 1.6938 (Simulation time: 0 hr 2 min 41 sec) 
Heartbeat CPU 0 instructions: 90000000 cycles: 52984634 heartbeat IPC: 1.73806 cumulative IPC: 1.69861 (Simulation time: 0 hr 3 min 1 sec) 
Heartbeat CPU 0 instructions: 100000000 cycles: 58537689 heartbeat IPC: 1.80081 cumulative IPC: 1.7083 (Simulation time: 0 hr 3 min 21 sec) 

Warmup complete CPU 0 instructions: 100000004 cycles: 58537691 (Simulation time: 0 hr 3 min 21 sec) 

Heartbeat CPU 0 instructions: 110000001 cycles: 72371992 heartbeat IPC: 0.722841 cumulative IPC: 0.722841 (Simulation time: 0 hr 3 min 45 sec) 
Heartbeat CPU 0 instructions: 120000000 cycles: 82910241 heartbeat IPC: 0.948924 cumulative IPC: 0.820595 (Simulation time: 0 hr 4 min 8 sec) 
Heartbeat CPU 0 instructions: 130000000 cycles: 92465290 heartbeat IPC: 1.04657 cumulative IPC: 0.884236 (Simulation time: 0 hr 4 min 30 sec) 
Heartbeat CPU 0 instructions: 140000000 cycles: 102815030 heartbeat IPC: 0.966208 cumulative IPC: 0.903397 (Simulation time: 0 hr 4 min 52 sec) 
Heartbeat CPU 0 instructions: 150000002 cycles: 113478331 heartbeat IPC: 0.937796 cumulative IPC: 0.910073 (Simulation time: 0 hr 5 min 15 sec) 
Heartbeat CPU 0 instructions: 160000000 cycles: 122320974 heartbeat IPC: 1.13088 cumulative IPC: 0.940685 (Simulation time: 0 hr 5 min 37 sec) 
Heartbeat CPU 0 instructions: 170000003 cycles: 132396919 heartbeat IPC: 0.992463 cumulative IPC: 0.947749 (Simulation time: 0 hr 5 min 58 sec) 
Heartbeat CPU 0 instructions: 180000000 cycles: 144807441 heartbeat IPC: 0.805768 cumulative IPC: 0.927324 (Simulation time: 0 hr 6 min 22 sec) 
Heartbeat CPU 0 instructions: 190000000 cycles: 159895630 heartbeat IPC: 0.66277 cumulative IPC: 0.887942 (Simulation time: 0 hr 6 min 46 sec) 
Heartbeat CPU 0 instructions: 200000000 cycles: 174950430 heartbeat IPC: 0.66424 cumulative IPC: 0.859012 (Simulation time: 0 hr 7 min 9 sec) 
Heartbeat CPU 0 instructions: 210000000 cycles: 189989585 heartbeat IPC: 0.664931 cumulative IPC: 0.836808 (Simulation time: 0 hr 7 min 33 sec) 
Heartbeat CPU 0 instructions: 220000000 cycles: 205920553 heartbeat IPC: 0.627708 cumulative IPC: 0.814206 (Simulation time: 0 hr 7 min 58 sec) 
Heartbeat CPU 0 instructions: 230000003 cycles: 224469519 heartbeat IPC: 0.539114 cumulative IPC: 0.783454 (Simulation time: 0 hr 8 min 26 sec) 
Heartbeat CPU 0 instructions: 240000000 cycles: 233638291 heartbeat IPC: 1.09066 cumulative IPC: 0.79954 (Simulation time: 0 hr 8 min 47 sec) 
Heartbeat CPU 0 instructions: 250000000 cycles: 242461239 heartbeat IPC: 1.13341 cumulative IPC: 0.815556 (Simulation time: 0 hr 9 min 8 sec) 
Heartbeat CPU 0 instructions: 260000000 cycles: 251625567 heartbeat IPC: 1.09119 cumulative IPC: 0.828638 (Simulation time: 0 hr 9 min 29 sec) 
Heartbeat CPU 0 instructions: 270000000 cycles: 261268343 heartbeat IPC: 1.03705 cumulative IPC: 0.838551 (Simulation time: 0 hr 9 min 51 sec) 
Heartbeat CPU 0 instructions: 280000000 cycles: 271098961 heartbeat IPC: 1.01723 cumulative IPC: 0.846815 (Simulation time: 0 hr 10 min 14 sec) 
Heartbeat CPU 0 instructions: 290000000 cycles: 281342249 heartbeat IPC: 0.976249 cumulative IPC: 0.852765 (Simulation time: 0 hr 10 min 38 sec) 
Heartbeat CPU 0 instructions: 300000000 cycles: 290388118 heartbeat IPC: 1.10548 cumulative IPC: 0.862625 (Simulation time: 0 hr 11 min 0 sec) 
Heartbeat CPU 0 instructions: 310000002 cycles: 305014432 heartbeat IPC: 0.683699 cumulative IPC: 0.852007 (Simulation time: 0 hr 11 min 26 sec) 
Heartbeat CPU 0 instructions: 320000000 cycles: 321129544 heartbeat IPC: 0.620535 cumulative IPC: 0.837802 (Simulation time: 0 hr 11 min 54 sec) 
Heartbeat CPU 0 instructions: 330000002 cycles: 331876663 heartbeat IPC: 0.930482 cumulative IPC: 0.841446 (Simulation time: 0 hr 12 min 17 sec) 
Heartbeat CPU 0 instructions: 340000000 cycles: 342472168 heartbeat IPC: 0.943796 cumulative IPC: 0.845265 (Simulation time: 0 hr 12 min 40 sec) 
Heartbeat CPU 0 instructions: 350000002 cycles: 355284385 heartbeat IPC: 0.780505 cumulative IPC: 0.842469 (Simulation time: 0 hr 13 min 5 sec) 
Heartbeat CPU 0 instructions: 360000000 cycles: 366522227 heartbeat IPC: 0.88985 cumulative IPC: 0.844198 (Simulation time: 0 hr 13 min 28 sec) 
Heartbeat CPU 0 instructions: 370000002 cycles: 377406198 heartbeat IPC: 0.918782 cumulative IPC: 0.846744 (Simulation time: 0 hr 13 min 52 sec) 
Heartbeat CPU 0 instructions: 380000000 cycles: 388069251 heartbeat IPC: 0.937818 cumulative IPC: 0.849691 (Simulation time: 0 hr 14 min 15 sec) 
Heartbeat CPU 0 instructions: 390000003 cycles: 405694436 heartbeat IPC: 0.56737 cumulative IPC: 0.835358 (Simulation time: 0 hr 14 min 43 sec) 
Heartbeat CPU 0 instructions: 400000000 cycles: 416192251 heartbeat IPC: 0.952579 cumulative IPC: 0.838798 (Simulation time: 0 hr 15 min 5 sec) 
Heartbeat CPU 0 instructions: 410000002 cycles: 425939786 heartbeat IPC: 1.0259 cumulative IPC: 0.843762 (Simulation time: 0 hr 15 min 26 sec) 
Heartbeat CPU 0 instructions: 420000000 cycles: 435505837 heartbeat IPC: 1.04536 cumulative IPC: 0.848878 (Simulation time: 0 hr 15 min 47 sec) 
Heartbeat CPU 0 instructions: 430000001 cycles: 445167615 heartbeat IPC: 1.03501 cumulative IPC: 0.853529 (Simulation time: 0 hr 16 min 8 sec) 
Heartbeat CPU 0 instructions: 440000000 cycles: 456643487 heartbeat IPC: 0.871393 cumulative IPC: 0.854044 (Simulation time: 0 hr 16 min 30 sec) 
Heartbeat CPU 0 instructions: 450000002 cycles: 471747742 heartbeat IPC: 0.662065 cumulative IPC: 0.847027 (Simulation time: 0 hr 16 min 54 sec) 
Heartbeat CPU 0 instructions: 460000000 cycles: 486827364 heartbeat IPC: 0.663146 cumulative IPC: 0.840553 (Simulation time: 0 hr 17 min 17 sec) 
Heartbeat CPU 0 instructions: 470000003 cycles: 501884243 heartbeat IPC: 0.664148 cumulative IPC: 0.834562 (Simulation time: 0 hr 17 min 41 sec) 
Heartbeat CPU 0 instructions: 480000000 cycles: 517811053 heartbeat IPC: 0.627872 cumulative IPC: 0.827394 (Simulation time: 0 hr 18 min 6 sec) 
Heartbeat CPU 0 instructions: 490000002 cycles: 536480497 heartbeat IPC: 0.535635 cumulative IPC: 0.815997 (Simulation time: 0 hr 18 min 33 sec) 
Heartbeat CPU 0 instructions: 500000000 cycles: 545594442 heartbeat IPC: 1.09722 cumulative IPC: 0.821259 (Simulation time: 0 hr 18 min 55 sec) 
Heartbeat CPU 0 instructions: 510000002 cycles: 554475962 heartbeat IPC: 1.12593 cumulative IPC: 0.826716 (Simulation time: 0 hr 19 min 15 sec) 
Heartbeat CPU 0 instructions: 520000000 cycles: 563633627 heartbeat IPC: 1.09198 cumulative IPC: 0.831525 (Simulation time: 0 hr 19 min 36 sec) 
Heartbeat CPU 0 instructions: 530000002 cycles: 573279710 heartbeat IPC: 1.03669 cumulative IPC: 0.83537 (Simulation time: 0 hr 19 min 58 sec) 
Heartbeat CPU 0 instructions: 540000000 cycles: 583044254 heartbeat IPC: 1.02411 cumulative IPC: 0.838884 (Simulation time: 0 hr 20 min 21 sec) 
Heartbeat CPU 0 instructions: 550000002 cycles: 593319553 heartbeat IPC: 0.973208 cumulative IPC: 0.841465 (Simulation time: 0 hr 20 min 45 sec) 
Heartbeat CPU 0 instructions: 560000000 cycles: 602358339 heartbeat IPC: 1.10634 cumulative IPC: 0.845867 (Simulation time: 0 hr 21 min 7 sec) 
Heartbeat CPU 0 instructions: 570000000 cycles: 616839810 heartbeat IPC: 0.690538 cumulative IPC: 0.841838 (Simulation time: 0 hr 21 min 33 sec) 
Heartbeat CPU 0 instructions: 580000000 cycles: 633059272 heartbeat IPC: 0.616543 cumulative IPC: 0.835478 (Simulation time: 0 hr 22 min 0 sec) 
Heartbeat CPU 0 instructions: 590000002 cycles: 643349759 heartbeat IPC: 0.971771 cumulative IPC: 0.837876 (Simulation time: 0 hr 22 min 23 sec) 
Heartbeat CPU 0 instructions: 600000000 cycles: 654396847 heartbeat IPC: 0.905216 cumulative IPC: 0.839124 (Simulation time: 0 hr 22 min 46 sec) 
Finished CPU 0 instructions: 500000000 cycles: 595859175 cumulative IPC: 0.839124 (Simulation time: 0 hr 22 min 46 sec) 

CPU 0 Branch Prediction Accuracy: 99.5219% MPKI: 0.251582
Number of Branches: 26312578 Number of Mispredictions: 125791
Number of LOAD Instructions: 235643083
Number of LOAD Instructions (ROI): 235643083
Number of STORE Instructions: 37593550
Number of STORE Instructions (ROI): 37593550
Total Destination Memory Operands: 40480968
Total Destination Memory Operands (ROI): 40480968
Total Source Memory Operands: 235643083
Total Source Memory Operands (ROI): 235643083
Number of DEPENDED LOADS: 6698584
Number of DEPENDED LOADS (ROI): 6698584
Number of SQ_ADDED: 40480950
Number of SQ_ADDED (ROI): 40480950
Number of LQ_ADDED: 390132421
Number of LQ_ADDED (ROI): 390132421
Number of Instructions read from trace: 600000259

ChampSim completed all CPUs

Region of Interest Statistics

CPU 0 cumulative IPC: 0.839124 instructions: 500000000 cycles: 595859175
ITLB TOTAL     ACCESS:  109314499  HIT:  109313986  MISS:        513
ITLB LOAD      ACCESS:  109314499  HIT:  109313986  MISS:        513
ITLB RFO       ACCESS:          0  HIT:          0  MISS:          0
ITLB PREFETCH  ACCESS:          0  HIT:          0  MISS:          0
ITLB WRITEBACK ACCESS:          0  HIT:          0  MISS:          0
ITLB PREFETCH  REQUESTED:          0  ISSUED:          0  USEFUL:          0  USELESS:          0
ITLB TOTAL MSHR MERGED:        968
ITLB LOAD MSHR MERGED:        968
ITLB RFO MSHR MERGED:          0
ITLB PREFETCH MSHR MERGED:          0
ITLB WRITEBACK MSHR MERGED:          0
ITLB TOTAL ACCESSES:  109315467 HITS:  109313986 MISSES:       1481
ITLB LOAD ACCESSES:  109315467 HITS:  109313986 MISSES:       1481
ITLB RFO ACCESSES:          0 HITS:          0 MISSES:          0
ITLB PREFETCH ACCESSES:          0 HITS:          0 MISSES:          0
ITLB WRITEBACK ACCESSES:          0 HITS:          0 MISSES:          0
ITLB RQ ACCESS:  500000003
ITLB RQ TO_CACHE:  109315467
ITLB RQ MERGED:  390684536
ITLB RQ FORWARD:          0
ITLB WQ ACCESS:          0
ITLB WQ TO_CACHE:          0
ITLB WQ MERGED:          0
ITLB WQ FORWARD:          0
DTLB TOTAL     ACCESS:  130439181  HIT:  130181508  MISS:     257673
DTLB LOAD      ACCESS:  109038091  HIT:  108817264  MISS:     220827
DTLB RFO       ACCESS:   21401090  HIT:   21364244  MISS:      36846
DTLB PREFETCH  ACCESS:          0  HIT:          0  MISS:          0
DTLB WRITEBACK ACCESS:          0  HIT:          0  MISS:          0
DTLB PREFETCH  REQUESTED:          0  ISSUED:          0  USEFUL:          0  USELESS:          0
DTLB TOTAL MSHR MERGED:     122188
DTLB LOAD MSHR MERGED:      84111
DTLB RFO MSHR MERGED:      38077
DTLB PREFETCH MSHR MERGED:          0
DTLB WRITEBACK MSHR MERGED:          0
DTLB TOTAL ACCESSES:  130561369 HITS:  130181508 MISSES:     379861
DTLB LOAD ACCESSES:  109122202 HITS:  108817264 MISSES:     304938
DTLB RFO ACCESSES:   21439167 HITS:   21364244 MISSES:      74923
DTLB PREFETCH ACCESSES:          0 HITS:          0 MISSES:          0
DTLB WRITEBACK ACCESSES:          0 HITS:          0 MISSES:          0
DTLB RQ ACCESS:  218635879
DTLB RQ TO_CACHE:  130561370
DTLB RQ MERGED:   88074509
DTLB RQ FORWARD:          0
DTLB WQ ACCESS:          0
DTLB WQ TO_CACHE:          0
DTLB WQ MERGED:          0
DTLB WQ FORWARD:          0
L1D TOTAL     ACCESS:  204663704  HIT:  193593353  MISS:   11070351
L1D LOAD      ACCESS:  106316354  HIT:  103145309  MISS:    3171045
L1D RFO       ACCESS:   26967085  HIT:   25217048  MISS:    1750037
L1D PREFETCH  ACCESS:   71380265  HIT:   65230996  MISS:    6149269
L1D WRITEBACK ACCESS:          0  HIT:          0  MISS:          0
L1D PREFETCH  REQUESTED:  108925504  ISSUED:  107262302  USEFUL:    5695931  USELESS:     453332
L1D TOTAL MSHR MERGED:   18289172
L1D LOAD MSHR MERGED:    4616399
L1D RFO MSHR MERGED:    6477604
L1D PREFETCH MSHR MERGED:    7195169
L1D WRITEBACK MSHR MERGED:          0
L1D TOTAL ACCESSES:  223011213 HITS:  193651690 MISSES:   29359523
L1D LOAD ACCESSES:  108948138 HITS:  103167943 MISSES:    5780195
L1D RFO ACCESSES:   33442640 HITS:   25217048 MISSES:    8225592
L1D PREFETCH ACCESSES:   80620435 HITS:   65266699 MISSES:   15353736
L1D WRITEBACK ACCESSES:          0 HITS:          0 MISSES:          0
L1D RQ ACCESS:  184992441
L1D RQ TO_CACHE:  108925504
L1D RQ MERGED:   76044303
L1D RQ FORWARD:          0
L1D WQ ACCESS:   33643426
L1D WQ TO_CACHE:   33442639
L1D WQ MERGED:     200787
L1D WQ FORWARD:      58337
L1I TOTAL     ACCESS:  134002463  HIT:  133977885  MISS:      24578
L1I LOAD      ACCESS:  134002463  HIT:  133977885  MISS:      24578
L1I RFO       ACCESS:          0  HIT:          0  MISS:          0
L1I PREFETCH  ACCESS:          0  HIT:          0  MISS:          0
L1I WRITEBACK ACCESS:          0  HIT:          0  MISS:          0
L1I PREFETCH  REQUESTED:          0  ISSUED:          0  USEFUL:          0  USELESS:          0
L1I TOTAL MSHR MERGED:      30598
L1I LOAD MSHR MERGED:      30598
L1I RFO MSHR MERGED:          0
L1I PREFETCH MSHR MERGED:          0
L1I WRITEBACK MSHR MERGED:          0
L1I TOTAL ACCESSES:  134033061 HITS:  133977885 MISSES:      55176
L1I LOAD ACCESSES:  134033061 HITS:  133977885 MISSES:      55176
L1I RFO ACCESSES:          0 HITS:          0 MISSES:          0
L1I PREFETCH ACCESSES:          0 HITS:          0 MISSES:          0
L1I WRITEBACK ACCESSES:          0 HITS:          0 MISSES:          0
L1I RQ ACCESS:  500000005
L1I RQ TO_CACHE:  134033061
L1I RQ MERGED:  365966944
L1I RQ FORWARD:          0
L1I WQ ACCESS:          0
L1I WQ TO_CACHE:          0
L1I WQ MERGED:          0
L1I WQ FORWARD:          0
L2C TOTAL     ACCESS:   14940364  HIT:    6945368  MISS:    7994996
L2C LOAD      ACCESS:    1188179  HIT:     299579  MISS:     888600
L2C RFO       ACCESS:    1747774  HIT:     369286  MISS:    1378488
L2C PREFETCH  ACCESS:    8322567  HIT:    2603348  MISS:    5719219
L2C WRITEBACK ACCESS:    3681844  HIT:    3673155  MISS:       8689
L2C PREFETCH  REQUESTED:     389758  ISSUED:     389757  USEFUL:     114393  USELESS:    5605661
L2C TOTAL MSHR MERGED:      42069
L2C LOAD MSHR MERGED:       2393
L2C RFO MSHR MERGED:       1404
L2C PREFETCH MSHR MERGED:      38272
L2C WRITEBACK MSHR MERGED:          0
L2C TOTAL ACCESSES:   15102264 HITS:    6946063 MISSES:    8156201
L2C LOAD ACCESSES:    1188374 HITS:     299774 MISSES:     888600
L2C RFO ACCESSES:    1747988 HITS:     369500 MISSES:    1378488
L2C PREFETCH ACCESSES:    8484058 HITS:    2603634 MISSES:    5880424
L2C WRITEBACK ACCESSES:    3681844 HITS:    3673155 MISSES:       8689
L2C RQ ACCESS:    2936362
L2C RQ TO_CACHE:    2935953
L2C RQ MERGED:          0
L2C RQ FORWARD:          0
L2C WQ ACCESS:    3681844
L2C WQ TO_CACHE:    3681844
L2C WQ MERGED:          0
L2C WQ FORWARD:        695
LLC TOTAL     ACCESS:   11180895  HIT:    3004750  MISS:    8176145
LLC LOAD      ACCESS:     886203  HIT:     309066  MISS:     577137
LLC RFO       ACCESS:    1377080  HIT:     253109  MISS:    1123971
LLC PREFETCH  ACCESS:    5813379  HIT:    1152941  MISS:    4660438
LLC WRITEBACK ACCESS:    3104233  HIT:    1289634  MISS:    1814599
LLC PREFETCH  REQUESTED:          0  ISSUED:          0  USEFUL:      30114  USELESS:    4629547
LLC TOTAL MSHR MERGED:      21963
LLC LOAD MSHR MERGED:       6703
LLC RFO MSHR MERGED:        609
LLC PREFETCH MSHR MERGED:      14651
LLC WRITEBACK MSHR MERGED:          0
LLC TOTAL ACCESSES:   11202875 HITS:    3004767 MISSES:    8198108
LLC LOAD ACCESSES:     886207 HITS:     309070 MISSES:     577137
LLC RFO ACCESSES:    1377084 HITS:     253113 MISSES:    1123971
LLC PREFETCH ACCESSES:    5835351 HITS:    1152950 MISSES:    4682401
LLC WRITEBACK ACCESSES:    3104233 HITS:    1289634 MISSES:    1814599
LLC 0 RQ ACCESS:    2263291
LLC 0 RQ TO_CACHE:    2263283
LLC 0 RQ MERGED:          0
LLC 0 RQ FORWARD:          0
LLC WQ ACCESS:    3104233
LLC WQ TO_CACHE:    3104233
LLC WQ MERGED:          0
LLC WQ FORWARD:         17
Major fault: 0 Minor fault: 11519
CPU 0 L1D next line prefetcher final stats
CPU 0 L2C PC-based stride prefetcher final stats
All Misses: 10291652
All Hits: 3500336
SD Algo Stats - Switches: 0 SRR-Repls: 648577 BRR-Repls: 0

DRAM Statistics
 CHANNEL 0
 RQ ROW_BUFFER_HIT:    3856391  ROW_BUFFER_MISS:    2504447
 DBUS_CONGESTED:    4393753
 WQ ROW_BUFFER_HIT:     367939  ROW_BUFFER_MISS:    1809922  FULL:         65

 AVG_CONGESTED_CYCLE: 13
LOADS RETIRED: 190375692
INSTR RETIRED: 500000000
