
*** ChampSim Multicore Out-of-Order Simulator ***

Warmup Instructions: 100000000
Simulation Instructions: 500000000
Number of CPUs: 1
LLC sets: 2048
LLC ways: 16
Clean RRIP Policies: 1011201010112010 Dirty RRIP Policies: 11200000112000 PSEL Width: 10 Track Set: 4294967295 PSEL Mask: 1 Demote Mask: 1300224313002243DS Algo: 0Window size: 0
Off-chip DRAM Size: 4096 MB Channels: 1 Width: 64-bit Data Rate: 1600 MT/s

CPU 0 runs /mnt/beegfs/iconst01/spec2017/Gcc.trace.gz
NOT SORTED
TRACE STRING: /mnt/beegfs/iconst01/spec2017/Gcc.trace.gz
SORTED
TRACE STRING: /mnt/beegfs/iconst01/spec2017/Gcc.trace.gz
INITIAL
TRACE STRING: /mnt/beegfs/iconst01/spec2017/Gcc.trace.gz

champsim_seed used: 269

CPU 0 L1D next line prefetcher
CPU 0 L2C IP-based stride prefetcher
Initialize DRRIP state
Assign rand_sets[0]: 454  LLC: 2048
rand_sets[0]: 454
Assign rand_sets[1]: 1662  LLC: 2048
rand_sets[1]: 1662
Assign rand_sets[2]: 1921  LLC: 2048
rand_sets[2]: 1921
Assign rand_sets[3]: 1131  LLC: 2048
rand_sets[3]: 1131
Assign rand_sets[4]: 331  LLC: 2048
rand_sets[4]: 331
Assign rand_sets[5]: 1531  LLC: 2048
rand_sets[5]: 1531
Assign rand_sets[6]: 482  LLC: 2048
rand_sets[6]: 482
Assign rand_sets[7]: 1275  LLC: 2048
rand_sets[7]: 1275
Assign rand_sets[8]: 1876  LLC: 2048
rand_sets[8]: 1876
Assign rand_sets[9]: 2038  LLC: 2048
rand_sets[9]: 2038
Assign rand_sets[10]: 701  LLC: 2048
rand_sets[10]: 701
Assign rand_sets[11]: 479  LLC: 2048
rand_sets[11]: 479
Assign rand_sets[12]: 892  LLC: 2048
rand_sets[12]: 892
Assign rand_sets[13]: 1820  LLC: 2048
rand_sets[13]: 1820
Assign rand_sets[14]: 1505  LLC: 2048
rand_sets[14]: 1505
Assign rand_sets[15]: 1159  LLC: 2048
rand_sets[15]: 1159
Assign rand_sets[16]: 513  LLC: 2048
rand_sets[16]: 513
Assign rand_sets[17]: 703  LLC: 2048
rand_sets[17]: 703
Assign rand_sets[18]: 561  LLC: 2048
rand_sets[18]: 561
Assign rand_sets[19]: 990  LLC: 2048
rand_sets[19]: 990
Assign rand_sets[20]: 342  LLC: 2048
rand_sets[20]: 342
Assign rand_sets[21]: 882  LLC: 2048
rand_sets[21]: 882
Assign rand_sets[22]: 15  LLC: 2048
rand_sets[22]: 15
Assign rand_sets[23]: 71  LLC: 2048
rand_sets[23]: 71
Assign rand_sets[24]: 1127  LLC: 2048
rand_sets[24]: 1127
Assign rand_sets[25]: 1382  LLC: 2048
rand_sets[25]: 1382
Assign rand_sets[26]: 647  LLC: 2048
rand_sets[26]: 647
Assign rand_sets[27]: 857  LLC: 2048
rand_sets[27]: 857
Assign rand_sets[28]: 1450  LLC: 2048
rand_sets[28]: 1450
Assign rand_sets[29]: 1160  LLC: 2048
rand_sets[29]: 1160
Assign rand_sets[30]: 1852  LLC: 2048
rand_sets[30]: 1852
Assign rand_sets[31]: 1881  LLC: 2048
rand_sets[31]: 1881
Assign rand_sets[32]: 1770  LLC: 2048
rand_sets[32]: 1770
Assign rand_sets[33]: 1622  LLC: 2048
rand_sets[33]: 1622
Assign rand_sets[34]: 275  LLC: 2048
rand_sets[34]: 275
Assign rand_sets[35]: 635  LLC: 2048
rand_sets[35]: 635
Assign rand_sets[36]: 466  LLC: 2048
rand_sets[36]: 466
Assign rand_sets[37]: 1413  LLC: 2048
rand_sets[37]: 1413
Assign rand_sets[38]: 417  LLC: 2048
rand_sets[38]: 417
Assign rand_sets[39]: 472  LLC: 2048
rand_sets[39]: 472
Assign rand_sets[40]: 1340  LLC: 2048
rand_sets[40]: 1340
Assign rand_sets[41]: 852  LLC: 2048
rand_sets[41]: 852
Assign rand_sets[42]: 1365  LLC: 2048
rand_sets[42]: 1365
Assign rand_sets[43]: 47  LLC: 2048
rand_sets[43]: 47
Assign rand_sets[44]: 823  LLC: 2048
rand_sets[44]: 823
Assign rand_sets[45]: 686  LLC: 2048
rand_sets[45]: 686
Assign rand_sets[46]: 1637  LLC: 2048
rand_sets[46]: 1637
Assign rand_sets[47]: 1115  LLC: 2048
rand_sets[47]: 1115
Assign rand_sets[48]: 986  LLC: 2048
rand_sets[48]: 986
Assign rand_sets[49]: 258  LLC: 2048
rand_sets[49]: 258
Assign rand_sets[50]: 633  LLC: 2048
rand_sets[50]: 633
Assign rand_sets[51]: 920  LLC: 2048
rand_sets[51]: 920
Assign rand_sets[52]: 204  LLC: 2048
rand_sets[52]: 204
Assign rand_sets[53]: 227  LLC: 2048
rand_sets[53]: 227
Assign rand_sets[54]: 1818  LLC: 2048
rand_sets[54]: 1818
Assign rand_sets[55]: 886  LLC: 2048
rand_sets[55]: 886
Assign rand_sets[56]: 1422  LLC: 2048
rand_sets[56]: 1422
Assign rand_sets[57]: 607  LLC: 2048
rand_sets[57]: 607
Assign rand_sets[58]: 217  LLC: 2048
rand_sets[58]: 217
Assign rand_sets[59]: 1945  LLC: 2048
rand_sets[59]: 1945
Assign rand_sets[60]: 143  LLC: 2048
rand_sets[60]: 143
Assign rand_sets[61]: 1311  LLC: 2048
rand_sets[61]: 1311
Assign rand_sets[62]: 319  LLC: 2048
rand_sets[62]: 319
Assign rand_sets[63]: 1846  LLC: 2048
rand_sets[63]: 1846
 CLEAN-RRIP-POLICY-1: 1-0-1-1-2-0-1-0- CLEAN-RRIP-POLICY-2: 1-0-1-1-2-0-1-0-
 DIRTY-RRIP-POLICY-1: 0-0-1-1-2-0-0-0- DIRTY-RRIP-POLICY-2: 0-0-1-1-2-0-0-0-
 PSEL width: 10
Heartbeat CPU 0 instructions: 10000001 cycles: 7315912 heartbeat IPC: 1.36688 cumulative IPC: 1.36688 (Simulation time: 0 hr 0 min 16 sec) 
Heartbeat CPU 0 instructions: 20000000 cycles: 14308168 heartbeat IPC: 1.43015 cumulative IPC: 1.3978 (Simulation time: 0 hr 0 min 31 sec) 
Heartbeat CPU 0 instructions: 30000001 cycles: 21021883 heartbeat IPC: 1.48949 cumulative IPC: 1.42708 (Simulation time: 0 hr 0 min 47 sec) 
Heartbeat CPU 0 instructions: 40000000 cycles: 27482735 heartbeat IPC: 1.54778 cumulative IPC: 1.45546 (Simulation time: 0 hr 1 min 4 sec) 
Heartbeat CPU 0 instructions: 50000001 cycles: 33584260 heartbeat IPC: 1.63893 cumulative IPC: 1.48879 (Simulation time: 0 hr 1 min 19 sec) 
Heartbeat CPU 0 instructions: 60000000 cycles: 40065294 heartbeat IPC: 1.54296 cumulative IPC: 1.49756 (Simulation time: 0 hr 1 min 36 sec) 
Heartbeat CPU 0 instructions: 70000000 cycles: 47103911 heartbeat IPC: 1.42073 cumulative IPC: 1.48608 (Simulation time: 0 hr 1 min 51 sec) 
Heartbeat CPU 0 instructions: 80000000 cycles: 54194322 heartbeat IPC: 1.41036 cumulative IPC: 1.47617 (Simulation time: 0 hr 2 min 6 sec) 
Heartbeat CPU 0 instructions: 90000003 cycles: 61199591 heartbeat IPC: 1.4275 cumulative IPC: 1.4706 (Simulation time: 0 hr 2 min 21 sec) 
Heartbeat CPU 0 instructions: 100000000 cycles: 68367991 heartbeat IPC: 1.39501 cumulative IPC: 1.46267 (Simulation time: 0 hr 2 min 36 sec) 

Warmup complete CPU 0 instructions: 100000004 cycles: 68367992 (Simulation time: 0 hr 2 min 36 sec) 

Heartbeat CPU 0 instructions: 110000003 cycles: 96298195 heartbeat IPC: 0.358035 cumulative IPC: 0.358035 (Simulation time: 0 hr 3 min 6 sec) 
Heartbeat CPU 0 instructions: 120000000 cycles: 123792765 heartbeat IPC: 0.363708 cumulative IPC: 0.360849 (Simulation time: 0 hr 3 min 36 sec) 
Heartbeat CPU 0 instructions: 130000000 cycles: 148751119 heartbeat IPC: 0.400667 cumulative IPC: 0.373213 (Simulation time: 0 hr 4 min 6 sec) 
Heartbeat CPU 0 instructions: 140000000 cycles: 178569585 heartbeat IPC: 0.335363 cumulative IPC: 0.362971 (Simulation time: 0 hr 4 min 36 sec) 
Heartbeat CPU 0 instructions: 150000000 cycles: 208753901 heartbeat IPC: 0.331298 cumulative IPC: 0.356161 (Simulation time: 0 hr 5 min 6 sec) 
Heartbeat CPU 0 instructions: 160000000 cycles: 236196701 heartbeat IPC: 0.364394 cumulative IPC: 0.357507 (Simulation time: 0 hr 5 min 35 sec) 
Heartbeat CPU 0 instructions: 170000001 cycles: 264329684 heartbeat IPC: 0.355455 cumulative IPC: 0.357213 (Simulation time: 0 hr 6 min 6 sec) 
Heartbeat CPU 0 instructions: 180000000 cycles: 292956303 heartbeat IPC: 0.349325 cumulative IPC: 0.356207 (Simulation time: 0 hr 6 min 36 sec) 
Heartbeat CPU 0 instructions: 190000002 cycles: 321130796 heartbeat IPC: 0.354931 cumulative IPC: 0.356065 (Simulation time: 0 hr 7 min 6 sec) 
Heartbeat CPU 0 instructions: 200000000 cycles: 349719023 heartbeat IPC: 0.349794 cumulative IPC: 0.355428 (Simulation time: 0 hr 7 min 37 sec) 
Heartbeat CPU 0 instructions: 210000002 cycles: 377671467 heartbeat IPC: 0.357751 cumulative IPC: 0.355638 (Simulation time: 0 hr 8 min 7 sec) 
Heartbeat CPU 0 instructions: 220000000 cycles: 407162142 heartbeat IPC: 0.33909 cumulative IPC: 0.354197 (Simulation time: 0 hr 8 min 36 sec) 
Heartbeat CPU 0 instructions: 230000000 cycles: 434919865 heartbeat IPC: 0.36026 cumulative IPC: 0.354656 (Simulation time: 0 hr 9 min 5 sec) 
Heartbeat CPU 0 instructions: 240000000 cycles: 461204086 heartbeat IPC: 0.380456 cumulative IPC: 0.356383 (Simulation time: 0 hr 9 min 34 sec) 
Heartbeat CPU 0 instructions: 250000000 cycles: 491424936 heartbeat IPC: 0.330897 cumulative IPC: 0.354562 (Simulation time: 0 hr 10 min 5 sec) 
Heartbeat CPU 0 instructions: 260000000 cycles: 518516611 heartbeat IPC: 0.369117 cumulative IPC: 0.355438 (Simulation time: 0 hr 10 min 34 sec) 
Heartbeat CPU 0 instructions: 270000003 cycles: 546952549 heartbeat IPC: 0.351668 cumulative IPC: 0.355214 (Simulation time: 0 hr 11 min 5 sec) 
Heartbeat CPU 0 instructions: 280000000 cycles: 575334030 heartbeat IPC: 0.352342 cumulative IPC: 0.355053 (Simulation time: 0 hr 11 min 36 sec) 
Heartbeat CPU 0 instructions: 290000000 cycles: 604185637 heartbeat IPC: 0.346601 cumulative IPC: 0.354598 (Simulation time: 0 hr 12 min 7 sec) 
Heartbeat CPU 0 instructions: 300000000 cycles: 634433209 heartbeat IPC: 0.330605 cumulative IPC: 0.353316 (Simulation time: 0 hr 12 min 37 sec) 
Heartbeat CPU 0 instructions: 310000001 cycles: 664138289 heartbeat IPC: 0.336643 cumulative IPC: 0.352485 (Simulation time: 0 hr 13 min 7 sec) 
Heartbeat CPU 0 instructions: 320000000 cycles: 692645971 heartbeat IPC: 0.350783 cumulative IPC: 0.352407 (Simulation time: 0 hr 13 min 36 sec) 
Heartbeat CPU 0 instructions: 330000000 cycles: 721405554 heartbeat IPC: 0.34771 cumulative IPC: 0.3522 (Simulation time: 0 hr 14 min 6 sec) 
Heartbeat CPU 0 instructions: 340000000 cycles: 751040364 heartbeat IPC: 0.337441 cumulative IPC: 0.35156 (Simulation time: 0 hr 14 min 36 sec) 
Heartbeat CPU 0 instructions: 350000003 cycles: 778116946 heartbeat IPC: 0.369323 cumulative IPC: 0.352237 (Simulation time: 0 hr 15 min 5 sec) 
Heartbeat CPU 0 instructions: 360000000 cycles: 806724079 heartbeat IPC: 0.349563 cumulative IPC: 0.352134 (Simulation time: 0 hr 15 min 34 sec) 
Heartbeat CPU 0 instructions: 370000000 cycles: 835309630 heartbeat IPC: 0.349827 cumulative IPC: 0.352048 (Simulation time: 0 hr 16 min 3 sec) 
Heartbeat CPU 0 instructions: 380000000 cycles: 864238473 heartbeat IPC: 0.345676 cumulative IPC: 0.351816 (Simulation time: 0 hr 16 min 31 sec) 
Heartbeat CPU 0 instructions: 390000001 cycles: 892134033 heartbeat IPC: 0.35848 cumulative IPC: 0.352042 (Simulation time: 0 hr 17 min 0 sec) 
Heartbeat CPU 0 instructions: 400000000 cycles: 921096389 heartbeat IPC: 0.345276 cumulative IPC: 0.351812 (Simulation time: 0 hr 17 min 28 sec) 
Heartbeat CPU 0 instructions: 410000001 cycles: 948607737 heartbeat IPC: 0.363486 cumulative IPC: 0.352177 (Simulation time: 0 hr 17 min 57 sec) 
Heartbeat CPU 0 instructions: 420000000 cycles: 976053519 heartbeat IPC: 0.364355 cumulative IPC: 0.352545 (Simulation time: 0 hr 18 min 25 sec) 
Heartbeat CPU 0 instructions: 430000002 cycles: 1003941178 heartbeat IPC: 0.358582 cumulative IPC: 0.352725 (Simulation time: 0 hr 18 min 54 sec) 
Heartbeat CPU 0 instructions: 440000000 cycles: 1033782026 heartbeat IPC: 0.335111 cumulative IPC: 0.352181 (Simulation time: 0 hr 19 min 23 sec) 
Heartbeat CPU 0 instructions: 450000002 cycles: 1063380486 heartbeat IPC: 0.337855 cumulative IPC: 0.351754 (Simulation time: 0 hr 19 min 51 sec) 
Heartbeat CPU 0 instructions: 460000000 cycles: 1091275355 heartbeat IPC: 0.358489 cumulative IPC: 0.351938 (Simulation time: 0 hr 20 min 20 sec) 
Heartbeat CPU 0 instructions: 470000000 cycles: 1119055931 heartbeat IPC: 0.359964 cumulative IPC: 0.35215 (Simulation time: 0 hr 20 min 48 sec) 
Heartbeat CPU 0 instructions: 480000000 cycles: 1147072513 heartbeat IPC: 0.356931 cumulative IPC: 0.352274 (Simulation time: 0 hr 21 min 17 sec) 
Heartbeat CPU 0 instructions: 490000000 cycles: 1174787306 heartbeat IPC: 0.360818 cumulative IPC: 0.352488 (Simulation time: 0 hr 21 min 45 sec) 
Heartbeat CPU 0 instructions: 500000000 cycles: 1203178058 heartbeat IPC: 0.352227 cumulative IPC: 0.352482 (Simulation time: 0 hr 22 min 14 sec) 
Heartbeat CPU 0 instructions: 510000000 cycles: 1238418869 heartbeat IPC: 0.283762 cumulative IPC: 0.350412 (Simulation time: 0 hr 22 min 47 sec) 
Heartbeat CPU 0 instructions: 520000000 cycles: 1266073332 heartbeat IPC: 0.361605 cumulative IPC: 0.350671 (Simulation time: 0 hr 23 min 16 sec) 
Heartbeat CPU 0 instructions: 530000001 cycles: 1295677121 heartbeat IPC: 0.337795 cumulative IPC: 0.35036 (Simulation time: 0 hr 23 min 46 sec) 
Heartbeat CPU 0 instructions: 540000000 cycles: 1324072362 heartbeat IPC: 0.352172 cumulative IPC: 0.350401 (Simulation time: 0 hr 24 min 16 sec) 
Heartbeat CPU 0 instructions: 550000001 cycles: 1353403768 heartbeat IPC: 0.340932 cumulative IPC: 0.350185 (Simulation time: 0 hr 24 min 47 sec) 
Heartbeat CPU 0 instructions: 560000000 cycles: 1378843137 heartbeat IPC: 0.393091 cumulative IPC: 0.351018 (Simulation time: 0 hr 25 min 16 sec) 
Heartbeat CPU 0 instructions: 570000000 cycles: 1408651463 heartbeat IPC: 0.335477 cumulative IPC: 0.350672 (Simulation time: 0 hr 25 min 46 sec) 
Heartbeat CPU 0 instructions: 580000000 cycles: 1436846124 heartbeat IPC: 0.354677 cumulative IPC: 0.350755 (Simulation time: 0 hr 26 min 16 sec) 
Heartbeat CPU 0 instructions: 590000001 cycles: 1461826558 heartbeat IPC: 0.400313 cumulative IPC: 0.351643 (Simulation time: 0 hr 26 min 44 sec) 
Heartbeat CPU 0 instructions: 600000000 cycles: 1488395396 heartbeat IPC: 0.376381 cumulative IPC: 0.352106 (Simulation time: 0 hr 27 min 13 sec) 
Finished CPU 0 instructions: 500000000 cycles: 1420027426 cumulative IPC: 0.352106 (Simulation time: 0 hr 27 min 13 sec) 

CPU 0 Branch Prediction Accuracy: 86.4311% MPKI: 26.2662
Number of Branches: 96788573 Number of Mispredictions: 13133102
Number of LOAD Instructions: 164682285
Number of LOAD Instructions (ROI): 164682285
Number of STORE Instructions: 78194750
Number of STORE Instructions (ROI): 78194750
Total Destination Memory Operands: 83268534
Total Destination Memory Operands (ROI): 83268534
Total Source Memory Operands: 164712438
Total Source Memory Operands (ROI): 164712438
Number of DEPENDED LOADS: 7062622
Number of DEPENDED LOADS (ROI): 7062622
Number of SQ_ADDED: 83268522
Number of SQ_ADDED (ROI): 83268522
Number of LQ_ADDED: 236524324
Number of LQ_ADDED (ROI): 236524324
Number of Instructions read from trace: 600000066

ChampSim completed all CPUs

Region of Interest Statistics

CPU 0 cumulative IPC: 0.352106 instructions: 500000000 cycles: 1420027426
ITLB TOTAL     ACCESS:  100507188  HIT:  100302742  MISS:     204446
ITLB LOAD      ACCESS:  100507188  HIT:  100302742  MISS:     204446
ITLB RFO       ACCESS:          0  HIT:          0  MISS:          0
ITLB PREFETCH  ACCESS:          0  HIT:          0  MISS:          0
ITLB WRITEBACK ACCESS:          0  HIT:          0  MISS:          0
ITLB PREFETCH  REQUESTED:          0  ISSUED:          0  USEFUL:          0  USELESS:          0
ITLB TOTAL MSHR MERGED:     172424
ITLB LOAD MSHR MERGED:     172424
ITLB RFO MSHR MERGED:          0
ITLB PREFETCH MSHR MERGED:          0
ITLB WRITEBACK MSHR MERGED:          0
ITLB TOTAL ACCESSES:  100679612 HITS:  100302742 MISSES:     376870
ITLB LOAD ACCESSES:  100679612 HITS:  100302742 MISSES:     376870
ITLB RFO ACCESSES:          0 HITS:          0 MISSES:          0
ITLB PREFETCH ACCESSES:          0 HITS:          0 MISSES:          0
ITLB WRITEBACK ACCESSES:          0 HITS:          0 MISSES:          0
ITLB RQ ACCESS:  500000057
ITLB RQ TO_CACHE:  100679612
ITLB RQ MERGED:  399320445
ITLB RQ FORWARD:          0
ITLB WQ ACCESS:          0
ITLB WQ TO_CACHE:          0
ITLB WQ MERGED:          0
ITLB WQ FORWARD:          0
DTLB TOTAL     ACCESS:  165335043  HIT:  164700695  MISS:     634348
DTLB LOAD      ACCESS:  106291110  HIT:  105721105  MISS:     570005
DTLB RFO       ACCESS:   59043933  HIT:   58979590  MISS:      64343
DTLB PREFETCH  ACCESS:          0  HIT:          0  MISS:          0
DTLB WRITEBACK ACCESS:          0  HIT:          0  MISS:          0
DTLB PREFETCH  REQUESTED:          0  ISSUED:          0  USEFUL:          0  USELESS:          0
DTLB TOTAL MSHR MERGED:      99785
DTLB LOAD MSHR MERGED:      59369
DTLB RFO MSHR MERGED:      40416
DTLB PREFETCH MSHR MERGED:          0
DTLB WRITEBACK MSHR MERGED:          0
DTLB TOTAL ACCESSES:  165434828 HITS:  164700695 MISSES:     734133
DTLB LOAD ACCESSES:  106350479 HITS:  105721105 MISSES:     629374
DTLB RFO ACCESSES:   59084349 HITS:   58979590 MISSES:     104759
DTLB PREFETCH ACCESSES:          0 HITS:          0 MISSES:          0
DTLB WRITEBACK ACCESSES:          0 HITS:          0 MISSES:          0
DTLB RQ ACCESS:  200308268
DTLB RQ TO_CACHE:  165434828
DTLB RQ MERGED:   34873440
DTLB RQ FORWARD:          0
DTLB WQ ACCESS:          0
DTLB WQ TO_CACHE:          0
DTLB WQ MERGED:          0
DTLB WQ FORWARD:          0
L1D TOTAL     ACCESS:  281834104  HIT:  273924716  MISS:    7909388
L1D LOAD      ACCESS:  110426442  HIT:  107151814  MISS:    3274628
L1D RFO       ACCESS:   67095904  HIT:   66204435  MISS:     891469
L1D PREFETCH  ACCESS:  104311758  HIT:  100568467  MISS:    3743291
L1D WRITEBACK ACCESS:          0  HIT:          0  MISS:          0
L1D PREFETCH  REQUESTED:  110815334  ISSUED:  109116055  USEFUL:    1664089  USELESS:    2079166
L1D TOTAL MSHR MERGED:    2867695
L1D LOAD MSHR MERGED:     483108
L1D RFO MSHR MERGED:    1890803
L1D PREFETCH MSHR MERGED:     493784
L1D WRITEBACK MSHR MERGED:          0
L1D TOTAL ACCESSES:  284729468 HITS:  273952385 MISSES:   10777083
L1D LOAD ACCESSES:  110816976 HITS:  107153456 MISSES:    3663520
L1D RFO ACCESSES:   68974035 HITS:   66204435 MISSES:    2769600
L1D PREFETCH ACCESSES:  104938457 HITS:  100594494 MISSES:    4343963
L1D WRITEBACK ACCESSES:          0 HITS:          0 MISSES:          0
L1D RQ ACCESS:  130755665
L1D RQ TO_CACHE:  110815337
L1D RQ MERGED:   19938686
L1D RQ FORWARD:          0
L1D WQ ACCESS:   69552603
L1D WQ TO_CACHE:   68974036
L1D WQ MERGED:     578567
L1D WQ FORWARD:      27669
L1I TOTAL     ACCESS:  126554709  HIT:  122316156  MISS:    4238553
L1I LOAD      ACCESS:  126554709  HIT:  122316156  MISS:    4238553
L1I RFO       ACCESS:          0  HIT:          0  MISS:          0
L1I PREFETCH  ACCESS:          0  HIT:          0  MISS:          0
L1I WRITEBACK ACCESS:          0  HIT:          0  MISS:          0
L1I PREFETCH  REQUESTED:          0  ISSUED:          0  USEFUL:          0  USELESS:          0
L1I TOTAL MSHR MERGED:    1834731
L1I LOAD MSHR MERGED:    1834731
L1I RFO MSHR MERGED:          0
L1I PREFETCH MSHR MERGED:          0
L1I WRITEBACK MSHR MERGED:          0
L1I TOTAL ACCESSES:  128389443 HITS:  122316156 MISSES:    6073287
L1I LOAD ACCESSES:  128389443 HITS:  122316156 MISSES:    6073287
L1I RFO ACCESSES:          0 HITS:          0 MISSES:          0
L1I PREFETCH ACCESSES:          0 HITS:          0 MISSES:          0
L1I WRITEBACK ACCESSES:          0 HITS:          0 MISSES:          0
L1I RQ ACCESS:  500000057
L1I RQ TO_CACHE:  128389443
L1I RQ MERGED:  371610614
L1I RQ FORWARD:          0
L1I WQ ACCESS:          0
L1I WQ TO_CACHE:          0
L1I WQ MERGED:          0
L1I WQ FORWARD:          0
L2C TOTAL     ACCESS:   14904798  HIT:   11158261  MISS:    3746537
L2C LOAD      ACCESS:    7418760  HIT:    5098622  MISS:    2320138
L2C RFO       ACCESS:     878700  HIT:     409911  MISS:     468789
L2C PREFETCH  ACCESS:    4568094  HIT:    3627737  MISS:     940357
L2C WRITEBACK ACCESS:    2039244  HIT:    2021991  MISS:      17253
L2C PREFETCH  REQUESTED:     842686  ISSUED:     842686  USEFUL:     203224  USELESS:     736839
L2C TOTAL MSHR MERGED:       7450
L2C LOAD MSHR MERGED:        937
L2C RFO MSHR MERGED:          0
L2C PREFETCH MSHR MERGED:       6513
L2C WRITEBACK MSHR MERGED:          0
L2C TOTAL ACCESSES:   14913167 HITS:   11158707 MISSES:    3754460
L2C LOAD ACCESSES:    7418965 HITS:    5098827 MISSES:    2320138
L2C RFO ACCESSES:     878797 HITS:     410008 MISSES:     468789
L2C PREFETCH ACCESSES:    4576161 HITS:    3627881 MISSES:     948280
L2C WRITEBACK ACCESSES:    2039244 HITS:    2021991 MISSES:      17253
L2C RQ ACCESS:    8297765
L2C RQ TO_CACHE:    8297463
L2C RQ MERGED:          0
L2C RQ FORWARD:          0
L2C WQ ACCESS:    2039244
L2C WQ TO_CACHE:    2039244
L2C WQ MERGED:          0
L2C WQ FORWARD:        446
LLC TOTAL     ACCESS:    4609905  HIT:    3872878  MISS:     737027
LLC LOAD      ACCESS:    2319189  HIT:    2004813  MISS:     314376
LLC RFO       ACCESS:     468779  HIT:     366691  MISS:     102088
LLC PREFETCH  ACCESS:     941639  HIT:     690229  MISS:     251410
LLC WRITEBACK ACCESS:     880298  HIT:     811145  MISS:      69153
LLC PREFETCH  REQUESTED:          0  ISSUED:          0  USEFUL:      30389  USELESS:     220839
LLC TOTAL MSHR MERGED:        109
LLC LOAD MSHR MERGED:         34
LLC RFO MSHR MERGED:          0
LLC PREFETCH MSHR MERGED:         75
LLC WRITEBACK MSHR MERGED:          0
LLC TOTAL ACCESSES:    4610046 HITS:    3872910 MISSES:     737136
LLC LOAD ACCESSES:    2319201 HITS:    2004825 MISSES:     314376
LLC RFO ACCESSES:     468789 HITS:     366701 MISSES:     102088
LLC PREFETCH ACCESSES:     941758 HITS:     690239 MISSES:     251519
LLC WRITEBACK ACCESSES:     880298 HITS:     811145 MISSES:      69153
LLC 0 RQ ACCESS:    2787990
LLC 0 RQ TO_CACHE:    2787968
LLC 0 RQ MERGED:          0
LLC 0 RQ FORWARD:          0
LLC WQ ACCESS:     880298
LLC WQ TO_CACHE:     880298
LLC WQ MERGED:          0
LLC WQ FORWARD:         32
Major fault: 0 Minor fault: 12862
CPU 0 L1D next line prefetcher final stats
CPU 0 L2C PC-based stride prefetcher final stats
All Misses: 856274
All Hits: 4570637
SD Algo Stats - Switches: 14 SRR-Repls: 317401 BRR-Repls: 44973

DRAM Statistics
 CHANNEL 0
 RQ ROW_BUFFER_HIT:     130874  ROW_BUFFER_MISS:     535192
 DBUS_CONGESTED:     475802
 WQ ROW_BUFFER_HIT:      32035  ROW_BUFFER_MISS:     271301  FULL:          0

 AVG_CONGESTED_CYCLE: 13
LOADS RETIRED: 136549171
INSTR RETIRED: 500000000
