
*** ChampSim Multicore Out-of-Order Simulator ***

Warmup Instructions: 100000000
Simulation Instructions: 500000000
Number of CPUs: 1
LLC sets: 2048
LLC ways: 16
Clean RRIP Policies: 1323200313232003 Dirty RRIP Policies: 313102303131023 PSEL Width: 10 Track Set: 4294967295 PSEL Mask: 1 Demote Mask: 1132031011320310DS Algo: 0Window size: 0
Off-chip DRAM Size: 4096 MB Channels: 1 Width: 64-bit Data Rate: 1600 MT/s

CPU 0 runs /mnt/beegfs/iconst01/spec2017/Gcc.trace.gz
NOT SORTED
TRACE STRING: /mnt/beegfs/iconst01/spec2017/Gcc.trace.gz
SORTED
TRACE STRING: /mnt/beegfs/iconst01/spec2017/Gcc.trace.gz
INITIAL
TRACE STRING: /mnt/beegfs/iconst01/spec2017/Gcc.trace.gz

champsim_seed used: 269

CPU 0 L1D next line prefetcher
CPU 0 L2C IP-based stride prefetcher
Initialize DRRIP state
Assign rand_sets[0]: 454  LLC: 2048
rand_sets[0]: 454
Assign rand_sets[1]: 1662  LLC: 2048
rand_sets[1]: 1662
Assign rand_sets[2]: 1921  LLC: 2048
rand_sets[2]: 1921
Assign rand_sets[3]: 1131  LLC: 2048
rand_sets[3]: 1131
Assign rand_sets[4]: 331  LLC: 2048
rand_sets[4]: 331
Assign rand_sets[5]: 1531  LLC: 2048
rand_sets[5]: 1531
Assign rand_sets[6]: 482  LLC: 2048
rand_sets[6]: 482
Assign rand_sets[7]: 1275  LLC: 2048
rand_sets[7]: 1275
Assign rand_sets[8]: 1876  LLC: 2048
rand_sets[8]: 1876
Assign rand_sets[9]: 2038  LLC: 2048
rand_sets[9]: 2038
Assign rand_sets[10]: 701  LLC: 2048
rand_sets[10]: 701
Assign rand_sets[11]: 479  LLC: 2048
rand_sets[11]: 479
Assign rand_sets[12]: 892  LLC: 2048
rand_sets[12]: 892
Assign rand_sets[13]: 1820  LLC: 2048
rand_sets[13]: 1820
Assign rand_sets[14]: 1505  LLC: 2048
rand_sets[14]: 1505
Assign rand_sets[15]: 1159  LLC: 2048
rand_sets[15]: 1159
Assign rand_sets[16]: 513  LLC: 2048
rand_sets[16]: 513
Assign rand_sets[17]: 703  LLC: 2048
rand_sets[17]: 703
Assign rand_sets[18]: 561  LLC: 2048
rand_sets[18]: 561
Assign rand_sets[19]: 990  LLC: 2048
rand_sets[19]: 990
Assign rand_sets[20]: 342  LLC: 2048
rand_sets[20]: 342
Assign rand_sets[21]: 882  LLC: 2048
rand_sets[21]: 882
Assign rand_sets[22]: 15  LLC: 2048
rand_sets[22]: 15
Assign rand_sets[23]: 71  LLC: 2048
rand_sets[23]: 71
Assign rand_sets[24]: 1127  LLC: 2048
rand_sets[24]: 1127
Assign rand_sets[25]: 1382  LLC: 2048
rand_sets[25]: 1382
Assign rand_sets[26]: 647  LLC: 2048
rand_sets[26]: 647
Assign rand_sets[27]: 857  LLC: 2048
rand_sets[27]: 857
Assign rand_sets[28]: 1450  LLC: 2048
rand_sets[28]: 1450
Assign rand_sets[29]: 1160  LLC: 2048
rand_sets[29]: 1160
Assign rand_sets[30]: 1852  LLC: 2048
rand_sets[30]: 1852
Assign rand_sets[31]: 1881  LLC: 2048
rand_sets[31]: 1881
Assign rand_sets[32]: 1770  LLC: 2048
rand_sets[32]: 1770
Assign rand_sets[33]: 1622  LLC: 2048
rand_sets[33]: 1622
Assign rand_sets[34]: 275  LLC: 2048
rand_sets[34]: 275
Assign rand_sets[35]: 635  LLC: 2048
rand_sets[35]: 635
Assign rand_sets[36]: 466  LLC: 2048
rand_sets[36]: 466
Assign rand_sets[37]: 1413  LLC: 2048
rand_sets[37]: 1413
Assign rand_sets[38]: 417  LLC: 2048
rand_sets[38]: 417
Assign rand_sets[39]: 472  LLC: 2048
rand_sets[39]: 472
Assign rand_sets[40]: 1340  LLC: 2048
rand_sets[40]: 1340
Assign rand_sets[41]: 852  LLC: 2048
rand_sets[41]: 852
Assign rand_sets[42]: 1365  LLC: 2048
rand_sets[42]: 1365
Assign rand_sets[43]: 47  LLC: 2048
rand_sets[43]: 47
Assign rand_sets[44]: 823  LLC: 2048
rand_sets[44]: 823
Assign rand_sets[45]: 686  LLC: 2048
rand_sets[45]: 686
Assign rand_sets[46]: 1637  LLC: 2048
rand_sets[46]: 1637
Assign rand_sets[47]: 1115  LLC: 2048
rand_sets[47]: 1115
Assign rand_sets[48]: 986  LLC: 2048
rand_sets[48]: 986
Assign rand_sets[49]: 258  LLC: 2048
rand_sets[49]: 258
Assign rand_sets[50]: 633  LLC: 2048
rand_sets[50]: 633
Assign rand_sets[51]: 920  LLC: 2048
rand_sets[51]: 920
Assign rand_sets[52]: 204  LLC: 2048
rand_sets[52]: 204
Assign rand_sets[53]: 227  LLC: 2048
rand_sets[53]: 227
Assign rand_sets[54]: 1818  LLC: 2048
rand_sets[54]: 1818
Assign rand_sets[55]: 886  LLC: 2048
rand_sets[55]: 886
Assign rand_sets[56]: 1422  LLC: 2048
rand_sets[56]: 1422
Assign rand_sets[57]: 607  LLC: 2048
rand_sets[57]: 607
Assign rand_sets[58]: 217  LLC: 2048
rand_sets[58]: 217
Assign rand_sets[59]: 1945  LLC: 2048
rand_sets[59]: 1945
Assign rand_sets[60]: 143  LLC: 2048
rand_sets[60]: 143
Assign rand_sets[61]: 1311  LLC: 2048
rand_sets[61]: 1311
Assign rand_sets[62]: 319  LLC: 2048
rand_sets[62]: 319
Assign rand_sets[63]: 1846  LLC: 2048
rand_sets[63]: 1846
 CLEAN-RRIP-POLICY-1: 1-3-2-3-2-0-0-3- CLEAN-RRIP-POLICY-2: 1-3-2-3-2-0-0-3-
 DIRTY-RRIP-POLICY-1: 0-3-1-3-1-0-2-3- DIRTY-RRIP-POLICY-2: 0-3-1-3-1-0-2-3-
 PSEL width: 10
Heartbeat CPU 0 instructions: 10000001 cycles: 7321625 heartbeat IPC: 1.36582 cumulative IPC: 1.36582 (Simulation time: 0 hr 0 min 15 sec) 
Heartbeat CPU 0 instructions: 20000000 cycles: 14328006 heartbeat IPC: 1.42727 cumulative IPC: 1.39587 (Simulation time: 0 hr 0 min 30 sec) 
Heartbeat CPU 0 instructions: 30000001 cycles: 21045401 heartbeat IPC: 1.48867 cumulative IPC: 1.42549 (Simulation time: 0 hr 0 min 47 sec) 
Heartbeat CPU 0 instructions: 40000000 cycles: 27507830 heartbeat IPC: 1.54741 cumulative IPC: 1.45413 (Simulation time: 0 hr 1 min 3 sec) 
Heartbeat CPU 0 instructions: 50000001 cycles: 33610824 heartbeat IPC: 1.63854 cumulative IPC: 1.48762 (Simulation time: 0 hr 1 min 19 sec) 
Heartbeat CPU 0 instructions: 60000000 cycles: 40093227 heartbeat IPC: 1.54264 cumulative IPC: 1.49651 (Simulation time: 0 hr 1 min 36 sec) 
Heartbeat CPU 0 instructions: 70000000 cycles: 47136666 heartbeat IPC: 1.41976 cumulative IPC: 1.48504 (Simulation time: 0 hr 1 min 51 sec) 
Heartbeat CPU 0 instructions: 80000000 cycles: 54232345 heartbeat IPC: 1.40931 cumulative IPC: 1.47513 (Simulation time: 0 hr 2 min 6 sec) 
Heartbeat CPU 0 instructions: 90000003 cycles: 61242811 heartbeat IPC: 1.42644 cumulative IPC: 1.46956 (Simulation time: 0 hr 2 min 21 sec) 
Heartbeat CPU 0 instructions: 100000000 cycles: 68415981 heartbeat IPC: 1.39408 cumulative IPC: 1.46165 (Simulation time: 0 hr 2 min 36 sec) 

Warmup complete CPU 0 instructions: 100000004 cycles: 68415982 (Simulation time: 0 hr 2 min 36 sec) 

Heartbeat CPU 0 instructions: 110000003 cycles: 96932423 heartbeat IPC: 0.350675 cumulative IPC: 0.350675 (Simulation time: 0 hr 3 min 6 sec) 
Heartbeat CPU 0 instructions: 120000000 cycles: 124671767 heartbeat IPC: 0.360499 cumulative IPC: 0.355519 (Simulation time: 0 hr 3 min 37 sec) 
Heartbeat CPU 0 instructions: 130000000 cycles: 149916802 heartbeat IPC: 0.396118 cumulative IPC: 0.368094 (Simulation time: 0 hr 4 min 7 sec) 
Heartbeat CPU 0 instructions: 140000000 cycles: 181009490 heartbeat IPC: 0.321619 cumulative IPC: 0.35526 (Simulation time: 0 hr 4 min 37 sec) 
Heartbeat CPU 0 instructions: 150000000 cycles: 211947071 heartbeat IPC: 0.323231 cumulative IPC: 0.348357 (Simulation time: 0 hr 5 min 7 sec) 
Heartbeat CPU 0 instructions: 160000000 cycles: 239712815 heartbeat IPC: 0.360156 cumulative IPC: 0.350269 (Simulation time: 0 hr 5 min 36 sec) 
Heartbeat CPU 0 instructions: 170000001 cycles: 268193171 heartbeat IPC: 0.351119 cumulative IPC: 0.35039 (Simulation time: 0 hr 6 min 8 sec) 
Heartbeat CPU 0 instructions: 180000000 cycles: 297142602 heartbeat IPC: 0.34543 cumulative IPC: 0.349762 (Simulation time: 0 hr 6 min 38 sec) 
Heartbeat CPU 0 instructions: 190000002 cycles: 325701616 heartbeat IPC: 0.350152 cumulative IPC: 0.349806 (Simulation time: 0 hr 7 min 9 sec) 
Heartbeat CPU 0 instructions: 200000000 cycles: 354603162 heartbeat IPC: 0.346002 cumulative IPC: 0.349422 (Simulation time: 0 hr 7 min 39 sec) 
Heartbeat CPU 0 instructions: 210000002 cycles: 382986518 heartbeat IPC: 0.352319 cumulative IPC: 0.349683 (Simulation time: 0 hr 8 min 10 sec) 
Heartbeat CPU 0 instructions: 220000000 cycles: 413565305 heartbeat IPC: 0.327024 cumulative IPC: 0.347676 (Simulation time: 0 hr 8 min 39 sec) 
Heartbeat CPU 0 instructions: 230000000 cycles: 441837925 heartbeat IPC: 0.353699 cumulative IPC: 0.348132 (Simulation time: 0 hr 9 min 9 sec) 
Heartbeat CPU 0 instructions: 240000000 cycles: 468263527 heartbeat IPC: 0.378421 cumulative IPC: 0.350133 (Simulation time: 0 hr 9 min 37 sec) 
Heartbeat CPU 0 instructions: 250000000 cycles: 498841038 heartbeat IPC: 0.327038 cumulative IPC: 0.348493 (Simulation time: 0 hr 10 min 9 sec) 
Heartbeat CPU 0 instructions: 260000000 cycles: 526168437 heartbeat IPC: 0.365933 cumulative IPC: 0.349534 (Simulation time: 0 hr 10 min 38 sec) 
Heartbeat CPU 0 instructions: 270000003 cycles: 555013468 heartbeat IPC: 0.34668 cumulative IPC: 0.349365 (Simulation time: 0 hr 11 min 10 sec) 
Heartbeat CPU 0 instructions: 280000000 cycles: 583700279 heartbeat IPC: 0.348592 cumulative IPC: 0.349322 (Simulation time: 0 hr 11 min 41 sec) 
Heartbeat CPU 0 instructions: 290000000 cycles: 613020991 heartbeat IPC: 0.341056 cumulative IPC: 0.348877 (Simulation time: 0 hr 12 min 12 sec) 
Heartbeat CPU 0 instructions: 300000000 cycles: 644251454 heartbeat IPC: 0.3202 cumulative IPC: 0.347321 (Simulation time: 0 hr 12 min 42 sec) 
Heartbeat CPU 0 instructions: 310000001 cycles: 674555211 heartbeat IPC: 0.329992 cumulative IPC: 0.346455 (Simulation time: 0 hr 13 min 12 sec) 
Heartbeat CPU 0 instructions: 320000000 cycles: 703813149 heartbeat IPC: 0.341788 cumulative IPC: 0.34624 (Simulation time: 0 hr 13 min 42 sec) 
Heartbeat CPU 0 instructions: 330000000 cycles: 733179310 heartbeat IPC: 0.340528 cumulative IPC: 0.345988 (Simulation time: 0 hr 14 min 12 sec) 
Heartbeat CPU 0 instructions: 340000000 cycles: 763311796 heartbeat IPC: 0.331868 cumulative IPC: 0.345376 (Simulation time: 0 hr 14 min 42 sec) 
Heartbeat CPU 0 instructions: 350000003 cycles: 790855652 heartbeat IPC: 0.363057 cumulative IPC: 0.34605 (Simulation time: 0 hr 15 min 12 sec) 
