
*** ChampSim Multicore Out-of-Order Simulator ***

Warmup Instructions: 100000000
Simulation Instructions: 500000000
Number of CPUs: 1
LLC sets: 2048
LLC ways: 16
Clean RRIP Policies: 323031103230311 Dirty RRIP Policies: 2303030123030301 PSEL Width: 10 Track Set: 4294967295 PSEL Mask: 1 Demote Mask: 2313241023132410DS Algo: 0Window size: 0
Off-chip DRAM Size: 4096 MB Channels: 1 Width: 64-bit Data Rate: 1600 MT/s

CPU 0 runs /mnt/beegfs/iconst01/spec2017/Gcc.trace.gz
NOT SORTED
TRACE STRING: /mnt/beegfs/iconst01/spec2017/Gcc.trace.gz
SORTED
TRACE STRING: /mnt/beegfs/iconst01/spec2017/Gcc.trace.gz
INITIAL
TRACE STRING: /mnt/beegfs/iconst01/spec2017/Gcc.trace.gz

champsim_seed used: 269

CPU 0 L1D next line prefetcher
CPU 0 L2C IP-based stride prefetcher
Initialize DRRIP state
Assign rand_sets[0]: 454  LLC: 2048
rand_sets[0]: 454
Assign rand_sets[1]: 1662  LLC: 2048
rand_sets[1]: 1662
Assign rand_sets[2]: 1921  LLC: 2048
rand_sets[2]: 1921
Assign rand_sets[3]: 1131  LLC: 2048
rand_sets[3]: 1131
Assign rand_sets[4]: 331  LLC: 2048
rand_sets[4]: 331
Assign rand_sets[5]: 1531  LLC: 2048
rand_sets[5]: 1531
Assign rand_sets[6]: 482  LLC: 2048
rand_sets[6]: 482
Assign rand_sets[7]: 1275  LLC: 2048
rand_sets[7]: 1275
Assign rand_sets[8]: 1876  LLC: 2048
rand_sets[8]: 1876
Assign rand_sets[9]: 2038  LLC: 2048
rand_sets[9]: 2038
Assign rand_sets[10]: 701  LLC: 2048
rand_sets[10]: 701
Assign rand_sets[11]: 479  LLC: 2048
rand_sets[11]: 479
Assign rand_sets[12]: 892  LLC: 2048
rand_sets[12]: 892
Assign rand_sets[13]: 1820  LLC: 2048
rand_sets[13]: 1820
Assign rand_sets[14]: 1505  LLC: 2048
rand_sets[14]: 1505
Assign rand_sets[15]: 1159  LLC: 2048
rand_sets[15]: 1159
Assign rand_sets[16]: 513  LLC: 2048
rand_sets[16]: 513
Assign rand_sets[17]: 703  LLC: 2048
rand_sets[17]: 703
Assign rand_sets[18]: 561  LLC: 2048
rand_sets[18]: 561
Assign rand_sets[19]: 990  LLC: 2048
rand_sets[19]: 990
Assign rand_sets[20]: 342  LLC: 2048
rand_sets[20]: 342
Assign rand_sets[21]: 882  LLC: 2048
rand_sets[21]: 882
Assign rand_sets[22]: 15  LLC: 2048
rand_sets[22]: 15
Assign rand_sets[23]: 71  LLC: 2048
rand_sets[23]: 71
Assign rand_sets[24]: 1127  LLC: 2048
rand_sets[24]: 1127
Assign rand_sets[25]: 1382  LLC: 2048
rand_sets[25]: 1382
Assign rand_sets[26]: 647  LLC: 2048
rand_sets[26]: 647
Assign rand_sets[27]: 857  LLC: 2048
rand_sets[27]: 857
Assign rand_sets[28]: 1450  LLC: 2048
rand_sets[28]: 1450
Assign rand_sets[29]: 1160  LLC: 2048
rand_sets[29]: 1160
Assign rand_sets[30]: 1852  LLC: 2048
rand_sets[30]: 1852
Assign rand_sets[31]: 1881  LLC: 2048
rand_sets[31]: 1881
Assign rand_sets[32]: 1770  LLC: 2048
rand_sets[32]: 1770
Assign rand_sets[33]: 1622  LLC: 2048
rand_sets[33]: 1622
Assign rand_sets[34]: 275  LLC: 2048
rand_sets[34]: 275
Assign rand_sets[35]: 635  LLC: 2048
rand_sets[35]: 635
Assign rand_sets[36]: 466  LLC: 2048
rand_sets[36]: 466
Assign rand_sets[37]: 1413  LLC: 2048
rand_sets[37]: 1413
Assign rand_sets[38]: 417  LLC: 2048
rand_sets[38]: 417
Assign rand_sets[39]: 472  LLC: 2048
rand_sets[39]: 472
Assign rand_sets[40]: 1340  LLC: 2048
rand_sets[40]: 1340
Assign rand_sets[41]: 852  LLC: 2048
rand_sets[41]: 852
Assign rand_sets[42]: 1365  LLC: 2048
rand_sets[42]: 1365
Assign rand_sets[43]: 47  LLC: 2048
rand_sets[43]: 47
Assign rand_sets[44]: 823  LLC: 2048
rand_sets[44]: 823
Assign rand_sets[45]: 686  LLC: 2048
rand_sets[45]: 686
Assign rand_sets[46]: 1637  LLC: 2048
rand_sets[46]: 1637
Assign rand_sets[47]: 1115  LLC: 2048
rand_sets[47]: 1115
Assign rand_sets[48]: 986  LLC: 2048
rand_sets[48]: 986
Assign rand_sets[49]: 258  LLC: 2048
rand_sets[49]: 258
Assign rand_sets[50]: 633  LLC: 2048
rand_sets[50]: 633
Assign rand_sets[51]: 920  LLC: 2048
rand_sets[51]: 920
Assign rand_sets[52]: 204  LLC: 2048
rand_sets[52]: 204
Assign rand_sets[53]: 227  LLC: 2048
rand_sets[53]: 227
Assign rand_sets[54]: 1818  LLC: 2048
rand_sets[54]: 1818
Assign rand_sets[55]: 886  LLC: 2048
rand_sets[55]: 886
Assign rand_sets[56]: 1422  LLC: 2048
rand_sets[56]: 1422
Assign rand_sets[57]: 607  LLC: 2048
rand_sets[57]: 607
Assign rand_sets[58]: 217  LLC: 2048
rand_sets[58]: 217
Assign rand_sets[59]: 1945  LLC: 2048
rand_sets[59]: 1945
Assign rand_sets[60]: 143  LLC: 2048
rand_sets[60]: 143
Assign rand_sets[61]: 1311  LLC: 2048
rand_sets[61]: 1311
Assign rand_sets[62]: 319  LLC: 2048
rand_sets[62]: 319
Assign rand_sets[63]: 1846  LLC: 2048
rand_sets[63]: 1846
 CLEAN-RRIP-POLICY-1: 0-3-2-3-0-3-1-1- CLEAN-RRIP-POLICY-2: 0-3-2-3-0-3-1-1-
 DIRTY-RRIP-POLICY-1: 2-3-0-3-0-3-0-1- DIRTY-RRIP-POLICY-2: 2-3-0-3-0-3-0-1-
 PSEL width: 10
Heartbeat CPU 0 instructions: 10000001 cycles: 7316028 heartbeat IPC: 1.36686 cumulative IPC: 1.36686 (Simulation time: 0 hr 0 min 15 sec) 
Heartbeat CPU 0 instructions: 20000000 cycles: 14307638 heartbeat IPC: 1.43029 cumulative IPC: 1.39785 (Simulation time: 0 hr 0 min 29 sec) 
Heartbeat CPU 0 instructions: 30000001 cycles: 21020926 heartbeat IPC: 1.48958 cumulative IPC: 1.42715 (Simulation time: 0 hr 0 min 45 sec) 
Heartbeat CPU 0 instructions: 40000000 cycles: 27481906 heartbeat IPC: 1.54775 cumulative IPC: 1.4555 (Simulation time: 0 hr 1 min 1 sec) 
Heartbeat CPU 0 instructions: 50000001 cycles: 33583773 heartbeat IPC: 1.63884 cumulative IPC: 1.48881 (Simulation time: 0 hr 1 min 17 sec) 
Heartbeat CPU 0 instructions: 60000000 cycles: 40065046 heartbeat IPC: 1.54291 cumulative IPC: 1.49756 (Simulation time: 0 hr 1 min 33 sec) 
Heartbeat CPU 0 instructions: 70000000 cycles: 47105418 heartbeat IPC: 1.42038 cumulative IPC: 1.48603 (Simulation time: 0 hr 1 min 48 sec) 
Heartbeat CPU 0 instructions: 80000000 cycles: 54197351 heartbeat IPC: 1.41005 cumulative IPC: 1.47609 (Simulation time: 0 hr 2 min 2 sec) 
Heartbeat CPU 0 instructions: 90000003 cycles: 61204316 heartbeat IPC: 1.42715 cumulative IPC: 1.47048 (Simulation time: 0 hr 2 min 17 sec) 
Heartbeat CPU 0 instructions: 100000000 cycles: 68374283 heartbeat IPC: 1.39471 cumulative IPC: 1.46254 (Simulation time: 0 hr 2 min 32 sec) 

Warmup complete CPU 0 instructions: 100000004 cycles: 68374284 (Simulation time: 0 hr 2 min 32 sec) 

Heartbeat CPU 0 instructions: 110000003 cycles: 96465428 heartbeat IPC: 0.355984 cumulative IPC: 0.355984 (Simulation time: 0 hr 3 min 0 sec) 
Heartbeat CPU 0 instructions: 120000000 cycles: 124076898 heartbeat IPC: 0.362168 cumulative IPC: 0.359049 (Simulation time: 0 hr 3 min 29 sec) 
Heartbeat CPU 0 instructions: 130000000 cycles: 149187407 heartbeat IPC: 0.39824 cumulative IPC: 0.371227 (Simulation time: 0 hr 3 min 58 sec) 
Heartbeat CPU 0 instructions: 140000000 cycles: 179537919 heartbeat IPC: 0.329484 cumulative IPC: 0.35983 (Simulation time: 0 hr 4 min 26 sec) 
Heartbeat CPU 0 instructions: 150000000 cycles: 209946608 heartbeat IPC: 0.328853 cumulative IPC: 0.353176 (Simulation time: 0 hr 4 min 55 sec) 
Heartbeat CPU 0 instructions: 160000000 cycles: 237520974 heartbeat IPC: 0.362656 cumulative IPC: 0.354722 (Simulation time: 0 hr 5 min 23 sec) 
Heartbeat CPU 0 instructions: 170000001 cycles: 265817573 heartbeat IPC: 0.353399 cumulative IPC: 0.354532 (Simulation time: 0 hr 5 min 53 sec) 
Heartbeat CPU 0 instructions: 180000000 cycles: 294545612 heartbeat IPC: 0.348092 cumulative IPC: 0.353714 (Simulation time: 0 hr 6 min 22 sec) 
Heartbeat CPU 0 instructions: 190000002 cycles: 322994598 heartbeat IPC: 0.351506 cumulative IPC: 0.353467 (Simulation time: 0 hr 6 min 51 sec) 
Heartbeat CPU 0 instructions: 200000000 cycles: 351646388 heartbeat IPC: 0.349018 cumulative IPC: 0.353017 (Simulation time: 0 hr 7 min 20 sec) 
Heartbeat CPU 0 instructions: 210000002 cycles: 379868413 heartbeat IPC: 0.354333 cumulative IPC: 0.353137 (Simulation time: 0 hr 7 min 49 sec) 
Heartbeat CPU 0 instructions: 220000000 cycles: 409860048 heartbeat IPC: 0.333426 cumulative IPC: 0.351406 (Simulation time: 0 hr 8 min 17 sec) 
Heartbeat CPU 0 instructions: 230000000 cycles: 437803315 heartbeat IPC: 0.357868 cumulative IPC: 0.351894 (Simulation time: 0 hr 8 min 45 sec) 
Heartbeat CPU 0 instructions: 240000000 cycles: 463901069 heartbeat IPC: 0.383175 cumulative IPC: 0.353958 (Simulation time: 0 hr 9 min 12 sec) 
Heartbeat CPU 0 instructions: 250000000 cycles: 494224739 heartbeat IPC: 0.329775 cumulative IPC: 0.352236 (Simulation time: 0 hr 9 min 42 sec) 
Heartbeat CPU 0 instructions: 260000000 cycles: 521417276 heartbeat IPC: 0.367748 cumulative IPC: 0.353167 (Simulation time: 0 hr 10 min 11 sec) 
Heartbeat CPU 0 instructions: 270000003 cycles: 550105572 heartbeat IPC: 0.348574 cumulative IPC: 0.352894 (Simulation time: 0 hr 10 min 41 sec) 
Heartbeat CPU 0 instructions: 280000000 cycles: 578611546 heartbeat IPC: 0.350804 cumulative IPC: 0.352777 (Simulation time: 0 hr 11 min 10 sec) 
Heartbeat CPU 0 instructions: 290000000 cycles: 607742868 heartbeat IPC: 0.343273 cumulative IPC: 0.352264 (Simulation time: 0 hr 11 min 40 sec) 
Heartbeat CPU 0 instructions: 300000000 cycles: 638679111 heartbeat IPC: 0.323245 cumulative IPC: 0.35069 (Simulation time: 0 hr 12 min 9 sec) 
Heartbeat CPU 0 instructions: 310000001 cycles: 668721915 heartbeat IPC: 0.332858 cumulative IPC: 0.349797 (Simulation time: 0 hr 12 min 37 sec) 
Heartbeat CPU 0 instructions: 320000000 cycles: 697690954 heartbeat IPC: 0.345196 cumulative IPC: 0.349586 (Simulation time: 0 hr 13 min 6 sec) 
Heartbeat CPU 0 instructions: 330000000 cycles: 726913484 heartbeat IPC: 0.342202 cumulative IPC: 0.349258 (Simulation time: 0 hr 13 min 34 sec) 
Heartbeat CPU 0 instructions: 340000000 cycles: 756753762 heartbeat IPC: 0.335118 cumulative IPC: 0.348645 (Simulation time: 0 hr 14 min 3 sec) 
Heartbeat CPU 0 instructions: 350000003 cycles: 784132361 heartbeat IPC: 0.365249 cumulative IPC: 0.34928 (Simulation time: 0 hr 14 min 31 sec) 
Heartbeat CPU 0 instructions: 360000000 cycles: 813557954 heartbeat IPC: 0.33984 cumulative IPC: 0.348907 (Simulation time: 0 hr 14 min 59 sec) 
Heartbeat CPU 0 instructions: 370000000 cycles: 842901141 heartbeat IPC: 0.340795 cumulative IPC: 0.3486 (Simulation time: 0 hr 15 min 27 sec) 
Heartbeat CPU 0 instructions: 380000000 cycles: 872442149 heartbeat IPC: 0.338512 cumulative IPC: 0.348229 (Simulation time: 0 hr 15 min 55 sec) 
Heartbeat CPU 0 instructions: 390000001 cycles: 900930846 heartbeat IPC: 0.351016 cumulative IPC: 0.348325 (Simulation time: 0 hr 16 min 22 sec) 
Heartbeat CPU 0 instructions: 400000000 cycles: 930520807 heartbeat IPC: 0.337952 cumulative IPC: 0.347969 (Simulation time: 0 hr 16 min 50 sec) 
Heartbeat CPU 0 instructions: 410000001 cycles: 958530099 heartbeat IPC: 0.357024 cumulative IPC: 0.348254 (Simulation time: 0 hr 17 min 18 sec) 
Heartbeat CPU 0 instructions: 420000000 cycles: 986504323 heartbeat IPC: 0.357472 cumulative IPC: 0.348534 (Simulation time: 0 hr 17 min 45 sec) 
Heartbeat CPU 0 instructions: 430000002 cycles: 1014941177 heartbeat IPC: 0.351656 cumulative IPC: 0.348628 (Simulation time: 0 hr 18 min 12 sec) 
Heartbeat CPU 0 instructions: 440000000 cycles: 1045379675 heartbeat IPC: 0.328531 cumulative IPC: 0.348002 (Simulation time: 0 hr 18 min 40 sec) 
Heartbeat CPU 0 instructions: 450000002 cycles: 1075635007 heartbeat IPC: 0.33052 cumulative IPC: 0.347477 (Simulation time: 0 hr 19 min 8 sec) 
Heartbeat CPU 0 instructions: 460000000 cycles: 1104010999 heartbeat IPC: 0.352411 cumulative IPC: 0.347612 (Simulation time: 0 hr 19 min 35 sec) 
Heartbeat CPU 0 instructions: 470000000 cycles: 1132133469 heartbeat IPC: 0.355588 cumulative IPC: 0.347823 (Simulation time: 0 hr 20 min 2 sec) 
Heartbeat CPU 0 instructions: 480000000 cycles: 1160501902 heartbeat IPC: 0.352504 cumulative IPC: 0.347945 (Simulation time: 0 hr 20 min 29 sec) 
Heartbeat CPU 0 instructions: 490000000 cycles: 1188558012 heartbeat IPC: 0.356429 cumulative IPC: 0.348157 (Simulation time: 0 hr 20 min 56 sec) 
Heartbeat CPU 0 instructions: 500000000 cycles: 1217330497 heartbeat IPC: 0.347554 cumulative IPC: 0.348142 (Simulation time: 0 hr 21 min 24 sec) 
Heartbeat CPU 0 instructions: 510000000 cycles: 1252065518 heartbeat IPC: 0.287894 cumulative IPC: 0.346374 (Simulation time: 0 hr 21 min 54 sec) 
Heartbeat CPU 0 instructions: 520000000 cycles: 1280182704 heartbeat IPC: 0.355654 cumulative IPC: 0.346589 (Simulation time: 0 hr 22 min 22 sec) 
Heartbeat CPU 0 instructions: 530000001 cycles: 1310468465 heartbeat IPC: 0.330188 cumulative IPC: 0.34619 (Simulation time: 0 hr 22 min 50 sec) 
Heartbeat CPU 0 instructions: 540000000 cycles: 1339167383 heartbeat IPC: 0.348445 cumulative IPC: 0.34624 (Simulation time: 0 hr 23 min 18 sec) 
Heartbeat CPU 0 instructions: 550000001 cycles: 1368623335 heartbeat IPC: 0.33949 cumulative IPC: 0.346088 (Simulation time: 0 hr 23 min 48 sec) 
Heartbeat CPU 0 instructions: 560000000 cycles: 1394227027 heartbeat IPC: 0.390569 cumulative IPC: 0.346947 (Simulation time: 0 hr 24 min 15 sec) 
Heartbeat CPU 0 instructions: 570000000 cycles: 1424518808 heartbeat IPC: 0.330123 cumulative IPC: 0.346571 (Simulation time: 0 hr 24 min 44 sec) 
Heartbeat CPU 0 instructions: 580000000 cycles: 1453092031 heartbeat IPC: 0.349978 cumulative IPC: 0.346641 (Simulation time: 0 hr 25 min 12 sec) 
Heartbeat CPU 0 instructions: 590000001 cycles: 1478012438 heartbeat IPC: 0.401278 cumulative IPC: 0.347607 (Simulation time: 0 hr 25 min 39 sec) 
Heartbeat CPU 0 instructions: 600000000 cycles: 1504402091 heartbeat IPC: 0.378936 cumulative IPC: 0.348183 (Simulation time: 0 hr 26 min 6 sec) 
Finished CPU 0 instructions: 500000000 cycles: 1436027829 cumulative IPC: 0.348183 (Simulation time: 0 hr 26 min 6 sec) 

CPU 0 Branch Prediction Accuracy: 86.4311% MPKI: 26.2662
Number of Branches: 96788573 Number of Mispredictions: 13133102
Number of LOAD Instructions: 164682285
Number of LOAD Instructions (ROI): 164682285
Number of STORE Instructions: 78194750
Number of STORE Instructions (ROI): 78194750
Total Destination Memory Operands: 83268534
Total Destination Memory Operands (ROI): 83268534
Total Source Memory Operands: 164712438
Total Source Memory Operands (ROI): 164712438
Number of DEPENDED LOADS: 7052709
Number of DEPENDED LOADS (ROI): 7052709
Number of SQ_ADDED: 83268522
Number of SQ_ADDED (ROI): 83268522
Number of LQ_ADDED: 236766523
Number of LQ_ADDED (ROI): 236766523
Number of Instructions read from trace: 600000066

ChampSim completed all CPUs

Region of Interest Statistics

CPU 0 cumulative IPC: 0.348183 instructions: 500000000 cycles: 1436027829
ITLB TOTAL     ACCESS:  100530001  HIT:  100325555  MISS:     204446
ITLB LOAD      ACCESS:  100530001  HIT:  100325555  MISS:     204446
ITLB RFO       ACCESS:          0  HIT:          0  MISS:          0
ITLB PREFETCH  ACCESS:          0  HIT:          0  MISS:          0
ITLB WRITEBACK ACCESS:          0  HIT:          0  MISS:          0
ITLB PREFETCH  REQUESTED:          0  ISSUED:          0  USEFUL:          0  USELESS:          0
ITLB TOTAL MSHR MERGED:     172424
ITLB LOAD MSHR MERGED:     172424
ITLB RFO MSHR MERGED:          0
ITLB PREFETCH MSHR MERGED:          0
ITLB WRITEBACK MSHR MERGED:          0
ITLB TOTAL ACCESSES:  100702425 HITS:  100325555 MISSES:     376870
ITLB LOAD ACCESSES:  100702425 HITS:  100325555 MISSES:     376870
ITLB RFO ACCESSES:          0 HITS:          0 MISSES:          0
ITLB PREFETCH ACCESSES:          0 HITS:          0 MISSES:          0
ITLB WRITEBACK ACCESSES:          0 HITS:          0 MISSES:          0
ITLB RQ ACCESS:  500000057
ITLB RQ TO_CACHE:  100702425
ITLB RQ MERGED:  399297632
ITLB RQ FORWARD:          0
ITLB WQ ACCESS:          0
ITLB WQ TO_CACHE:          0
ITLB WQ MERGED:          0
ITLB WQ FORWARD:          0
DTLB TOTAL     ACCESS:  165349422  HIT:  164715066  MISS:     634356
DTLB LOAD      ACCESS:  106301838  HIT:  105731849  MISS:     569989
DTLB RFO       ACCESS:   59047584  HIT:   58983217  MISS:      64367
DTLB PREFETCH  ACCESS:          0  HIT:          0  MISS:          0
DTLB WRITEBACK ACCESS:          0  HIT:          0  MISS:          0
DTLB PREFETCH  REQUESTED:          0  ISSUED:          0  USEFUL:          0  USELESS:          0
DTLB TOTAL MSHR MERGED:      99764
DTLB LOAD MSHR MERGED:      59306
DTLB RFO MSHR MERGED:      40458
DTLB PREFETCH MSHR MERGED:          0
DTLB WRITEBACK MSHR MERGED:          0
DTLB TOTAL ACCESSES:  165449186 HITS:  164715066 MISSES:     734120
DTLB LOAD ACCESSES:  106361144 HITS:  105731849 MISSES:     629295
DTLB RFO ACCESSES:   59088042 HITS:   58983217 MISSES:     104825
DTLB PREFETCH ACCESSES:          0 HITS:          0 MISSES:          0
DTLB WRITEBACK ACCESSES:          0 HITS:          0 MISSES:          0
DTLB RQ ACCESS:  200318131
DTLB RQ TO_CACHE:  165449186
DTLB RQ MERGED:   34868945
DTLB RQ FORWARD:          0
DTLB WQ ACCESS:          0
DTLB WQ TO_CACHE:          0
DTLB WQ MERGED:          0
DTLB WQ FORWARD:          0
L1D TOTAL     ACCESS:  281827430  HIT:  273918039  MISS:    7909391
L1D LOAD      ACCESS:  110424000  HIT:  107141827  MISS:    3282173
L1D RFO       ACCESS:   67121774  HIT:   66231283  MISS:     890491
L1D PREFETCH  ACCESS:  104281656  HIT:  100544929  MISS:    3736727
L1D WRITEBACK ACCESS:          0  HIT:          0  MISS:          0
L1D PREFETCH  REQUESTED:  110829279  ISSUED:  109129942  USEFUL:    1657375  USELESS:    2079316
L1D TOTAL MSHR MERGED:    2903630
L1D LOAD MSHR MERGED:     507090
L1D RFO MSHR MERGED:    1864019
L1D PREFETCH MSHR MERGED:     532521
L1D WRITEBACK MSHR MERGED:          0
L1D TOTAL ACCESSES:  284758479 HITS:  273945458 MISSES:   10813021
L1D LOAD ACCESSES:  110830736 HITS:  107143284 MISSES:    3687452
L1D RFO ACCESSES:   68974034 HITS:   66231283 MISSES:    2742751
L1D PREFETCH ACCESSES:  104953709 HITS:  100570891 MISSES:    4382818
L1D WRITEBACK ACCESSES:          0 HITS:          0 MISSES:          0
L1D RQ ACCESS:  130765528
L1D RQ TO_CACHE:  110829282
L1D RQ MERGED:   19934789
L1D RQ FORWARD:          0
L1D WQ ACCESS:   69552603
L1D WQ TO_CACHE:   68974035
L1D WQ MERGED:     578568
L1D WQ FORWARD:      27419
L1I TOTAL     ACCESS:  126576310  HIT:  122337759  MISS:    4238551
L1I LOAD      ACCESS:  126576310  HIT:  122337759  MISS:    4238551
L1I RFO       ACCESS:          0  HIT:          0  MISS:          0
L1I PREFETCH  ACCESS:          0  HIT:          0  MISS:          0
L1I WRITEBACK ACCESS:          0  HIT:          0  MISS:          0
L1I PREFETCH  REQUESTED:          0  ISSUED:          0  USEFUL:          0  USELESS:          0
L1I TOTAL MSHR MERGED:    1835759
L1I LOAD MSHR MERGED:    1835759
L1I RFO MSHR MERGED:          0
L1I PREFETCH MSHR MERGED:          0
L1I WRITEBACK MSHR MERGED:          0
L1I TOTAL ACCESSES:  128412072 HITS:  122337759 MISSES:    6074313
L1I LOAD ACCESSES:  128412072 HITS:  122337759 MISSES:    6074313
L1I RFO ACCESSES:          0 HITS:          0 MISSES:          0
L1I PREFETCH ACCESSES:          0 HITS:          0 MISSES:          0
L1I WRITEBACK ACCESSES:          0 HITS:          0 MISSES:          0
L1I RQ ACCESS:  500000057
L1I RQ TO_CACHE:  128412072
L1I RQ MERGED:  371587985
L1I RQ FORWARD:          0
L1I WQ ACCESS:          0
L1I WQ TO_CACHE:          0
L1I WQ MERGED:          0
L1I WQ FORWARD:          0
L2C TOTAL     ACCESS:   14905232  HIT:   11158757  MISS:    3746475
L2C LOAD      ACCESS:    7418705  HIT:    5098810  MISS:    2319895
L2C RFO       ACCESS:     878635  HIT:     409914  MISS:     468721
L2C PREFETCH  ACCESS:    4568662  HIT:    3628073  MISS:     940589
L2C WRITEBACK ACCESS:    2039230  HIT:    2021960  MISS:      17270
L2C PREFETCH  REQUESTED:     842724  ISSUED:     842724  USEFUL:     203433  USELESS:     736862
L2C TOTAL MSHR MERGED:       7049
L2C LOAD MSHR MERGED:        776
L2C RFO MSHR MERGED:          0
L2C PREFETCH MSHR MERGED:       6273
L2C WRITEBACK MSHR MERGED:          0
L2C TOTAL ACCESSES:   14913165 HITS:   11159204 MISSES:    3753961
L2C LOAD ACCESSES:    7418913 HITS:    5099018 MISSES:    2319895
L2C RFO ACCESSES:     878732 HITS:     410011 MISSES:     468721
L2C PREFETCH ACCESSES:    4576290 HITS:    3628215 MISSES:     948075
L2C WRITEBACK ACCESSES:    2039230 HITS:    2021960 MISSES:      17270
L2C RQ ACCESS:    8297648
L2C RQ TO_CACHE:    8297343
L2C RQ MERGED:          0
L2C RQ FORWARD:          0
L2C WQ ACCESS:    2039230
L2C WQ TO_CACHE:    2039230
L2C WQ MERGED:          0
L2C WQ FORWARD:        447
LLC TOTAL     ACCESS:    4609822  HIT:    3601379  MISS:    1008443
LLC LOAD      ACCESS:    2319103  HIT:    1830664  MISS:     488439
LLC RFO       ACCESS:     468712  HIT:     402947  MISS:      65765
LLC PREFETCH  ACCESS:     941705  HIT:     556281  MISS:     385424
LLC WRITEBACK ACCESS:     880302  HIT:     811487  MISS:      68815
LLC PREFETCH  REQUESTED:          0  ISSUED:          0  USEFUL:      12746  USELESS:     371775
LLC TOTAL MSHR MERGED:         79
LLC LOAD MSHR MERGED:         25
LLC RFO MSHR MERGED:          0
LLC PREFETCH MSHR MERGED:         54
LLC WRITEBACK MSHR MERGED:          0
LLC TOTAL ACCESSES:    4609936 HITS:    3601414 MISSES:    1008522
LLC LOAD ACCESSES:    2319119 HITS:    1830680 MISSES:     488439
LLC RFO ACCESSES:     468721 HITS:     402956 MISSES:      65765
LLC PREFETCH ACCESSES:     941794 HITS:     556291 MISSES:     385503
LLC WRITEBACK ACCESSES:     880302 HITS:     811487 MISSES:      68815
LLC 0 RQ ACCESS:    2787840
LLC 0 RQ TO_CACHE:    2787815
LLC 0 RQ MERGED:          0
LLC 0 RQ FORWARD:          0
LLC WQ ACCESS:     880302
LLC WQ TO_CACHE:     880302
LLC WQ MERGED:          0
LLC WQ FORWARD:         35
Major fault: 0 Minor fault: 12862
CPU 0 L1D next line prefetcher final stats
CPU 0 L2C PC-based stride prefetcher final stats
All Misses: 1179064
All Hits: 4247764
SD Algo Stats - Switches: 0 SRR-Repls: 544531 BRR-Repls: 0

DRAM Statistics
 CHANNEL 0
 RQ ROW_BUFFER_HIT:     222736  ROW_BUFFER_MISS:     713647
 DBUS_CONGESTED:     379929
 WQ ROW_BUFFER_HIT:       9794  ROW_BUFFER_MISS:     160294  FULL:          0

 AVG_CONGESTED_CYCLE: 13
LOADS RETIRED: 136549171
INSTR RETIRED: 500000000
