
*** ChampSim Multicore Out-of-Order Simulator ***

Warmup Instructions: 100000000
Simulation Instructions: 500000000
Number of CPUs: 1
LLC sets: 2048
LLC ways: 16
Clean RRIP Policies: 1120030211200302 Dirty RRIP Policies: 110132201101322 PSEL Width: 10 Track Set: 4294967295 PSEL Mask: 1 Demote Mask: 3312141033121410DS Algo: 0Window size: 0
Off-chip DRAM Size: 4096 MB Channels: 1 Width: 64-bit Data Rate: 1600 MT/s

CPU 0 runs /mnt/beegfs/iconst01/spec2017/Gcc.trace.gz
NOT SORTED
TRACE STRING: /mnt/beegfs/iconst01/spec2017/Gcc.trace.gz
SORTED
TRACE STRING: /mnt/beegfs/iconst01/spec2017/Gcc.trace.gz
INITIAL
TRACE STRING: /mnt/beegfs/iconst01/spec2017/Gcc.trace.gz

champsim_seed used: 269

CPU 0 L1D next line prefetcher
CPU 0 L2C IP-based stride prefetcher
Initialize DRRIP state
Assign rand_sets[0]: 454  LLC: 2048
rand_sets[0]: 454
Assign rand_sets[1]: 1662  LLC: 2048
rand_sets[1]: 1662
Assign rand_sets[2]: 1921  LLC: 2048
rand_sets[2]: 1921
Assign rand_sets[3]: 1131  LLC: 2048
rand_sets[3]: 1131
Assign rand_sets[4]: 331  LLC: 2048
rand_sets[4]: 331
Assign rand_sets[5]: 1531  LLC: 2048
rand_sets[5]: 1531
Assign rand_sets[6]: 482  LLC: 2048
rand_sets[6]: 482
Assign rand_sets[7]: 1275  LLC: 2048
rand_sets[7]: 1275
Assign rand_sets[8]: 1876  LLC: 2048
rand_sets[8]: 1876
Assign rand_sets[9]: 2038  LLC: 2048
rand_sets[9]: 2038
Assign rand_sets[10]: 701  LLC: 2048
rand_sets[10]: 701
Assign rand_sets[11]: 479  LLC: 2048
rand_sets[11]: 479
Assign rand_sets[12]: 892  LLC: 2048
rand_sets[12]: 892
Assign rand_sets[13]: 1820  LLC: 2048
rand_sets[13]: 1820
Assign rand_sets[14]: 1505  LLC: 2048
rand_sets[14]: 1505
Assign rand_sets[15]: 1159  LLC: 2048
rand_sets[15]: 1159
Assign rand_sets[16]: 513  LLC: 2048
rand_sets[16]: 513
Assign rand_sets[17]: 703  LLC: 2048
rand_sets[17]: 703
Assign rand_sets[18]: 561  LLC: 2048
rand_sets[18]: 561
Assign rand_sets[19]: 990  LLC: 2048
rand_sets[19]: 990
Assign rand_sets[20]: 342  LLC: 2048
rand_sets[20]: 342
Assign rand_sets[21]: 882  LLC: 2048
rand_sets[21]: 882
Assign rand_sets[22]: 15  LLC: 2048
rand_sets[22]: 15
Assign rand_sets[23]: 71  LLC: 2048
rand_sets[23]: 71
Assign rand_sets[24]: 1127  LLC: 2048
rand_sets[24]: 1127
Assign rand_sets[25]: 1382  LLC: 2048
rand_sets[25]: 1382
Assign rand_sets[26]: 647  LLC: 2048
rand_sets[26]: 647
Assign rand_sets[27]: 857  LLC: 2048
rand_sets[27]: 857
Assign rand_sets[28]: 1450  LLC: 2048
rand_sets[28]: 1450
Assign rand_sets[29]: 1160  LLC: 2048
rand_sets[29]: 1160
Assign rand_sets[30]: 1852  LLC: 2048
rand_sets[30]: 1852
Assign rand_sets[31]: 1881  LLC: 2048
rand_sets[31]: 1881
Assign rand_sets[32]: 1770  LLC: 2048
rand_sets[32]: 1770
Assign rand_sets[33]: 1622  LLC: 2048
rand_sets[33]: 1622
Assign rand_sets[34]: 275  LLC: 2048
rand_sets[34]: 275
Assign rand_sets[35]: 635  LLC: 2048
rand_sets[35]: 635
Assign rand_sets[36]: 466  LLC: 2048
rand_sets[36]: 466
Assign rand_sets[37]: 1413  LLC: 2048
rand_sets[37]: 1413
Assign rand_sets[38]: 417  LLC: 2048
rand_sets[38]: 417
Assign rand_sets[39]: 472  LLC: 2048
rand_sets[39]: 472
Assign rand_sets[40]: 1340  LLC: 2048
rand_sets[40]: 1340
Assign rand_sets[41]: 852  LLC: 2048
rand_sets[41]: 852
Assign rand_sets[42]: 1365  LLC: 2048
rand_sets[42]: 1365
Assign rand_sets[43]: 47  LLC: 2048
rand_sets[43]: 47
Assign rand_sets[44]: 823  LLC: 2048
rand_sets[44]: 823
Assign rand_sets[45]: 686  LLC: 2048
rand_sets[45]: 686
Assign rand_sets[46]: 1637  LLC: 2048
rand_sets[46]: 1637
Assign rand_sets[47]: 1115  LLC: 2048
rand_sets[47]: 1115
Assign rand_sets[48]: 986  LLC: 2048
rand_sets[48]: 986
Assign rand_sets[49]: 258  LLC: 2048
rand_sets[49]: 258
Assign rand_sets[50]: 633  LLC: 2048
rand_sets[50]: 633
Assign rand_sets[51]: 920  LLC: 2048
rand_sets[51]: 920
Assign rand_sets[52]: 204  LLC: 2048
rand_sets[52]: 204
Assign rand_sets[53]: 227  LLC: 2048
rand_sets[53]: 227
Assign rand_sets[54]: 1818  LLC: 2048
rand_sets[54]: 1818
Assign rand_sets[55]: 886  LLC: 2048
rand_sets[55]: 886
Assign rand_sets[56]: 1422  LLC: 2048
rand_sets[56]: 1422
Assign rand_sets[57]: 607  LLC: 2048
rand_sets[57]: 607
Assign rand_sets[58]: 217  LLC: 2048
rand_sets[58]: 217
Assign rand_sets[59]: 1945  LLC: 2048
rand_sets[59]: 1945
Assign rand_sets[60]: 143  LLC: 2048
rand_sets[60]: 143
Assign rand_sets[61]: 1311  LLC: 2048
rand_sets[61]: 1311
Assign rand_sets[62]: 319  LLC: 2048
rand_sets[62]: 319
Assign rand_sets[63]: 1846  LLC: 2048
rand_sets[63]: 1846
 CLEAN-RRIP-POLICY-1: 1-1-2-0-0-3-0-2- CLEAN-RRIP-POLICY-2: 1-1-2-0-0-3-0-2-
 DIRTY-RRIP-POLICY-1: 0-1-1-0-1-3-2-2- DIRTY-RRIP-POLICY-2: 0-1-1-0-1-3-2-2-
 PSEL width: 10
Heartbeat CPU 0 instructions: 10000001 cycles: 7315906 heartbeat IPC: 1.36688 cumulative IPC: 1.36688 (Simulation time: 0 hr 0 min 15 sec) 
Heartbeat CPU 0 instructions: 20000000 cycles: 14308309 heartbeat IPC: 1.43012 cumulative IPC: 1.39779 (Simulation time: 0 hr 0 min 30 sec) 
Heartbeat CPU 0 instructions: 30000001 cycles: 21021756 heartbeat IPC: 1.48955 cumulative IPC: 1.42709 (Simulation time: 0 hr 0 min 46 sec) 
Heartbeat CPU 0 instructions: 40000000 cycles: 27482740 heartbeat IPC: 1.54775 cumulative IPC: 1.45546 (Simulation time: 0 hr 1 min 2 sec) 
Heartbeat CPU 0 instructions: 50000001 cycles: 33584812 heartbeat IPC: 1.63879 cumulative IPC: 1.48877 (Simulation time: 0 hr 1 min 17 sec) 
Heartbeat CPU 0 instructions: 60000000 cycles: 40066304 heartbeat IPC: 1.54285 cumulative IPC: 1.49752 (Simulation time: 0 hr 1 min 33 sec) 
Heartbeat CPU 0 instructions: 70000000 cycles: 47106902 heartbeat IPC: 1.42033 cumulative IPC: 1.48598 (Simulation time: 0 hr 1 min 48 sec) 
Heartbeat CPU 0 instructions: 80000000 cycles: 54199212 heartbeat IPC: 1.40998 cumulative IPC: 1.47604 (Simulation time: 0 hr 2 min 3 sec) 
Heartbeat CPU 0 instructions: 90000003 cycles: 61206818 heartbeat IPC: 1.42702 cumulative IPC: 1.47042 (Simulation time: 0 hr 2 min 17 sec) 
Heartbeat CPU 0 instructions: 100000000 cycles: 68377464 heartbeat IPC: 1.39457 cumulative IPC: 1.46247 (Simulation time: 0 hr 2 min 32 sec) 

Warmup complete CPU 0 instructions: 100000004 cycles: 68377465 (Simulation time: 0 hr 2 min 32 sec) 

Heartbeat CPU 0 instructions: 110000003 cycles: 96523897 heartbeat IPC: 0.355285 cumulative IPC: 0.355285 (Simulation time: 0 hr 3 min 1 sec) 
Heartbeat CPU 0 instructions: 120000000 cycles: 124155137 heartbeat IPC: 0.361909 cumulative IPC: 0.358566 (Simulation time: 0 hr 3 min 29 sec) 
Heartbeat CPU 0 instructions: 130000000 cycles: 149299671 heartbeat IPC: 0.397701 cumulative IPC: 0.370726 (Simulation time: 0 hr 3 min 58 sec) 
Heartbeat CPU 0 instructions: 140000000 cycles: 179919759 heartbeat IPC: 0.326583 cumulative IPC: 0.358608 (Simulation time: 0 hr 4 min 26 sec) 
Heartbeat CPU 0 instructions: 150000000 cycles: 210485062 heartbeat IPC: 0.327168 cumulative IPC: 0.351846 (Simulation time: 0 hr 4 min 55 sec) 
Heartbeat CPU 0 instructions: 160000000 cycles: 238113181 heartbeat IPC: 0.36195 cumulative IPC: 0.353491 (Simulation time: 0 hr 5 min 23 sec) 
Heartbeat CPU 0 instructions: 170000001 cycles: 266469367 heartbeat IPC: 0.352657 cumulative IPC: 0.353371 (Simulation time: 0 hr 5 min 52 sec) 
Heartbeat CPU 0 instructions: 180000000 cycles: 295288754 heartbeat IPC: 0.346989 cumulative IPC: 0.352561 (Simulation time: 0 hr 6 min 21 sec) 
Heartbeat CPU 0 instructions: 190000002 cycles: 323798145 heartbeat IPC: 0.350762 cumulative IPC: 0.35236 (Simulation time: 0 hr 6 min 50 sec) 
Heartbeat CPU 0 instructions: 200000000 cycles: 352589278 heartbeat IPC: 0.347329 cumulative IPC: 0.35185 (Simulation time: 0 hr 7 min 19 sec) 
Heartbeat CPU 0 instructions: 210000002 cycles: 380917373 heartbeat IPC: 0.353007 cumulative IPC: 0.351955 (Simulation time: 0 hr 7 min 48 sec) 
Heartbeat CPU 0 instructions: 220000000 cycles: 411331357 heartbeat IPC: 0.328796 cumulative IPC: 0.349901 (Simulation time: 0 hr 8 min 16 sec) 
Heartbeat CPU 0 instructions: 230000000 cycles: 439446269 heartbeat IPC: 0.355683 cumulative IPC: 0.350339 (Simulation time: 0 hr 8 min 44 sec) 
Heartbeat CPU 0 instructions: 240000000 cycles: 465698288 heartbeat IPC: 0.380923 cumulative IPC: 0.35236 (Simulation time: 0 hr 9 min 11 sec) 
Heartbeat CPU 0 instructions: 250000000 cycles: 496123053 heartbeat IPC: 0.32868 cumulative IPC: 0.350676 (Simulation time: 0 hr 9 min 41 sec) 
Heartbeat CPU 0 instructions: 260000000 cycles: 523378826 heartbeat IPC: 0.366895 cumulative IPC: 0.351647 (Simulation time: 0 hr 10 min 9 sec) 
Heartbeat CPU 0 instructions: 270000003 cycles: 552160545 heartbeat IPC: 0.347443 cumulative IPC: 0.351397 (Simulation time: 0 hr 10 min 39 sec) 
Heartbeat CPU 0 instructions: 280000000 cycles: 580813172 heartbeat IPC: 0.349008 cumulative IPC: 0.351264 (Simulation time: 0 hr 11 min 8 sec) 
Heartbeat CPU 0 instructions: 290000000 cycles: 610053813 heartbeat IPC: 0.34199 cumulative IPC: 0.350763 (Simulation time: 0 hr 11 min 38 sec) 
Heartbeat CPU 0 instructions: 300000000 cycles: 641299184 heartbeat IPC: 0.320047 cumulative IPC: 0.349088 (Simulation time: 0 hr 12 min 7 sec) 
Heartbeat CPU 0 instructions: 310000001 cycles: 671579318 heartbeat IPC: 0.33025 cumulative IPC: 0.348142 (Simulation time: 0 hr 12 min 35 sec) 
Heartbeat CPU 0 instructions: 320000000 cycles: 700848809 heartbeat IPC: 0.341653 cumulative IPC: 0.347842 (Simulation time: 0 hr 13 min 3 sec) 
Heartbeat CPU 0 instructions: 330000000 cycles: 730239209 heartbeat IPC: 0.340247 cumulative IPC: 0.347505 (Simulation time: 0 hr 13 min 32 sec) 
Heartbeat CPU 0 instructions: 340000000 cycles: 760382964 heartbeat IPC: 0.331744 cumulative IPC: 0.346818 (Simulation time: 0 hr 14 min 1 sec) 
Heartbeat CPU 0 instructions: 350000003 cycles: 787894021 heartbeat IPC: 0.36349 cumulative IPC: 0.347456 (Simulation time: 0 hr 14 min 29 sec) 
Heartbeat CPU 0 instructions: 360000000 cycles: 818465968 heartbeat IPC: 0.327097 cumulative IPC: 0.346626 (Simulation time: 0 hr 14 min 57 sec) 
Heartbeat CPU 0 instructions: 370000000 cycles: 848969372 heartbeat IPC: 0.327832 cumulative IPC: 0.345891 (Simulation time: 0 hr 15 min 25 sec) 
Heartbeat CPU 0 instructions: 380000000 cycles: 879798703 heartbeat IPC: 0.324366 cumulative IPC: 0.345074 (Simulation time: 0 hr 15 min 53 sec) 
Heartbeat CPU 0 instructions: 390000001 cycles: 909568952 heartbeat IPC: 0.335906 cumulative IPC: 0.344749 (Simulation time: 0 hr 16 min 21 sec) 
Heartbeat CPU 0 instructions: 400000000 cycles: 940363055 heartbeat IPC: 0.324737 cumulative IPC: 0.344042 (Simulation time: 0 hr 16 min 49 sec) 
Heartbeat CPU 0 instructions: 410000001 cycles: 969713444 heartbeat IPC: 0.340711 cumulative IPC: 0.343934 (Simulation time: 0 hr 17 min 17 sec) 
Heartbeat CPU 0 instructions: 420000000 cycles: 999049486 heartbeat IPC: 0.340878 cumulative IPC: 0.343838 (Simulation time: 0 hr 17 min 44 sec) 
Heartbeat CPU 0 instructions: 430000002 cycles: 1028823942 heartbeat IPC: 0.335858 cumulative IPC: 0.34359 (Simulation time: 0 hr 18 min 12 sec) 
Heartbeat CPU 0 instructions: 440000000 cycles: 1060132089 heartbeat IPC: 0.319406 cumulative IPC: 0.342827 (Simulation time: 0 hr 18 min 40 sec) 
Heartbeat CPU 0 instructions: 450000002 cycles: 1091162710 heartbeat IPC: 0.322262 cumulative IPC: 0.342203 (Simulation time: 0 hr 19 min 8 sec) 
Heartbeat CPU 0 instructions: 460000000 cycles: 1120806844 heartbeat IPC: 0.337335 cumulative IPC: 0.342066 (Simulation time: 0 hr 19 min 36 sec) 
Heartbeat CPU 0 instructions: 470000000 cycles: 1150108524 heartbeat IPC: 0.341277 cumulative IPC: 0.342044 (Simulation time: 0 hr 20 min 4 sec) 
Heartbeat CPU 0 instructions: 480000000 cycles: 1179635253 heartbeat IPC: 0.338676 cumulative IPC: 0.341955 (Simulation time: 0 hr 20 min 32 sec) 
Heartbeat CPU 0 instructions: 490000000 cycles: 1208851674 heartbeat IPC: 0.342273 cumulative IPC: 0.341963 (Simulation time: 0 hr 20 min 59 sec) 
Heartbeat CPU 0 instructions: 500000000 cycles: 1238662278 heartbeat IPC: 0.335451 cumulative IPC: 0.341797 (Simulation time: 0 hr 21 min 27 sec) 
Heartbeat CPU 0 instructions: 510000000 cycles: 1273511016 heartbeat IPC: 0.286954 cumulative IPC: 0.340211 (Simulation time: 0 hr 21 min 58 sec) 
Heartbeat CPU 0 instructions: 520000000 cycles: 1301682227 heartbeat IPC: 0.354972 cumulative IPC: 0.340548 (Simulation time: 0 hr 22 min 26 sec) 
Heartbeat CPU 0 instructions: 530000001 cycles: 1332200283 heartbeat IPC: 0.327675 cumulative IPC: 0.340238 (Simulation time: 0 hr 22 min 55 sec) 
Heartbeat CPU 0 instructions: 540000000 cycles: 1361041813 heartbeat IPC: 0.346722 cumulative IPC: 0.340382 (Simulation time: 0 hr 23 min 23 sec) 
Heartbeat CPU 0 instructions: 550000001 cycles: 1390563639 heartbeat IPC: 0.338732 cumulative IPC: 0.340345 (Simulation time: 0 hr 23 min 53 sec) 
Heartbeat CPU 0 instructions: 560000000 cycles: 1416214966 heartbeat IPC: 0.389843 cumulative IPC: 0.341287 (Simulation time: 0 hr 24 min 20 sec) 
Heartbeat CPU 0 instructions: 570000000 cycles: 1446686304 heartbeat IPC: 0.328177 cumulative IPC: 0.340998 (Simulation time: 0 hr 24 min 49 sec) 
Heartbeat CPU 0 instructions: 580000000 cycles: 1475328472 heartbeat IPC: 0.349136 cumulative IPC: 0.341163 (Simulation time: 0 hr 25 min 18 sec) 
Heartbeat CPU 0 instructions: 590000001 cycles: 1500393504 heartbeat IPC: 0.398962 cumulative IPC: 0.342175 (Simulation time: 0 hr 25 min 45 sec) 
Heartbeat CPU 0 instructions: 600000000 cycles: 1527050834 heartbeat IPC: 0.375131 cumulative IPC: 0.342777 (Simulation time: 0 hr 26 min 12 sec) 
Finished CPU 0 instructions: 500000000 cycles: 1458673391 cumulative IPC: 0.342777 (Simulation time: 0 hr 26 min 12 sec) 

CPU 0 Branch Prediction Accuracy: 86.4311% MPKI: 26.2662
Number of Branches: 96788573 Number of Mispredictions: 13133102
Number of LOAD Instructions: 164682285
Number of LOAD Instructions (ROI): 164682285
Number of STORE Instructions: 78194750
Number of STORE Instructions (ROI): 78194750
Total Destination Memory Operands: 83268534
Total Destination Memory Operands (ROI): 83268534
Total Source Memory Operands: 164712438
Total Source Memory Operands (ROI): 164712438
Number of DEPENDED LOADS: 7052752
Number of DEPENDED LOADS (ROI): 7052752
Number of SQ_ADDED: 83268522
Number of SQ_ADDED (ROI): 83268522
Number of LQ_ADDED: 236676386
Number of LQ_ADDED (ROI): 236676386
Number of Instructions read from trace: 600000066

ChampSim completed all CPUs

Region of Interest Statistics

CPU 0 cumulative IPC: 0.342777 instructions: 500000000 cycles: 1458673391
ITLB TOTAL     ACCESS:  100532748  HIT:  100328302  MISS:     204446
ITLB LOAD      ACCESS:  100532748  HIT:  100328302  MISS:     204446
ITLB RFO       ACCESS:          0  HIT:          0  MISS:          0
ITLB PREFETCH  ACCESS:          0  HIT:          0  MISS:          0
ITLB WRITEBACK ACCESS:          0  HIT:          0  MISS:          0
ITLB PREFETCH  REQUESTED:          0  ISSUED:          0  USEFUL:          0  USELESS:          0
ITLB TOTAL MSHR MERGED:     172423
ITLB LOAD MSHR MERGED:     172423
ITLB RFO MSHR MERGED:          0
ITLB PREFETCH MSHR MERGED:          0
ITLB WRITEBACK MSHR MERGED:          0
ITLB TOTAL ACCESSES:  100705171 HITS:  100328302 MISSES:     376869
ITLB LOAD ACCESSES:  100705171 HITS:  100328302 MISSES:     376869
ITLB RFO ACCESSES:          0 HITS:          0 MISSES:          0
ITLB PREFETCH ACCESSES:          0 HITS:          0 MISSES:          0
ITLB WRITEBACK ACCESSES:          0 HITS:          0 MISSES:          0
ITLB RQ ACCESS:  500000057
ITLB RQ TO_CACHE:  100705171
ITLB RQ MERGED:  399294886
ITLB RQ FORWARD:          0
ITLB WQ ACCESS:          0
ITLB WQ TO_CACHE:          0
ITLB WQ MERGED:          0
ITLB WQ FORWARD:          0
DTLB TOTAL     ACCESS:  165355480  HIT:  164721127  MISS:     634353
DTLB LOAD      ACCESS:  106305408  HIT:  105735433  MISS:     569975
DTLB RFO       ACCESS:   59050072  HIT:   58985694  MISS:      64378
DTLB PREFETCH  ACCESS:          0  HIT:          0  MISS:          0
DTLB WRITEBACK ACCESS:          0  HIT:          0  MISS:          0
DTLB PREFETCH  REQUESTED:          0  ISSUED:          0  USEFUL:          0  USELESS:          0
DTLB TOTAL MSHR MERGED:      99510
DTLB LOAD MSHR MERGED:      59158
DTLB RFO MSHR MERGED:      40352
DTLB PREFETCH MSHR MERGED:          0
DTLB WRITEBACK MSHR MERGED:          0
DTLB TOTAL ACCESSES:  165454990 HITS:  164721127 MISSES:     733863
DTLB LOAD ACCESSES:  106364566 HITS:  105735433 MISSES:     629133
DTLB RFO ACCESSES:   59090424 HITS:   58985694 MISSES:     104730
DTLB PREFETCH ACCESSES:          0 HITS:          0 MISSES:          0
DTLB WRITEBACK ACCESSES:          0 HITS:          0 MISSES:          0
DTLB RQ ACCESS:  200318177
DTLB RQ TO_CACHE:  165454990
DTLB RQ MERGED:   34863187
DTLB RQ FORWARD:          0
DTLB WQ ACCESS:          0
DTLB WQ TO_CACHE:          0
DTLB WQ MERGED:          0
DTLB WQ FORWARD:          0
L1D TOTAL     ACCESS:  281903138  HIT:  273993632  MISS:    7909506
L1D LOAD      ACCESS:  110441979  HIT:  107165032  MISS:    3276947
L1D RFO       ACCESS:   67137072  HIT:   66247297  MISS:     889775
L1D PREFETCH  ACCESS:  104324087  HIT:  100581303  MISS:    3742784
L1D WRITEBACK ACCESS:          0  HIT:          0  MISS:          0
L1D PREFETCH  REQUESTED:  110834361  ISSUED:  109134852  USEFUL:    1663298  USELESS:    2079450
L1D TOTAL MSHR MERGED:    2840081
L1D LOAD MSHR MERGED:     489162
L1D RFO MSHR MERGED:    1847807
L1D PREFETCH MSHR MERGED:     503112
L1D WRITEBACK MSHR MERGED:          0
L1D TOTAL ACCESSES:  284770549 HITS:  274020962 MISSES:   10749587
L1D LOAD ACCESSES:  110835788 HITS:  107166459 MISSES:    3669329
L1D RFO ACCESSES:   68973857 HITS:   66247297 MISSES:    2726560
L1D PREFETCH ACCESSES:  104960904 HITS:  100607206 MISSES:    4353698
L1D WRITEBACK ACCESSES:          0 HITS:          0 MISSES:          0
L1D RQ ACCESS:  130765574
L1D RQ TO_CACHE:  110834364
L1D RQ MERGED:   19929783
L1D RQ FORWARD:          0
L1D WQ ACCESS:   69552603
L1D WQ TO_CACHE:   68973858
L1D WQ MERGED:     578745
L1D WQ FORWARD:      27330
L1I TOTAL     ACCESS:  126578398  HIT:  122339867  MISS:    4238531
L1I LOAD      ACCESS:  126578398  HIT:  122339867  MISS:    4238531
L1I RFO       ACCESS:          0  HIT:          0  MISS:          0
L1I PREFETCH  ACCESS:          0  HIT:          0  MISS:          0
L1I WRITEBACK ACCESS:          0  HIT:          0  MISS:          0
L1I PREFETCH  REQUESTED:          0  ISSUED:          0  USEFUL:          0  USELESS:          0
L1I TOTAL MSHR MERGED:    1836472
L1I LOAD MSHR MERGED:    1836472
L1I RFO MSHR MERGED:          0
L1I PREFETCH MSHR MERGED:          0
L1I WRITEBACK MSHR MERGED:          0
L1I TOTAL ACCESSES:  128414873 HITS:  122339867 MISSES:    6075006
L1I LOAD ACCESSES:  128414873 HITS:  122339867 MISSES:    6075006
L1I RFO ACCESSES:          0 HITS:          0 MISSES:          0
L1I PREFETCH ACCESSES:          0 HITS:          0 MISSES:          0
L1I WRITEBACK ACCESSES:          0 HITS:          0 MISSES:          0
L1I RQ ACCESS:  500000057
L1I RQ TO_CACHE:  128414873
L1I RQ MERGED:  371585184
L1I RQ FORWARD:          0
L1I WQ ACCESS:          0
L1I WQ TO_CACHE:          0
L1I WQ MERGED:          0
L1I WQ FORWARD:          0
L2C TOTAL     ACCESS:   14905886  HIT:   11159367  MISS:    3746519
L2C LOAD      ACCESS:    7418491  HIT:    5098854  MISS:    2319637
L2C RFO       ACCESS:     878656  HIT:     409948  MISS:     468708
L2C PREFETCH  ACCESS:    4569479  HIT:    3628565  MISS:     940914
L2C WRITEBACK ACCESS:    2039260  HIT:    2022000  MISS:      17260
L2C PREFETCH  REQUESTED:     842830  ISSUED:     842830  USEFUL:     203636  USELESS:     736984
L2C TOTAL MSHR MERGED:       6604
L2C LOAD MSHR MERGED:        651
L2C RFO MSHR MERGED:          0
L2C PREFETCH MSHR MERGED:       5953
L2C WRITEBACK MSHR MERGED:          0
L2C TOTAL ACCESSES:   14913364 HITS:   11159814 MISSES:    3753550
L2C LOAD ACCESSES:    7418698 HITS:    5099061 MISSES:    2319637
L2C RFO ACCESSES:     878753 HITS:     410045 MISSES:     468708
L2C PREFETCH ACCESSES:    4576653 HITS:    3628708 MISSES:     947945
L2C WRITEBACK ACCESSES:    2039260 HITS:    2022000 MISSES:      17260
L2C RQ ACCESS:    8297454
L2C RQ TO_CACHE:    8297150
L2C RQ MERGED:          0
L2C RQ FORWARD:          0
L2C WQ ACCESS:    2039260
L2C WQ TO_CACHE:    2039260
L2C WQ MERGED:          0
L2C WQ FORWARD:        447
LLC TOTAL     ACCESS:    4609846  HIT:    3488645  MISS:    1121201
LLC LOAD      ACCESS:    2318973  HIT:    1583240  MISS:     735733
LLC RFO       ACCESS:     468701  HIT:     427432  MISS:      41269
LLC PREFETCH  ACCESS:     941883  HIT:     637905  MISS:     303978
LLC WRITEBACK ACCESS:     880289  HIT:     840068  MISS:      40221
LLC PREFETCH  REQUESTED:          0  ISSUED:          0  USEFUL:      31638  USELESS:     271703
LLC TOTAL MSHR MERGED:         83
LLC LOAD MSHR MERGED:         30
LLC RFO MSHR MERGED:          0
LLC PREFETCH MSHR MERGED:         53
LLC WRITEBACK MSHR MERGED:          0
LLC TOTAL ACCESSES:    4609962 HITS:    3488678 MISSES:    1121284
LLC LOAD ACCESSES:    2318986 HITS:    1583253 MISSES:     735733
LLC RFO ACCESSES:     468708 HITS:     427439 MISSES:      41269
LLC PREFETCH ACCESSES:     941979 HITS:     637918 MISSES:     304061
LLC WRITEBACK ACCESSES:     880289 HITS:     840068 MISSES:      40221
LLC 0 RQ ACCESS:    2787694
LLC 0 RQ TO_CACHE:    2787674
LLC 0 RQ MERGED:          0
LLC 0 RQ FORWARD:          0
LLC WQ ACCESS:     880289
LLC WQ TO_CACHE:     880289
LLC WQ MERGED:          0
LLC WQ FORWARD:         33
Major fault: 0 Minor fault: 12862
CPU 0 L1D next line prefetcher final stats
CPU 0 L2C PC-based stride prefetcher final stats
All Misses: 1259811
All Hits: 4167040
SD Algo Stats - Switches: 5 SRR-Repls: 456309 BRR-Repls: 333821

DRAM Statistics
 CHANNEL 0
 RQ ROW_BUFFER_HIT:     310905  ROW_BUFFER_MISS:     768448
 DBUS_CONGESTED:     395213
 WQ ROW_BUFFER_HIT:       7103  ROW_BUFFER_MISS:     143191  FULL:          0

 AVG_CONGESTED_CYCLE: 13
LOADS RETIRED: 136549171
INSTR RETIRED: 500000000
