
*** ChampSim Multicore Out-of-Order Simulator ***

Warmup Instructions: 100000000
Simulation Instructions: 500000000
Number of CPUs: 1
LLC sets: 2048
LLC ways: 16
Clean RRIP Policies: 1213130112131301 Dirty RRIP Policies: 1213130112131301 PSEL Width: 10 Track Set: 4294967295 PSEL Mask: 1 Demote Mask: 1040201010402010DS Algo: 0Window size: 0
Off-chip DRAM Size: 4096 MB Channels: 1 Width: 64-bit Data Rate: 1600 MT/s

CPU 0 runs /mnt/beegfs/iconst01/spec2017/Roms.trace.gz
NOT SORTED
TRACE STRING: /mnt/beegfs/iconst01/spec2017/Roms.trace.gz
SORTED
TRACE STRING: /mnt/beegfs/iconst01/spec2017/Roms.trace.gz
INITIAL
TRACE STRING: /mnt/beegfs/iconst01/spec2017/Roms.trace.gz

champsim_seed used: 417

CPU 0 L1D next line prefetcher
CPU 0 L2C IP-based stride prefetcher
Initialize DRRIP state
Assign rand_sets[0]: 454  LLC: 2048
rand_sets[0]: 454
Assign rand_sets[1]: 1662  LLC: 2048
rand_sets[1]: 1662
Assign rand_sets[2]: 1921  LLC: 2048
rand_sets[2]: 1921
Assign rand_sets[3]: 1131  LLC: 2048
rand_sets[3]: 1131
Assign rand_sets[4]: 331  LLC: 2048
rand_sets[4]: 331
Assign rand_sets[5]: 1531  LLC: 2048
rand_sets[5]: 1531
Assign rand_sets[6]: 482  LLC: 2048
rand_sets[6]: 482
Assign rand_sets[7]: 1275  LLC: 2048
rand_sets[7]: 1275
Assign rand_sets[8]: 1876  LLC: 2048
rand_sets[8]: 1876
Assign rand_sets[9]: 2038  LLC: 2048
rand_sets[9]: 2038
Assign rand_sets[10]: 701  LLC: 2048
rand_sets[10]: 701
Assign rand_sets[11]: 479  LLC: 2048
rand_sets[11]: 479
Assign rand_sets[12]: 892  LLC: 2048
rand_sets[12]: 892
Assign rand_sets[13]: 1820  LLC: 2048
rand_sets[13]: 1820
Assign rand_sets[14]: 1505  LLC: 2048
rand_sets[14]: 1505
Assign rand_sets[15]: 1159  LLC: 2048
rand_sets[15]: 1159
Assign rand_sets[16]: 513  LLC: 2048
rand_sets[16]: 513
Assign rand_sets[17]: 703  LLC: 2048
rand_sets[17]: 703
Assign rand_sets[18]: 561  LLC: 2048
rand_sets[18]: 561
Assign rand_sets[19]: 990  LLC: 2048
rand_sets[19]: 990
Assign rand_sets[20]: 342  LLC: 2048
rand_sets[20]: 342
Assign rand_sets[21]: 882  LLC: 2048
rand_sets[21]: 882
Assign rand_sets[22]: 15  LLC: 2048
rand_sets[22]: 15
Assign rand_sets[23]: 71  LLC: 2048
rand_sets[23]: 71
Assign rand_sets[24]: 1127  LLC: 2048
rand_sets[24]: 1127
Assign rand_sets[25]: 1382  LLC: 2048
rand_sets[25]: 1382
Assign rand_sets[26]: 647  LLC: 2048
rand_sets[26]: 647
Assign rand_sets[27]: 857  LLC: 2048
rand_sets[27]: 857
Assign rand_sets[28]: 1450  LLC: 2048
rand_sets[28]: 1450
Assign rand_sets[29]: 1160  LLC: 2048
rand_sets[29]: 1160
Assign rand_sets[30]: 1852  LLC: 2048
rand_sets[30]: 1852
Assign rand_sets[31]: 1881  LLC: 2048
rand_sets[31]: 1881
Assign rand_sets[32]: 1770  LLC: 2048
rand_sets[32]: 1770
Assign rand_sets[33]: 1622  LLC: 2048
rand_sets[33]: 1622
Assign rand_sets[34]: 275  LLC: 2048
rand_sets[34]: 275
Assign rand_sets[35]: 635  LLC: 2048
rand_sets[35]: 635
Assign rand_sets[36]: 466  LLC: 2048
rand_sets[36]: 466
Assign rand_sets[37]: 1413  LLC: 2048
rand_sets[37]: 1413
Assign rand_sets[38]: 417  LLC: 2048
rand_sets[38]: 417
Assign rand_sets[39]: 472  LLC: 2048
rand_sets[39]: 472
Assign rand_sets[40]: 1340  LLC: 2048
rand_sets[40]: 1340
Assign rand_sets[41]: 852  LLC: 2048
rand_sets[41]: 852
Assign rand_sets[42]: 1365  LLC: 2048
rand_sets[42]: 1365
Assign rand_sets[43]: 47  LLC: 2048
rand_sets[43]: 47
Assign rand_sets[44]: 823  LLC: 2048
rand_sets[44]: 823
Assign rand_sets[45]: 686  LLC: 2048
rand_sets[45]: 686
Assign rand_sets[46]: 1637  LLC: 2048
rand_sets[46]: 1637
Assign rand_sets[47]: 1115  LLC: 2048
rand_sets[47]: 1115
Assign rand_sets[48]: 986  LLC: 2048
rand_sets[48]: 986
Assign rand_sets[49]: 258  LLC: 2048
rand_sets[49]: 258
Assign rand_sets[50]: 633  LLC: 2048
rand_sets[50]: 633
Assign rand_sets[51]: 920  LLC: 2048
rand_sets[51]: 920
Assign rand_sets[52]: 204  LLC: 2048
rand_sets[52]: 204
Assign rand_sets[53]: 227  LLC: 2048
rand_sets[53]: 227
Assign rand_sets[54]: 1818  LLC: 2048
rand_sets[54]: 1818
Assign rand_sets[55]: 886  LLC: 2048
rand_sets[55]: 886
Assign rand_sets[56]: 1422  LLC: 2048
rand_sets[56]: 1422
Assign rand_sets[57]: 607  LLC: 2048
rand_sets[57]: 607
Assign rand_sets[58]: 217  LLC: 2048
rand_sets[58]: 217
Assign rand_sets[59]: 1945  LLC: 2048
rand_sets[59]: 1945
Assign rand_sets[60]: 143  LLC: 2048
rand_sets[60]: 143
Assign rand_sets[61]: 1311  LLC: 2048
rand_sets[61]: 1311
Assign rand_sets[62]: 319  LLC: 2048
rand_sets[62]: 319
Assign rand_sets[63]: 1846  LLC: 2048
rand_sets[63]: 1846
 CLEAN-RRIP-POLICY-1: 1-2-1-3-1-3-0-1- CLEAN-RRIP-POLICY-2: 1-2-1-3-1-3-0-1-
 DIRTY-RRIP-POLICY-1: 1-2-1-3-1-3-0-1- DIRTY-RRIP-POLICY-2: 1-2-1-3-1-3-0-1-
 PSEL width: 10
Heartbeat CPU 0 instructions: 10000000 cycles: 4688066 heartbeat IPC: 2.13308 cumulative IPC: 2.13308 (Simulation time: 0 hr 0 min 17 sec) 
Heartbeat CPU 0 instructions: 20000000 cycles: 9325334 heartbeat IPC: 2.15644 cumulative IPC: 2.1447 (Simulation time: 0 hr 0 min 33 sec) 
Heartbeat CPU 0 instructions: 30000003 cycles: 14019723 heartbeat IPC: 2.1302 cumulative IPC: 2.13984 (Simulation time: 0 hr 0 min 50 sec) 
Heartbeat CPU 0 instructions: 40000000 cycles: 18670141 heartbeat IPC: 2.15034 cumulative IPC: 2.14246 (Simulation time: 0 hr 1 min 6 sec) 
Heartbeat CPU 0 instructions: 50000003 cycles: 23323501 heartbeat IPC: 2.14899 cumulative IPC: 2.14376 (Simulation time: 0 hr 1 min 23 sec) 
Heartbeat CPU 0 instructions: 60000000 cycles: 27976131 heartbeat IPC: 2.14932 cumulative IPC: 2.14469 (Simulation time: 0 hr 1 min 39 sec) 
Heartbeat CPU 0 instructions: 70000002 cycles: 32367273 heartbeat IPC: 2.27731 cumulative IPC: 2.16268 (Simulation time: 0 hr 1 min 54 sec) 
Heartbeat CPU 0 instructions: 80000000 cycles: 36304056 heartbeat IPC: 2.54014 cumulative IPC: 2.20361 (Simulation time: 0 hr 2 min 5 sec) 
Heartbeat CPU 0 instructions: 90000000 cycles: 40249292 heartbeat IPC: 2.5347 cumulative IPC: 2.23606 (Simulation time: 0 hr 2 min 17 sec) 
Heartbeat CPU 0 instructions: 100000000 cycles: 44211559 heartbeat IPC: 2.52381 cumulative IPC: 2.26185 (Simulation time: 0 hr 2 min 28 sec) 

Warmup complete CPU 0 instructions: 100000002 cycles: 44211560 (Simulation time: 0 hr 2 min 28 sec) 

Heartbeat CPU 0 instructions: 110000000 cycles: 52788818 heartbeat IPC: 1.16587 cumulative IPC: 1.16587 (Simulation time: 0 hr 2 min 46 sec) 
Heartbeat CPU 0 instructions: 120000000 cycles: 61428951 heartbeat IPC: 1.15739 cumulative IPC: 1.16162 (Simulation time: 0 hr 3 min 4 sec) 
Heartbeat CPU 0 instructions: 130000002 cycles: 70100073 heartbeat IPC: 1.15325 cumulative IPC: 1.15882 (Simulation time: 0 hr 3 min 23 sec) 
Heartbeat CPU 0 instructions: 140000000 cycles: 78644614 heartbeat IPC: 1.17034 cumulative IPC: 1.16167 (Simulation time: 0 hr 3 min 41 sec) 
Heartbeat CPU 0 instructions: 150000003 cycles: 87351782 heartbeat IPC: 1.14848 cumulative IPC: 1.15901 (Simulation time: 0 hr 3 min 59 sec) 
Heartbeat CPU 0 instructions: 160000000 cycles: 97597731 heartbeat IPC: 0.975995 cumulative IPC: 1.12389 (Simulation time: 0 hr 4 min 19 sec) 
Heartbeat CPU 0 instructions: 170000000 cycles: 110052936 heartbeat IPC: 0.802877 cumulative IPC: 1.06316 (Simulation time: 0 hr 4 min 41 sec) 
Heartbeat CPU 0 instructions: 180000000 cycles: 122523799 heartbeat IPC: 0.801869 cumulative IPC: 1.02155 (Simulation time: 0 hr 5 min 4 sec) 
Heartbeat CPU 0 instructions: 190000000 cycles: 135258427 heartbeat IPC: 0.78526 cumulative IPC: 0.988502 (Simulation time: 0 hr 5 min 27 sec) 
Heartbeat CPU 0 instructions: 200000000 cycles: 149177066 heartbeat IPC: 0.718461 cumulative IPC: 0.952694 (Simulation time: 0 hr 5 min 50 sec) 
Heartbeat CPU 0 instructions: 210000001 cycles: 163059792 heartbeat IPC: 0.72032 cumulative IPC: 0.92555 (Simulation time: 0 hr 6 min 12 sec) 
Heartbeat CPU 0 instructions: 220000000 cycles: 176778362 heartbeat IPC: 0.728939 cumulative IPC: 0.905204 (Simulation time: 0 hr 6 min 35 sec) 
Heartbeat CPU 0 instructions: 230000000 cycles: 190259875 heartbeat IPC: 0.741756 cumulative IPC: 0.890116 (Simulation time: 0 hr 6 min 59 sec) 
Heartbeat CPU 0 instructions: 240000000 cycles: 203865875 heartbeat IPC: 0.73497 cumulative IPC: 0.876895 (Simulation time: 0 hr 7 min 23 sec) 
Heartbeat CPU 0 instructions: 250000003 cycles: 214941734 heartbeat IPC: 0.902865 cumulative IPC: 0.878579 (Simulation time: 0 hr 7 min 45 sec) 
Heartbeat CPU 0 instructions: 260000000 cycles: 222784106 heartbeat IPC: 1.27512 cumulative IPC: 0.895994 (Simulation time: 0 hr 8 min 3 sec) 
Heartbeat CPU 0 instructions: 270000003 cycles: 231110647 heartbeat IPC: 1.20098 cumulative IPC: 0.909582 (Simulation time: 0 hr 8 min 23 sec) 
Heartbeat CPU 0 instructions: 280000000 cycles: 239538267 heartbeat IPC: 1.18657 cumulative IPC: 0.921533 (Simulation time: 0 hr 8 min 42 sec) 
Heartbeat CPU 0 instructions: 290000000 cycles: 248133869 heartbeat IPC: 1.16339 cumulative IPC: 0.931727 (Simulation time: 0 hr 9 min 2 sec) 
Heartbeat CPU 0 instructions: 300000000 cycles: 256742324 heartbeat IPC: 1.16165 cumulative IPC: 0.94104 (Simulation time: 0 hr 9 min 22 sec) 
Heartbeat CPU 0 instructions: 310000000 cycles: 265426366 heartbeat IPC: 1.15154 cumulative IPC: 0.949304 (Simulation time: 0 hr 9 min 43 sec) 
Heartbeat CPU 0 instructions: 320000000 cycles: 274161649 heartbeat IPC: 1.14478 cumulative IPC: 0.956729 (Simulation time: 0 hr 10 min 3 sec) 
Heartbeat CPU 0 instructions: 330000002 cycles: 282853352 heartbeat IPC: 1.15052 cumulative IPC: 0.963788 (Simulation time: 0 hr 10 min 24 sec) 
Heartbeat CPU 0 instructions: 340000000 cycles: 292819477 heartbeat IPC: 1.0034 cumulative IPC: 0.965376 (Simulation time: 0 hr 10 min 46 sec) 
Heartbeat CPU 0 instructions: 350000001 cycles: 301241676 heartbeat IPC: 1.18734 cumulative IPC: 0.972649 (Simulation time: 0 hr 11 min 6 sec) 
Heartbeat CPU 0 instructions: 360000000 cycles: 309693800 heartbeat IPC: 1.18313 cumulative IPC: 0.97935 (Simulation time: 0 hr 11 min 26 sec) 
Heartbeat CPU 0 instructions: 370000001 cycles: 318155851 heartbeat IPC: 1.18175 cumulative IPC: 0.985602 (Simulation time: 0 hr 11 min 46 sec) 
Heartbeat CPU 0 instructions: 380000000 cycles: 326572341 heartbeat IPC: 1.18814 cumulative IPC: 0.991639 (Simulation time: 0 hr 12 min 6 sec) 
Heartbeat CPU 0 instructions: 390000001 cycles: 334824747 heartbeat IPC: 1.21177 cumulative IPC: 0.99789 (Simulation time: 0 hr 12 min 25 sec) 
Heartbeat CPU 0 instructions: 400000000 cycles: 343162972 heartbeat IPC: 1.1993 cumulative IPC: 1.00351 (Simulation time: 0 hr 12 min 45 sec) 
Heartbeat CPU 0 instructions: 410000003 cycles: 351422797 heartbeat IPC: 1.21068 cumulative IPC: 1.00908 (Simulation time: 0 hr 13 min 5 sec) 
Heartbeat CPU 0 instructions: 420000000 cycles: 359759887 heartbeat IPC: 1.19946 cumulative IPC: 1.01411 (Simulation time: 0 hr 13 min 24 sec) 
Heartbeat CPU 0 instructions: 430000001 cycles: 368024150 heartbeat IPC: 1.21003 cumulative IPC: 1.01911 (Simulation time: 0 hr 13 min 44 sec) 
Heartbeat CPU 0 instructions: 440000000 cycles: 376237061 heartbeat IPC: 1.21759 cumulative IPC: 1.02402 (Simulation time: 0 hr 14 min 4 sec) 
Heartbeat CPU 0 instructions: 450000001 cycles: 385723043 heartbeat IPC: 1.05419 cumulative IPC: 1.02486 (Simulation time: 0 hr 14 min 25 sec) 
Heartbeat CPU 0 instructions: 460000000 cycles: 393995188 heartbeat IPC: 1.20888 cumulative IPC: 1.02921 (Simulation time: 0 hr 14 min 45 sec) 
Heartbeat CPU 0 instructions: 470000003 cycles: 402135712 heartbeat IPC: 1.22842 cumulative IPC: 1.03374 (Simulation time: 0 hr 15 min 4 sec) 
Heartbeat CPU 0 instructions: 480000000 cycles: 410309900 heartbeat IPC: 1.22336 cumulative IPC: 1.03797 (Simulation time: 0 hr 15 min 24 sec) 
Heartbeat CPU 0 instructions: 490000000 cycles: 418449675 heartbeat IPC: 1.22854 cumulative IPC: 1.04212 (Simulation time: 0 hr 15 min 43 sec) 
Heartbeat CPU 0 instructions: 500000000 cycles: 426604560 heartbeat IPC: 1.22626 cumulative IPC: 1.04604 (Simulation time: 0 hr 16 min 3 sec) 
Heartbeat CPU 0 instructions: 510000001 cycles: 434714056 heartbeat IPC: 1.23312 cumulative IPC: 1.04993 (Simulation time: 0 hr 16 min 22 sec) 
Heartbeat CPU 0 instructions: 520000000 cycles: 442857504 heartbeat IPC: 1.22798 cumulative IPC: 1.05357 (Simulation time: 0 hr 16 min 42 sec) 
Heartbeat CPU 0 instructions: 530000001 cycles: 451015212 heartbeat IPC: 1.22583 cumulative IPC: 1.05702 (Simulation time: 0 hr 17 min 1 sec) 
Heartbeat CPU 0 instructions: 540000000 cycles: 459344401 heartbeat IPC: 1.2006 cumulative IPC: 1.0599 (Simulation time: 0 hr 17 min 21 sec) 
Heartbeat CPU 0 instructions: 550000000 cycles: 467726858 heartbeat IPC: 1.19297 cumulative IPC: 1.06254 (Simulation time: 0 hr 17 min 41 sec) 
Heartbeat CPU 0 instructions: 560000000 cycles: 475862384 heartbeat IPC: 1.22918 cumulative IPC: 1.06568 (Simulation time: 0 hr 18 min 0 sec) 
Heartbeat CPU 0 instructions: 570000001 cycles: 487085740 heartbeat IPC: 0.890999 cumulative IPC: 1.06125 (Simulation time: 0 hr 18 min 22 sec) 
Heartbeat CPU 0 instructions: 580000000 cycles: 498207387 heartbeat IPC: 0.899147 cumulative IPC: 1.05728 (Simulation time: 0 hr 18 min 43 sec) 
Heartbeat CPU 0 instructions: 590000001 cycles: 509468423 heartbeat IPC: 0.888018 cumulative IPC: 1.05318 (Simulation time: 0 hr 19 min 4 sec) 
Heartbeat CPU 0 instructions: 600000000 cycles: 520530945 heartbeat IPC: 0.903953 cumulative IPC: 1.04972 (Simulation time: 0 hr 19 min 26 sec) 
Finished CPU 0 instructions: 500000001 cycles: 476319398 cumulative IPC: 1.04972 (Simulation time: 0 hr 19 min 26 sec) 

CPU 0 Branch Prediction Accuracy: 99.7422% MPKI: 0.173296
Number of Branches: 33608403 Number of Mispredictions: 86648
Number of LOAD Instructions: 180215231
Number of LOAD Instructions (ROI): 180215231
Number of STORE Instructions: 36067263
Number of STORE Instructions (ROI): 36067263
Total Destination Memory Operands: 38428915
Total Destination Memory Operands (ROI): 38428915
Total Source Memory Operands: 180215231
Total Source Memory Operands (ROI): 180215231
Number of DEPENDED LOADS: 3041394
Number of DEPENDED LOADS (ROI): 3041394
Number of SQ_ADDED: 38428892
Number of SQ_ADDED (ROI): 38428892
Number of LQ_ADDED: 207590102
Number of LQ_ADDED (ROI): 207590102
Number of Instructions read from trace: 600000257

ChampSim completed all CPUs

Region of Interest Statistics

CPU 0 cumulative IPC: 1.04972 instructions: 500000001 cycles: 476319398
ITLB TOTAL     ACCESS:   91801419  HIT:   91801400  MISS:         19
ITLB LOAD      ACCESS:   91801419  HIT:   91801400  MISS:         19
ITLB RFO       ACCESS:          0  HIT:          0  MISS:          0
ITLB PREFETCH  ACCESS:          0  HIT:          0  MISS:          0
ITLB WRITEBACK ACCESS:          0  HIT:          0  MISS:          0
ITLB PREFETCH  REQUESTED:          0  ISSUED:          0  USEFUL:          0  USELESS:          0
ITLB TOTAL MSHR MERGED:         40
ITLB LOAD MSHR MERGED:         40
ITLB RFO MSHR MERGED:          0
ITLB PREFETCH MSHR MERGED:          0
ITLB WRITEBACK MSHR MERGED:          0
ITLB TOTAL ACCESSES:   91801459 HITS:   91801400 MISSES:         59
ITLB LOAD ACCESSES:   91801459 HITS:   91801400 MISSES:         59
ITLB RFO ACCESSES:          0 HITS:          0 MISSES:          0
ITLB PREFETCH ACCESSES:          0 HITS:          0 MISSES:          0
ITLB WRITEBACK ACCESSES:          0 HITS:          0 MISSES:          0
ITLB RQ ACCESS:  500000003
ITLB RQ TO_CACHE:   91801459
ITLB RQ MERGED:  408198544
ITLB RQ FORWARD:          0
ITLB WQ ACCESS:          0
ITLB WQ TO_CACHE:          0
ITLB WQ MERGED:          0
ITLB WQ FORWARD:          0
DTLB TOTAL     ACCESS:  142044815  HIT:  141678353  MISS:     366462
DTLB LOAD      ACCESS:  119409093  HIT:  119095507  MISS:     313586
DTLB RFO       ACCESS:   22635722  HIT:   22582846  MISS:      52876
DTLB PREFETCH  ACCESS:          0  HIT:          0  MISS:          0
DTLB WRITEBACK ACCESS:          0  HIT:          0  MISS:          0
DTLB PREFETCH  REQUESTED:          0  ISSUED:          0  USEFUL:          0  USELESS:          0
DTLB TOTAL MSHR MERGED:     288937
DTLB LOAD MSHR MERGED:     241157
DTLB RFO MSHR MERGED:      47780
DTLB PREFETCH MSHR MERGED:          0
DTLB WRITEBACK MSHR MERGED:          0
DTLB TOTAL ACCESSES:  142333752 HITS:  141678353 MISSES:     655399
DTLB LOAD ACCESSES:  119650250 HITS:  119095507 MISSES:     554743
DTLB RFO ACCESSES:   22683502 HITS:   22582846 MISSES:     100656
DTLB PREFETCH ACCESSES:          0 HITS:          0 MISSES:          0
DTLB WRITEBACK ACCESSES:          0 HITS:          0 MISSES:          0
DTLB RQ ACCESS:  184791583
DTLB RQ TO_CACHE:  142333752
DTLB RQ MERGED:   42457831
DTLB RQ FORWARD:          0
DTLB WQ ACCESS:          0
DTLB WQ TO_CACHE:          0
DTLB WQ MERGED:          0
DTLB WQ FORWARD:          0
L1D TOTAL     ACCESS:  190021978  HIT:  176571916  MISS:   13450062
L1D LOAD      ACCESS:  111935953  HIT:  108673182  MISS:    3262771
L1D RFO       ACCESS:   18871776  HIT:   16090033  MISS:    2781743
L1D PREFETCH  ACCESS:   59214249  HIT:   51808701  MISS:    7405548
L1D WRITEBACK ACCESS:          0  HIT:          0  MISS:          0
L1D PREFETCH  REQUESTED:  116511002  ISSUED:  115149811  USEFUL:    7195839  USELESS:     209709
L1D TOTAL MSHR MERGED:   31700728
L1D LOAD MSHR MERGED:    7282279
L1D RFO MSHR MERGED:    9380959
L1D PREFETCH MSHR MERGED:   15037490
L1D WRITEBACK MSHR MERGED:          0
L1D TOTAL ACCESSES:  221723102 HITS:  176572311 MISSES:   45150791
L1D LOAD ACCESSES:  116511025 HITS:  108673205 MISSES:    7837820
L1D RFO ACCESSES:   28252684 HITS:   16090033 MISSES:   12162651
L1D PREFETCH ACCESSES:   76959393 HITS:   51809073 MISSES:   25150320
L1D WRITEBACK ACCESSES:          0 HITS:          0 MISSES:          0
L1D RQ ACCESS:  156535517
L1D RQ TO_CACHE:  116511005
L1D RQ MERGED:   40024489
L1D RQ FORWARD:          0
L1D WQ ACCESS:   28256066
L1D WQ TO_CACHE:   28252684
L1D WQ MERGED:       3382
L1D WQ FORWARD:        395
L1I TOTAL     ACCESS:  115792236  HIT:  115791288  MISS:        948
L1I LOAD      ACCESS:  115792236  HIT:  115791288  MISS:        948
L1I RFO       ACCESS:          0  HIT:          0  MISS:          0
L1I PREFETCH  ACCESS:          0  HIT:          0  MISS:          0
L1I WRITEBACK ACCESS:          0  HIT:          0  MISS:          0
L1I PREFETCH  REQUESTED:          0  ISSUED:          0  USEFUL:          0  USELESS:          0
L1I TOTAL MSHR MERGED:       1563
L1I LOAD MSHR MERGED:       1563
L1I RFO MSHR MERGED:          0
L1I PREFETCH MSHR MERGED:          0
L1I WRITEBACK MSHR MERGED:          0
L1I TOTAL ACCESSES:  115793799 HITS:  115791288 MISSES:       2511
L1I LOAD ACCESSES:  115793799 HITS:  115791288 MISSES:       2511
L1I RFO ACCESSES:          0 HITS:          0 MISSES:          0
L1I PREFETCH ACCESSES:          0 HITS:          0 MISSES:          0
L1I WRITEBACK ACCESSES:          0 HITS:          0 MISSES:          0
L1I RQ ACCESS:  500000007
L1I RQ TO_CACHE:  115793799
L1I RQ MERGED:  384206208
L1I RQ FORWARD:          0
L1I WQ ACCESS:          0
L1I WQ TO_CACHE:          0
L1I WQ MERGED:          0
L1I WQ FORWARD:          0
L2C TOTAL     ACCESS:   16695551  HIT:    4850977  MISS:   11844574
L2C LOAD      ACCESS:     556455  HIT:      95446  MISS:     461009
L2C RFO       ACCESS:    2781692  HIT:     266672  MISS:    2515020
L2C PREFETCH  ACCESS:   10136760  HIT:    1270497  MISS:    8866263
L2C WRITEBACK ACCESS:    3220644  HIT:    3218362  MISS:       2282
L2C PREFETCH  REQUESTED:      25912  ISSUED:      25912  USEFUL:      92826  USELESS:    8771479
L2C TOTAL MSHR MERGED:        492
L2C LOAD MSHR MERGED:          5
L2C RFO MSHR MERGED:          0
L2C PREFETCH MSHR MERGED:        487
L2C WRITEBACK MSHR MERGED:          0
L2C TOTAL ACCESSES:   16696149 HITS:    4851030 MISSES:   11845119
L2C LOAD ACCESSES:     556489 HITS:      95480 MISSES:     461009
L2C RFO ACCESSES:    2781692 HITS:     266672 MISSES:    2515020
L2C PREFETCH ACCESSES:   10137324 HITS:    1270516 MISSES:    8866808
L2C WRITEBACK ACCESSES:    3220644 HITS:    3218362 MISSES:       2282
L2C RQ ACCESS:    3338181
L2C RQ TO_CACHE:    3338147
L2C RQ MERGED:          0
L2C RQ FORWARD:          0
L2C WQ ACCESS:    3220644
L2C WQ TO_CACHE:    3220644
L2C WQ MERGED:          0
L2C WQ FORWARD:         53
LLC TOTAL     ACCESS:   14742606  HIT:    7514023  MISS:    7228583
LLC LOAD      ACCESS:     461001  HIT:     246457  MISS:     214544
LLC RFO       ACCESS:    2515003  HIT:    1830173  MISS:     684830
LLC PREFETCH  ACCESS:    8866267  HIT:    3278292  MISS:    5587975
LLC WRITEBACK ACCESS:    2900335  HIT:    2159101  MISS:     741234
LLC PREFETCH  REQUESTED:          0  ISSUED:          0  USEFUL:       3584  USELESS:    5589426
LLC TOTAL MSHR MERGED:          1
LLC LOAD MSHR MERGED:          0
LLC RFO MSHR MERGED:          0
LLC PREFETCH MSHR MERGED:          1
LLC WRITEBACK MSHR MERGED:          0
LLC TOTAL ACCESSES:   14742673 HITS:    7514089 MISSES:    7228584
LLC LOAD ACCESSES:     461004 HITS:     246460 MISSES:     214544
LLC RFO ACCESSES:    2515020 HITS:    1830190 MISSES:     684830
LLC PREFETCH ACCESSES:    8866314 HITS:    3278338 MISSES:    5587976
LLC WRITEBACK ACCESSES:    2900335 HITS:    2159101 MISSES:     741234
LLC 0 RQ ACCESS:    2976024
LLC 0 RQ TO_CACHE:    2976004
LLC 0 RQ MERGED:          0
LLC 0 RQ FORWARD:          0
LLC WQ ACCESS:    2900335
LLC WQ TO_CACHE:    2900335
LLC WQ MERGED:          0
LLC WQ FORWARD:         66
Major fault: 0 Minor fault: 57518
CPU 0 L1D next line prefetcher final stats
CPU 0 L2C PC-based stride prefetcher final stats
All Misses: 7821739
All Hits: 8417048
SD Algo Stats - Switches: 0 SRR-Repls: 221384 BRR-Repls: 0

DRAM Statistics
 CHANNEL 0
 RQ ROW_BUFFER_HIT:    3655862  ROW_BUFFER_MISS:    2828553
 DBUS_CONGESTED:    2979115
 WQ ROW_BUFFER_HIT:      91902  ROW_BUFFER_MISS:     857074  FULL:          0

 AVG_CONGESTED_CYCLE: 12
LOADS RETIRED: 157818985
INSTR RETIRED: 500000000
