
*** ChampSim Multicore Out-of-Order Simulator ***

Warmup Instructions: 100000000
Simulation Instructions: 500000000
Number of CPUs: 1
LLC sets: 2048
LLC ways: 16
Clean RRIP Policies: 2313230223132302 Dirty RRIP Policies: 1303130213031302 PSEL Width: 10 Track Set: 4294967295 PSEL Mask: 1 Demote Mask: 1040100010401000DS Algo: 0Window size: 0
Off-chip DRAM Size: 4096 MB Channels: 1 Width: 64-bit Data Rate: 1600 MT/s

CPU 0 runs /mnt/beegfs/iconst01/spec2017/Leela.trace.gz
NOT SORTED
TRACE STRING: /mnt/beegfs/iconst01/spec2017/Leela.trace.gz
SORTED
TRACE STRING: /mnt/beegfs/iconst01/spec2017/Leela.trace.gz
INITIAL
TRACE STRING: /mnt/beegfs/iconst01/spec2017/Leela.trace.gz

champsim_seed used: 483

CPU 0 L1D next line prefetcher
CPU 0 L2C IP-based stride prefetcher
Initialize DRRIP state
Assign rand_sets[0]: 454  LLC: 2048
rand_sets[0]: 454
Assign rand_sets[1]: 1662  LLC: 2048
rand_sets[1]: 1662
Assign rand_sets[2]: 1921  LLC: 2048
rand_sets[2]: 1921
Assign rand_sets[3]: 1131  LLC: 2048
rand_sets[3]: 1131
Assign rand_sets[4]: 331  LLC: 2048
rand_sets[4]: 331
Assign rand_sets[5]: 1531  LLC: 2048
rand_sets[5]: 1531
Assign rand_sets[6]: 482  LLC: 2048
rand_sets[6]: 482
Assign rand_sets[7]: 1275  LLC: 2048
rand_sets[7]: 1275
Assign rand_sets[8]: 1876  LLC: 2048
rand_sets[8]: 1876
Assign rand_sets[9]: 2038  LLC: 2048
rand_sets[9]: 2038
Assign rand_sets[10]: 701  LLC: 2048
rand_sets[10]: 701
Assign rand_sets[11]: 479  LLC: 2048
rand_sets[11]: 479
Assign rand_sets[12]: 892  LLC: 2048
rand_sets[12]: 892
Assign rand_sets[13]: 1820  LLC: 2048
rand_sets[13]: 1820
Assign rand_sets[14]: 1505  LLC: 2048
rand_sets[14]: 1505
Assign rand_sets[15]: 1159  LLC: 2048
rand_sets[15]: 1159
Assign rand_sets[16]: 513  LLC: 2048
rand_sets[16]: 513
Assign rand_sets[17]: 703  LLC: 2048
rand_sets[17]: 703
Assign rand_sets[18]: 561  LLC: 2048
rand_sets[18]: 561
Assign rand_sets[19]: 990  LLC: 2048
rand_sets[19]: 990
Assign rand_sets[20]: 342  LLC: 2048
rand_sets[20]: 342
Assign rand_sets[21]: 882  LLC: 2048
rand_sets[21]: 882
Assign rand_sets[22]: 15  LLC: 2048
rand_sets[22]: 15
Assign rand_sets[23]: 71  LLC: 2048
rand_sets[23]: 71
Assign rand_sets[24]: 1127  LLC: 2048
rand_sets[24]: 1127
Assign rand_sets[25]: 1382  LLC: 2048
rand_sets[25]: 1382
Assign rand_sets[26]: 647  LLC: 2048
rand_sets[26]: 647
Assign rand_sets[27]: 857  LLC: 2048
rand_sets[27]: 857
Assign rand_sets[28]: 1450  LLC: 2048
rand_sets[28]: 1450
Assign rand_sets[29]: 1160  LLC: 2048
rand_sets[29]: 1160
Assign rand_sets[30]: 1852  LLC: 2048
rand_sets[30]: 1852
Assign rand_sets[31]: 1881  LLC: 2048
rand_sets[31]: 1881
Assign rand_sets[32]: 1770  LLC: 2048
rand_sets[32]: 1770
Assign rand_sets[33]: 1622  LLC: 2048
rand_sets[33]: 1622
Assign rand_sets[34]: 275  LLC: 2048
rand_sets[34]: 275
Assign rand_sets[35]: 635  LLC: 2048
rand_sets[35]: 635
Assign rand_sets[36]: 466  LLC: 2048
rand_sets[36]: 466
Assign rand_sets[37]: 1413  LLC: 2048
rand_sets[37]: 1413
Assign rand_sets[38]: 417  LLC: 2048
rand_sets[38]: 417
Assign rand_sets[39]: 472  LLC: 2048
rand_sets[39]: 472
Assign rand_sets[40]: 1340  LLC: 2048
rand_sets[40]: 1340
Assign rand_sets[41]: 852  LLC: 2048
rand_sets[41]: 852
Assign rand_sets[42]: 1365  LLC: 2048
rand_sets[42]: 1365
Assign rand_sets[43]: 47  LLC: 2048
rand_sets[43]: 47
Assign rand_sets[44]: 823  LLC: 2048
rand_sets[44]: 823
Assign rand_sets[45]: 686  LLC: 2048
rand_sets[45]: 686
Assign rand_sets[46]: 1637  LLC: 2048
rand_sets[46]: 1637
Assign rand_sets[47]: 1115  LLC: 2048
rand_sets[47]: 1115
Assign rand_sets[48]: 986  LLC: 2048
rand_sets[48]: 986
Assign rand_sets[49]: 258  LLC: 2048
rand_sets[49]: 258
Assign rand_sets[50]: 633  LLC: 2048
rand_sets[50]: 633
Assign rand_sets[51]: 920  LLC: 2048
rand_sets[51]: 920
Assign rand_sets[52]: 204  LLC: 2048
rand_sets[52]: 204
Assign rand_sets[53]: 227  LLC: 2048
rand_sets[53]: 227
Assign rand_sets[54]: 1818  LLC: 2048
rand_sets[54]: 1818
Assign rand_sets[55]: 886  LLC: 2048
rand_sets[55]: 886
Assign rand_sets[56]: 1422  LLC: 2048
rand_sets[56]: 1422
Assign rand_sets[57]: 607  LLC: 2048
rand_sets[57]: 607
Assign rand_sets[58]: 217  LLC: 2048
rand_sets[58]: 217
Assign rand_sets[59]: 1945  LLC: 2048
rand_sets[59]: 1945
Assign rand_sets[60]: 143  LLC: 2048
rand_sets[60]: 143
Assign rand_sets[61]: 1311  LLC: 2048
rand_sets[61]: 1311
Assign rand_sets[62]: 319  LLC: 2048
rand_sets[62]: 319
Assign rand_sets[63]: 1846  LLC: 2048
rand_sets[63]: 1846
 CLEAN-RRIP-POLICY-1: 2-3-1-3-2-3-0-2- CLEAN-RRIP-POLICY-2: 2-3-1-3-2-3-0-2-
 DIRTY-RRIP-POLICY-1: 1-3-0-3-1-3-0-2- DIRTY-RRIP-POLICY-2: 1-3-0-3-1-3-0-2-
 PSEL width: 10
Heartbeat CPU 0 instructions: 10000000 cycles: 5810761 heartbeat IPC: 1.72095 cumulative IPC: 1.72095 (Simulation time: 0 hr 0 min 12 sec) 
Heartbeat CPU 0 instructions: 20000000 cycles: 11606050 heartbeat IPC: 1.72554 cumulative IPC: 1.72324 (Simulation time: 0 hr 0 min 24 sec) 
Heartbeat CPU 0 instructions: 30000000 cycles: 17388003 heartbeat IPC: 1.72952 cumulative IPC: 1.72533 (Simulation time: 0 hr 0 min 35 sec) 
Heartbeat CPU 0 instructions: 40000000 cycles: 23169590 heartbeat IPC: 1.72963 cumulative IPC: 1.7264 (Simulation time: 0 hr 0 min 47 sec) 
Heartbeat CPU 0 instructions: 50000003 cycles: 28984150 heartbeat IPC: 1.71982 cumulative IPC: 1.72508 (Simulation time: 0 hr 0 min 59 sec) 
Heartbeat CPU 0 instructions: 60000000 cycles: 34769425 heartbeat IPC: 1.72853 cumulative IPC: 1.72565 (Simulation time: 0 hr 1 min 10 sec) 
Heartbeat CPU 0 instructions: 70000001 cycles: 40536480 heartbeat IPC: 1.73399 cumulative IPC: 1.72684 (Simulation time: 0 hr 1 min 22 sec) 
Heartbeat CPU 0 instructions: 80000000 cycles: 46308603 heartbeat IPC: 1.73246 cumulative IPC: 1.72754 (Simulation time: 0 hr 1 min 34 sec) 
Heartbeat CPU 0 instructions: 90000002 cycles: 52118079 heartbeat IPC: 1.72133 cumulative IPC: 1.72685 (Simulation time: 0 hr 1 min 46 sec) 
Heartbeat CPU 0 instructions: 100000000 cycles: 57935753 heartbeat IPC: 1.7189 cumulative IPC: 1.72605 (Simulation time: 0 hr 1 min 58 sec) 

Warmup complete CPU 0 instructions: 100000001 cycles: 57935754 (Simulation time: 0 hr 1 min 58 sec) 

Heartbeat CPU 0 instructions: 110000001 cycles: 76360010 heartbeat IPC: 0.542763 cumulative IPC: 0.542763 (Simulation time: 0 hr 2 min 18 sec) 
Heartbeat CPU 0 instructions: 120000000 cycles: 94743061 heartbeat IPC: 0.543979 cumulative IPC: 0.54337 (Simulation time: 0 hr 2 min 38 sec) 
Heartbeat CPU 0 instructions: 130000002 cycles: 113064953 heartbeat IPC: 0.545795 cumulative IPC: 0.544176 (Simulation time: 0 hr 2 min 58 sec) 
Heartbeat CPU 0 instructions: 140000000 cycles: 131301981 heartbeat IPC: 0.548335 cumulative IPC: 0.54521 (Simulation time: 0 hr 3 min 18 sec) 
Heartbeat CPU 0 instructions: 150000002 cycles: 149410160 heartbeat IPC: 0.552237 cumulative IPC: 0.546601 (Simulation time: 0 hr 3 min 38 sec) 
Heartbeat CPU 0 instructions: 160000000 cycles: 167563903 heartbeat IPC: 0.55085 cumulative IPC: 0.547305 (Simulation time: 0 hr 3 min 58 sec) 
Heartbeat CPU 0 instructions: 170000001 cycles: 185766137 heartbeat IPC: 0.549383 cumulative IPC: 0.547601 (Simulation time: 0 hr 4 min 18 sec) 
Heartbeat CPU 0 instructions: 180000000 cycles: 204068572 heartbeat IPC: 0.546375 cumulative IPC: 0.547447 (Simulation time: 0 hr 4 min 38 sec) 
Heartbeat CPU 0 instructions: 190000001 cycles: 222416953 heartbeat IPC: 0.545007 cumulative IPC: 0.547175 (Simulation time: 0 hr 4 min 58 sec) 
Heartbeat CPU 0 instructions: 200000000 cycles: 240623644 heartbeat IPC: 0.549249 cumulative IPC: 0.547382 (Simulation time: 0 hr 5 min 18 sec) 
Heartbeat CPU 0 instructions: 210000002 cycles: 258751665 heartbeat IPC: 0.551632 cumulative IPC: 0.547765 (Simulation time: 0 hr 5 min 38 sec) 
Heartbeat CPU 0 instructions: 220000000 cycles: 276908571 heartbeat IPC: 0.550755 cumulative IPC: 0.548013 (Simulation time: 0 hr 5 min 58 sec) 
Heartbeat CPU 0 instructions: 230000002 cycles: 295129491 heartbeat IPC: 0.54882 cumulative IPC: 0.548075 (Simulation time: 0 hr 6 min 18 sec) 
Heartbeat CPU 0 instructions: 240000000 cycles: 313410744 heartbeat IPC: 0.547008 cumulative IPC: 0.547999 (Simulation time: 0 hr 6 min 38 sec) 
Heartbeat CPU 0 instructions: 250000003 cycles: 331582415 heartbeat IPC: 0.550307 cumulative IPC: 0.548152 (Simulation time: 0 hr 6 min 58 sec) 
Heartbeat CPU 0 instructions: 260000000 cycles: 349730912 heartbeat IPC: 0.55101 cumulative IPC: 0.54833 (Simulation time: 0 hr 7 min 17 sec) 
Heartbeat CPU 0 instructions: 270000001 cycles: 367967988 heartbeat IPC: 0.548334 cumulative IPC: 0.54833 (Simulation time: 0 hr 7 min 37 sec) 
Heartbeat CPU 0 instructions: 280000000 cycles: 387224251 heartbeat IPC: 0.519311 cumulative IPC: 0.546633 (Simulation time: 0 hr 7 min 58 sec) 
Heartbeat CPU 0 instructions: 290000001 cycles: 405240137 heartbeat IPC: 0.555066 cumulative IPC: 0.547071 (Simulation time: 0 hr 8 min 18 sec) 
Heartbeat CPU 0 instructions: 300000000 cycles: 423315743 heartbeat IPC: 0.553232 cumulative IPC: 0.547375 (Simulation time: 0 hr 8 min 38 sec) 
Heartbeat CPU 0 instructions: 310000000 cycles: 441531768 heartbeat IPC: 0.548967 cumulative IPC: 0.547451 (Simulation time: 0 hr 8 min 57 sec) 
Heartbeat CPU 0 instructions: 320000000 cycles: 459910202 heartbeat IPC: 0.544116 cumulative IPC: 0.547298 (Simulation time: 0 hr 9 min 17 sec) 
Heartbeat CPU 0 instructions: 330000000 cycles: 478205830 heartbeat IPC: 0.546579 cumulative IPC: 0.547267 (Simulation time: 0 hr 9 min 37 sec) 
Heartbeat CPU 0 instructions: 340000000 cycles: 496538035 heartbeat IPC: 0.545488 cumulative IPC: 0.547193 (Simulation time: 0 hr 9 min 57 sec) 
Heartbeat CPU 0 instructions: 350000000 cycles: 514772490 heartbeat IPC: 0.548412 cumulative IPC: 0.547241 (Simulation time: 0 hr 10 min 17 sec) 
Heartbeat CPU 0 instructions: 360000000 cycles: 532899715 heartbeat IPC: 0.551656 cumulative IPC: 0.54741 (Simulation time: 0 hr 10 min 37 sec) 
Heartbeat CPU 0 instructions: 370000000 cycles: 550912006 heartbeat IPC: 0.555176 cumulative IPC: 0.547694 (Simulation time: 0 hr 10 min 56 sec) 
Heartbeat CPU 0 instructions: 380000000 cycles: 569068174 heartbeat IPC: 0.550777 cumulative IPC: 0.547803 (Simulation time: 0 hr 11 min 16 sec) 
Heartbeat CPU 0 instructions: 390000003 cycles: 587340736 heartbeat IPC: 0.547269 cumulative IPC: 0.547785 (Simulation time: 0 hr 11 min 36 sec) 
Heartbeat CPU 0 instructions: 400000000 cycles: 605512198 heartbeat IPC: 0.550313 cumulative IPC: 0.547869 (Simulation time: 0 hr 11 min 56 sec) 
Heartbeat CPU 0 instructions: 410000002 cycles: 623739003 heartbeat IPC: 0.548643 cumulative IPC: 0.547894 (Simulation time: 0 hr 12 min 16 sec) 
Heartbeat CPU 0 instructions: 420000000 cycles: 641994579 heartbeat IPC: 0.547778 cumulative IPC: 0.54789 (Simulation time: 0 hr 12 min 35 sec) 
Heartbeat CPU 0 instructions: 430000003 cycles: 660330741 heartbeat IPC: 0.545371 cumulative IPC: 0.547813 (Simulation time: 0 hr 12 min 55 sec) 
Heartbeat CPU 0 instructions: 440000000 cycles: 678666430 heartbeat IPC: 0.545384 cumulative IPC: 0.547742 (Simulation time: 0 hr 13 min 14 sec) 
Heartbeat CPU 0 instructions: 450000003 cycles: 696903613 heartbeat IPC: 0.54833 cumulative IPC: 0.547758 (Simulation time: 0 hr 13 min 34 sec) 
Heartbeat CPU 0 instructions: 460000000 cycles: 715097920 heartbeat IPC: 0.549622 cumulative IPC: 0.54781 (Simulation time: 0 hr 13 min 54 sec) 
Heartbeat CPU 0 instructions: 470000001 cycles: 733214192 heartbeat IPC: 0.55199 cumulative IPC: 0.547922 (Simulation time: 0 hr 14 min 13 sec) 
Heartbeat CPU 0 instructions: 480000000 cycles: 751478399 heartbeat IPC: 0.547519 cumulative IPC: 0.547912 (Simulation time: 0 hr 14 min 33 sec) 
Heartbeat CPU 0 instructions: 490000000 cycles: 769716233 heartbeat IPC: 0.548311 cumulative IPC: 0.547922 (Simulation time: 0 hr 14 min 52 sec) 
Heartbeat CPU 0 instructions: 500000000 cycles: 787958655 heartbeat IPC: 0.548173 cumulative IPC: 0.547928 (Simulation time: 0 hr 15 min 12 sec) 
Heartbeat CPU 0 instructions: 510000003 cycles: 806143368 heartbeat IPC: 0.549913 cumulative IPC: 0.547976 (Simulation time: 0 hr 15 min 32 sec) 
Heartbeat CPU 0 instructions: 520000000 cycles: 824293233 heartbeat IPC: 0.550968 cumulative IPC: 0.548047 (Simulation time: 0 hr 15 min 51 sec) 
Heartbeat CPU 0 instructions: 530000001 cycles: 842554113 heartbeat IPC: 0.547619 cumulative IPC: 0.548037 (Simulation time: 0 hr 16 min 11 sec) 
Heartbeat CPU 0 instructions: 540000000 cycles: 860828265 heartbeat IPC: 0.547221 cumulative IPC: 0.548019 (Simulation time: 0 hr 16 min 30 sec) 
Heartbeat CPU 0 instructions: 550000002 cycles: 879070309 heartbeat IPC: 0.548184 cumulative IPC: 0.548022 (Simulation time: 0 hr 16 min 50 sec) 
Heartbeat CPU 0 instructions: 560000000 cycles: 897222458 heartbeat IPC: 0.550899 cumulative IPC: 0.548084 (Simulation time: 0 hr 17 min 9 sec) 
Heartbeat CPU 0 instructions: 570000003 cycles: 915452000 heartbeat IPC: 0.54856 cumulative IPC: 0.548095 (Simulation time: 0 hr 17 min 29 sec) 
Heartbeat CPU 0 instructions: 580000000 cycles: 933604730 heartbeat IPC: 0.550881 cumulative IPC: 0.548152 (Simulation time: 0 hr 17 min 48 sec) 
Heartbeat CPU 0 instructions: 590000000 cycles: 951756930 heartbeat IPC: 0.550897 cumulative IPC: 0.548208 (Simulation time: 0 hr 18 min 8 sec) 
Heartbeat CPU 0 instructions: 600000000 cycles: 969932976 heartbeat IPC: 0.550175 cumulative IPC: 0.548247 (Simulation time: 0 hr 18 min 27 sec) 
Finished CPU 0 instructions: 500000002 cycles: 911997236 cumulative IPC: 0.548247 (Simulation time: 0 hr 18 min 27 sec) 

CPU 0 Branch Prediction Accuracy: 84.5197% MPKI: 17.7348
Number of Branches: 57281827 Number of Mispredictions: 8867420
Number of LOAD Instructions: 149599668
Number of LOAD Instructions (ROI): 149599668
Number of STORE Instructions: 48204126
Number of STORE Instructions (ROI): 48204126
Total Destination Memory Operands: 56787011
Total Destination Memory Operands (ROI): 56787011
Total Source Memory Operands: 149599668
Total Source Memory Operands (ROI): 149599668
Number of DEPENDED LOADS: 8173808
Number of DEPENDED LOADS (ROI): 8173808
Number of SQ_ADDED: 56787004
Number of SQ_ADDED (ROI): 56787004
Number of LQ_ADDED: 236130661
Number of LQ_ADDED (ROI): 236130661
Number of Instructions read from trace: 600000094

ChampSim completed all CPUs

Region of Interest Statistics

CPU 0 cumulative IPC: 0.548247 instructions: 500000002 cycles: 911997236
ITLB TOTAL     ACCESS:   88352811  HIT:   88352767  MISS:         44
ITLB LOAD      ACCESS:   88352811  HIT:   88352767  MISS:         44
ITLB RFO       ACCESS:          0  HIT:          0  MISS:          0
ITLB PREFETCH  ACCESS:          0  HIT:          0  MISS:          0
ITLB WRITEBACK ACCESS:          0  HIT:          0  MISS:          0
ITLB PREFETCH  REQUESTED:          0  ISSUED:          0  USEFUL:          0  USELESS:          0
ITLB TOTAL MSHR MERGED:         55
ITLB LOAD MSHR MERGED:         55
ITLB RFO MSHR MERGED:          0
ITLB PREFETCH MSHR MERGED:          0
ITLB WRITEBACK MSHR MERGED:          0
ITLB TOTAL ACCESSES:   88352866 HITS:   88352767 MISSES:         99
ITLB LOAD ACCESSES:   88352866 HITS:   88352767 MISSES:         99
ITLB RFO ACCESSES:          0 HITS:          0 MISSES:          0
ITLB PREFETCH ACCESSES:          0 HITS:          0 MISSES:          0
ITLB WRITEBACK ACCESSES:          0 HITS:          0 MISSES:          0
ITLB RQ ACCESS:  500000064
ITLB RQ TO_CACHE:   88352866
ITLB RQ MERGED:  411647198
ITLB RQ FORWARD:          0
ITLB WQ ACCESS:          0
ITLB WQ TO_CACHE:          0
ITLB WQ MERGED:          0
ITLB WQ FORWARD:          0
DTLB TOTAL     ACCESS:  121280650  HIT:  121187863  MISS:      92787
DTLB LOAD      ACCESS:   81232225  HIT:   81143390  MISS:      88835
DTLB RFO       ACCESS:   40048425  HIT:   40044473  MISS:       3952
DTLB PREFETCH  ACCESS:          0  HIT:          0  MISS:          0
DTLB WRITEBACK ACCESS:          0  HIT:          0  MISS:          0
DTLB PREFETCH  REQUESTED:          0  ISSUED:          0  USEFUL:          0  USELESS:          0
DTLB TOTAL MSHR MERGED:       2657
DTLB LOAD MSHR MERGED:       2332
DTLB RFO MSHR MERGED:        325
DTLB PREFETCH MSHR MERGED:          0
DTLB WRITEBACK MSHR MERGED:          0
DTLB TOTAL ACCESSES:  121283307 HITS:  121187863 MISSES:      95444
DTLB LOAD ACCESSES:   81234557 HITS:   81143390 MISSES:      91167
DTLB RFO ACCESSES:   40048750 HITS:   40044473 MISSES:       4277
DTLB PREFETCH ACCESSES:          0 HITS:          0 MISSES:          0
DTLB WRITEBACK ACCESSES:          0 HITS:          0 MISSES:          0
DTLB RQ ACCESS:  164789451
DTLB RQ TO_CACHE:  121283307
DTLB RQ MERGED:   43506144
DTLB RQ FORWARD:          0
DTLB WQ ACCESS:          0
DTLB WQ TO_CACHE:          0
DTLB WQ MERGED:          0
DTLB WQ FORWARD:          0
L1D TOTAL     ACCESS:  217693055  HIT:  214694168  MISS:    2998887
L1D LOAD      ACCESS:   90566395  HIT:   89160512  MISS:    1405883
L1D RFO       ACCESS:   46154068  HIT:   45771697  MISS:     382371
L1D PREFETCH  ACCESS:   80972592  HIT:   79761959  MISS:    1210633
L1D WRITEBACK ACCESS:          0  HIT:          0  MISS:          0
L1D PREFETCH  REQUESTED:   90616104  ISSUED:   88239036  USEFUL:     597231  USELESS:     613421
L1D TOTAL MSHR MERGED:     358680
L1D LOAD MSHR MERGED:      55926
L1D RFO MSHR MERGED:     175372
L1D PREFETCH MSHR MERGED:     127382
L1D WRITEBACK MSHR MERGED:          0
L1D TOTAL ACCESSES:  218056296 HITS:  214698729 MISSES:    3357567
L1D LOAD ACCESSES:   90616104 HITS:   89160512 MISSES:    1455592
L1D RFO ACCESSES:   46328230 HITS:   45771697 MISSES:     556533
L1D PREFETCH ACCESSES:   81111962 HITS:   79766520 MISSES:    1345442
L1D WRITEBACK ACCESSES:          0 HITS:          0 MISSES:          0
L1D RQ ACCESS:  117521531
L1D RQ TO_CACHE:   90616104
L1D RQ MERGED:   26905427
L1D RQ FORWARD:          0
L1D WQ ACCESS:   47267919
L1D WQ TO_CACHE:   46328230
L1D WQ MERGED:     939689
L1D WQ FORWARD:       4561
L1I TOTAL     ACCESS:  112807410  HIT:  112712007  MISS:      95403
L1I LOAD      ACCESS:  112807410  HIT:  112712007  MISS:      95403
L1I RFO       ACCESS:          0  HIT:          0  MISS:          0
L1I PREFETCH  ACCESS:          0  HIT:          0  MISS:          0
L1I WRITEBACK ACCESS:          0  HIT:          0  MISS:          0
L1I PREFETCH  REQUESTED:          0  ISSUED:          0  USEFUL:          0  USELESS:          0
L1I TOTAL MSHR MERGED:      59470
L1I LOAD MSHR MERGED:      59470
L1I RFO MSHR MERGED:          0
L1I PREFETCH MSHR MERGED:          0
L1I WRITEBACK MSHR MERGED:          0
L1I TOTAL ACCESSES:  112866880 HITS:  112712007 MISSES:     154873
L1I LOAD ACCESSES:  112866880 HITS:  112712007 MISSES:     154873
L1I RFO ACCESSES:          0 HITS:          0 MISSES:          0
L1I PREFETCH ACCESSES:          0 HITS:          0 MISSES:          0
L1I WRITEBACK ACCESSES:          0 HITS:          0 MISSES:          0
L1I RQ ACCESS:  500000064
L1I RQ TO_CACHE:  112866880
L1I RQ MERGED:  387133184
L1I RQ FORWARD:          0
L1I WQ ACCESS:          0
L1I WQ TO_CACHE:          0
L1I WQ MERGED:          0
L1I WQ FORWARD:          0
L2C TOTAL     ACCESS:    4790707  HIT:    4715631  MISS:      75076
L2C LOAD      ACCESS:    1495051  HIT:    1467997  MISS:      27054
L2C RFO       ACCESS:     381153  HIT:     372272  MISS:       8881
L2C PREFETCH  ACCESS:    2134797  HIT:    2095788  MISS:      39009
L2C WRITEBACK ACCESS:     779706  HIT:     779574  MISS:        132
L2C PREFETCH  REQUESTED:     923258  ISSUED:     923258  USEFUL:      12805  USELESS:      26321
L2C TOTAL MSHR MERGED:       6513
L2C LOAD MSHR MERGED:        623
L2C RFO MSHR MERGED:          0
L2C PREFETCH MSHR MERGED:       5890
L2C WRITEBACK MSHR MERGED:          0
L2C TOTAL ACCESSES:    4797253 HITS:    4715664 MISSES:      81589
L2C LOAD ACCESSES:    1495069 HITS:    1468015 MISSES:      27054
L2C RFO ACCESSES:     381161 HITS:     372280 MISSES:       8881
L2C PREFETCH ACCESSES:    2141317 HITS:    2095795 MISSES:      45522
L2C WRITEBACK ACCESSES:     779706 HITS:     779574 MISSES:        132
L2C RQ ACCESS:    1876230
L2C RQ TO_CACHE:    1876204
L2C RQ MERGED:          0
L2C RQ FORWARD:          0
L2C WQ ACCESS:     779706
L2C WQ TO_CACHE:     779706
L2C WQ MERGED:          0
L2C WQ FORWARD:         33
LLC TOTAL     ACCESS:      95472  HIT:      59956  MISS:      35516
LLC LOAD      ACCESS:      26431  HIT:      23080  MISS:       3351
LLC RFO       ACCESS:       8881  HIT:        150  MISS:       8731
LLC PREFETCH  ACCESS:      39632  HIT:      25518  MISS:      14114
LLC WRITEBACK ACCESS:      20528  HIT:      11208  MISS:       9320
LLC PREFETCH  REQUESTED:          0  ISSUED:          0  USEFUL:        338  USELESS:      11680
LLC TOTAL MSHR MERGED:          0
LLC LOAD MSHR MERGED:          0
LLC RFO MSHR MERGED:          0
LLC PREFETCH MSHR MERGED:          0
LLC WRITEBACK MSHR MERGED:          0
LLC TOTAL ACCESSES:      95472 HITS:      59956 MISSES:      35516
LLC LOAD ACCESSES:      26431 HITS:      23080 MISSES:       3351
LLC RFO ACCESSES:       8881 HITS:        150 MISSES:       8731
LLC PREFETCH ACCESSES:      39632 HITS:      25518 MISSES:      14114
LLC WRITEBACK ACCESSES:      20528 HITS:      11208 MISSES:       9320
LLC 0 RQ ACCESS:      35312
LLC 0 RQ TO_CACHE:      35312
LLC 0 RQ MERGED:          0
LLC 0 RQ FORWARD:          0
LLC WQ ACCESS:      20528
LLC WQ TO_CACHE:      20528
LLC WQ MERGED:          0
LLC WQ FORWARD:          0
Major fault: 0 Minor fault: 1378
CPU 0 L1D next line prefetcher final stats
CPU 0 L2C PC-based stride prefetcher final stats
All Misses: 45722
All Hits: 67227
SD Algo Stats - Switches: 0 SRR-Repls: 6305 BRR-Repls: 0

DRAM Statistics
 CHANNEL 0
 RQ ROW_BUFFER_HIT:      15369  ROW_BUFFER_MISS:      10752
 DBUS_CONGESTED:      12676
 WQ ROW_BUFFER_HIT:       2977  ROW_BUFFER_MISS:       5216  FULL:          0

 AVG_CONGESTED_CYCLE: 14
LOADS RETIRED: 124527094
INSTR RETIRED: 500000000
