
*** ChampSim Multicore Out-of-Order Simulator ***

Warmup Instructions: 100000000
Simulation Instructions: 500000000
Number of CPUs: 1
LLC sets: 2048
LLC ways: 16
Clean RRIP Policies: 1213030312130303 Dirty RRIP Policies: 2213130322131303 PSEL Width: 10 Track Set: 4294967295 PSEL Mask: 1 Demote Mask: 3340201033402010DS Algo: 0Window size: 0
Off-chip DRAM Size: 4096 MB Channels: 1 Width: 64-bit Data Rate: 1600 MT/s

CPU 0 runs /mnt/beegfs/iconst01/spec2017/Cam4.trace.gz
NOT SORTED
TRACE STRING: /mnt/beegfs/iconst01/spec2017/Cam4.trace.gz
SORTED
TRACE STRING: /mnt/beegfs/iconst01/spec2017/Cam4.trace.gz
INITIAL
TRACE STRING: /mnt/beegfs/iconst01/spec2017/Cam4.trace.gz

champsim_seed used: 325

CPU 0 L1D next line prefetcher
CPU 0 L2C IP-based stride prefetcher
Initialize DRRIP state
Assign rand_sets[0]: 454  LLC: 2048
rand_sets[0]: 454
Assign rand_sets[1]: 1662  LLC: 2048
rand_sets[1]: 1662
Assign rand_sets[2]: 1921  LLC: 2048
rand_sets[2]: 1921
Assign rand_sets[3]: 1131  LLC: 2048
rand_sets[3]: 1131
Assign rand_sets[4]: 331  LLC: 2048
rand_sets[4]: 331
Assign rand_sets[5]: 1531  LLC: 2048
rand_sets[5]: 1531
Assign rand_sets[6]: 482  LLC: 2048
rand_sets[6]: 482
Assign rand_sets[7]: 1275  LLC: 2048
rand_sets[7]: 1275
Assign rand_sets[8]: 1876  LLC: 2048
rand_sets[8]: 1876
Assign rand_sets[9]: 2038  LLC: 2048
rand_sets[9]: 2038
Assign rand_sets[10]: 701  LLC: 2048
rand_sets[10]: 701
Assign rand_sets[11]: 479  LLC: 2048
rand_sets[11]: 479
Assign rand_sets[12]: 892  LLC: 2048
rand_sets[12]: 892
Assign rand_sets[13]: 1820  LLC: 2048
rand_sets[13]: 1820
Assign rand_sets[14]: 1505  LLC: 2048
rand_sets[14]: 1505
Assign rand_sets[15]: 1159  LLC: 2048
rand_sets[15]: 1159
Assign rand_sets[16]: 513  LLC: 2048
rand_sets[16]: 513
Assign rand_sets[17]: 703  LLC: 2048
rand_sets[17]: 703
Assign rand_sets[18]: 561  LLC: 2048
rand_sets[18]: 561
Assign rand_sets[19]: 990  LLC: 2048
rand_sets[19]: 990
Assign rand_sets[20]: 342  LLC: 2048
rand_sets[20]: 342
Assign rand_sets[21]: 882  LLC: 2048
rand_sets[21]: 882
Assign rand_sets[22]: 15  LLC: 2048
rand_sets[22]: 15
Assign rand_sets[23]: 71  LLC: 2048
rand_sets[23]: 71
Assign rand_sets[24]: 1127  LLC: 2048
rand_sets[24]: 1127
Assign rand_sets[25]: 1382  LLC: 2048
rand_sets[25]: 1382
Assign rand_sets[26]: 647  LLC: 2048
rand_sets[26]: 647
Assign rand_sets[27]: 857  LLC: 2048
rand_sets[27]: 857
Assign rand_sets[28]: 1450  LLC: 2048
rand_sets[28]: 1450
Assign rand_sets[29]: 1160  LLC: 2048
rand_sets[29]: 1160
Assign rand_sets[30]: 1852  LLC: 2048
rand_sets[30]: 1852
Assign rand_sets[31]: 1881  LLC: 2048
rand_sets[31]: 1881
Assign rand_sets[32]: 1770  LLC: 2048
rand_sets[32]: 1770
Assign rand_sets[33]: 1622  LLC: 2048
rand_sets[33]: 1622
Assign rand_sets[34]: 275  LLC: 2048
rand_sets[34]: 275
Assign rand_sets[35]: 635  LLC: 2048
rand_sets[35]: 635
Assign rand_sets[36]: 466  LLC: 2048
rand_sets[36]: 466
Assign rand_sets[37]: 1413  LLC: 2048
rand_sets[37]: 1413
Assign rand_sets[38]: 417  LLC: 2048
rand_sets[38]: 417
Assign rand_sets[39]: 472  LLC: 2048
rand_sets[39]: 472
Assign rand_sets[40]: 1340  LLC: 2048
rand_sets[40]: 1340
Assign rand_sets[41]: 852  LLC: 2048
rand_sets[41]: 852
Assign rand_sets[42]: 1365  LLC: 2048
rand_sets[42]: 1365
Assign rand_sets[43]: 47  LLC: 2048
rand_sets[43]: 47
Assign rand_sets[44]: 823  LLC: 2048
rand_sets[44]: 823
Assign rand_sets[45]: 686  LLC: 2048
rand_sets[45]: 686
Assign rand_sets[46]: 1637  LLC: 2048
rand_sets[46]: 1637
Assign rand_sets[47]: 1115  LLC: 2048
rand_sets[47]: 1115
Assign rand_sets[48]: 986  LLC: 2048
rand_sets[48]: 986
Assign rand_sets[49]: 258  LLC: 2048
rand_sets[49]: 258
Assign rand_sets[50]: 633  LLC: 2048
rand_sets[50]: 633
Assign rand_sets[51]: 920  LLC: 2048
rand_sets[51]: 920
Assign rand_sets[52]: 204  LLC: 2048
rand_sets[52]: 204
Assign rand_sets[53]: 227  LLC: 2048
rand_sets[53]: 227
Assign rand_sets[54]: 1818  LLC: 2048
rand_sets[54]: 1818
Assign rand_sets[55]: 886  LLC: 2048
rand_sets[55]: 886
Assign rand_sets[56]: 1422  LLC: 2048
rand_sets[56]: 1422
Assign rand_sets[57]: 607  LLC: 2048
rand_sets[57]: 607
Assign rand_sets[58]: 217  LLC: 2048
rand_sets[58]: 217
Assign rand_sets[59]: 1945  LLC: 2048
rand_sets[59]: 1945
Assign rand_sets[60]: 143  LLC: 2048
rand_sets[60]: 143
Assign rand_sets[61]: 1311  LLC: 2048
rand_sets[61]: 1311
Assign rand_sets[62]: 319  LLC: 2048
rand_sets[62]: 319
Assign rand_sets[63]: 1846  LLC: 2048
rand_sets[63]: 1846
 CLEAN-RRIP-POLICY-1: 1-2-1-3-0-3-0-3- CLEAN-RRIP-POLICY-2: 1-2-1-3-0-3-0-3-
 DIRTY-RRIP-POLICY-1: 2-2-1-3-1-3-0-3- DIRTY-RRIP-POLICY-2: 2-2-1-3-1-3-0-3-
 PSEL width: 10
Heartbeat CPU 0 instructions: 10000000 cycles: 4859328 heartbeat IPC: 2.0579 cumulative IPC: 2.0579 (Simulation time: 0 hr 0 min 16 sec) 
Heartbeat CPU 0 instructions: 20000000 cycles: 9791097 heartbeat IPC: 2.02767 cumulative IPC: 2.04267 (Simulation time: 0 hr 0 min 32 sec) 
Heartbeat CPU 0 instructions: 30000001 cycles: 14563645 heartbeat IPC: 2.09532 cumulative IPC: 2.05992 (Simulation time: 0 hr 0 min 47 sec) 
Heartbeat CPU 0 instructions: 40000000 cycles: 19400698 heartbeat IPC: 2.06737 cumulative IPC: 2.06178 (Simulation time: 0 hr 1 min 3 sec) 
Heartbeat CPU 0 instructions: 50000000 cycles: 24257300 heartbeat IPC: 2.05905 cumulative IPC: 2.06124 (Simulation time: 0 hr 1 min 20 sec) 
Heartbeat CPU 0 instructions: 60000000 cycles: 29182970 heartbeat IPC: 2.03018 cumulative IPC: 2.05599 (Simulation time: 0 hr 1 min 36 sec) 
Heartbeat CPU 0 instructions: 70000001 cycles: 33958411 heartbeat IPC: 2.09405 cumulative IPC: 2.06135 (Simulation time: 0 hr 1 min 51 sec) 
Heartbeat CPU 0 instructions: 80000000 cycles: 38794704 heartbeat IPC: 2.0677 cumulative IPC: 2.06214 (Simulation time: 0 hr 2 min 8 sec) 
Heartbeat CPU 0 instructions: 90000002 cycles: 43648736 heartbeat IPC: 2.06014 cumulative IPC: 2.06192 (Simulation time: 0 hr 2 min 24 sec) 
Heartbeat CPU 0 instructions: 100000000 cycles: 48567694 heartbeat IPC: 2.03295 cumulative IPC: 2.05898 (Simulation time: 0 hr 2 min 41 sec) 

Warmup complete CPU 0 instructions: 100000001 cycles: 48567695 (Simulation time: 0 hr 2 min 41 sec) 

Heartbeat CPU 0 instructions: 110000000 cycles: 61545924 heartbeat IPC: 0.770521 cumulative IPC: 0.770521 (Simulation time: 0 hr 3 min 3 sec) 
Heartbeat CPU 0 instructions: 120000000 cycles: 75316843 heartbeat IPC: 0.726168 cumulative IPC: 0.747687 (Simulation time: 0 hr 3 min 28 sec) 
Heartbeat CPU 0 instructions: 130000000 cycles: 89082138 heartbeat IPC: 0.726465 cumulative IPC: 0.740477 (Simulation time: 0 hr 3 min 52 sec) 
Heartbeat CPU 0 instructions: 140000000 cycles: 103383923 heartbeat IPC: 0.699213 cumulative IPC: 0.729711 (Simulation time: 0 hr 4 min 17 sec) 
Heartbeat CPU 0 instructions: 150000003 cycles: 116440848 heartbeat IPC: 0.765877 cumulative IPC: 0.736668 (Simulation time: 0 hr 4 min 39 sec) 
Heartbeat CPU 0 instructions: 160000000 cycles: 130201843 heartbeat IPC: 0.726691 cumulative IPC: 0.734987 (Simulation time: 0 hr 5 min 4 sec) 
Heartbeat CPU 0 instructions: 170000001 cycles: 143984047 heartbeat IPC: 0.725573 cumulative IPC: 0.733627 (Simulation time: 0 hr 5 min 29 sec) 
Heartbeat CPU 0 instructions: 180000000 cycles: 158260666 heartbeat IPC: 0.700446 cumulative IPC: 0.729308 (Simulation time: 0 hr 5 min 53 sec) 
Heartbeat CPU 0 instructions: 190000003 cycles: 171298780 heartbeat IPC: 0.766982 cumulative IPC: 0.733311 (Simulation time: 0 hr 6 min 16 sec) 
Heartbeat CPU 0 instructions: 200000000 cycles: 185056595 heartbeat IPC: 0.726859 cumulative IPC: 0.73266 (Simulation time: 0 hr 6 min 40 sec) 
Heartbeat CPU 0 instructions: 210000002 cycles: 198839355 heartbeat IPC: 0.725544 cumulative IPC: 0.732008 (Simulation time: 0 hr 7 min 5 sec) 
Heartbeat CPU 0 instructions: 220000000 cycles: 213117311 heartbeat IPC: 0.70038 cumulative IPC: 0.729263 (Simulation time: 0 hr 7 min 30 sec) 
Heartbeat CPU 0 instructions: 230000001 cycles: 226113703 heartbeat IPC: 0.769444 cumulative IPC: 0.732205 (Simulation time: 0 hr 7 min 52 sec) 
Heartbeat CPU 0 instructions: 240000000 cycles: 239856853 heartbeat IPC: 0.727635 cumulative IPC: 0.731876 (Simulation time: 0 hr 8 min 17 sec) 
Heartbeat CPU 0 instructions: 250000001 cycles: 253592296 heartbeat IPC: 0.728044 cumulative IPC: 0.73162 (Simulation time: 0 hr 8 min 41 sec) 
Heartbeat CPU 0 instructions: 260000000 cycles: 267759872 heartbeat IPC: 0.705837 cumulative IPC: 0.729953 (Simulation time: 0 hr 9 min 6 sec) 
Heartbeat CPU 0 instructions: 270000003 cycles: 280902270 heartbeat IPC: 0.760896 cumulative IPC: 0.731703 (Simulation time: 0 hr 9 min 28 sec) 
Heartbeat CPU 0 instructions: 280000000 cycles: 294659645 heartbeat IPC: 0.726883 cumulative IPC: 0.731434 (Simulation time: 0 hr 9 min 52 sec) 
Heartbeat CPU 0 instructions: 290000001 cycles: 308430443 heartbeat IPC: 0.726174 cumulative IPC: 0.731155 (Simulation time: 0 hr 10 min 17 sec) 
Heartbeat CPU 0 instructions: 300000000 cycles: 322534004 heartbeat IPC: 0.709041 cumulative IPC: 0.730017 (Simulation time: 0 hr 10 min 41 sec) 
Heartbeat CPU 0 instructions: 310000000 cycles: 335704389 heartbeat IPC: 0.759279 cumulative IPC: 0.731359 (Simulation time: 0 hr 11 min 4 sec) 
Heartbeat CPU 0 instructions: 320000000 cycles: 349490347 heartbeat IPC: 0.725376 cumulative IPC: 0.731085 (Simulation time: 0 hr 11 min 28 sec) 
Heartbeat CPU 0 instructions: 330000000 cycles: 363280833 heartbeat IPC: 0.725138 cumulative IPC: 0.730824 (Simulation time: 0 hr 11 min 53 sec) 
Heartbeat CPU 0 instructions: 340000000 cycles: 377347193 heartbeat IPC: 0.710916 cumulative IPC: 0.729973 (Simulation time: 0 hr 12 min 17 sec) 
Heartbeat CPU 0 instructions: 350000000 cycles: 390546351 heartbeat IPC: 0.757624 cumulative IPC: 0.73104 (Simulation time: 0 hr 12 min 39 sec) 
Heartbeat CPU 0 instructions: 360000000 cycles: 404353996 heartbeat IPC: 0.724236 cumulative IPC: 0.730776 (Simulation time: 0 hr 13 min 3 sec) 
Heartbeat CPU 0 instructions: 370000003 cycles: 418138533 heartbeat IPC: 0.725451 cumulative IPC: 0.730577 (Simulation time: 0 hr 13 min 27 sec) 
Heartbeat CPU 0 instructions: 380000000 cycles: 432167885 heartbeat IPC: 0.712791 cumulative IPC: 0.729927 (Simulation time: 0 hr 13 min 52 sec) 
Heartbeat CPU 0 instructions: 390000003 cycles: 445372546 heartbeat IPC: 0.757309 cumulative IPC: 0.730838 (Simulation time: 0 hr 14 min 13 sec) 
Heartbeat CPU 0 instructions: 400000000 cycles: 459166435 heartbeat IPC: 0.724958 cumulative IPC: 0.73064 (Simulation time: 0 hr 14 min 38 sec) 
Heartbeat CPU 0 instructions: 410000000 cycles: 472919729 heartbeat IPC: 0.727099 cumulative IPC: 0.730526 (Simulation time: 0 hr 15 min 2 sec) 
Heartbeat CPU 0 instructions: 420000000 cycles: 486934109 heartbeat IPC: 0.713553 cumulative IPC: 0.729983 (Simulation time: 0 hr 15 min 26 sec) 
Heartbeat CPU 0 instructions: 430000003 cycles: 500162718 heartbeat IPC: 0.755938 cumulative IPC: 0.730743 (Simulation time: 0 hr 15 min 48 sec) 
Heartbeat CPU 0 instructions: 440000000 cycles: 513961147 heartbeat IPC: 0.72472 cumulative IPC: 0.730565 (Simulation time: 0 hr 16 min 12 sec) 
Heartbeat CPU 0 instructions: 450000000 cycles: 527730862 heartbeat IPC: 0.726231 cumulative IPC: 0.73044 (Simulation time: 0 hr 16 min 36 sec) 
Heartbeat CPU 0 instructions: 460000000 cycles: 541724763 heartbeat IPC: 0.714597 cumulative IPC: 0.729991 (Simulation time: 0 hr 17 min 0 sec) 
Heartbeat CPU 0 instructions: 470000001 cycles: 554931054 heartbeat IPC: 0.757215 cumulative IPC: 0.730701 (Simulation time: 0 hr 17 min 22 sec) 
Heartbeat CPU 0 instructions: 480000000 cycles: 568697858 heartbeat IPC: 0.726385 cumulative IPC: 0.730586 (Simulation time: 0 hr 17 min 46 sec) 
Heartbeat CPU 0 instructions: 490000002 cycles: 582444254 heartbeat IPC: 0.727464 cumulative IPC: 0.730506 (Simulation time: 0 hr 18 min 10 sec) 
Heartbeat CPU 0 instructions: 500000000 cycles: 596440833 heartbeat IPC: 0.71446 cumulative IPC: 0.730096 (Simulation time: 0 hr 18 min 35 sec) 
Heartbeat CPU 0 instructions: 510000002 cycles: 609654333 heartbeat IPC: 0.756802 cumulative IPC: 0.730725 (Simulation time: 0 hr 18 min 56 sec) 
Heartbeat CPU 0 instructions: 520000000 cycles: 623410940 heartbeat IPC: 0.726923 cumulative IPC: 0.730634 (Simulation time: 0 hr 19 min 20 sec) 
Heartbeat CPU 0 instructions: 530000003 cycles: 637142296 heartbeat IPC: 0.72826 cumulative IPC: 0.730579 (Simulation time: 0 hr 19 min 44 sec) 
Heartbeat CPU 0 instructions: 540000000 cycles: 651159505 heartbeat IPC: 0.713409 cumulative IPC: 0.730179 (Simulation time: 0 hr 20 min 9 sec) 
Heartbeat CPU 0 instructions: 550000003 cycles: 664368305 heartbeat IPC: 0.757071 cumulative IPC: 0.730756 (Simulation time: 0 hr 20 min 30 sec) 
Heartbeat CPU 0 instructions: 560000000 cycles: 678099613 heartbeat IPC: 0.728263 cumulative IPC: 0.730702 (Simulation time: 0 hr 20 min 54 sec) 
Heartbeat CPU 0 instructions: 570000001 cycles: 691855157 heartbeat IPC: 0.72698 cumulative IPC: 0.730622 (Simulation time: 0 hr 21 min 18 sec) 
Heartbeat CPU 0 instructions: 580000000 cycles: 705896457 heartbeat IPC: 0.712185 cumulative IPC: 0.730228 (Simulation time: 0 hr 21 min 43 sec) 
Heartbeat CPU 0 instructions: 590000000 cycles: 719068453 heartbeat IPC: 0.759186 cumulative IPC: 0.730797 (Simulation time: 0 hr 22 min 4 sec) 
Heartbeat CPU 0 instructions: 600000000 cycles: 732808201 heartbeat IPC: 0.727815 cumulative IPC: 0.730737 (Simulation time: 0 hr 22 min 28 sec) 
Finished CPU 0 instructions: 500000001 cycles: 684240514 cumulative IPC: 0.730737 (Simulation time: 0 hr 22 min 28 sec) 

CPU 0 Branch Prediction Accuracy: 97.5275% MPKI: 2.1997
Number of Branches: 44482865 Number of Mispredictions: 1099852
Number of LOAD Instructions: 144955155
Number of LOAD Instructions (ROI): 144955155
Number of STORE Instructions: 55921098
Number of STORE Instructions (ROI): 55921098
Total Destination Memory Operands: 57111147
Total Destination Memory Operands (ROI): 57111147
Total Source Memory Operands: 144955155
Total Source Memory Operands (ROI): 144955155
Number of DEPENDED LOADS: 13454439
Number of DEPENDED LOADS (ROI): 13454439
Number of SQ_ADDED: 57111126
Number of SQ_ADDED (ROI): 57111126
Number of LQ_ADDED: 174113200
Number of LQ_ADDED (ROI): 174113200
Number of Instructions read from trace: 600000256

ChampSim completed all CPUs

Region of Interest Statistics

CPU 0 cumulative IPC: 0.730737 instructions: 500000001 cycles: 684240514
ITLB TOTAL     ACCESS:  136069402  HIT:  136066849  MISS:       2553
ITLB LOAD      ACCESS:  136069402  HIT:  136066849  MISS:       2553
ITLB RFO       ACCESS:          0  HIT:          0  MISS:          0
ITLB PREFETCH  ACCESS:          0  HIT:          0  MISS:          0
ITLB WRITEBACK ACCESS:          0  HIT:          0  MISS:          0
ITLB PREFETCH  REQUESTED:          0  ISSUED:          0  USEFUL:          0  USELESS:          0
ITLB TOTAL MSHR MERGED:       4369
ITLB LOAD MSHR MERGED:       4369
ITLB RFO MSHR MERGED:          0
ITLB PREFETCH MSHR MERGED:          0
ITLB WRITEBACK MSHR MERGED:          0
ITLB TOTAL ACCESSES:  136073771 HITS:  136066849 MISSES:       6922
ITLB LOAD ACCESSES:  136073771 HITS:  136066849 MISSES:       6922
ITLB RFO ACCESSES:          0 HITS:          0 MISSES:          0
ITLB PREFETCH ACCESSES:          0 HITS:          0 MISSES:          0
ITLB WRITEBACK ACCESSES:          0 HITS:          0 MISSES:          0
ITLB RQ ACCESS:  500000202
ITLB RQ TO_CACHE:  136073771
ITLB RQ MERGED:  363926431
ITLB RQ FORWARD:          0
ITLB WQ ACCESS:          0
ITLB WQ TO_CACHE:          0
ITLB WQ MERGED:          0
ITLB WQ FORWARD:          0
DTLB TOTAL     ACCESS:  111558521  HIT:  111422326  MISS:     136195
DTLB LOAD      ACCESS:   78954501  HIT:   78828875  MISS:     125626
DTLB RFO       ACCESS:   32604020  HIT:   32593451  MISS:      10569
DTLB PREFETCH  ACCESS:          0  HIT:          0  MISS:          0
DTLB WRITEBACK ACCESS:          0  HIT:          0  MISS:          0
DTLB PREFETCH  REQUESTED:          0  ISSUED:          0  USEFUL:          0  USELESS:          0
DTLB TOTAL MSHR MERGED:      64217
DTLB LOAD MSHR MERGED:      50914
DTLB RFO MSHR MERGED:      13303
DTLB PREFETCH MSHR MERGED:          0
DTLB WRITEBACK MSHR MERGED:          0
DTLB TOTAL ACCESSES:  111622738 HITS:  111422326 MISSES:     200412
DTLB LOAD ACCESSES:   79005415 HITS:   78828875 MISSES:     176540
DTLB RFO ACCESSES:   32617323 HITS:   32593451 MISSES:      23872
DTLB PREFETCH ACCESSES:          0 HITS:          0 MISSES:          0
DTLB WRITEBACK ACCESSES:          0 HITS:          0 MISSES:          0
DTLB RQ ACCESS:  157180991
DTLB RQ TO_CACHE:  111622738
DTLB RQ MERGED:   45558253
DTLB RQ FORWARD:          0
DTLB WQ ACCESS:          0
DTLB WQ TO_CACHE:          0
DTLB WQ MERGED:          0
DTLB WQ FORWARD:          0
L1D TOTAL     ACCESS:  198284454  HIT:  188443353  MISS:    9841101
L1D LOAD      ACCESS:   79955449  HIT:   75694230  MISS:    4261219
L1D RFO       ACCESS:   44558073  HIT:   43658229  MISS:     899844
L1D PREFETCH  ACCESS:   73770932  HIT:   69090894  MISS:    4680038
L1D WRITEBACK ACCESS:          0  HIT:          0  MISS:          0
L1D PREFETCH  REQUESTED:   80351273  ISSUED:   79895596  USEFUL:    1821687  USELESS:    2858260
L1D TOTAL MSHR MERGED:    2455211
L1D LOAD MSHR MERGED:     518741
L1D RFO MSHR MERGED:    1394578
L1D PREFETCH MSHR MERGED:     541892
L1D WRITEBACK MSHR MERGED:          0
L1D TOTAL ACCESSES:  200760729 HITS:  188464417 MISSES:   12296312
L1D LOAD ACCESSES:   80363703 HITS:   75706660 MISSES:    4657043
L1D RFO ACCESSES:   45950171 HITS:   43658229 MISSES:    2291942
L1D PREFETCH ACCESSES:   74446855 HITS:   69099528 MISSES:    5347327
L1D WRITEBACK ACCESSES:          0 HITS:          0 MISSES:          0
L1D RQ ACCESS:  109539021
L1D RQ TO_CACHE:   80351273
L1D RQ MERGED:   29175318
L1D RQ FORWARD:          0
L1D WQ ACCESS:   47641970
L1D WQ TO_CACHE:   45950171
L1D WQ MERGED:    1691799
L1D WQ FORWARD:      21064
L1I TOTAL     ACCESS:  161537799  HIT:  161273831  MISS:     263968
L1I LOAD      ACCESS:  161537799  HIT:  161273831  MISS:     263968
L1I RFO       ACCESS:          0  HIT:          0  MISS:          0
L1I PREFETCH  ACCESS:          0  HIT:          0  MISS:          0
L1I WRITEBACK ACCESS:          0  HIT:          0  MISS:          0
L1I PREFETCH  REQUESTED:          0  ISSUED:          0  USEFUL:          0  USELESS:          0
L1I TOTAL MSHR MERGED:     262814
L1I LOAD MSHR MERGED:     262814
L1I RFO MSHR MERGED:          0
L1I PREFETCH MSHR MERGED:          0
L1I WRITEBACK MSHR MERGED:          0
L1I TOTAL ACCESSES:  161800613 HITS:  161273831 MISSES:     526782
L1I LOAD ACCESSES:  161800613 HITS:  161273831 MISSES:     526782
L1I RFO ACCESSES:          0 HITS:          0 MISSES:          0
L1I PREFETCH ACCESSES:          0 HITS:          0 MISSES:          0
L1I WRITEBACK ACCESSES:          0 HITS:          0 MISSES:          0
L1I RQ ACCESS:  500000202
L1I RQ TO_CACHE:  161800613
L1I RQ MERGED:  338199589
L1I RQ FORWARD:          0
L1I WQ ACCESS:          0
L1I WQ TO_CACHE:          0
L1I WQ MERGED:          0
L1I WQ FORWARD:          0
L2C TOTAL     ACCESS:   11771956  HIT:   10382663  MISS:    1389293
L2C LOAD      ACCESS:    4402205  HIT:    3905648  MISS:     496557
L2C RFO       ACCESS:     897300  HIT:     536306  MISS:     360994
L2C PREFETCH  ACCESS:    5284888  HIT:    4756091  MISS:     528797
L2C WRITEBACK ACCESS:    1187563  HIT:    1184618  MISS:       2945
L2C PREFETCH  REQUESTED:     504547  ISSUED:     504547  USEFUL:     114875  USELESS:     414115
L2C TOTAL MSHR MERGED:       1723
L2C LOAD MSHR MERGED:        342
L2C RFO MSHR MERGED:          0
L2C PREFETCH MSHR MERGED:       1381
L2C WRITEBACK MSHR MERGED:          0
L2C TOTAL ACCESSES:   11776453 HITS:   10382876 MISSES:    1393577
L2C LOAD ACCESSES:    4402270 HITS:    3905713 MISSES:     496557
L2C RFO ACCESSES:     897364 HITS:     536370 MISSES:     360994
L2C PREFETCH ACCESSES:    5289256 HITS:    4756175 MISSES:     533081
L2C WRITEBACK ACCESSES:    1187563 HITS:    1184618 MISSES:       2945
L2C RQ ACCESS:    5299634
L2C RQ TO_CACHE:    5299505
L2C RQ MERGED:          0
L2C RQ FORWARD:          0
L2C WQ ACCESS:    1187563
L2C WQ TO_CACHE:    1187563
L2C WQ MERGED:          0
L2C WQ FORWARD:        213
LLC TOTAL     ACCESS:    1849534  HIT:    1282306  MISS:     567228
LLC LOAD      ACCESS:     496213  HIT:     203211  MISS:     293002
LLC RFO       ACCESS:     360989  HIT:     319075  MISS:      41914
LLC PREFETCH  ACCESS:     531615  HIT:     328361  MISS:     203254
LLC WRITEBACK ACCESS:     460717  HIT:     431659  MISS:      29058
LLC PREFETCH  REQUESTED:          0  ISSUED:          0  USEFUL:       2310  USELESS:     200329
LLC TOTAL MSHR MERGED:         49
LLC LOAD MSHR MERGED:         24
LLC RFO MSHR MERGED:          0
LLC PREFETCH MSHR MERGED:         25
LLC WRITEBACK MSHR MERGED:          0
LLC TOTAL ACCESSES:    1849611 HITS:    1282334 MISSES:     567277
LLC LOAD ACCESSES:     496215 HITS:     203213 MISSES:     293002
LLC RFO ACCESSES:     360994 HITS:     319080 MISSES:      41914
LLC PREFETCH ACCESSES:     531685 HITS:     328382 MISSES:     203303
LLC WRITEBACK ACCESSES:     460717 HITS:     431659 MISSES:      29058
LLC 0 RQ ACCESS:     857209
LLC 0 RQ TO_CACHE:     857202
LLC 0 RQ MERGED:          0
LLC 0 RQ FORWARD:          0
LLC WQ ACCESS:     460717
LLC WQ TO_CACHE:     460717
LLC WQ MERGED:          0
LLC WQ FORWARD:         28
Major fault: 0 Minor fault: 3073
CPU 0 L1D next line prefetcher final stats
CPU 0 L2C PC-based stride prefetcher final stats
All Misses: 723436
All Hits: 1452789
SD Algo Stats - Switches: 0 SRR-Repls: 341668 BRR-Repls: 0

DRAM Statistics
 CHANNEL 0
 RQ ROW_BUFFER_HIT:     372142  ROW_BUFFER_MISS:     165420
 DBUS_CONGESTED:     316141
 WQ ROW_BUFFER_HIT:       4122  ROW_BUFFER_MISS:      40179  FULL:          0

 AVG_CONGESTED_CYCLE: 13
LOADS RETIRED: 120673965
INSTR RETIRED: 500000000
