
*** ChampSim Multicore Out-of-Order Simulator ***

Warmup Instructions: 100000000
Simulation Instructions: 500000000
Number of CPUs: 1
LLC sets: 2048
LLC ways: 16
Clean RRIP Policies: 1213230212132302 Dirty RRIP Policies: 2203130222031302 PSEL Width: 10 Track Set: 4294967295 PSEL Mask: 1 Demote Mask: 3010104030101040DS Algo: 0Window size: 0
Off-chip DRAM Size: 4096 MB Channels: 1 Width: 64-bit Data Rate: 1600 MT/s

CPU 0 runs /mnt/beegfs/iconst01/spec2017/Blender.trace.gz
NOT SORTED
TRACE STRING: /mnt/beegfs/iconst01/spec2017/Blender.trace.gz
SORTED
TRACE STRING: /mnt/beegfs/iconst01/spec2017/Blender.trace.gz
INITIAL
TRACE STRING: /mnt/beegfs/iconst01/spec2017/Blender.trace.gz

champsim_seed used: 700

CPU 0 L1D next line prefetcher
CPU 0 L2C IP-based stride prefetcher
Initialize DRRIP state
Assign rand_sets[0]: 454  LLC: 2048
rand_sets[0]: 454
Assign rand_sets[1]: 1662  LLC: 2048
rand_sets[1]: 1662
Assign rand_sets[2]: 1921  LLC: 2048
rand_sets[2]: 1921
Assign rand_sets[3]: 1131  LLC: 2048
rand_sets[3]: 1131
Assign rand_sets[4]: 331  LLC: 2048
rand_sets[4]: 331
Assign rand_sets[5]: 1531  LLC: 2048
rand_sets[5]: 1531
Assign rand_sets[6]: 482  LLC: 2048
rand_sets[6]: 482
Assign rand_sets[7]: 1275  LLC: 2048
rand_sets[7]: 1275
Assign rand_sets[8]: 1876  LLC: 2048
rand_sets[8]: 1876
Assign rand_sets[9]: 2038  LLC: 2048
rand_sets[9]: 2038
Assign rand_sets[10]: 701  LLC: 2048
rand_sets[10]: 701
Assign rand_sets[11]: 479  LLC: 2048
rand_sets[11]: 479
Assign rand_sets[12]: 892  LLC: 2048
rand_sets[12]: 892
Assign rand_sets[13]: 1820  LLC: 2048
rand_sets[13]: 1820
Assign rand_sets[14]: 1505  LLC: 2048
rand_sets[14]: 1505
Assign rand_sets[15]: 1159  LLC: 2048
rand_sets[15]: 1159
Assign rand_sets[16]: 513  LLC: 2048
rand_sets[16]: 513
Assign rand_sets[17]: 703  LLC: 2048
rand_sets[17]: 703
Assign rand_sets[18]: 561  LLC: 2048
rand_sets[18]: 561
Assign rand_sets[19]: 990  LLC: 2048
rand_sets[19]: 990
Assign rand_sets[20]: 342  LLC: 2048
rand_sets[20]: 342
Assign rand_sets[21]: 882  LLC: 2048
rand_sets[21]: 882
Assign rand_sets[22]: 15  LLC: 2048
rand_sets[22]: 15
Assign rand_sets[23]: 71  LLC: 2048
rand_sets[23]: 71
Assign rand_sets[24]: 1127  LLC: 2048
rand_sets[24]: 1127
Assign rand_sets[25]: 1382  LLC: 2048
rand_sets[25]: 1382
Assign rand_sets[26]: 647  LLC: 2048
rand_sets[26]: 647
Assign rand_sets[27]: 857  LLC: 2048
rand_sets[27]: 857
Assign rand_sets[28]: 1450  LLC: 2048
rand_sets[28]: 1450
Assign rand_sets[29]: 1160  LLC: 2048
rand_sets[29]: 1160
Assign rand_sets[30]: 1852  LLC: 2048
rand_sets[30]: 1852
Assign rand_sets[31]: 1881  LLC: 2048
rand_sets[31]: 1881
Assign rand_sets[32]: 1770  LLC: 2048
rand_sets[32]: 1770
Assign rand_sets[33]: 1622  LLC: 2048
rand_sets[33]: 1622
Assign rand_sets[34]: 275  LLC: 2048
rand_sets[34]: 275
Assign rand_sets[35]: 635  LLC: 2048
rand_sets[35]: 635
Assign rand_sets[36]: 466  LLC: 2048
rand_sets[36]: 466
Assign rand_sets[37]: 1413  LLC: 2048
rand_sets[37]: 1413
Assign rand_sets[38]: 417  LLC: 2048
rand_sets[38]: 417
Assign rand_sets[39]: 472  LLC: 2048
rand_sets[39]: 472
Assign rand_sets[40]: 1340  LLC: 2048
rand_sets[40]: 1340
Assign rand_sets[41]: 852  LLC: 2048
rand_sets[41]: 852
Assign rand_sets[42]: 1365  LLC: 2048
rand_sets[42]: 1365
Assign rand_sets[43]: 47  LLC: 2048
rand_sets[43]: 47
Assign rand_sets[44]: 823  LLC: 2048
rand_sets[44]: 823
Assign rand_sets[45]: 686  LLC: 2048
rand_sets[45]: 686
Assign rand_sets[46]: 1637  LLC: 2048
rand_sets[46]: 1637
Assign rand_sets[47]: 1115  LLC: 2048
rand_sets[47]: 1115
Assign rand_sets[48]: 986  LLC: 2048
rand_sets[48]: 986
Assign rand_sets[49]: 258  LLC: 2048
rand_sets[49]: 258
Assign rand_sets[50]: 633  LLC: 2048
rand_sets[50]: 633
Assign rand_sets[51]: 920  LLC: 2048
rand_sets[51]: 920
Assign rand_sets[52]: 204  LLC: 2048
rand_sets[52]: 204
Assign rand_sets[53]: 227  LLC: 2048
rand_sets[53]: 227
Assign rand_sets[54]: 1818  LLC: 2048
rand_sets[54]: 1818
Assign rand_sets[55]: 886  LLC: 2048
rand_sets[55]: 886
Assign rand_sets[56]: 1422  LLC: 2048
rand_sets[56]: 1422
Assign rand_sets[57]: 607  LLC: 2048
rand_sets[57]: 607
Assign rand_sets[58]: 217  LLC: 2048
rand_sets[58]: 217
Assign rand_sets[59]: 1945  LLC: 2048
rand_sets[59]: 1945
Assign rand_sets[60]: 143  LLC: 2048
rand_sets[60]: 143
Assign rand_sets[61]: 1311  LLC: 2048
rand_sets[61]: 1311
Assign rand_sets[62]: 319  LLC: 2048
rand_sets[62]: 319
Assign rand_sets[63]: 1846  LLC: 2048
rand_sets[63]: 1846
 CLEAN-RRIP-POLICY-1: 1-2-1-3-2-3-0-2- CLEAN-RRIP-POLICY-2: 1-2-1-3-2-3-0-2-
 DIRTY-RRIP-POLICY-1: 2-2-0-3-1-3-0-2- DIRTY-RRIP-POLICY-2: 2-2-0-3-1-3-0-2-
 PSEL width: 10
Heartbeat CPU 0 instructions: 10000002 cycles: 5480930 heartbeat IPC: 1.82451 cumulative IPC: 1.82451 (Simulation time: 0 hr 0 min 13 sec) 
Heartbeat CPU 0 instructions: 20000000 cycles: 10913520 heartbeat IPC: 1.84074 cumulative IPC: 1.83259 (Simulation time: 0 hr 0 min 26 sec) 
Heartbeat CPU 0 instructions: 30000000 cycles: 16447388 heartbeat IPC: 1.80705 cumulative IPC: 1.824 (Simulation time: 0 hr 0 min 39 sec) 
Heartbeat CPU 0 instructions: 40000000 cycles: 21898185 heartbeat IPC: 1.83459 cumulative IPC: 1.82664 (Simulation time: 0 hr 0 min 52 sec) 
Heartbeat CPU 0 instructions: 50000000 cycles: 27400088 heartbeat IPC: 1.81755 cumulative IPC: 1.82481 (Simulation time: 0 hr 1 min 5 sec) 
Heartbeat CPU 0 instructions: 60000000 cycles: 32778889 heartbeat IPC: 1.85915 cumulative IPC: 1.83045 (Simulation time: 0 hr 1 min 19 sec) 
Heartbeat CPU 0 instructions: 70000001 cycles: 38335147 heartbeat IPC: 1.79977 cumulative IPC: 1.826 (Simulation time: 0 hr 1 min 32 sec) 
Heartbeat CPU 0 instructions: 80000000 cycles: 43795296 heartbeat IPC: 1.83145 cumulative IPC: 1.82668 (Simulation time: 0 hr 1 min 45 sec) 
Heartbeat CPU 0 instructions: 90000000 cycles: 49241901 heartbeat IPC: 1.83601 cumulative IPC: 1.82771 (Simulation time: 0 hr 1 min 58 sec) 
Heartbeat CPU 0 instructions: 100000000 cycles: 54786911 heartbeat IPC: 1.80342 cumulative IPC: 1.82525 (Simulation time: 0 hr 2 min 11 sec) 

Warmup complete CPU 0 instructions: 100000002 cycles: 54786912 (Simulation time: 0 hr 2 min 11 sec) 

Heartbeat CPU 0 instructions: 110000001 cycles: 69144497 heartbeat IPC: 0.696496 cumulative IPC: 0.696496 (Simulation time: 0 hr 2 min 30 sec) 
Heartbeat CPU 0 instructions: 120000000 cycles: 84102729 heartbeat IPC: 0.668528 cumulative IPC: 0.682226 (Simulation time: 0 hr 2 min 50 sec) 
Heartbeat CPU 0 instructions: 130000000 cycles: 98568856 heartbeat IPC: 0.69127 cumulative IPC: 0.685214 (Simulation time: 0 hr 3 min 9 sec) 
Heartbeat CPU 0 instructions: 140000000 cycles: 112893104 heartbeat IPC: 0.698117 cumulative IPC: 0.688395 (Simulation time: 0 hr 3 min 28 sec) 
Heartbeat CPU 0 instructions: 150000000 cycles: 127555956 heartbeat IPC: 0.681996 cumulative IPC: 0.687105 (Simulation time: 0 hr 3 min 47 sec) 
Heartbeat CPU 0 instructions: 160000000 cycles: 142607278 heartbeat IPC: 0.664393 cumulative IPC: 0.683213 (Simulation time: 0 hr 4 min 7 sec) 
Heartbeat CPU 0 instructions: 170000001 cycles: 157433554 heartbeat IPC: 0.674478 cumulative IPC: 0.681951 (Simulation time: 0 hr 4 min 26 sec) 
Heartbeat CPU 0 instructions: 180000000 cycles: 172307978 heartbeat IPC: 0.672295 cumulative IPC: 0.680729 (Simulation time: 0 hr 4 min 45 sec) 
Heartbeat CPU 0 instructions: 190000002 cycles: 186743497 heartbeat IPC: 0.692736 cumulative IPC: 0.682042 (Simulation time: 0 hr 5 min 4 sec) 
Heartbeat CPU 0 instructions: 200000000 cycles: 201085727 heartbeat IPC: 0.697241 cumulative IPC: 0.683533 (Simulation time: 0 hr 5 min 23 sec) 
Heartbeat CPU 0 instructions: 210000003 cycles: 215673954 heartbeat IPC: 0.685484 cumulative IPC: 0.68371 (Simulation time: 0 hr 5 min 43 sec) 
Heartbeat CPU 0 instructions: 220000000 cycles: 230327509 heartbeat IPC: 0.682428 cumulative IPC: 0.683603 (Simulation time: 0 hr 6 min 2 sec) 
Heartbeat CPU 0 instructions: 230000001 cycles: 245386645 heartbeat IPC: 0.664049 cumulative IPC: 0.682058 (Simulation time: 0 hr 6 min 22 sec) 
Heartbeat CPU 0 instructions: 240000000 cycles: 260261628 heartbeat IPC: 0.67227 cumulative IPC: 0.681349 (Simulation time: 0 hr 6 min 41 sec) 
Heartbeat CPU 0 instructions: 250000003 cycles: 275042780 heartbeat IPC: 0.676537 cumulative IPC: 0.681026 (Simulation time: 0 hr 7 min 0 sec) 
Heartbeat CPU 0 instructions: 260000000 cycles: 290478888 heartbeat IPC: 0.647831 cumulative IPC: 0.678852 (Simulation time: 0 hr 7 min 19 sec) 
Heartbeat CPU 0 instructions: 270000003 cycles: 305055653 heartbeat IPC: 0.686023 cumulative IPC: 0.67927 (Simulation time: 0 hr 7 min 39 sec) 
Heartbeat CPU 0 instructions: 280000000 cycles: 319485295 heartbeat IPC: 0.693018 cumulative IPC: 0.680019 (Simulation time: 0 hr 7 min 58 sec) 
Heartbeat CPU 0 instructions: 290000002 cycles: 333894168 heartbeat IPC: 0.694017 cumulative IPC: 0.680742 (Simulation time: 0 hr 8 min 17 sec) 
Heartbeat CPU 0 instructions: 300000000 cycles: 349246822 heartbeat IPC: 0.651353 cumulative IPC: 0.67921 (Simulation time: 0 hr 8 min 37 sec) 
Heartbeat CPU 0 instructions: 310000000 cycles: 364172827 heartbeat IPC: 0.669972 cumulative IPC: 0.678764 (Simulation time: 0 hr 8 min 56 sec) 
Heartbeat CPU 0 instructions: 320000000 cycles: 378940599 heartbeat IPC: 0.67715 cumulative IPC: 0.67869 (Simulation time: 0 hr 9 min 15 sec) 
Heartbeat CPU 0 instructions: 330000000 cycles: 394646420 heartbeat IPC: 0.636707 cumulative IPC: 0.67675 (Simulation time: 0 hr 9 min 35 sec) 
Heartbeat CPU 0 instructions: 340000000 cycles: 409249157 heartbeat IPC: 0.684803 cumulative IPC: 0.677082 (Simulation time: 0 hr 9 min 54 sec) 
Heartbeat CPU 0 instructions: 350000000 cycles: 423823911 heartbeat IPC: 0.686118 cumulative IPC: 0.677439 (Simulation time: 0 hr 10 min 13 sec) 
Heartbeat CPU 0 instructions: 360000000 cycles: 438444290 heartbeat IPC: 0.683977 cumulative IPC: 0.677688 (Simulation time: 0 hr 10 min 32 sec) 
Heartbeat CPU 0 instructions: 370000002 cycles: 453816181 heartbeat IPC: 0.650538 cumulative IPC: 0.676642 (Simulation time: 0 hr 10 min 51 sec) 
Heartbeat CPU 0 instructions: 380000000 cycles: 468613290 heartbeat IPC: 0.675808 cumulative IPC: 0.676612 (Simulation time: 0 hr 11 min 11 sec) 
Heartbeat CPU 0 instructions: 390000003 cycles: 483513305 heartbeat IPC: 0.67114 cumulative IPC: 0.676422 (Simulation time: 0 hr 11 min 30 sec) 
Heartbeat CPU 0 instructions: 400000000 cycles: 499292245 heartbeat IPC: 0.633756 cumulative IPC: 0.674908 (Simulation time: 0 hr 11 min 49 sec) 
Heartbeat CPU 0 instructions: 410000001 cycles: 514268644 heartbeat IPC: 0.667717 cumulative IPC: 0.674673 (Simulation time: 0 hr 12 min 8 sec) 
Heartbeat CPU 0 instructions: 420000000 cycles: 528976498 heartbeat IPC: 0.679909 cumulative IPC: 0.674836 (Simulation time: 0 hr 12 min 27 sec) 
Heartbeat CPU 0 instructions: 430000000 cycles: 544339178 heartbeat IPC: 0.650928 cumulative IPC: 0.674085 (Simulation time: 0 hr 12 min 46 sec) 
Heartbeat CPU 0 instructions: 440000000 cycles: 559118921 heartbeat IPC: 0.676602 cumulative IPC: 0.674159 (Simulation time: 0 hr 13 min 5 sec) 
Heartbeat CPU 0 instructions: 450000000 cycles: 574037457 heartbeat IPC: 0.670307 cumulative IPC: 0.674048 (Simulation time: 0 hr 13 min 24 sec) 
Heartbeat CPU 0 instructions: 460000000 cycles: 589733242 heartbeat IPC: 0.637114 cumulative IPC: 0.672965 (Simulation time: 0 hr 13 min 43 sec) 
Heartbeat CPU 0 instructions: 470000000 cycles: 604762157 heartbeat IPC: 0.665384 cumulative IPC: 0.672758 (Simulation time: 0 hr 14 min 2 sec) 
Heartbeat CPU 0 instructions: 480000000 cycles: 619610559 heartbeat IPC: 0.673473 cumulative IPC: 0.672776 (Simulation time: 0 hr 14 min 21 sec) 
Heartbeat CPU 0 instructions: 490000002 cycles: 634837218 heartbeat IPC: 0.656743 cumulative IPC: 0.672355 (Simulation time: 0 hr 14 min 40 sec) 
Heartbeat CPU 0 instructions: 500000000 cycles: 649671514 heartbeat IPC: 0.674113 cumulative IPC: 0.672399 (Simulation time: 0 hr 14 min 59 sec) 
Heartbeat CPU 0 instructions: 510000001 cycles: 664731495 heartbeat IPC: 0.664012 cumulative IPC: 0.672192 (Simulation time: 0 hr 15 min 18 sec) 
Heartbeat CPU 0 instructions: 520000000 cycles: 680143205 heartbeat IPC: 0.648857 cumulative IPC: 0.671617 (Simulation time: 0 hr 15 min 37 sec) 
Heartbeat CPU 0 instructions: 530000001 cycles: 695518654 heartbeat IPC: 0.650388 cumulative IPC: 0.671108 (Simulation time: 0 hr 15 min 56 sec) 
Heartbeat CPU 0 instructions: 540000000 cycles: 710065930 heartbeat IPC: 0.687414 cumulative IPC: 0.67147 (Simulation time: 0 hr 16 min 15 sec) 
Heartbeat CPU 0 instructions: 550000001 cycles: 725275257 heartbeat IPC: 0.657491 cumulative IPC: 0.671153 (Simulation time: 0 hr 16 min 34 sec) 
Heartbeat CPU 0 instructions: 560000000 cycles: 740043728 heartbeat IPC: 0.677118 cumulative IPC: 0.671281 (Simulation time: 0 hr 16 min 52 sec) 
Heartbeat CPU 0 instructions: 570000002 cycles: 755137056 heartbeat IPC: 0.662545 cumulative IPC: 0.671093 (Simulation time: 0 hr 17 min 11 sec) 
Heartbeat CPU 0 instructions: 580000000 cycles: 770106816 heartbeat IPC: 0.668013 cumulative IPC: 0.671028 (Simulation time: 0 hr 17 min 30 sec) 
Heartbeat CPU 0 instructions: 590000001 cycles: 785058452 heartbeat IPC: 0.668823 cumulative IPC: 0.670983 (Simulation time: 0 hr 17 min 49 sec) 
Heartbeat CPU 0 instructions: 600000000 cycles: 799678954 heartbeat IPC: 0.683971 cumulative IPC: 0.671238 (Simulation time: 0 hr 18 min 7 sec) 
Finished CPU 0 instructions: 500000000 cycles: 744892050 cumulative IPC: 0.671238 (Simulation time: 0 hr 18 min 7 sec) 

CPU 0 Branch Prediction Accuracy: 93.7783% MPKI: 10.0718
Number of Branches: 80940586 Number of Mispredictions: 5035908
Number of LOAD Instructions: 184238101
Number of LOAD Instructions (ROI): 184238101
Number of STORE Instructions: 33143298
Number of STORE Instructions (ROI): 33143298
Total Destination Memory Operands: 33324321
Total Destination Memory Operands (ROI): 33324321
Total Source Memory Operands: 184238101
Total Source Memory Operands (ROI): 184238101
Number of DEPENDED LOADS: 4461290
Number of DEPENDED LOADS (ROI): 4461290
Number of SQ_ADDED: 33324292
Number of SQ_ADDED (ROI): 33324292
Number of LQ_ADDED: 184865728
Number of LQ_ADDED (ROI): 184865728
Number of Instructions read from trace: 600000256

ChampSim completed all CPUs

Region of Interest Statistics

CPU 0 cumulative IPC: 0.671238 instructions: 500000000 cycles: 744892050
ITLB TOTAL     ACCESS:   77744969  HIT:   77744969  MISS:          0
ITLB LOAD      ACCESS:   77744969  HIT:   77744969  MISS:          0
ITLB RFO       ACCESS:          0  HIT:          0  MISS:          0
ITLB PREFETCH  ACCESS:          0  HIT:          0  MISS:          0
ITLB WRITEBACK ACCESS:          0  HIT:          0  MISS:          0
ITLB PREFETCH  REQUESTED:          0  ISSUED:          0  USEFUL:          0  USELESS:          0
ITLB TOTAL MSHR MERGED:          0
ITLB LOAD MSHR MERGED:          0
ITLB RFO MSHR MERGED:          0
ITLB PREFETCH MSHR MERGED:          0
ITLB WRITEBACK MSHR MERGED:          0
ITLB TOTAL ACCESSES:   77744969 HITS:   77744969 MISSES:          0
ITLB LOAD ACCESSES:   77744969 HITS:   77744969 MISSES:          0
ITLB RFO ACCESSES:          0 HITS:          0 MISSES:          0
ITLB PREFETCH ACCESSES:          0 HITS:          0 MISSES:          0
ITLB WRITEBACK ACCESSES:          0 HITS:          0 MISSES:          0
ITLB RQ ACCESS:  500000245
ITLB RQ TO_CACHE:   77744969
ITLB RQ MERGED:  422255276
ITLB RQ FORWARD:          0
ITLB WQ ACCESS:          0
ITLB WQ TO_CACHE:          0
ITLB WQ MERGED:          0
ITLB WQ FORWARD:          0
DTLB TOTAL     ACCESS:   88436436  HIT:   87299587  MISS:    1136849
DTLB LOAD      ACCESS:   66309830  HIT:   65177221  MISS:    1132609
DTLB RFO       ACCESS:   22126606  HIT:   22122366  MISS:       4240
DTLB PREFETCH  ACCESS:          0  HIT:          0  MISS:          0
DTLB WRITEBACK ACCESS:          0  HIT:          0  MISS:          0
DTLB PREFETCH  REQUESTED:          0  ISSUED:          0  USEFUL:          0  USELESS:          0
DTLB TOTAL MSHR MERGED:     135523
DTLB LOAD MSHR MERGED:     133706
DTLB RFO MSHR MERGED:       1817
DTLB PREFETCH MSHR MERGED:          0
DTLB WRITEBACK MSHR MERGED:          0
DTLB TOTAL ACCESSES:   88571959 HITS:   87299587 MISSES:    1272372
DTLB LOAD ACCESSES:   66443536 HITS:   65177221 MISSES:    1266315
DTLB RFO ACCESSES:   22128423 HITS:   22122366 MISSES:       6057
DTLB PREFETCH ACCESSES:          0 HITS:          0 MISSES:          0
DTLB WRITEBACK ACCESSES:          0 HITS:          0 MISSES:          0
DTLB RQ ACCESS:  177579418
DTLB RQ TO_CACHE:   88571959
DTLB RQ MERGED:   89007459
DTLB RQ FORWARD:          0
DTLB WQ ACCESS:          0
DTLB WQ TO_CACHE:          0
DTLB WQ MERGED:          0
DTLB WQ FORWARD:          0
L1D TOTAL     ACCESS:  142098883  HIT:  136539826  MISS:    5559057
L1D LOAD      ACCESS:   61384107  HIT:   58280226  MISS:    3103881
L1D RFO       ACCESS:   27668926  HIT:   27587117  MISS:      81809
L1D PREFETCH  ACCESS:   53045850  HIT:   50672483  MISS:    2373367
L1D WRITEBACK ACCESS:          0  HIT:          0  MISS:          0
L1D PREFETCH  REQUESTED:   61669727  ISSUED:   60751567  USEFUL:     666480  USELESS:    1706892
L1D TOTAL MSHR MERGED:    1179772
L1D LOAD MSHR MERGED:     383860
L1D RFO MSHR MERGED:     164155
L1D PREFETCH MSHR MERGED:     631757
L1D WRITEBACK MSHR MERGED:          0
L1D TOTAL ACCESSES:  143376271 HITS:  136637442 MISSES:    6738829
L1D LOAD ACCESSES:   61669737 HITS:   58280236 MISSES:    3389501
L1D RFO ACCESSES:   27829288 HITS:   27587117 MISSES:     242171
L1D PREFETCH ACCESSES:   53877246 HITS:   50770089 MISSES:    3107157
L1D WRITEBACK ACCESSES:          0 HITS:          0 MISSES:          0
L1D RQ ACCESS:  149746452
L1D RQ TO_CACHE:   61669727
L1D RQ MERGED:   88076715
L1D RQ FORWARD:          0
L1D WQ ACCESS:   27832966
L1D WQ TO_CACHE:   27829288
L1D WQ MERGED:       3678
L1D WQ FORWARD:      97616
L1I TOTAL     ACCESS:   96222263  HIT:   96062995  MISS:     159268
L1I LOAD      ACCESS:   96222263  HIT:   96062995  MISS:     159268
L1I RFO       ACCESS:          0  HIT:          0  MISS:          0
L1I PREFETCH  ACCESS:          0  HIT:          0  MISS:          0
L1I WRITEBACK ACCESS:          0  HIT:          0  MISS:          0
L1I PREFETCH  REQUESTED:          0  ISSUED:          0  USEFUL:          0  USELESS:          0
L1I TOTAL MSHR MERGED:     130254
L1I LOAD MSHR MERGED:     130254
L1I RFO MSHR MERGED:          0
L1I PREFETCH MSHR MERGED:          0
L1I WRITEBACK MSHR MERGED:          0
L1I TOTAL ACCESSES:   96352517 HITS:   96062995 MISSES:     289522
L1I LOAD ACCESSES:   96352517 HITS:   96062995 MISSES:     289522
L1I RFO ACCESSES:          0 HITS:          0 MISSES:          0
L1I PREFETCH ACCESSES:          0 HITS:          0 MISSES:          0
L1I WRITEBACK ACCESSES:          0 HITS:          0 MISSES:          0
L1I RQ ACCESS:  500000245
L1I RQ TO_CACHE:   96352517
L1I RQ MERGED:  403647728
L1I RQ FORWARD:          0
L1I WQ ACCESS:          0
L1I WQ TO_CACHE:          0
L1I WQ MERGED:          0
L1I WQ FORWARD:          0
L2C TOTAL     ACCESS:    5911348  HIT:    3062670  MISS:    2848678
L2C LOAD      ACCESS:    3164899  HIT:    1583132  MISS:    1581767
L2C RFO       ACCESS:      77943  HIT:      45089  MISS:      32854
L2C PREFETCH  ACCESS:    2524977  HIT:    1296503  MISS:    1228474
L2C WRITEBACK ACCESS:     143529  HIT:     137946  MISS:       5583
L2C PREFETCH  REQUESTED:      52724  ISSUED:      52724  USEFUL:      18787  USELESS:    1209727
L2C TOTAL MSHR MERGED:       2216
L2C LOAD MSHR MERGED:        822
L2C RFO MSHR MERGED:          0
L2C PREFETCH MSHR MERGED:       1394
L2C WRITEBACK MSHR MERGED:          0
L2C TOTAL ACCESSES:    5913652 HITS:    3062753 MISSES:    2850899
L2C LOAD ACCESSES:    3164909 HITS:    1583142 MISSES:    1581767
L2C RFO ACCESSES:      78016 HITS:      45162 MISSES:      32854
L2C PREFETCH ACCESSES:    2527198 HITS:    1296503 MISSES:    1230695
L2C WRITEBACK ACCESSES:     143529 HITS:     137946 MISSES:       5583
L2C RQ ACCESS:    3242925
L2C RQ TO_CACHE:    3242842
L2C RQ MERGED:          0
L2C RQ FORWARD:          0
L2C WQ ACCESS:     143529
L2C WQ TO_CACHE:     143529
L2C WQ MERGED:          0
L2C WQ FORWARD:         83
LLC TOTAL     ACCESS:    2892635  HIT:    1889212  MISS:    1003423
LLC LOAD      ACCESS:    1580945  HIT:    1150544  MISS:     430401
LLC RFO       ACCESS:      32844  HIT:      32494  MISS:        350
LLC PREFETCH  ACCESS:    1229301  HIT:     657102  MISS:     572199
LLC WRITEBACK ACCESS:      49545  HIT:      49072  MISS:        473
LLC PREFETCH  REQUESTED:          0  ISSUED:          0  USEFUL:       3106  USELESS:     569020
LLC TOTAL MSHR MERGED:          0
LLC LOAD MSHR MERGED:          0
LLC RFO MSHR MERGED:          0
LLC PREFETCH MSHR MERGED:          0
LLC WRITEBACK MSHR MERGED:          0
LLC TOTAL ACCESSES:    2892645 HITS:    1889222 MISSES:    1003423
LLC LOAD ACCESSES:    1580945 HITS:    1150544 MISSES:     430401
LLC RFO ACCESSES:      32854 HITS:      32504 MISSES:        350
LLC PREFETCH ACCESSES:    1229301 HITS:     657102 MISSES:     572199
LLC WRITEBACK ACCESSES:      49545 HITS:      49072 MISSES:        473
LLC 0 RQ ACCESS:    1613799
LLC 0 RQ TO_CACHE:    1613789
LLC 0 RQ MERGED:          0
LLC 0 RQ FORWARD:          0
LLC WQ ACCESS:      49545
LLC WQ TO_CACHE:      49545
LLC WQ MERGED:          0
LLC WQ FORWARD:         10
Major fault: 0 Minor fault: 8460
CPU 0 L1D next line prefetcher final stats
CPU 0 L2C PC-based stride prefetcher final stats
All Misses: 1226441
All Hits: 2202789
SD Algo Stats - Switches: 0 SRR-Repls: 500378 BRR-Repls: 0

DRAM Statistics
 CHANNEL 0
 RQ ROW_BUFFER_HIT:     336873  ROW_BUFFER_MISS:     665861
 DBUS_CONGESTED:     316206
 WQ ROW_BUFFER_HIT:         74  ROW_BUFFER_MISS:        734  FULL:          0

 AVG_CONGESTED_CYCLE: 12
LOADS RETIRED: 153532848
INSTR RETIRED: 500000000
