
*** ChampSim Multicore Out-of-Order Simulator ***

Warmup Instructions: 100000000
Simulation Instructions: 500000000
Number of CPUs: 1
LLC sets: 2048
LLC ways: 16
Clean RRIP Policies: 1213230212132302 Dirty RRIP Policies: 2203130222031302 PSEL Width: 10 Track Set: 4294967295 PSEL Mask: 1 Demote Mask: 3010104030101040DS Algo: 0Window size: 0
Off-chip DRAM Size: 4096 MB Channels: 1 Width: 64-bit Data Rate: 1600 MT/s

CPU 0 runs /mnt/beegfs/iconst01/spec2017/Lbm.trace.gz
NOT SORTED
TRACE STRING: /mnt/beegfs/iconst01/spec2017/Lbm.trace.gz
SORTED
TRACE STRING: /mnt/beegfs/iconst01/spec2017/Lbm.trace.gz
INITIAL
TRACE STRING: /mnt/beegfs/iconst01/spec2017/Lbm.trace.gz

champsim_seed used: 283

CPU 0 L1D next line prefetcher
CPU 0 L2C IP-based stride prefetcher
Initialize DRRIP state
Assign rand_sets[0]: 454  LLC: 2048
rand_sets[0]: 454
Assign rand_sets[1]: 1662  LLC: 2048
rand_sets[1]: 1662
Assign rand_sets[2]: 1921  LLC: 2048
rand_sets[2]: 1921
Assign rand_sets[3]: 1131  LLC: 2048
rand_sets[3]: 1131
Assign rand_sets[4]: 331  LLC: 2048
rand_sets[4]: 331
Assign rand_sets[5]: 1531  LLC: 2048
rand_sets[5]: 1531
Assign rand_sets[6]: 482  LLC: 2048
rand_sets[6]: 482
Assign rand_sets[7]: 1275  LLC: 2048
rand_sets[7]: 1275
Assign rand_sets[8]: 1876  LLC: 2048
rand_sets[8]: 1876
Assign rand_sets[9]: 2038  LLC: 2048
rand_sets[9]: 2038
Assign rand_sets[10]: 701  LLC: 2048
rand_sets[10]: 701
Assign rand_sets[11]: 479  LLC: 2048
rand_sets[11]: 479
Assign rand_sets[12]: 892  LLC: 2048
rand_sets[12]: 892
Assign rand_sets[13]: 1820  LLC: 2048
rand_sets[13]: 1820
Assign rand_sets[14]: 1505  LLC: 2048
rand_sets[14]: 1505
Assign rand_sets[15]: 1159  LLC: 2048
rand_sets[15]: 1159
Assign rand_sets[16]: 513  LLC: 2048
rand_sets[16]: 513
Assign rand_sets[17]: 703  LLC: 2048
rand_sets[17]: 703
Assign rand_sets[18]: 561  LLC: 2048
rand_sets[18]: 561
Assign rand_sets[19]: 990  LLC: 2048
rand_sets[19]: 990
Assign rand_sets[20]: 342  LLC: 2048
rand_sets[20]: 342
Assign rand_sets[21]: 882  LLC: 2048
rand_sets[21]: 882
Assign rand_sets[22]: 15  LLC: 2048
rand_sets[22]: 15
Assign rand_sets[23]: 71  LLC: 2048
rand_sets[23]: 71
Assign rand_sets[24]: 1127  LLC: 2048
rand_sets[24]: 1127
Assign rand_sets[25]: 1382  LLC: 2048
rand_sets[25]: 1382
Assign rand_sets[26]: 647  LLC: 2048
rand_sets[26]: 647
Assign rand_sets[27]: 857  LLC: 2048
rand_sets[27]: 857
Assign rand_sets[28]: 1450  LLC: 2048
rand_sets[28]: 1450
Assign rand_sets[29]: 1160  LLC: 2048
rand_sets[29]: 1160
Assign rand_sets[30]: 1852  LLC: 2048
rand_sets[30]: 1852
Assign rand_sets[31]: 1881  LLC: 2048
rand_sets[31]: 1881
Assign rand_sets[32]: 1770  LLC: 2048
rand_sets[32]: 1770
Assign rand_sets[33]: 1622  LLC: 2048
rand_sets[33]: 1622
Assign rand_sets[34]: 275  LLC: 2048
rand_sets[34]: 275
Assign rand_sets[35]: 635  LLC: 2048
rand_sets[35]: 635
Assign rand_sets[36]: 466  LLC: 2048
rand_sets[36]: 466
Assign rand_sets[37]: 1413  LLC: 2048
rand_sets[37]: 1413
Assign rand_sets[38]: 417  LLC: 2048
rand_sets[38]: 417
Assign rand_sets[39]: 472  LLC: 2048
rand_sets[39]: 472
Assign rand_sets[40]: 1340  LLC: 2048
rand_sets[40]: 1340
Assign rand_sets[41]: 852  LLC: 2048
rand_sets[41]: 852
Assign rand_sets[42]: 1365  LLC: 2048
rand_sets[42]: 1365
Assign rand_sets[43]: 47  LLC: 2048
rand_sets[43]: 47
Assign rand_sets[44]: 823  LLC: 2048
rand_sets[44]: 823
Assign rand_sets[45]: 686  LLC: 2048
rand_sets[45]: 686
Assign rand_sets[46]: 1637  LLC: 2048
rand_sets[46]: 1637
Assign rand_sets[47]: 1115  LLC: 2048
rand_sets[47]: 1115
Assign rand_sets[48]: 986  LLC: 2048
rand_sets[48]: 986
Assign rand_sets[49]: 258  LLC: 2048
rand_sets[49]: 258
Assign rand_sets[50]: 633  LLC: 2048
rand_sets[50]: 633
Assign rand_sets[51]: 920  LLC: 2048
rand_sets[51]: 920
Assign rand_sets[52]: 204  LLC: 2048
rand_sets[52]: 204
Assign rand_sets[53]: 227  LLC: 2048
rand_sets[53]: 227
Assign rand_sets[54]: 1818  LLC: 2048
rand_sets[54]: 1818
Assign rand_sets[55]: 886  LLC: 2048
rand_sets[55]: 886
Assign rand_sets[56]: 1422  LLC: 2048
rand_sets[56]: 1422
Assign rand_sets[57]: 607  LLC: 2048
rand_sets[57]: 607
Assign rand_sets[58]: 217  LLC: 2048
rand_sets[58]: 217
Assign rand_sets[59]: 1945  LLC: 2048
rand_sets[59]: 1945
Assign rand_sets[60]: 143  LLC: 2048
rand_sets[60]: 143
Assign rand_sets[61]: 1311  LLC: 2048
rand_sets[61]: 1311
Assign rand_sets[62]: 319  LLC: 2048
rand_sets[62]: 319
Assign rand_sets[63]: 1846  LLC: 2048
rand_sets[63]: 1846
 CLEAN-RRIP-POLICY-1: 1-2-1-3-2-3-0-2- CLEAN-RRIP-POLICY-2: 1-2-1-3-2-3-0-2-
 DIRTY-RRIP-POLICY-1: 2-2-0-3-1-3-0-2- DIRTY-RRIP-POLICY-2: 2-2-0-3-1-3-0-2-
 PSEL width: 10
Heartbeat CPU 0 instructions: 10000000 cycles: 4321593 heartbeat IPC: 2.31396 cumulative IPC: 2.31396 (Simulation time: 0 hr 0 min 18 sec) 
Heartbeat CPU 0 instructions: 20000000 cycles: 8643678 heartbeat IPC: 2.3137 cumulative IPC: 2.31383 (Simulation time: 0 hr 0 min 35 sec) 
Heartbeat CPU 0 instructions: 30000000 cycles: 12965480 heartbeat IPC: 2.31385 cumulative IPC: 2.31384 (Simulation time: 0 hr 0 min 53 sec) 
Heartbeat CPU 0 instructions: 40000000 cycles: 17291293 heartbeat IPC: 2.3117 cumulative IPC: 2.3133 (Simulation time: 0 hr 1 min 11 sec) 
Heartbeat CPU 0 instructions: 50000000 cycles: 21613182 heartbeat IPC: 2.3138 cumulative IPC: 2.3134 (Simulation time: 0 hr 1 min 29 sec) 
Heartbeat CPU 0 instructions: 60000000 cycles: 25935071 heartbeat IPC: 2.3138 cumulative IPC: 2.31347 (Simulation time: 0 hr 1 min 47 sec) 
Heartbeat CPU 0 instructions: 70000000 cycles: 30256639 heartbeat IPC: 2.31397 cumulative IPC: 2.31354 (Simulation time: 0 hr 2 min 5 sec) 
Heartbeat CPU 0 instructions: 80000000 cycles: 34582901 heartbeat IPC: 2.31146 cumulative IPC: 2.31328 (Simulation time: 0 hr 2 min 23 sec) 
Heartbeat CPU 0 instructions: 90000003 cycles: 38905053 heartbeat IPC: 2.31366 cumulative IPC: 2.31332 (Simulation time: 0 hr 2 min 41 sec) 
Heartbeat CPU 0 instructions: 100000000 cycles: 43226507 heartbeat IPC: 2.31404 cumulative IPC: 2.3134 (Simulation time: 0 hr 2 min 59 sec) 

Warmup complete CPU 0 instructions: 100000001 cycles: 43226508 (Simulation time: 0 hr 2 min 59 sec) 

Heartbeat CPU 0 instructions: 110000000 cycles: 57720190 heartbeat IPC: 0.689956 cumulative IPC: 0.689956 (Simulation time: 0 hr 3 min 25 sec) 
Heartbeat CPU 0 instructions: 120000000 cycles: 72174438 heartbeat IPC: 0.691838 cumulative IPC: 0.690896 (Simulation time: 0 hr 3 min 51 sec) 
Heartbeat CPU 0 instructions: 130000000 cycles: 86471720 heartbeat IPC: 0.699434 cumulative IPC: 0.693718 (Simulation time: 0 hr 4 min 17 sec) 
Heartbeat CPU 0 instructions: 140000000 cycles: 100554574 heartbeat IPC: 0.710083 cumulative IPC: 0.697739 (Simulation time: 0 hr 4 min 43 sec) 
Heartbeat CPU 0 instructions: 150000003 cycles: 114436231 heartbeat IPC: 0.720375 cumulative IPC: 0.702151 (Simulation time: 0 hr 5 min 9 sec) 
Heartbeat CPU 0 instructions: 160000000 cycles: 128435228 heartbeat IPC: 0.714337 cumulative IPC: 0.704153 (Simulation time: 0 hr 5 min 34 sec) 
Heartbeat CPU 0 instructions: 170000002 cycles: 142925642 heartbeat IPC: 0.690112 cumulative IPC: 0.702112 (Simulation time: 0 hr 6 min 1 sec) 
Heartbeat CPU 0 instructions: 180000000 cycles: 157098169 heartbeat IPC: 0.70559 cumulative IPC: 0.702545 (Simulation time: 0 hr 6 min 27 sec) 
Heartbeat CPU 0 instructions: 190000003 cycles: 174123389 heartbeat IPC: 0.587364 cumulative IPC: 0.687564 (Simulation time: 0 hr 6 min 55 sec) 
Heartbeat CPU 0 instructions: 200000000 cycles: 194492958 heartbeat IPC: 0.490928 cumulative IPC: 0.661085 (Simulation time: 0 hr 7 min 27 sec) 
Heartbeat CPU 0 instructions: 210000001 cycles: 208798397 heartbeat IPC: 0.699035 cumulative IPC: 0.664364 (Simulation time: 0 hr 7 min 53 sec) 
Heartbeat CPU 0 instructions: 220000000 cycles: 222722358 heartbeat IPC: 0.718186 cumulative IPC: 0.668539 (Simulation time: 0 hr 8 min 19 sec) 
Heartbeat CPU 0 instructions: 230000001 cycles: 236922504 heartbeat IPC: 0.704218 cumulative IPC: 0.671155 (Simulation time: 0 hr 8 min 45 sec) 
Heartbeat CPU 0 instructions: 240000000 cycles: 251499070 heartbeat IPC: 0.686033 cumulative IPC: 0.672196 (Simulation time: 0 hr 9 min 11 sec) 
Heartbeat CPU 0 instructions: 250000000 cycles: 266206809 heartbeat IPC: 0.679914 cumulative IPC: 0.672705 (Simulation time: 0 hr 9 min 38 sec) 
Heartbeat CPU 0 instructions: 260000000 cycles: 281167133 heartbeat IPC: 0.668435 cumulative IPC: 0.672437 (Simulation time: 0 hr 10 min 4 sec) 
Heartbeat CPU 0 instructions: 270000002 cycles: 296486296 heartbeat IPC: 0.652777 cumulative IPC: 0.671247 (Simulation time: 0 hr 10 min 31 sec) 
Heartbeat CPU 0 instructions: 280000000 cycles: 311279490 heartbeat IPC: 0.675986 cumulative IPC: 0.671509 (Simulation time: 0 hr 10 min 58 sec) 
Heartbeat CPU 0 instructions: 290000003 cycles: 327195328 heartbeat IPC: 0.628305 cumulative IPC: 0.669088 (Simulation time: 0 hr 11 min 25 sec) 
Heartbeat CPU 0 instructions: 300000000 cycles: 342483074 heartbeat IPC: 0.654118 cumulative IPC: 0.668323 (Simulation time: 0 hr 11 min 52 sec) 
Heartbeat CPU 0 instructions: 310000000 cycles: 358442734 heartbeat IPC: 0.62658 cumulative IPC: 0.666209 (Simulation time: 0 hr 12 min 19 sec) 
Heartbeat CPU 0 instructions: 320000000 cycles: 374358784 heartbeat IPC: 0.628297 cumulative IPC: 0.664387 (Simulation time: 0 hr 12 min 46 sec) 
Heartbeat CPU 0 instructions: 330000002 cycles: 389367392 heartbeat IPC: 0.666284 cumulative IPC: 0.664469 (Simulation time: 0 hr 13 min 13 sec) 
Heartbeat CPU 0 instructions: 340000000 cycles: 405479653 heartbeat IPC: 0.620645 cumulative IPC: 0.66252 (Simulation time: 0 hr 13 min 40 sec) 
Heartbeat CPU 0 instructions: 350000001 cycles: 420322641 heartbeat IPC: 0.673719 cumulative IPC: 0.662961 (Simulation time: 0 hr 14 min 6 sec) 
Heartbeat CPU 0 instructions: 360000000 cycles: 435889820 heartbeat IPC: 0.642377 cumulative IPC: 0.662145 (Simulation time: 0 hr 14 min 33 sec) 
Heartbeat CPU 0 instructions: 370000000 cycles: 450807804 heartbeat IPC: 0.670332 cumulative IPC: 0.662445 (Simulation time: 0 hr 14 min 59 sec) 
Heartbeat CPU 0 instructions: 380000000 cycles: 466042687 heartbeat IPC: 0.656388 cumulative IPC: 0.662226 (Simulation time: 0 hr 15 min 25 sec) 
Heartbeat CPU 0 instructions: 390000000 cycles: 480504552 heartbeat IPC: 0.691474 cumulative IPC: 0.663194 (Simulation time: 0 hr 15 min 51 sec) 
Heartbeat CPU 0 instructions: 400000000 cycles: 494907213 heartbeat IPC: 0.694316 cumulative IPC: 0.664186 (Simulation time: 0 hr 16 min 17 sec) 
Heartbeat CPU 0 instructions: 410000000 cycles: 508800214 heartbeat IPC: 0.719787 cumulative IPC: 0.665845 (Simulation time: 0 hr 16 min 42 sec) 
Heartbeat CPU 0 instructions: 420000000 cycles: 523196489 heartbeat IPC: 0.694624 cumulative IPC: 0.666708 (Simulation time: 0 hr 17 min 7 sec) 
Heartbeat CPU 0 instructions: 430000002 cycles: 537110405 heartbeat IPC: 0.718705 cumulative IPC: 0.668173 (Simulation time: 0 hr 17 min 32 sec) 
Heartbeat CPU 0 instructions: 440000000 cycles: 551041689 heartbeat IPC: 0.717809 cumulative IPC: 0.669535 (Simulation time: 0 hr 17 min 58 sec) 
Heartbeat CPU 0 instructions: 450000000 cycles: 564942736 heartbeat IPC: 0.71937 cumulative IPC: 0.670863 (Simulation time: 0 hr 18 min 23 sec) 
Heartbeat CPU 0 instructions: 460000000 cycles: 579728931 heartbeat IPC: 0.676306 cumulative IPC: 0.671013 (Simulation time: 0 hr 18 min 49 sec) 
Heartbeat CPU 0 instructions: 470000000 cycles: 594067947 heartbeat IPC: 0.697398 cumulative IPC: 0.6717 (Simulation time: 0 hr 19 min 14 sec) 
Heartbeat CPU 0 instructions: 480000000 cycles: 608105560 heartbeat IPC: 0.712372 cumulative IPC: 0.67271 (Simulation time: 0 hr 19 min 39 sec) 
Heartbeat CPU 0 instructions: 490000001 cycles: 622652047 heartbeat IPC: 0.687451 cumulative IPC: 0.67308 (Simulation time: 0 hr 20 min 5 sec) 
Heartbeat CPU 0 instructions: 500000000 cycles: 637106104 heartbeat IPC: 0.691847 cumulative IPC: 0.673537 (Simulation time: 0 hr 20 min 31 sec) 
Heartbeat CPU 0 instructions: 510000002 cycles: 651193126 heartbeat IPC: 0.709873 cumulative IPC: 0.674379 (Simulation time: 0 hr 20 min 56 sec) 
Heartbeat CPU 0 instructions: 520000000 cycles: 665110607 heartbeat IPC: 0.718521 cumulative IPC: 0.675367 (Simulation time: 0 hr 21 min 21 sec) 
Heartbeat CPU 0 instructions: 530000001 cycles: 678945559 heartbeat IPC: 0.722807 cumulative IPC: 0.676399 (Simulation time: 0 hr 21 min 46 sec) 
Heartbeat CPU 0 instructions: 540000000 cycles: 693391555 heartbeat IPC: 0.692233 cumulative IPC: 0.676751 (Simulation time: 0 hr 22 min 12 sec) 
Heartbeat CPU 0 instructions: 550000003 cycles: 707390545 heartbeat IPC: 0.714337 cumulative IPC: 0.677543 (Simulation time: 0 hr 22 min 37 sec) 
Heartbeat CPU 0 instructions: 560000000 cycles: 721981899 heartbeat IPC: 0.685337 cumulative IPC: 0.677711 (Simulation time: 0 hr 23 min 3 sec) 
Heartbeat CPU 0 instructions: 570000001 cycles: 736144061 heartbeat IPC: 0.706107 cumulative IPC: 0.678291 (Simulation time: 0 hr 23 min 28 sec) 
Heartbeat CPU 0 instructions: 580000000 cycles: 750084208 heartbeat IPC: 0.717352 cumulative IPC: 0.679062 (Simulation time: 0 hr 23 min 53 sec) 
Heartbeat CPU 0 instructions: 590000003 cycles: 763558428 heartbeat IPC: 0.742158 cumulative IPC: 0.680242 (Simulation time: 0 hr 24 min 18 sec) 
Heartbeat CPU 0 instructions: 600000000 cycles: 777578908 heartbeat IPC: 0.713242 cumulative IPC: 0.680872 (Simulation time: 0 hr 24 min 43 sec) 
Finished CPU 0 instructions: 500000000 cycles: 734352408 cumulative IPC: 0.680872 (Simulation time: 0 hr 24 min 43 sec) 

CPU 0 Branch Prediction Accuracy: 99.5915% MPKI: 0.037126
Number of Branches: 4544106 Number of Mispredictions: 18563
Number of LOAD Instructions: 149787067
Number of LOAD Instructions (ROI): 149787067
Number of STORE Instructions: 77239062
Number of STORE Instructions (ROI): 77239062
Total Destination Memory Operands: 77239062
Total Destination Memory Operands (ROI): 77239062
Total Source Memory Operands: 149787067
Total Source Memory Operands (ROI): 149787067
Number of DEPENDED LOADS: 19249626
Number of DEPENDED LOADS (ROI): 19249626
Number of SQ_ADDED: 77239036
Number of SQ_ADDED (ROI): 77239036
Number of LQ_ADDED: 149787020
Number of LQ_ADDED (ROI): 149787020
Number of Instructions read from trace: 600000256

ChampSim completed all CPUs

Region of Interest Statistics

CPU 0 cumulative IPC: 0.680872 instructions: 500000000 cycles: 734352408
ITLB TOTAL     ACCESS:   86452173  HIT:   86452172  MISS:          1
ITLB LOAD      ACCESS:   86452173  HIT:   86452172  MISS:          1
ITLB RFO       ACCESS:          0  HIT:          0  MISS:          0
ITLB PREFETCH  ACCESS:          0  HIT:          0  MISS:          0
ITLB WRITEBACK ACCESS:          0  HIT:          0  MISS:          0
ITLB PREFETCH  REQUESTED:          0  ISSUED:          0  USEFUL:          0  USELESS:          0
ITLB TOTAL MSHR MERGED:          1
ITLB LOAD MSHR MERGED:          1
ITLB RFO MSHR MERGED:          0
ITLB PREFETCH MSHR MERGED:          0
ITLB WRITEBACK MSHR MERGED:          0
ITLB TOTAL ACCESSES:   86452174 HITS:   86452172 MISSES:          2
ITLB LOAD ACCESSES:   86452174 HITS:   86452172 MISSES:          2
ITLB RFO ACCESSES:          0 HITS:          0 MISSES:          0
ITLB PREFETCH ACCESSES:          0 HITS:          0 MISSES:          0
ITLB WRITEBACK ACCESSES:          0 HITS:          0 MISSES:          0
ITLB RQ ACCESS:  500000002
ITLB RQ TO_CACHE:   86452174
ITLB RQ MERGED:  413547828
ITLB RQ FORWARD:          0
ITLB WQ ACCESS:          0
ITLB WQ TO_CACHE:          0
ITLB WQ MERGED:          0
ITLB WQ FORWARD:          0
DTLB TOTAL     ACCESS:   98104329  HIT:   97919068  MISS:     185261
DTLB LOAD      ACCESS:   55039049  HIT:   54992738  MISS:      46311
DTLB RFO       ACCESS:   43065280  HIT:   42926330  MISS:     138950
DTLB PREFETCH  ACCESS:          0  HIT:          0  MISS:          0
DTLB WRITEBACK ACCESS:          0  HIT:          0  MISS:          0
DTLB PREFETCH  REQUESTED:          0  ISSUED:          0  USEFUL:          0  USELESS:          0
DTLB TOTAL MSHR MERGED:      83568
DTLB LOAD MSHR MERGED:      83562
DTLB RFO MSHR MERGED:          6
DTLB PREFETCH MSHR MERGED:          0
DTLB WRITEBACK MSHR MERGED:          0
DTLB TOTAL ACCESSES:   98187897 HITS:   97919068 MISSES:     268829
DTLB LOAD ACCESSES:   55122611 HITS:   54992738 MISSES:     129873
DTLB RFO ACCESSES:   43065286 HITS:   42926330 MISSES:     138956
DTLB PREFETCH ACCESSES:          0 HITS:          0 MISSES:          0
DTLB WRITEBACK ACCESSES:          0 HITS:          0 MISSES:          0
DTLB RQ ACCESS:  173632901
DTLB RQ TO_CACHE:   98187897
DTLB RQ MERGED:   75445004
DTLB RQ FORWARD:          0
DTLB WQ ACCESS:          0
DTLB WQ TO_CACHE:          0
DTLB WQ MERGED:          0
DTLB WQ FORWARD:          0
L1D TOTAL     ACCESS:  164552798  HIT:  144980229  MISS:   19572569
L1D LOAD      ACCESS:   60523186  HIT:   58671579  MISS:    1851607
L1D RFO       ACCESS:   64513500  HIT:   47911362  MISS:   16602138
L1D PREFETCH  ACCESS:   39516112  HIT:   38397288  MISS:    1118824
L1D WRITEBACK ACCESS:          0  HIT:          0  MISS:          0
L1D PREFETCH  REQUESTED:   61694688  ISSUED:   61402623  USEFUL:    1116906  USELESS:       1918
L1D TOTAL MSHR MERGED:    3509828
L1D LOAD MSHR MERGED:    1242093
L1D RFO MSHR MERGED:      11625
L1D PREFETCH MSHR MERGED:    2256110
L1D WRITEBACK MSHR MERGED:          0
L1D TOTAL ACCESSES:  168632440 HITS:  145550044 MISSES:   23082396
L1D LOAD ACCESSES:   61957625 HITS:   58934516 MISSES:    3023109
L1D RFO ACCESSES:   64525089 HITS:   47911362 MISSES:   16613727
L1D PREFETCH ACCESSES:   42149726 HITS:   38704166 MISSES:    3445560
L1D WRITEBACK ACCESSES:          0 HITS:          0 MISSES:          0
L1D RQ ACCESS:  109091586
L1D RQ TO_CACHE:   61694688
L1D RQ MERGED:   47133961
L1D RQ FORWARD:          0
L1D WQ ACCESS:   64541313
L1D WQ TO_CACHE:   64525090
L1D WQ MERGED:      16223
L1D WQ FORWARD:     569815
L1I TOTAL     ACCESS:  107761804  HIT:  107761796  MISS:          8
L1I LOAD      ACCESS:  107761804  HIT:  107761796  MISS:          8
L1I RFO       ACCESS:          0  HIT:          0  MISS:          0
L1I PREFETCH  ACCESS:          0  HIT:          0  MISS:          0
L1I WRITEBACK ACCESS:          0  HIT:          0  MISS:          0
L1I PREFETCH  REQUESTED:          0  ISSUED:          0  USEFUL:          0  USELESS:          0
L1I TOTAL MSHR MERGED:          3
L1I LOAD MSHR MERGED:          3
L1I RFO MSHR MERGED:          0
L1I PREFETCH MSHR MERGED:          0
L1I WRITEBACK MSHR MERGED:          0
L1I TOTAL ACCESSES:  107761807 HITS:  107761796 MISSES:         11
L1I LOAD ACCESSES:  107761807 HITS:  107761796 MISSES:         11
L1I RFO ACCESSES:          0 HITS:          0 MISSES:          0
L1I PREFETCH ACCESSES:          0 HITS:          0 MISSES:          0
L1I WRITEBACK ACCESSES:          0 HITS:          0 MISSES:          0
L1I RQ ACCESS:  500000007
L1I RQ TO_CACHE:  107761807
L1I RQ MERGED:  392238200
L1I RQ FORWARD:          0
L1I WQ ACCESS:          0
L1I WQ TO_CACHE:          0
L1I WQ MERGED:          0
L1I WQ FORWARD:          0
L2C TOTAL     ACCESS:   36801594  HIT:   24844025  MISS:   11957569
L2C LOAD      ACCESS:    1781024  HIT:     253232  MISS:    1527792
L2C RFO       ACCESS:   16602103  HIT:    7610745  MISS:    8991358
L2C PREFETCH  ACCESS:    1816276  HIT:     379082  MISS:    1437194
L2C WRITEBACK ACCESS:   16602191  HIT:   16600966  MISS:       1225
L2C PREFETCH  REQUESTED:     816218  ISSUED:     816218  USEFUL:     250904  USELESS:    1186571
L2C TOTAL MSHR MERGED:       2807
L2C LOAD MSHR MERGED:        642
L2C RFO MSHR MERGED:          0
L2C PREFETCH MSHR MERGED:       2165
L2C WRITEBACK MSHR MERGED:          0
L2C TOTAL ACCESSES:   36990900 HITS:   24844025 MISSES:   12146875
L2C LOAD ACCESSES:    1781024 HITS:     253232 MISSES:    1527792
L2C RFO ACCESSES:   16602102 HITS:    7610745 MISSES:    8991357
L2C PREFETCH ACCESSES:    2005583 HITS:     379082 MISSES:    1626501
L2C WRITEBACK ACCESSES:   16602191 HITS:   16600966 MISSES:       1225
L2C RQ ACCESS:   18383126
L2C RQ TO_CACHE:   18383126
L2C RQ MERGED:          0
L2C RQ FORWARD:          0
L2C WQ ACCESS:   16602191
L2C WQ TO_CACHE:   16602191
L2C WQ MERGED:          0
L2C WQ FORWARD:          0
LLC TOTAL     ACCESS:   21131891  HIT:    1435507  MISS:   19696384
LLC LOAD      ACCESS:    1527150  HIT:      67676  MISS:    1459474
LLC RFO       ACCESS:    8991344  HIT:     554053  MISS:    8437291
LLC PREFETCH  ACCESS:    1621215  HIT:     115701  MISS:    1505514
LLC WRITEBACK ACCESS:    8992182  HIT:     698077  MISS:    8294105
LLC PREFETCH  REQUESTED:          0  ISSUED:          0  USEFUL:      67274  USELESS:    1437759
LLC TOTAL MSHR MERGED:       2730
LLC LOAD MSHR MERGED:        220
LLC RFO MSHR MERGED:          0
LLC PREFETCH MSHR MERGED:       2510
LLC WRITEBACK MSHR MERGED:          0
LLC TOTAL ACCESSES:   21134634 HITS:    1435521 MISSES:   19699113
LLC LOAD ACCESSES:    1527150 HITS:      67676 MISSES:    1459474
LLC RFO ACCESSES:    8991357 HITS:     554067 MISSES:    8437290
LLC PREFETCH ACCESSES:    1623945 HITS:     115701 MISSES:    1508244
LLC WRITEBACK ACCESSES:    8992182 HITS:     698077 MISSES:    8294105
LLC 0 RQ ACCESS:   10518507
LLC 0 RQ TO_CACHE:   10518493
LLC 0 RQ MERGED:          0
LLC 0 RQ FORWARD:          0
LLC WQ ACCESS:    8992182
LLC WQ TO_CACHE:    8992182
LLC WQ MERGED:          0
LLC WQ FORWARD:         14
Major fault: 0 Minor fault: 102360
CPU 0 L1D next line prefetcher final stats
CPU 0 L2C PC-based stride prefetcher final stats
All Misses: 23425460
All Hits: 1681942
SD Algo Stats - Switches: 0 SRR-Repls: 1638028 BRR-Repls: 0

DRAM Statistics
 CHANNEL 0
 RQ ROW_BUFFER_HIT:    3710758  ROW_BUFFER_MISS:    7689940
 DBUS_CONGESTED:   13653478
 WQ ROW_BUFFER_HIT:    1431784  ROW_BUFFER_MISS:    7039214  FULL:          0

 AVG_CONGESTED_CYCLE: 13
LOADS RETIRED: 124982196
INSTR RETIRED: 500000000
