
*** ChampSim Multicore Out-of-Order Simulator ***

Warmup Instructions: 100000000
Simulation Instructions: 500000000
Number of CPUs: 1
LLC sets: 2048
LLC ways: 16
Clean RRIP Policies: 1113230111132301 Dirty RRIP Policies: 1103130111031301 PSEL Width: 10 Track Set: 4294967295 PSEL Mask: 1 Demote Mask: 3141400031414DS Algo: 0Window size: 0
Off-chip DRAM Size: 4096 MB Channels: 1 Width: 64-bit Data Rate: 1600 MT/s

CPU 0 runs /mnt/beegfs/iconst01/spec2017/Gcc.trace.gz
NOT SORTED
TRACE STRING: /mnt/beegfs/iconst01/spec2017/Gcc.trace.gz
SORTED
TRACE STRING: /mnt/beegfs/iconst01/spec2017/Gcc.trace.gz
INITIAL
TRACE STRING: /mnt/beegfs/iconst01/spec2017/Gcc.trace.gz

champsim_seed used: 269

CPU 0 L1D next line prefetcher
CPU 0 L2C IP-based stride prefetcher
Initialize DRRIP state
Assign rand_sets[0]: 454  LLC: 2048
rand_sets[0]: 454
Assign rand_sets[1]: 1662  LLC: 2048
rand_sets[1]: 1662
Assign rand_sets[2]: 1921  LLC: 2048
rand_sets[2]: 1921
Assign rand_sets[3]: 1131  LLC: 2048
rand_sets[3]: 1131
Assign rand_sets[4]: 331  LLC: 2048
rand_sets[4]: 331
Assign rand_sets[5]: 1531  LLC: 2048
rand_sets[5]: 1531
Assign rand_sets[6]: 482  LLC: 2048
rand_sets[6]: 482
Assign rand_sets[7]: 1275  LLC: 2048
rand_sets[7]: 1275
Assign rand_sets[8]: 1876  LLC: 2048
rand_sets[8]: 1876
Assign rand_sets[9]: 2038  LLC: 2048
rand_sets[9]: 2038
Assign rand_sets[10]: 701  LLC: 2048
rand_sets[10]: 701
Assign rand_sets[11]: 479  LLC: 2048
rand_sets[11]: 479
Assign rand_sets[12]: 892  LLC: 2048
rand_sets[12]: 892
Assign rand_sets[13]: 1820  LLC: 2048
rand_sets[13]: 1820
Assign rand_sets[14]: 1505  LLC: 2048
rand_sets[14]: 1505
Assign rand_sets[15]: 1159  LLC: 2048
rand_sets[15]: 1159
Assign rand_sets[16]: 513  LLC: 2048
rand_sets[16]: 513
Assign rand_sets[17]: 703  LLC: 2048
rand_sets[17]: 703
Assign rand_sets[18]: 561  LLC: 2048
rand_sets[18]: 561
Assign rand_sets[19]: 990  LLC: 2048
rand_sets[19]: 990
Assign rand_sets[20]: 342  LLC: 2048
rand_sets[20]: 342
Assign rand_sets[21]: 882  LLC: 2048
rand_sets[21]: 882
Assign rand_sets[22]: 15  LLC: 2048
rand_sets[22]: 15
Assign rand_sets[23]: 71  LLC: 2048
rand_sets[23]: 71
Assign rand_sets[24]: 1127  LLC: 2048
rand_sets[24]: 1127
Assign rand_sets[25]: 1382  LLC: 2048
rand_sets[25]: 1382
Assign rand_sets[26]: 647  LLC: 2048
rand_sets[26]: 647
Assign rand_sets[27]: 857  LLC: 2048
rand_sets[27]: 857
Assign rand_sets[28]: 1450  LLC: 2048
rand_sets[28]: 1450
Assign rand_sets[29]: 1160  LLC: 2048
rand_sets[29]: 1160
Assign rand_sets[30]: 1852  LLC: 2048
rand_sets[30]: 1852
Assign rand_sets[31]: 1881  LLC: 2048
rand_sets[31]: 1881
Assign rand_sets[32]: 1770  LLC: 2048
rand_sets[32]: 1770
Assign rand_sets[33]: 1622  LLC: 2048
rand_sets[33]: 1622
Assign rand_sets[34]: 275  LLC: 2048
rand_sets[34]: 275
Assign rand_sets[35]: 635  LLC: 2048
rand_sets[35]: 635
Assign rand_sets[36]: 466  LLC: 2048
rand_sets[36]: 466
Assign rand_sets[37]: 1413  LLC: 2048
rand_sets[37]: 1413
Assign rand_sets[38]: 417  LLC: 2048
rand_sets[38]: 417
Assign rand_sets[39]: 472  LLC: 2048
rand_sets[39]: 472
Assign rand_sets[40]: 1340  LLC: 2048
rand_sets[40]: 1340
Assign rand_sets[41]: 852  LLC: 2048
rand_sets[41]: 852
Assign rand_sets[42]: 1365  LLC: 2048
rand_sets[42]: 1365
Assign rand_sets[43]: 47  LLC: 2048
rand_sets[43]: 47
Assign rand_sets[44]: 823  LLC: 2048
rand_sets[44]: 823
Assign rand_sets[45]: 686  LLC: 2048
rand_sets[45]: 686
Assign rand_sets[46]: 1637  LLC: 2048
rand_sets[46]: 1637
Assign rand_sets[47]: 1115  LLC: 2048
rand_sets[47]: 1115
Assign rand_sets[48]: 986  LLC: 2048
rand_sets[48]: 986
Assign rand_sets[49]: 258  LLC: 2048
rand_sets[49]: 258
Assign rand_sets[50]: 633  LLC: 2048
rand_sets[50]: 633
Assign rand_sets[51]: 920  LLC: 2048
rand_sets[51]: 920
Assign rand_sets[52]: 204  LLC: 2048
rand_sets[52]: 204
Assign rand_sets[53]: 227  LLC: 2048
rand_sets[53]: 227
Assign rand_sets[54]: 1818  LLC: 2048
rand_sets[54]: 1818
Assign rand_sets[55]: 886  LLC: 2048
rand_sets[55]: 886
Assign rand_sets[56]: 1422  LLC: 2048
rand_sets[56]: 1422
Assign rand_sets[57]: 607  LLC: 2048
rand_sets[57]: 607
Assign rand_sets[58]: 217  LLC: 2048
rand_sets[58]: 217
Assign rand_sets[59]: 1945  LLC: 2048
rand_sets[59]: 1945
Assign rand_sets[60]: 143  LLC: 2048
rand_sets[60]: 143
Assign rand_sets[61]: 1311  LLC: 2048
rand_sets[61]: 1311
Assign rand_sets[62]: 319  LLC: 2048
rand_sets[62]: 319
Assign rand_sets[63]: 1846  LLC: 2048
rand_sets[63]: 1846
 CLEAN-RRIP-POLICY-1: 1-1-1-3-2-3-0-1- CLEAN-RRIP-POLICY-2: 1-1-1-3-2-3-0-1-
 DIRTY-RRIP-POLICY-1: 1-1-0-3-1-3-0-1- DIRTY-RRIP-POLICY-2: 1-1-0-3-1-3-0-1-
 PSEL width: 10
Heartbeat CPU 0 instructions: 10000001 cycles: 7315980 heartbeat IPC: 1.36687 cumulative IPC: 1.36687 (Simulation time: 0 hr 0 min 14 sec) 
Heartbeat CPU 0 instructions: 20000000 cycles: 14307488 heartbeat IPC: 1.43031 cumulative IPC: 1.39787 (Simulation time: 0 hr 0 min 29 sec) 
Heartbeat CPU 0 instructions: 30000001 cycles: 21020257 heartbeat IPC: 1.4897 cumulative IPC: 1.42719 (Simulation time: 0 hr 0 min 45 sec) 
Heartbeat CPU 0 instructions: 40000000 cycles: 27481013 heartbeat IPC: 1.54781 cumulative IPC: 1.45555 (Simulation time: 0 hr 1 min 1 sec) 
Heartbeat CPU 0 instructions: 50000001 cycles: 33582613 heartbeat IPC: 1.63891 cumulative IPC: 1.48887 (Simulation time: 0 hr 1 min 17 sec) 
Heartbeat CPU 0 instructions: 60000000 cycles: 40063712 heartbeat IPC: 1.54295 cumulative IPC: 1.49761 (Simulation time: 0 hr 1 min 33 sec) 
Heartbeat CPU 0 instructions: 70000000 cycles: 47100890 heartbeat IPC: 1.42102 cumulative IPC: 1.48617 (Simulation time: 0 hr 1 min 48 sec) 
Heartbeat CPU 0 instructions: 80000000 cycles: 54190144 heartbeat IPC: 1.41059 cumulative IPC: 1.47628 (Simulation time: 0 hr 2 min 3 sec) 
Heartbeat CPU 0 instructions: 90000003 cycles: 61194220 heartbeat IPC: 1.42774 cumulative IPC: 1.47073 (Simulation time: 0 hr 2 min 17 sec) 
Heartbeat CPU 0 instructions: 100000000 cycles: 68361067 heartbeat IPC: 1.39531 cumulative IPC: 1.46282 (Simulation time: 0 hr 2 min 32 sec) 

Warmup complete CPU 0 instructions: 100000004 cycles: 68361068 (Simulation time: 0 hr 2 min 32 sec) 

Heartbeat CPU 0 instructions: 110000003 cycles: 95934593 heartbeat IPC: 0.362667 cumulative IPC: 0.362667 (Simulation time: 0 hr 3 min 0 sec) 
Heartbeat CPU 0 instructions: 120000000 cycles: 123363345 heartbeat IPC: 0.364581 cumulative IPC: 0.363621 (Simulation time: 0 hr 3 min 29 sec) 
Heartbeat CPU 0 instructions: 130000000 cycles: 148303413 heartbeat IPC: 0.400961 cumulative IPC: 0.37527 (Simulation time: 0 hr 3 min 58 sec) 
Heartbeat CPU 0 instructions: 140000000 cycles: 177605695 heartbeat IPC: 0.34127 cumulative IPC: 0.366151 (Simulation time: 0 hr 4 min 25 sec) 
Heartbeat CPU 0 instructions: 150000000 cycles: 207380669 heartbeat IPC: 0.335853 cumulative IPC: 0.359661 (Simulation time: 0 hr 4 min 54 sec) 
Heartbeat CPU 0 instructions: 160000000 cycles: 234753665 heartbeat IPC: 0.365324 cumulative IPC: 0.360593 (Simulation time: 0 hr 5 min 21 sec) 
Heartbeat CPU 0 instructions: 170000001 cycles: 262705469 heartbeat IPC: 0.357759 cumulative IPC: 0.360185 (Simulation time: 0 hr 5 min 51 sec) 
Heartbeat CPU 0 instructions: 180000000 cycles: 291074484 heartbeat IPC: 0.352497 cumulative IPC: 0.359206 (Simulation time: 0 hr 6 min 20 sec) 
Heartbeat CPU 0 instructions: 190000002 cycles: 318975464 heartbeat IPC: 0.35841 cumulative IPC: 0.359117 (Simulation time: 0 hr 6 min 48 sec) 
Heartbeat CPU 0 instructions: 200000000 cycles: 347250825 heartbeat IPC: 0.353665 cumulative IPC: 0.358565 (Simulation time: 0 hr 7 min 17 sec) 
Heartbeat CPU 0 instructions: 210000002 cycles: 374998262 heartbeat IPC: 0.360394 cumulative IPC: 0.35873 (Simulation time: 0 hr 7 min 46 sec) 
Heartbeat CPU 0 instructions: 220000000 cycles: 403976003 heartbeat IPC: 0.345092 cumulative IPC: 0.357553 (Simulation time: 0 hr 8 min 13 sec) 
Heartbeat CPU 0 instructions: 230000000 cycles: 431446667 heartbeat IPC: 0.364025 cumulative IPC: 0.358042 (Simulation time: 0 hr 8 min 41 sec) 
Heartbeat CPU 0 instructions: 240000000 cycles: 457363369 heartbeat IPC: 0.385852 cumulative IPC: 0.359895 (Simulation time: 0 hr 9 min 8 sec) 
Heartbeat CPU 0 instructions: 250000000 cycles: 487421868 heartbeat IPC: 0.332685 cumulative IPC: 0.357943 (Simulation time: 0 hr 9 min 38 sec) 
Heartbeat CPU 0 instructions: 260000000 cycles: 514472719 heartbeat IPC: 0.369674 cumulative IPC: 0.358655 (Simulation time: 0 hr 10 min 6 sec) 
Heartbeat CPU 0 instructions: 270000003 cycles: 542784906 heartbeat IPC: 0.353205 cumulative IPC: 0.358329 (Simulation time: 0 hr 10 min 35 sec) 
Heartbeat CPU 0 instructions: 280000000 cycles: 570825200 heartbeat IPC: 0.35663 cumulative IPC: 0.358235 (Simulation time: 0 hr 11 min 4 sec) 
Heartbeat CPU 0 instructions: 290000000 cycles: 599603811 heartbeat IPC: 0.34748 cumulative IPC: 0.357652 (Simulation time: 0 hr 11 min 34 sec) 
Heartbeat CPU 0 instructions: 300000000 cycles: 629273585 heartbeat IPC: 0.337043 cumulative IPC: 0.356562 (Simulation time: 0 hr 12 min 2 sec) 
Heartbeat CPU 0 instructions: 310000001 cycles: 658550274 heartbeat IPC: 0.341569 cumulative IPC: 0.355818 (Simulation time: 0 hr 12 min 30 sec) 
Heartbeat CPU 0 instructions: 320000000 cycles: 686630074 heartbeat IPC: 0.356128 cumulative IPC: 0.355832 (Simulation time: 0 hr 12 min 58 sec) 
Heartbeat CPU 0 instructions: 330000000 cycles: 715171889 heartbeat IPC: 0.350363 cumulative IPC: 0.355591 (Simulation time: 0 hr 13 min 26 sec) 
Heartbeat CPU 0 instructions: 340000000 cycles: 744362195 heartbeat IPC: 0.342579 cumulative IPC: 0.355029 (Simulation time: 0 hr 13 min 55 sec) 
Heartbeat CPU 0 instructions: 350000003 cycles: 771310583 heartbeat IPC: 0.37108 cumulative IPC: 0.355644 (Simulation time: 0 hr 14 min 22 sec) 
Heartbeat CPU 0 instructions: 360000000 cycles: 799326242 heartbeat IPC: 0.356943 cumulative IPC: 0.355694 (Simulation time: 0 hr 14 min 49 sec) 
Heartbeat CPU 0 instructions: 370000000 cycles: 827490880 heartbeat IPC: 0.355055 cumulative IPC: 0.35567 (Simulation time: 0 hr 15 min 16 sec) 
Heartbeat CPU 0 instructions: 380000000 cycles: 855974363 heartbeat IPC: 0.351081 cumulative IPC: 0.355504 (Simulation time: 0 hr 15 min 44 sec) 
Heartbeat CPU 0 instructions: 390000001 cycles: 883567350 heartbeat IPC: 0.362411 cumulative IPC: 0.355738 (Simulation time: 0 hr 16 min 10 sec) 
Heartbeat CPU 0 instructions: 400000000 cycles: 912187816 heartbeat IPC: 0.3494 cumulative IPC: 0.355523 (Simulation time: 0 hr 16 min 38 sec) 
Heartbeat CPU 0 instructions: 410000001 cycles: 939493114 heartbeat IPC: 0.366229 cumulative IPC: 0.355859 (Simulation time: 0 hr 17 min 5 sec) 
Heartbeat CPU 0 instructions: 420000000 cycles: 966805760 heartbeat IPC: 0.366131 cumulative IPC: 0.356171 (Simulation time: 0 hr 17 min 31 sec) 
Heartbeat CPU 0 instructions: 430000002 cycles: 994475197 heartbeat IPC: 0.36141 cumulative IPC: 0.356328 (Simulation time: 0 hr 17 min 59 sec) 
Heartbeat CPU 0 instructions: 440000000 cycles: 1023919416 heartbeat IPC: 0.339625 cumulative IPC: 0.355813 (Simulation time: 0 hr 18 min 26 sec) 
Heartbeat CPU 0 instructions: 450000002 cycles: 1053126348 heartbeat IPC: 0.342385 cumulative IPC: 0.355415 (Simulation time: 0 hr 18 min 53 sec) 
Heartbeat CPU 0 instructions: 460000000 cycles: 1080809310 heartbeat IPC: 0.361233 cumulative IPC: 0.355574 (Simulation time: 0 hr 19 min 20 sec) 
Heartbeat CPU 0 instructions: 470000000 cycles: 1108436318 heartbeat IPC: 0.361965 cumulative IPC: 0.355743 (Simulation time: 0 hr 19 min 47 sec) 
Heartbeat CPU 0 instructions: 480000000 cycles: 1136318907 heartbeat IPC: 0.358647 cumulative IPC: 0.355819 (Simulation time: 0 hr 20 min 14 sec) 
Heartbeat CPU 0 instructions: 490000000 cycles: 1163912885 heartbeat IPC: 0.362398 cumulative IPC: 0.355985 (Simulation time: 0 hr 20 min 42 sec) 
Heartbeat CPU 0 instructions: 500000000 cycles: 1192168980 heartbeat IPC: 0.353906 cumulative IPC: 0.355933 (Simulation time: 0 hr 21 min 9 sec) 
Heartbeat CPU 0 instructions: 510000000 cycles: 1227405534 heartbeat IPC: 0.283796 cumulative IPC: 0.35374 (Simulation time: 0 hr 21 min 40 sec) 
Heartbeat CPU 0 instructions: 520000000 cycles: 1255384919 heartbeat IPC: 0.357406 cumulative IPC: 0.353826 (Simulation time: 0 hr 22 min 8 sec) 
Heartbeat CPU 0 instructions: 530000001 cycles: 1284562641 heartbeat IPC: 0.342727 cumulative IPC: 0.35356 (Simulation time: 0 hr 22 min 36 sec) 
Heartbeat CPU 0 instructions: 540000000 cycles: 1312528673 heartbeat IPC: 0.357577 cumulative IPC: 0.35365 (Simulation time: 0 hr 23 min 4 sec) 
Heartbeat CPU 0 instructions: 550000001 cycles: 1341686244 heartbeat IPC: 0.342964 cumulative IPC: 0.353405 (Simulation time: 0 hr 23 min 33 sec) 
Heartbeat CPU 0 instructions: 560000000 cycles: 1367019399 heartbeat IPC: 0.39474 cumulative IPC: 0.354212 (Simulation time: 0 hr 24 min 1 sec) 
Heartbeat CPU 0 instructions: 570000000 cycles: 1396334954 heartbeat IPC: 0.341116 cumulative IPC: 0.353923 (Simulation time: 0 hr 24 min 29 sec) 
Heartbeat CPU 0 instructions: 580000000 cycles: 1424210974 heartbeat IPC: 0.358731 cumulative IPC: 0.354021 (Simulation time: 0 hr 24 min 58 sec) 
Heartbeat CPU 0 instructions: 590000001 cycles: 1448985880 heartbeat IPC: 0.403634 cumulative IPC: 0.354912 (Simulation time: 0 hr 25 min 24 sec) 
Heartbeat CPU 0 instructions: 600000000 cycles: 1475122255 heartbeat IPC: 0.382609 cumulative IPC: 0.355426 (Simulation time: 0 hr 25 min 52 sec) 
Finished CPU 0 instructions: 500000000 cycles: 1406761209 cumulative IPC: 0.355426 (Simulation time: 0 hr 25 min 52 sec) 

CPU 0 Branch Prediction Accuracy: 86.4311% MPKI: 26.2662
Number of Branches: 96788573 Number of Mispredictions: 13133102
Number of LOAD Instructions: 164682285
Number of LOAD Instructions (ROI): 164682285
Number of STORE Instructions: 78194750
Number of STORE Instructions (ROI): 78194750
Total Destination Memory Operands: 83268534
Total Destination Memory Operands (ROI): 83268534
Total Source Memory Operands: 164712438
Total Source Memory Operands (ROI): 164712438
Number of DEPENDED LOADS: 7061746
Number of DEPENDED LOADS (ROI): 7061746
Number of SQ_ADDED: 83268522
Number of SQ_ADDED (ROI): 83268522
Number of LQ_ADDED: 236695775
Number of LQ_ADDED (ROI): 236695775
Number of Instructions read from trace: 600000066

ChampSim completed all CPUs

Region of Interest Statistics

CPU 0 cumulative IPC: 0.355426 instructions: 500000000 cycles: 1406761209
ITLB TOTAL     ACCESS:  100509002  HIT:  100304556  MISS:     204446
ITLB LOAD      ACCESS:  100509002  HIT:  100304556  MISS:     204446
ITLB RFO       ACCESS:          0  HIT:          0  MISS:          0
ITLB PREFETCH  ACCESS:          0  HIT:          0  MISS:          0
ITLB WRITEBACK ACCESS:          0  HIT:          0  MISS:          0
ITLB PREFETCH  REQUESTED:          0  ISSUED:          0  USEFUL:          0  USELESS:          0
ITLB TOTAL MSHR MERGED:     172423
ITLB LOAD MSHR MERGED:     172423
ITLB RFO MSHR MERGED:          0
ITLB PREFETCH MSHR MERGED:          0
ITLB WRITEBACK MSHR MERGED:          0
ITLB TOTAL ACCESSES:  100681425 HITS:  100304556 MISSES:     376869
ITLB LOAD ACCESSES:  100681425 HITS:  100304556 MISSES:     376869
ITLB RFO ACCESSES:          0 HITS:          0 MISSES:          0
ITLB PREFETCH ACCESSES:          0 HITS:          0 MISSES:          0
ITLB WRITEBACK ACCESSES:          0 HITS:          0 MISSES:          0
ITLB RQ ACCESS:  500000057
ITLB RQ TO_CACHE:  100681425
ITLB RQ MERGED:  399318632
ITLB RQ FORWARD:          0
ITLB WQ ACCESS:          0
ITLB WQ TO_CACHE:          0
ITLB WQ MERGED:          0
ITLB WQ FORWARD:          0
DTLB TOTAL     ACCESS:  165333767  HIT:  164699418  MISS:     634349
DTLB LOAD      ACCESS:  106290182  HIT:  105720189  MISS:     569993
DTLB RFO       ACCESS:   59043585  HIT:   58979229  MISS:      64356
DTLB PREFETCH  ACCESS:          0  HIT:          0  MISS:          0
DTLB WRITEBACK ACCESS:          0  HIT:          0  MISS:          0
DTLB PREFETCH  REQUESTED:          0  ISSUED:          0  USEFUL:          0  USELESS:          0
DTLB TOTAL MSHR MERGED:      99976
DTLB LOAD MSHR MERGED:      59449
DTLB RFO MSHR MERGED:      40527
DTLB PREFETCH MSHR MERGED:          0
DTLB WRITEBACK MSHR MERGED:          0
DTLB TOTAL ACCESSES:  165433743 HITS:  164699418 MISSES:     734325
DTLB LOAD ACCESSES:  106349631 HITS:  105720189 MISSES:     629442
DTLB RFO ACCESSES:   59084112 HITS:   58979229 MISSES:     104883
DTLB PREFETCH ACCESSES:          0 HITS:          0 MISSES:          0
DTLB WRITEBACK ACCESSES:          0 HITS:          0 MISSES:          0
DTLB RQ ACCESS:  200309158
DTLB RQ TO_CACHE:  165433743
DTLB RQ MERGED:   34875415
DTLB RQ FORWARD:          0
DTLB WQ ACCESS:          0
DTLB WQ TO_CACHE:          0
DTLB WQ MERGED:          0
DTLB WQ FORWARD:          0
L1D TOTAL     ACCESS:  281807041  HIT:  273897779  MISS:    7909262
L1D LOAD      ACCESS:  110413340  HIT:  107134874  MISS:    3278466
L1D RFO       ACCESS:   67104438  HIT:   66213323  MISS:     891115
L1D PREFETCH  ACCESS:  104289263  HIT:  100549582  MISS:    3739681
L1D WRITEBACK ACCESS:          0  HIT:          0  MISS:          0
L1D PREFETCH  REQUESTED:  110814439  ISSUED:  109115160  USEFUL:    1660484  USELESS:    2079161
L1D TOTAL MSHR MERGED:    2891746
L1D LOAD MSHR MERGED:     499002
L1D RFO MSHR MERGED:    1882031
L1D PREFETCH MSHR MERGED:     510713
L1D WRITEBACK MSHR MERGED:          0
L1D TOTAL ACCESSES:  284726271 HITS:  273925263 MISSES:   10801008
L1D LOAD ACCESSES:  110815925 HITS:  107136360 MISSES:    3679565
L1D RFO ACCESSES:   68974154 HITS:   66213323 MISSES:    2760831
L1D PREFETCH ACCESSES:  104936192 HITS:  100575580 MISSES:    4360612
L1D WRITEBACK ACCESSES:          0 HITS:          0 MISSES:          0
L1D RQ ACCESS:  130756555
L1D RQ TO_CACHE:  110814442
L1D RQ MERGED:   19940627
L1D RQ FORWARD:          0
L1D WQ ACCESS:   69552603
L1D WQ TO_CACHE:   68974155
L1D WQ MERGED:     578448
L1D WQ FORWARD:      27484
L1I TOTAL     ACCESS:  126556874  HIT:  122318321  MISS:    4238553
L1I LOAD      ACCESS:  126556874  HIT:  122318321  MISS:    4238553
L1I RFO       ACCESS:          0  HIT:          0  MISS:          0
L1I PREFETCH  ACCESS:          0  HIT:          0  MISS:          0
L1I WRITEBACK ACCESS:          0  HIT:          0  MISS:          0
L1I PREFETCH  REQUESTED:          0  ISSUED:          0  USEFUL:          0  USELESS:          0
L1I TOTAL MSHR MERGED:    1834432
L1I LOAD MSHR MERGED:    1834432
L1I RFO MSHR MERGED:          0
L1I PREFETCH MSHR MERGED:          0
L1I WRITEBACK MSHR MERGED:          0
L1I TOTAL ACCESSES:  128391309 HITS:  122318321 MISSES:    6072988
L1I LOAD ACCESSES:  128391309 HITS:  122318321 MISSES:    6072988
L1I RFO ACCESSES:          0 HITS:          0 MISSES:          0
L1I PREFETCH ACCESSES:          0 HITS:          0 MISSES:          0
L1I WRITEBACK ACCESSES:          0 HITS:          0 MISSES:          0
L1I RQ ACCESS:  500000057
L1I RQ TO_CACHE:  128391309
L1I RQ MERGED:  371608748
L1I RQ FORWARD:          0
L1I WQ ACCESS:          0
L1I WQ TO_CACHE:          0
L1I WQ MERGED:          0
L1I WQ FORWARD:          0
L2C TOTAL     ACCESS:   14904531  HIT:   11158045  MISS:    3746486
L2C LOAD      ACCESS:    7418908  HIT:    5098750  MISS:    2320158
L2C RFO       ACCESS:     878702  HIT:     409896  MISS:     468806
L2C PREFETCH  ACCESS:    4567693  HIT:    3627431  MISS:     940262
L2C WRITEBACK ACCESS:    2039228  HIT:    2021968  MISS:      17260
L2C PREFETCH  REQUESTED:     842695  ISSUED:     842695  USEFUL:     203250  USELESS:     736718
L2C TOTAL MSHR MERGED:       7608
L2C LOAD MSHR MERGED:        906
L2C RFO MSHR MERGED:          1
L2C PREFETCH MSHR MERGED:       6701
L2C WRITEBACK MSHR MERGED:          0
L2C TOTAL ACCESSES:   14913034 HITS:   11158492 MISSES:    3754542
L2C LOAD ACCESSES:    7419116 HITS:    5098958 MISSES:    2320158
L2C RFO ACCESSES:     878800 HITS:     409994 MISSES:     468806
L2C PREFETCH ACCESSES:    4575890 HITS:    3627572 MISSES:     948318
L2C WRITEBACK ACCESSES:    2039228 HITS:    2021968 MISSES:      17260
L2C RQ ACCESS:    8297919
L2C RQ TO_CACHE:    8297613
L2C RQ MERGED:          0
L2C RQ FORWARD:          0
L2C WQ ACCESS:    2039228
L2C WQ TO_CACHE:    2039228
L2C WQ MERGED:          0
L2C WQ FORWARD:        447
LLC TOTAL     ACCESS:    4609826  HIT:    3933729  MISS:     676097
LLC LOAD      ACCESS:    2319240  HIT:    2105270  MISS:     213970
LLC RFO       ACCESS:     468795  HIT:     383824  MISS:      84971
LLC PREFETCH  ACCESS:     941497  HIT:     639234  MISS:     302263
LLC WRITEBACK ACCESS:     880294  HIT:     805401  MISS:      74893
LLC PREFETCH  REQUESTED:          0  ISSUED:          0  USEFUL:      16079  USELESS:     287043
LLC TOTAL MSHR MERGED:        102
LLC LOAD MSHR MERGED:         33
LLC RFO MSHR MERGED:          0
LLC PREFETCH MSHR MERGED:         69
LLC WRITEBACK MSHR MERGED:          0
LLC TOTAL ACCESSES:    4609961 HITS:    3933762 MISSES:     676199
LLC LOAD ACCESSES:    2319252 HITS:    2105282 MISSES:     213970
LLC RFO ACCESSES:     468805 HITS:     383834 MISSES:      84971
LLC PREFETCH ACCESSES:     941610 HITS:     639245 MISSES:     302365
LLC WRITEBACK ACCESSES:     880294 HITS:     805401 MISSES:      74893
LLC 0 RQ ACCESS:    2788057
LLC 0 RQ TO_CACHE:    2788035
LLC 0 RQ MERGED:          0
LLC 0 RQ FORWARD:          0
LLC WQ ACCESS:     880294
LLC WQ TO_CACHE:     880294
LLC WQ MERGED:          0
LLC WQ FORWARD:         33
Major fault: 0 Minor fault: 12862
CPU 0 L1D next line prefetcher final stats
CPU 0 L2C PC-based stride prefetcher final stats
All Misses: 796504
All Hits: 4630328
SD Algo Stats - Switches: 0 SRR-Repls: 250361 BRR-Repls: 0

DRAM Statistics
 CHANNEL 0
 RQ ROW_BUFFER_HIT:     118544  ROW_BUFFER_MISS:     481350
 DBUS_CONGESTED:     397164
 WQ ROW_BUFFER_HIT:      20829  ROW_BUFFER_MISS:     208479  FULL:          0

 AVG_CONGESTED_CYCLE: 13
LOADS RETIRED: 136549171
INSTR RETIRED: 500000000
