
*** ChampSim Multicore Out-of-Order Simulator ***

Warmup Instructions: 100000000
Simulation Instructions: 500000000
Number of CPUs: 1
LLC sets: 2048
LLC ways: 16
Clean RRIP Policies: 2213031322130313 Dirty RRIP Policies: 1203130312031303 PSEL Width: 10 Track Set: 4294967295 PSEL Mask: 1 Demote Mask: 1040100010401000DS Algo: 0Window size: 0
Off-chip DRAM Size: 4096 MB Channels: 1 Width: 64-bit Data Rate: 1600 MT/s

CPU 0 runs /mnt/beegfs/iconst01/spec2017/Mcf.trace.gz
NOT SORTED
TRACE STRING: /mnt/beegfs/iconst01/spec2017/Mcf.trace.gz
SORTED
TRACE STRING: /mnt/beegfs/iconst01/spec2017/Mcf.trace.gz
INITIAL
TRACE STRING: /mnt/beegfs/iconst01/spec2017/Mcf.trace.gz

champsim_seed used: 278

CPU 0 L1D next line prefetcher
CPU 0 L2C IP-based stride prefetcher
Initialize DRRIP state
Assign rand_sets[0]: 454  LLC: 2048
rand_sets[0]: 454
Assign rand_sets[1]: 1662  LLC: 2048
rand_sets[1]: 1662
Assign rand_sets[2]: 1921  LLC: 2048
rand_sets[2]: 1921
Assign rand_sets[3]: 1131  LLC: 2048
rand_sets[3]: 1131
Assign rand_sets[4]: 331  LLC: 2048
rand_sets[4]: 331
Assign rand_sets[5]: 1531  LLC: 2048
rand_sets[5]: 1531
Assign rand_sets[6]: 482  LLC: 2048
rand_sets[6]: 482
Assign rand_sets[7]: 1275  LLC: 2048
rand_sets[7]: 1275
Assign rand_sets[8]: 1876  LLC: 2048
rand_sets[8]: 1876
Assign rand_sets[9]: 2038  LLC: 2048
rand_sets[9]: 2038
Assign rand_sets[10]: 701  LLC: 2048
rand_sets[10]: 701
Assign rand_sets[11]: 479  LLC: 2048
rand_sets[11]: 479
Assign rand_sets[12]: 892  LLC: 2048
rand_sets[12]: 892
Assign rand_sets[13]: 1820  LLC: 2048
rand_sets[13]: 1820
Assign rand_sets[14]: 1505  LLC: 2048
rand_sets[14]: 1505
Assign rand_sets[15]: 1159  LLC: 2048
rand_sets[15]: 1159
Assign rand_sets[16]: 513  LLC: 2048
rand_sets[16]: 513
Assign rand_sets[17]: 703  LLC: 2048
rand_sets[17]: 703
Assign rand_sets[18]: 561  LLC: 2048
rand_sets[18]: 561
Assign rand_sets[19]: 990  LLC: 2048
rand_sets[19]: 990
Assign rand_sets[20]: 342  LLC: 2048
rand_sets[20]: 342
Assign rand_sets[21]: 882  LLC: 2048
rand_sets[21]: 882
Assign rand_sets[22]: 15  LLC: 2048
rand_sets[22]: 15
Assign rand_sets[23]: 71  LLC: 2048
rand_sets[23]: 71
Assign rand_sets[24]: 1127  LLC: 2048
rand_sets[24]: 1127
Assign rand_sets[25]: 1382  LLC: 2048
rand_sets[25]: 1382
Assign rand_sets[26]: 647  LLC: 2048
rand_sets[26]: 647
Assign rand_sets[27]: 857  LLC: 2048
rand_sets[27]: 857
Assign rand_sets[28]: 1450  LLC: 2048
rand_sets[28]: 1450
Assign rand_sets[29]: 1160  LLC: 2048
rand_sets[29]: 1160
Assign rand_sets[30]: 1852  LLC: 2048
rand_sets[30]: 1852
Assign rand_sets[31]: 1881  LLC: 2048
rand_sets[31]: 1881
Assign rand_sets[32]: 1770  LLC: 2048
rand_sets[32]: 1770
Assign rand_sets[33]: 1622  LLC: 2048
rand_sets[33]: 1622
Assign rand_sets[34]: 275  LLC: 2048
rand_sets[34]: 275
Assign rand_sets[35]: 635  LLC: 2048
rand_sets[35]: 635
Assign rand_sets[36]: 466  LLC: 2048
rand_sets[36]: 466
Assign rand_sets[37]: 1413  LLC: 2048
rand_sets[37]: 1413
Assign rand_sets[38]: 417  LLC: 2048
rand_sets[38]: 417
Assign rand_sets[39]: 472  LLC: 2048
rand_sets[39]: 472
Assign rand_sets[40]: 1340  LLC: 2048
rand_sets[40]: 1340
Assign rand_sets[41]: 852  LLC: 2048
rand_sets[41]: 852
Assign rand_sets[42]: 1365  LLC: 2048
rand_sets[42]: 1365
Assign rand_sets[43]: 47  LLC: 2048
rand_sets[43]: 47
Assign rand_sets[44]: 823  LLC: 2048
rand_sets[44]: 823
Assign rand_sets[45]: 686  LLC: 2048
rand_sets[45]: 686
Assign rand_sets[46]: 1637  LLC: 2048
rand_sets[46]: 1637
Assign rand_sets[47]: 1115  LLC: 2048
rand_sets[47]: 1115
Assign rand_sets[48]: 986  LLC: 2048
rand_sets[48]: 986
Assign rand_sets[49]: 258  LLC: 2048
rand_sets[49]: 258
Assign rand_sets[50]: 633  LLC: 2048
rand_sets[50]: 633
Assign rand_sets[51]: 920  LLC: 2048
rand_sets[51]: 920
Assign rand_sets[52]: 204  LLC: 2048
rand_sets[52]: 204
Assign rand_sets[53]: 227  LLC: 2048
rand_sets[53]: 227
Assign rand_sets[54]: 1818  LLC: 2048
rand_sets[54]: 1818
Assign rand_sets[55]: 886  LLC: 2048
rand_sets[55]: 886
Assign rand_sets[56]: 1422  LLC: 2048
rand_sets[56]: 1422
Assign rand_sets[57]: 607  LLC: 2048
rand_sets[57]: 607
Assign rand_sets[58]: 217  LLC: 2048
rand_sets[58]: 217
Assign rand_sets[59]: 1945  LLC: 2048
rand_sets[59]: 1945
Assign rand_sets[60]: 143  LLC: 2048
rand_sets[60]: 143
Assign rand_sets[61]: 1311  LLC: 2048
rand_sets[61]: 1311
Assign rand_sets[62]: 319  LLC: 2048
rand_sets[62]: 319
Assign rand_sets[63]: 1846  LLC: 2048
rand_sets[63]: 1846
 CLEAN-RRIP-POLICY-1: 2-2-1-3-0-3-1-3- CLEAN-RRIP-POLICY-2: 2-2-1-3-0-3-1-3-
 DIRTY-RRIP-POLICY-1: 1-2-0-3-1-3-0-3- DIRTY-RRIP-POLICY-2: 1-2-0-3-1-3-0-3-
 PSEL width: 10
Heartbeat CPU 0 instructions: 10000002 cycles: 6266273 heartbeat IPC: 1.59585 cumulative IPC: 1.59585 (Simulation time: 0 hr 0 min 13 sec) 
Heartbeat CPU 0 instructions: 20000000 cycles: 12503869 heartbeat IPC: 1.60318 cumulative IPC: 1.5995 (Simulation time: 0 hr 0 min 25 sec) 
Heartbeat CPU 0 instructions: 30000000 cycles: 18730495 heartbeat IPC: 1.60601 cumulative IPC: 1.60167 (Simulation time: 0 hr 0 min 37 sec) 
Heartbeat CPU 0 instructions: 40000000 cycles: 24953900 heartbeat IPC: 1.60684 cumulative IPC: 1.60296 (Simulation time: 0 hr 0 min 50 sec) 
Heartbeat CPU 0 instructions: 50000003 cycles: 31179018 heartbeat IPC: 1.6064 cumulative IPC: 1.60364 (Simulation time: 0 hr 1 min 2 sec) 
Heartbeat CPU 0 instructions: 60000000 cycles: 37385766 heartbeat IPC: 1.61115 cumulative IPC: 1.60489 (Simulation time: 0 hr 1 min 15 sec) 
Heartbeat CPU 0 instructions: 70000003 cycles: 43614594 heartbeat IPC: 1.60544 cumulative IPC: 1.60497 (Simulation time: 0 hr 1 min 27 sec) 
Heartbeat CPU 0 instructions: 80000000 cycles: 49853918 heartbeat IPC: 1.60274 cumulative IPC: 1.60469 (Simulation time: 0 hr 1 min 39 sec) 
Heartbeat CPU 0 instructions: 90000000 cycles: 56091256 heartbeat IPC: 1.60325 cumulative IPC: 1.60453 (Simulation time: 0 hr 1 min 52 sec) 
Heartbeat CPU 0 instructions: 100000000 cycles: 62318521 heartbeat IPC: 1.60584 cumulative IPC: 1.60466 (Simulation time: 0 hr 2 min 4 sec) 

Warmup complete CPU 0 instructions: 100000001 cycles: 62318522 (Simulation time: 0 hr 2 min 4 sec) 

Heartbeat CPU 0 instructions: 110000000 cycles: 89417264 heartbeat IPC: 0.369021 cumulative IPC: 0.369021 (Simulation time: 0 hr 2 min 28 sec) 
Heartbeat CPU 0 instructions: 120000000 cycles: 116422568 heartbeat IPC: 0.370298 cumulative IPC: 0.369658 (Simulation time: 0 hr 2 min 52 sec) 
Heartbeat CPU 0 instructions: 130000000 cycles: 143410252 heartbeat IPC: 0.370539 cumulative IPC: 0.369951 (Simulation time: 0 hr 3 min 16 sec) 
Heartbeat CPU 0 instructions: 140000000 cycles: 170242529 heartbeat IPC: 0.372685 cumulative IPC: 0.370631 (Simulation time: 0 hr 3 min 40 sec) 
Heartbeat CPU 0 instructions: 150000003 cycles: 196861577 heartbeat IPC: 0.375671 cumulative IPC: 0.371628 (Simulation time: 0 hr 4 min 3 sec) 
Heartbeat CPU 0 instructions: 160000000 cycles: 223745338 heartbeat IPC: 0.371972 cumulative IPC: 0.371685 (Simulation time: 0 hr 4 min 27 sec) 
Heartbeat CPU 0 instructions: 170000001 cycles: 250411213 heartbeat IPC: 0.375011 cumulative IPC: 0.372157 (Simulation time: 0 hr 4 min 51 sec) 
Heartbeat CPU 0 instructions: 180000000 cycles: 277010073 heartbeat IPC: 0.375956 cumulative IPC: 0.372628 (Simulation time: 0 hr 5 min 15 sec) 
Heartbeat CPU 0 instructions: 190000003 cycles: 303528090 heartbeat IPC: 0.377102 cumulative IPC: 0.37312 (Simulation time: 0 hr 5 min 38 sec) 
Heartbeat CPU 0 instructions: 200000000 cycles: 330068073 heartbeat IPC: 0.37679 cumulative IPC: 0.373483 (Simulation time: 0 hr 6 min 2 sec) 
Heartbeat CPU 0 instructions: 210000003 cycles: 356638403 heartbeat IPC: 0.37636 cumulative IPC: 0.373743 (Simulation time: 0 hr 6 min 25 sec) 
Heartbeat CPU 0 instructions: 220000000 cycles: 383432550 heartbeat IPC: 0.373216 cumulative IPC: 0.373699 (Simulation time: 0 hr 6 min 49 sec) 
Heartbeat CPU 0 instructions: 230000002 cycles: 409733810 heartbeat IPC: 0.38021 cumulative IPC: 0.374192 (Simulation time: 0 hr 7 min 13 sec) 
Heartbeat CPU 0 instructions: 240000000 cycles: 436393073 heartbeat IPC: 0.375104 cumulative IPC: 0.374257 (Simulation time: 0 hr 7 min 37 sec) 
Heartbeat CPU 0 instructions: 250000000 cycles: 462829681 heartbeat IPC: 0.378263 cumulative IPC: 0.374521 (Simulation time: 0 hr 8 min 0 sec) 
Heartbeat CPU 0 instructions: 260000000 cycles: 489162376 heartbeat IPC: 0.379756 cumulative IPC: 0.374844 (Simulation time: 0 hr 8 min 24 sec) 
Heartbeat CPU 0 instructions: 270000001 cycles: 515593194 heartbeat IPC: 0.378346 cumulative IPC: 0.375049 (Simulation time: 0 hr 8 min 48 sec) 
Heartbeat CPU 0 instructions: 280000000 cycles: 541877600 heartbeat IPC: 0.380454 cumulative IPC: 0.375345 (Simulation time: 0 hr 9 min 11 sec) 
Heartbeat CPU 0 instructions: 290000001 cycles: 568243377 heartbeat IPC: 0.37928 cumulative IPC: 0.37555 (Simulation time: 0 hr 9 min 35 sec) 
Heartbeat CPU 0 instructions: 300000000 cycles: 594790004 heartbeat IPC: 0.376696 cumulative IPC: 0.375607 (Simulation time: 0 hr 9 min 59 sec) 
Heartbeat CPU 0 instructions: 310000003 cycles: 620931737 heartbeat IPC: 0.38253 cumulative IPC: 0.375931 (Simulation time: 0 hr 10 min 22 sec) 
Heartbeat CPU 0 instructions: 320000000 cycles: 647401168 heartbeat IPC: 0.377794 cumulative IPC: 0.376015 (Simulation time: 0 hr 10 min 46 sec) 
Heartbeat CPU 0 instructions: 330000003 cycles: 673509458 heartbeat IPC: 0.38302 cumulative IPC: 0.376314 (Simulation time: 0 hr 11 min 10 sec) 
Heartbeat CPU 0 instructions: 340000000 cycles: 699967526 heartbeat IPC: 0.377956 cumulative IPC: 0.376383 (Simulation time: 0 hr 11 min 33 sec) 
Heartbeat CPU 0 instructions: 350000002 cycles: 726398562 heartbeat IPC: 0.378343 cumulative IPC: 0.376461 (Simulation time: 0 hr 11 min 57 sec) 
Heartbeat CPU 0 instructions: 360000000 cycles: 752959520 heartbeat IPC: 0.376492 cumulative IPC: 0.376462 (Simulation time: 0 hr 12 min 21 sec) 
Heartbeat CPU 0 instructions: 370000000 cycles: 779254704 heartbeat IPC: 0.380298 cumulative IPC: 0.376603 (Simulation time: 0 hr 12 min 44 sec) 
Heartbeat CPU 0 instructions: 380000000 cycles: 805350972 heartbeat IPC: 0.383197 cumulative IPC: 0.376834 (Simulation time: 0 hr 13 min 8 sec) 
Heartbeat CPU 0 instructions: 390000002 cycles: 831398710 heartbeat IPC: 0.383911 cumulative IPC: 0.377074 (Simulation time: 0 hr 13 min 31 sec) 
Heartbeat CPU 0 instructions: 400000000 cycles: 857672909 heartbeat IPC: 0.380601 cumulative IPC: 0.37719 (Simulation time: 0 hr 13 min 55 sec) 
Heartbeat CPU 0 instructions: 410000002 cycles: 883749230 heartbeat IPC: 0.38349 cumulative IPC: 0.37739 (Simulation time: 0 hr 14 min 18 sec) 
Heartbeat CPU 0 instructions: 420000000 cycles: 909543707 heartbeat IPC: 0.38768 cumulative IPC: 0.377704 (Simulation time: 0 hr 14 min 42 sec) 
Heartbeat CPU 0 instructions: 430000000 cycles: 935636649 heartbeat IPC: 0.383245 cumulative IPC: 0.377869 (Simulation time: 0 hr 15 min 5 sec) 
Heartbeat CPU 0 instructions: 440000000 cycles: 961349425 heartbeat IPC: 0.388912 cumulative IPC: 0.378185 (Simulation time: 0 hr 15 min 29 sec) 
Heartbeat CPU 0 instructions: 450000000 cycles: 987719977 heartbeat IPC: 0.379211 cumulative IPC: 0.378214 (Simulation time: 0 hr 15 min 53 sec) 
Heartbeat CPU 0 instructions: 460000000 cycles: 1013995799 heartbeat IPC: 0.380578 cumulative IPC: 0.37828 (Simulation time: 0 hr 16 min 18 sec) 
Heartbeat CPU 0 instructions: 470000001 cycles: 1039988721 heartbeat IPC: 0.38472 cumulative IPC: 0.378451 (Simulation time: 0 hr 16 min 42 sec) 
Heartbeat CPU 0 instructions: 480000000 cycles: 1066217116 heartbeat IPC: 0.381266 cumulative IPC: 0.378524 (Simulation time: 0 hr 17 min 7 sec) 
Heartbeat CPU 0 instructions: 490000000 cycles: 1092549791 heartbeat IPC: 0.379756 cumulative IPC: 0.378556 (Simulation time: 0 hr 17 min 32 sec) 
Heartbeat CPU 0 instructions: 500000000 cycles: 1119272468 heartbeat IPC: 0.374214 cumulative IPC: 0.378446 (Simulation time: 0 hr 17 min 56 sec) 
Heartbeat CPU 0 instructions: 510000003 cycles: 1145825482 heartbeat IPC: 0.376605 cumulative IPC: 0.378401 (Simulation time: 0 hr 18 min 21 sec) 
Heartbeat CPU 0 instructions: 520000000 cycles: 1172515542 heartbeat IPC: 0.374671 cumulative IPC: 0.378311 (Simulation time: 0 hr 18 min 45 sec) 
Heartbeat CPU 0 instructions: 530000003 cycles: 1199285998 heartbeat IPC: 0.373546 cumulative IPC: 0.378199 (Simulation time: 0 hr 19 min 10 sec) 
Heartbeat CPU 0 instructions: 540000000 cycles: 1225906164 heartbeat IPC: 0.375655 cumulative IPC: 0.378141 (Simulation time: 0 hr 19 min 34 sec) 
Heartbeat CPU 0 instructions: 550000000 cycles: 1252521262 heartbeat IPC: 0.375727 cumulative IPC: 0.378087 (Simulation time: 0 hr 19 min 59 sec) 
Heartbeat CPU 0 instructions: 560000000 cycles: 1279519697 heartbeat IPC: 0.370392 cumulative IPC: 0.377916 (Simulation time: 0 hr 20 min 24 sec) 
Heartbeat CPU 0 instructions: 570000001 cycles: 1306464245 heartbeat IPC: 0.371133 cumulative IPC: 0.377769 (Simulation time: 0 hr 20 min 48 sec) 
Heartbeat CPU 0 instructions: 580000000 cycles: 1333385056 heartbeat IPC: 0.37146 cumulative IPC: 0.377636 (Simulation time: 0 hr 21 min 13 sec) 
Heartbeat CPU 0 instructions: 590000000 cycles: 1360520327 heartbeat IPC: 0.368524 cumulative IPC: 0.377445 (Simulation time: 0 hr 21 min 38 sec) 
Heartbeat CPU 0 instructions: 600000000 cycles: 1387817994 heartbeat IPC: 0.366332 cumulative IPC: 0.377216 (Simulation time: 0 hr 22 min 3 sec) 
Finished CPU 0 instructions: 500000003 cycles: 1325499485 cumulative IPC: 0.377216 (Simulation time: 0 hr 22 min 3 sec) 

CPU 0 Branch Prediction Accuracy: 91.1342% MPKI: 18.7968
Number of Branches: 106006945 Number of Mispredictions: 9398408
Number of LOAD Instructions: 207894007
Number of LOAD Instructions (ROI): 207894007
Number of STORE Instructions: 54285997
Number of STORE Instructions (ROI): 54285997
Total Destination Memory Operands: 57463404
Total Destination Memory Operands (ROI): 57463404
Total Source Memory Operands: 207894007
Total Source Memory Operands (ROI): 207894007
Number of DEPENDED LOADS: 18169512
Number of DEPENDED LOADS (ROI): 18169512
Number of SQ_ADDED: 57463404
Number of SQ_ADDED (ROI): 57463404
Number of LQ_ADDED: 210062713
Number of LQ_ADDED (ROI): 210062713
Number of Instructions read from trace: 600000039

ChampSim completed all CPUs

Region of Interest Statistics

CPU 0 cumulative IPC: 0.377216 instructions: 500000003 cycles: 1325499485
ITLB TOTAL     ACCESS:   96448133  HIT:   96448133  MISS:          0
ITLB LOAD      ACCESS:   96448133  HIT:   96448133  MISS:          0
ITLB RFO       ACCESS:          0  HIT:          0  MISS:          0
ITLB PREFETCH  ACCESS:          0  HIT:          0  MISS:          0
ITLB WRITEBACK ACCESS:          0  HIT:          0  MISS:          0
ITLB PREFETCH  REQUESTED:          0  ISSUED:          0  USEFUL:          0  USELESS:          0
ITLB TOTAL MSHR MERGED:          0
ITLB LOAD MSHR MERGED:          0
ITLB RFO MSHR MERGED:          0
ITLB PREFETCH MSHR MERGED:          0
ITLB WRITEBACK MSHR MERGED:          0
ITLB TOTAL ACCESSES:   96448133 HITS:   96448133 MISSES:          0
ITLB LOAD ACCESSES:   96448133 HITS:   96448133 MISSES:          0
ITLB RFO ACCESSES:          0 HITS:          0 MISSES:          0
ITLB PREFETCH ACCESSES:          0 HITS:          0 MISSES:          0
ITLB WRITEBACK ACCESSES:          0 HITS:          0 MISSES:          0
ITLB RQ ACCESS:  499999980
ITLB RQ TO_CACHE:   96448133
ITLB RQ MERGED:  403551847
ITLB RQ FORWARD:          0
ITLB WQ ACCESS:          0
ITLB WQ TO_CACHE:          0
ITLB WQ MERGED:          0
ITLB WQ FORWARD:          0
DTLB TOTAL     ACCESS:  155124864  HIT:  150212775  MISS:    4912089
DTLB LOAD      ACCESS:  117680287  HIT:  113289828  MISS:    4390459
DTLB RFO       ACCESS:   37444577  HIT:   36922947  MISS:     521630
DTLB PREFETCH  ACCESS:          0  HIT:          0  MISS:          0
DTLB WRITEBACK ACCESS:          0  HIT:          0  MISS:          0
DTLB PREFETCH  REQUESTED:          0  ISSUED:          0  USEFUL:          0  USELESS:          0
DTLB TOTAL MSHR MERGED:     451614
DTLB LOAD MSHR MERGED:     160048
DTLB RFO MSHR MERGED:     291566
DTLB PREFETCH MSHR MERGED:          0
DTLB WRITEBACK MSHR MERGED:          0
DTLB TOTAL ACCESSES:  155576478 HITS:  150212775 MISSES:    5363703
DTLB LOAD ACCESSES:  117840335 HITS:  113289828 MISSES:    4550507
DTLB RFO ACCESSES:   37736143 HITS:   36922947 MISSES:     813196
DTLB PREFETCH ACCESSES:          0 HITS:          0 MISSES:          0
DTLB WRITEBACK ACCESSES:          0 HITS:          0 MISSES:          0
DTLB RQ ACCESS:  205914516
DTLB RQ TO_CACHE:  155576478
DTLB RQ MERGED:   50338038
DTLB RQ FORWARD:          0
DTLB WQ ACCESS:          0
DTLB WQ TO_CACHE:          0
DTLB WQ MERGED:          0
DTLB WQ FORWARD:          0
L1D TOTAL     ACCESS:  277160388  HIT:  242337828  MISS:   34822560
L1D LOAD      ACCESS:  125384055  HIT:  107787235  MISS:   17596820
L1D RFO       ACCESS:   41130653  HIT:   38818838  MISS:    2311815
L1D PREFETCH  ACCESS:  110645680  HIT:   95731755  MISS:   14913925
L1D WRITEBACK ACCESS:          0  HIT:          0  MISS:          0
L1D PREFETCH  REQUESTED:  126239146  ISSUED:  124719684  USEFUL:    2747320  USELESS:   12166630
L1D TOTAL MSHR MERGED:    8481910
L1D LOAD MSHR MERGED:    1534646
L1D RFO MSHR MERGED:    3764524
L1D PREFETCH MSHR MERGED:    3182740
L1D WRITEBACK MSHR MERGED:          0
L1D TOTAL ACCESSES:  285728879 HITS:  242424408 MISSES:   43304471
L1D LOAD ACCESSES:  126239176 HITS:  107787265 MISSES:   18451911
L1D RFO ACCESSES:   44894687 HITS:   38818838 MISSES:    6075849
L1D PREFETCH ACCESSES:  114595016 HITS:   95818305 MISSES:   18776711
L1D WRITEBACK ACCESSES:          0 HITS:          0 MISSES:          0
L1D RQ ACCESS:  158367635
L1D RQ TO_CACHE:  126239146
L1D RQ MERGED:   32128459
L1D RQ FORWARD:          0
L1D WQ ACCESS:   47546882
L1D WQ TO_CACHE:   44894687
L1D WQ MERGED:    2652195
L1D WQ FORWARD:      86580
L1I TOTAL     ACCESS:  132845335  HIT:  132845335  MISS:          0
L1I LOAD      ACCESS:  132845335  HIT:  132845335  MISS:          0
L1I RFO       ACCESS:          0  HIT:          0  MISS:          0
L1I PREFETCH  ACCESS:          0  HIT:          0  MISS:          0
L1I WRITEBACK ACCESS:          0  HIT:          0  MISS:          0
L1I PREFETCH  REQUESTED:          0  ISSUED:          0  USEFUL:          0  USELESS:          0
L1I TOTAL MSHR MERGED:          0
L1I LOAD MSHR MERGED:          0
L1I RFO MSHR MERGED:          0
L1I PREFETCH MSHR MERGED:          0
L1I WRITEBACK MSHR MERGED:          0
L1I TOTAL ACCESSES:  132845335 HITS:  132845335 MISSES:          0
L1I LOAD ACCESSES:  132845335 HITS:  132845335 MISSES:          0
L1I RFO ACCESSES:          0 HITS:          0 MISSES:          0
L1I PREFETCH ACCESSES:          0 HITS:          0 MISSES:          0
L1I WRITEBACK ACCESSES:          0 HITS:          0 MISSES:          0
L1I RQ ACCESS:  499999980
L1I RQ TO_CACHE:  132845335
L1I RQ MERGED:  367154645
L1I RQ FORWARD:          0
L1I WQ ACCESS:          0
L1I WQ TO_CACHE:          0
L1I WQ MERGED:          0
L1I WQ FORWARD:          0
L2C TOTAL     ACCESS:   39592913  HIT:   20623589  MISS:   18969324
L2C LOAD      ACCESS:   16917212  HIT:    8567677  MISS:    8349535
L2C RFO       ACCESS:    2311271  HIT:     630655  MISS:    1680616
L2C PREFETCH  ACCESS:   17141990  HIT:    8206564  MISS:    8935426
L2C WRITEBACK ACCESS:    3222440  HIT:    3218693  MISS:       3747
L2C PREFETCH  REQUESTED:    2798045  ISSUED:    2798045  USEFUL:    1309259  USELESS:    7625887
L2C TOTAL MSHR MERGED:     484720
L2C LOAD MSHR MERGED:      62844
L2C RFO MSHR MERGED:          0
L2C PREFETCH MSHR MERGED:     421876
L2C WRITEBACK MSHR MERGED:          0
L2C TOTAL ACCESSES:   40141817 HITS:   20623745 MISSES:   19518072
L2C LOAD ACCESSES:   16917265 HITS:    8567730 MISSES:    8349535
L2C RFO ACCESSES:    2311325 HITS:     630709 MISSES:    1680616
L2C PREFETCH ACCESSES:   17690787 HITS:    8206613 MISSES:    9484174
L2C WRITEBACK ACCESSES:    3222440 HITS:    3218693 MISSES:       3747
L2C RQ ACCESS:   19228590
L2C RQ TO_CACHE:   19228483
L2C RQ MERGED:          0
L2C RQ FORWARD:          0
L2C WQ ACCESS:    3222440
L2C WQ TO_CACHE:    3222440
L2C WQ MERGED:          0
L2C WQ FORWARD:        156
LLC TOTAL     ACCESS:   21179742  HIT:   13495604  MISS:    7684138
LLC LOAD      ACCESS:    8286672  HIT:    4744704  MISS:    3541968
LLC RFO       ACCESS:    1680555  HIT:    1678157  MISS:       2398
LLC PREFETCH  ACCESS:    9036718  HIT:    4906794  MISS:    4129924
LLC WRITEBACK ACCESS:    2175797  HIT:    2165949  MISS:       9848
LLC PREFETCH  REQUESTED:          0  ISSUED:          0  USEFUL:     181136  USELESS:    3951756
LLC TOTAL MSHR MERGED:      21784
LLC LOAD MSHR MERGED:       6255
LLC RFO MSHR MERGED:          0
LLC PREFETCH MSHR MERGED:      15529
LLC WRITEBACK MSHR MERGED:          0
LLC TOTAL ACCESSES:   21201631 HITS:   13495708 MISSES:    7705923
LLC LOAD ACCESSES:    8286691 HITS:    4744723 MISSES:    3541968
LLC RFO ACCESSES:    1680616 HITS:    1678218 MISSES:       2398
LLC PREFETCH ACCESSES:    9058527 HITS:    4906818 MISSES:    4151709
LLC WRITEBACK ACCESSES:    2175797 HITS:    2165949 MISSES:       9848
LLC 0 RQ ACCESS:    9967307
LLC 0 RQ TO_CACHE:    9967227
LLC 0 RQ MERGED:          0
LLC 0 RQ FORWARD:          0
LLC WQ ACCESS:    2175798
LLC WQ TO_CACHE:    2175798
LLC WQ MERGED:          0
LLC WQ FORWARD:        104
Major fault: 0 Minor fault: 56391
CPU 0 L1D next line prefetcher final stats
CPU 0 L2C PC-based stride prefetcher final stats
All Misses: 9393688
All Hits: 15162820
SD Algo Stats - Switches: 132 SRR-Repls: 3768654 BRR-Repls: 210904

DRAM Statistics
 CHANNEL 0
 RQ ROW_BUFFER_HIT:    5124081  ROW_BUFFER_MISS:    2547642
 DBUS_CONGESTED:    3682143
 WQ ROW_BUFFER_HIT:        271  ROW_BUFFER_MISS:      12726  FULL:          0

 AVG_CONGESTED_CYCLE: 12
LOADS RETIRED: 173631671
INSTR RETIRED: 500000000
