
*** ChampSim Multicore Out-of-Order Simulator ***

Warmup Instructions: 100000000
Simulation Instructions: 500000000
Number of CPUs: 1
LLC sets: 2048
LLC ways: 16
Clean RRIP Policies: 2213031322130313 Dirty RRIP Policies: 1203130312031303 PSEL Width: 10 Track Set: 4294967295 PSEL Mask: 1 Demote Mask: 1040100010401000DS Algo: 0Window size: 0
Off-chip DRAM Size: 4096 MB Channels: 1 Width: 64-bit Data Rate: 1600 MT/s

CPU 0 runs /mnt/beegfs/iconst01/spec2017/Roms.trace.gz
NOT SORTED
TRACE STRING: /mnt/beegfs/iconst01/spec2017/Roms.trace.gz
SORTED
TRACE STRING: /mnt/beegfs/iconst01/spec2017/Roms.trace.gz
INITIAL
TRACE STRING: /mnt/beegfs/iconst01/spec2017/Roms.trace.gz

champsim_seed used: 417

CPU 0 L1D next line prefetcher
CPU 0 L2C IP-based stride prefetcher
Initialize DRRIP state
Assign rand_sets[0]: 454  LLC: 2048
rand_sets[0]: 454
Assign rand_sets[1]: 1662  LLC: 2048
rand_sets[1]: 1662
Assign rand_sets[2]: 1921  LLC: 2048
rand_sets[2]: 1921
Assign rand_sets[3]: 1131  LLC: 2048
rand_sets[3]: 1131
Assign rand_sets[4]: 331  LLC: 2048
rand_sets[4]: 331
Assign rand_sets[5]: 1531  LLC: 2048
rand_sets[5]: 1531
Assign rand_sets[6]: 482  LLC: 2048
rand_sets[6]: 482
Assign rand_sets[7]: 1275  LLC: 2048
rand_sets[7]: 1275
Assign rand_sets[8]: 1876  LLC: 2048
rand_sets[8]: 1876
Assign rand_sets[9]: 2038  LLC: 2048
rand_sets[9]: 2038
Assign rand_sets[10]: 701  LLC: 2048
rand_sets[10]: 701
Assign rand_sets[11]: 479  LLC: 2048
rand_sets[11]: 479
Assign rand_sets[12]: 892  LLC: 2048
rand_sets[12]: 892
Assign rand_sets[13]: 1820  LLC: 2048
rand_sets[13]: 1820
Assign rand_sets[14]: 1505  LLC: 2048
rand_sets[14]: 1505
Assign rand_sets[15]: 1159  LLC: 2048
rand_sets[15]: 1159
Assign rand_sets[16]: 513  LLC: 2048
rand_sets[16]: 513
Assign rand_sets[17]: 703  LLC: 2048
rand_sets[17]: 703
Assign rand_sets[18]: 561  LLC: 2048
rand_sets[18]: 561
Assign rand_sets[19]: 990  LLC: 2048
rand_sets[19]: 990
Assign rand_sets[20]: 342  LLC: 2048
rand_sets[20]: 342
Assign rand_sets[21]: 882  LLC: 2048
rand_sets[21]: 882
Assign rand_sets[22]: 15  LLC: 2048
rand_sets[22]: 15
Assign rand_sets[23]: 71  LLC: 2048
rand_sets[23]: 71
Assign rand_sets[24]: 1127  LLC: 2048
rand_sets[24]: 1127
Assign rand_sets[25]: 1382  LLC: 2048
rand_sets[25]: 1382
Assign rand_sets[26]: 647  LLC: 2048
rand_sets[26]: 647
Assign rand_sets[27]: 857  LLC: 2048
rand_sets[27]: 857
Assign rand_sets[28]: 1450  LLC: 2048
rand_sets[28]: 1450
Assign rand_sets[29]: 1160  LLC: 2048
rand_sets[29]: 1160
Assign rand_sets[30]: 1852  LLC: 2048
rand_sets[30]: 1852
Assign rand_sets[31]: 1881  LLC: 2048
rand_sets[31]: 1881
Assign rand_sets[32]: 1770  LLC: 2048
rand_sets[32]: 1770
Assign rand_sets[33]: 1622  LLC: 2048
rand_sets[33]: 1622
Assign rand_sets[34]: 275  LLC: 2048
rand_sets[34]: 275
Assign rand_sets[35]: 635  LLC: 2048
rand_sets[35]: 635
Assign rand_sets[36]: 466  LLC: 2048
rand_sets[36]: 466
Assign rand_sets[37]: 1413  LLC: 2048
rand_sets[37]: 1413
Assign rand_sets[38]: 417  LLC: 2048
rand_sets[38]: 417
Assign rand_sets[39]: 472  LLC: 2048
rand_sets[39]: 472
Assign rand_sets[40]: 1340  LLC: 2048
rand_sets[40]: 1340
Assign rand_sets[41]: 852  LLC: 2048
rand_sets[41]: 852
Assign rand_sets[42]: 1365  LLC: 2048
rand_sets[42]: 1365
Assign rand_sets[43]: 47  LLC: 2048
rand_sets[43]: 47
Assign rand_sets[44]: 823  LLC: 2048
rand_sets[44]: 823
Assign rand_sets[45]: 686  LLC: 2048
rand_sets[45]: 686
Assign rand_sets[46]: 1637  LLC: 2048
rand_sets[46]: 1637
Assign rand_sets[47]: 1115  LLC: 2048
rand_sets[47]: 1115
Assign rand_sets[48]: 986  LLC: 2048
rand_sets[48]: 986
Assign rand_sets[49]: 258  LLC: 2048
rand_sets[49]: 258
Assign rand_sets[50]: 633  LLC: 2048
rand_sets[50]: 633
Assign rand_sets[51]: 920  LLC: 2048
rand_sets[51]: 920
Assign rand_sets[52]: 204  LLC: 2048
rand_sets[52]: 204
Assign rand_sets[53]: 227  LLC: 2048
rand_sets[53]: 227
Assign rand_sets[54]: 1818  LLC: 2048
rand_sets[54]: 1818
Assign rand_sets[55]: 886  LLC: 2048
rand_sets[55]: 886
Assign rand_sets[56]: 1422  LLC: 2048
rand_sets[56]: 1422
Assign rand_sets[57]: 607  LLC: 2048
rand_sets[57]: 607
Assign rand_sets[58]: 217  LLC: 2048
rand_sets[58]: 217
Assign rand_sets[59]: 1945  LLC: 2048
rand_sets[59]: 1945
Assign rand_sets[60]: 143  LLC: 2048
rand_sets[60]: 143
Assign rand_sets[61]: 1311  LLC: 2048
rand_sets[61]: 1311
Assign rand_sets[62]: 319  LLC: 2048
rand_sets[62]: 319
Assign rand_sets[63]: 1846  LLC: 2048
rand_sets[63]: 1846
 CLEAN-RRIP-POLICY-1: 2-2-1-3-0-3-1-3- CLEAN-RRIP-POLICY-2: 2-2-1-3-0-3-1-3-
 DIRTY-RRIP-POLICY-1: 1-2-0-3-1-3-0-3- DIRTY-RRIP-POLICY-2: 1-2-0-3-1-3-0-3-
 PSEL width: 10
Heartbeat CPU 0 instructions: 10000000 cycles: 4688312 heartbeat IPC: 2.13296 cumulative IPC: 2.13296 (Simulation time: 0 hr 0 min 16 sec) 
Heartbeat CPU 0 instructions: 20000000 cycles: 9325885 heartbeat IPC: 2.1563 cumulative IPC: 2.14457 (Simulation time: 0 hr 0 min 33 sec) 
Heartbeat CPU 0 instructions: 30000003 cycles: 14020625 heartbeat IPC: 2.13004 cumulative IPC: 2.13971 (Simulation time: 0 hr 0 min 50 sec) 
Heartbeat CPU 0 instructions: 40000000 cycles: 18671416 heartbeat IPC: 2.15017 cumulative IPC: 2.14231 (Simulation time: 0 hr 1 min 7 sec) 
Heartbeat CPU 0 instructions: 50000003 cycles: 23325105 heartbeat IPC: 2.14883 cumulative IPC: 2.14361 (Simulation time: 0 hr 1 min 23 sec) 
Heartbeat CPU 0 instructions: 60000000 cycles: 27978031 heartbeat IPC: 2.14918 cumulative IPC: 2.14454 (Simulation time: 0 hr 1 min 39 sec) 
Heartbeat CPU 0 instructions: 70000002 cycles: 32369444 heartbeat IPC: 2.27717 cumulative IPC: 2.16253 (Simulation time: 0 hr 1 min 54 sec) 
Heartbeat CPU 0 instructions: 80000000 cycles: 36306496 heartbeat IPC: 2.53997 cumulative IPC: 2.20346 (Simulation time: 0 hr 2 min 5 sec) 
Heartbeat CPU 0 instructions: 90000000 cycles: 40251976 heartbeat IPC: 2.53455 cumulative IPC: 2.23592 (Simulation time: 0 hr 2 min 17 sec) 
Heartbeat CPU 0 instructions: 100000000 cycles: 44214535 heartbeat IPC: 2.52362 cumulative IPC: 2.2617 (Simulation time: 0 hr 2 min 29 sec) 

Warmup complete CPU 0 instructions: 100000002 cycles: 44214536 (Simulation time: 0 hr 2 min 29 sec) 

Heartbeat CPU 0 instructions: 110000000 cycles: 52898169 heartbeat IPC: 1.15159 cumulative IPC: 1.15159 (Simulation time: 0 hr 2 min 47 sec) 
Heartbeat CPU 0 instructions: 120000000 cycles: 61626366 heartbeat IPC: 1.14571 cumulative IPC: 1.14864 (Simulation time: 0 hr 3 min 5 sec) 
Heartbeat CPU 0 instructions: 130000002 cycles: 70423057 heartbeat IPC: 1.13679 cumulative IPC: 1.14467 (Simulation time: 0 hr 3 min 24 sec) 
Heartbeat CPU 0 instructions: 140000000 cycles: 79100585 heartbeat IPC: 1.1524 cumulative IPC: 1.14659 (Simulation time: 0 hr 3 min 42 sec) 
Heartbeat CPU 0 instructions: 150000003 cycles: 87928911 heartbeat IPC: 1.13272 cumulative IPC: 1.14379 (Simulation time: 0 hr 4 min 0 sec) 
Heartbeat CPU 0 instructions: 160000000 cycles: 98339013 heartbeat IPC: 0.960605 cumulative IPC: 1.10856 (Simulation time: 0 hr 4 min 21 sec) 
Heartbeat CPU 0 instructions: 170000000 cycles: 110911242 heartbeat IPC: 0.795404 cumulative IPC: 1.04953 (Simulation time: 0 hr 4 min 44 sec) 
Heartbeat CPU 0 instructions: 180000000 cycles: 123519938 heartbeat IPC: 0.793103 cumulative IPC: 1.00876 (Simulation time: 0 hr 5 min 6 sec) 
Heartbeat CPU 0 instructions: 190000000 cycles: 136377658 heartbeat IPC: 0.777743 cumulative IPC: 0.976529 (Simulation time: 0 hr 5 min 29 sec) 
Heartbeat CPU 0 instructions: 200000000 cycles: 150382673 heartbeat IPC: 0.71403 cumulative IPC: 0.941902 (Simulation time: 0 hr 5 min 52 sec) 
Heartbeat CPU 0 instructions: 210000001 cycles: 164485137 heartbeat IPC: 0.709096 cumulative IPC: 0.914604 (Simulation time: 0 hr 6 min 15 sec) 
Heartbeat CPU 0 instructions: 220000000 cycles: 178492369 heartbeat IPC: 0.713917 cumulative IPC: 0.893669 (Simulation time: 0 hr 6 min 39 sec) 
Heartbeat CPU 0 instructions: 230000000 cycles: 192441683 heartbeat IPC: 0.716881 cumulative IPC: 0.877032 (Simulation time: 0 hr 7 min 3 sec) 
Heartbeat CPU 0 instructions: 240000000 cycles: 206458237 heartbeat IPC: 0.713442 cumulative IPC: 0.862899 (Simulation time: 0 hr 7 min 27 sec) 
Heartbeat CPU 0 instructions: 250000003 cycles: 217771263 heartbeat IPC: 0.883937 cumulative IPC: 0.864271 (Simulation time: 0 hr 7 min 49 sec) 
Heartbeat CPU 0 instructions: 260000000 cycles: 225657572 heartbeat IPC: 1.26802 cumulative IPC: 0.881819 (Simulation time: 0 hr 8 min 8 sec) 
Heartbeat CPU 0 instructions: 270000003 cycles: 234009085 heartbeat IPC: 1.19739 cumulative IPC: 0.895705 (Simulation time: 0 hr 8 min 27 sec) 
Heartbeat CPU 0 instructions: 280000000 cycles: 242518632 heartbeat IPC: 1.17515 cumulative IPC: 0.907697 (Simulation time: 0 hr 8 min 47 sec) 
Heartbeat CPU 0 instructions: 290000000 cycles: 251187198 heartbeat IPC: 1.15359 cumulative IPC: 0.917996 (Simulation time: 0 hr 9 min 7 sec) 
Heartbeat CPU 0 instructions: 300000000 cycles: 259891464 heartbeat IPC: 1.14886 cumulative IPC: 0.927313 (Simulation time: 0 hr 9 min 27 sec) 
Heartbeat CPU 0 instructions: 310000000 cycles: 268653424 heartbeat IPC: 1.1413 cumulative IPC: 0.935667 (Simulation time: 0 hr 9 min 48 sec) 
Heartbeat CPU 0 instructions: 320000000 cycles: 277490257 heartbeat IPC: 1.13163 cumulative IPC: 0.94309 (Simulation time: 0 hr 10 min 9 sec) 
Heartbeat CPU 0 instructions: 330000002 cycles: 286280608 heartbeat IPC: 1.13761 cumulative IPC: 0.950154 (Simulation time: 0 hr 10 min 29 sec) 
Heartbeat CPU 0 instructions: 340000000 cycles: 296338370 heartbeat IPC: 0.994257 cumulative IPC: 0.951913 (Simulation time: 0 hr 10 min 51 sec) 
Heartbeat CPU 0 instructions: 350000001 cycles: 304706386 heartbeat IPC: 1.19503 cumulative IPC: 0.959723 (Simulation time: 0 hr 11 min 11 sec) 
Heartbeat CPU 0 instructions: 360000000 cycles: 313087862 heartbeat IPC: 1.19311 cumulative IPC: 0.966998 (Simulation time: 0 hr 11 min 31 sec) 
Heartbeat CPU 0 instructions: 370000001 cycles: 321483177 heartbeat IPC: 1.19114 cumulative IPC: 0.973785 (Simulation time: 0 hr 11 min 51 sec) 
Heartbeat CPU 0 instructions: 380000000 cycles: 329838497 heartbeat IPC: 1.19684 cumulative IPC: 0.98031 (Simulation time: 0 hr 12 min 11 sec) 
Heartbeat CPU 0 instructions: 390000001 cycles: 338017483 heartbeat IPC: 1.22265 cumulative IPC: 0.987056 (Simulation time: 0 hr 12 min 31 sec) 
Heartbeat CPU 0 instructions: 400000000 cycles: 346281891 heartbeat IPC: 1.21001 cumulative IPC: 0.993156 (Simulation time: 0 hr 12 min 50 sec) 
Heartbeat CPU 0 instructions: 410000003 cycles: 354473592 heartbeat IPC: 1.22075 cumulative IPC: 0.999165 (Simulation time: 0 hr 13 min 10 sec) 
Heartbeat CPU 0 instructions: 420000000 cycles: 362746711 heartbeat IPC: 1.20873 cumulative IPC: 1.00461 (Simulation time: 0 hr 13 min 30 sec) 
Heartbeat CPU 0 instructions: 430000001 cycles: 370960294 heartbeat IPC: 1.2175 cumulative IPC: 1.00996 (Simulation time: 0 hr 13 min 49 sec) 
Heartbeat CPU 0 instructions: 440000000 cycles: 379111381 heartbeat IPC: 1.22683 cumulative IPC: 1.01524 (Simulation time: 0 hr 14 min 9 sec) 
Heartbeat CPU 0 instructions: 450000001 cycles: 388535016 heartbeat IPC: 1.06116 cumulative IPC: 1.01649 (Simulation time: 0 hr 14 min 30 sec) 
Heartbeat CPU 0 instructions: 460000000 cycles: 396746299 heartbeat IPC: 1.21784 cumulative IPC: 1.02118 (Simulation time: 0 hr 14 min 50 sec) 
Heartbeat CPU 0 instructions: 470000003 cycles: 404829404 heartbeat IPC: 1.23715 cumulative IPC: 1.02603 (Simulation time: 0 hr 15 min 10 sec) 
Heartbeat CPU 0 instructions: 480000000 cycles: 412947108 heartbeat IPC: 1.23188 cumulative IPC: 1.03056 (Simulation time: 0 hr 15 min 29 sec) 
Heartbeat CPU 0 instructions: 490000000 cycles: 421044652 heartbeat IPC: 1.23494 cumulative IPC: 1.03495 (Simulation time: 0 hr 15 min 49 sec) 
Heartbeat CPU 0 instructions: 500000000 cycles: 429153331 heartbeat IPC: 1.23325 cumulative IPC: 1.03913 (Simulation time: 0 hr 16 min 8 sec) 
Heartbeat CPU 0 instructions: 510000001 cycles: 437217933 heartbeat IPC: 1.23999 cumulative IPC: 1.04325 (Simulation time: 0 hr 16 min 28 sec) 
Heartbeat CPU 0 instructions: 520000000 cycles: 445317485 heartbeat IPC: 1.23464 cumulative IPC: 1.04711 (Simulation time: 0 hr 16 min 47 sec) 
Heartbeat CPU 0 instructions: 530000001 cycles: 453429948 heartbeat IPC: 1.23267 cumulative IPC: 1.05079 (Simulation time: 0 hr 17 min 7 sec) 
Heartbeat CPU 0 instructions: 540000000 cycles: 461705546 heartbeat IPC: 1.20837 cumulative IPC: 1.05391 (Simulation time: 0 hr 17 min 26 sec) 
Heartbeat CPU 0 instructions: 550000000 cycles: 470032571 heartbeat IPC: 1.20091 cumulative IPC: 1.05679 (Simulation time: 0 hr 17 min 46 sec) 
Heartbeat CPU 0 instructions: 560000000 cycles: 478134812 heartbeat IPC: 1.23423 cumulative IPC: 1.0601 (Simulation time: 0 hr 18 min 6 sec) 
Heartbeat CPU 0 instructions: 570000001 cycles: 489150871 heartbeat IPC: 0.907766 cumulative IPC: 1.05633 (Simulation time: 0 hr 18 min 27 sec) 
Heartbeat CPU 0 instructions: 580000000 cycles: 499810723 heartbeat IPC: 0.938099 cumulative IPC: 1.05356 (Simulation time: 0 hr 18 min 48 sec) 
Heartbeat CPU 0 instructions: 590000001 cycles: 510724463 heartbeat IPC: 0.916276 cumulative IPC: 1.05035 (Simulation time: 0 hr 19 min 9 sec) 
Heartbeat CPU 0 instructions: 600000000 cycles: 521376869 heartbeat IPC: 0.938755 cumulative IPC: 1.04786 (Simulation time: 0 hr 19 min 30 sec) 
Finished CPU 0 instructions: 500000001 cycles: 477162346 cumulative IPC: 1.04786 (Simulation time: 0 hr 19 min 30 sec) 

CPU 0 Branch Prediction Accuracy: 99.7422% MPKI: 0.173296
Number of Branches: 33608403 Number of Mispredictions: 86648
Number of LOAD Instructions: 180215231
Number of LOAD Instructions (ROI): 180215231
Number of STORE Instructions: 36067263
Number of STORE Instructions (ROI): 36067263
Total Destination Memory Operands: 38428915
Total Destination Memory Operands (ROI): 38428915
Total Source Memory Operands: 180215231
Total Source Memory Operands (ROI): 180215231
Number of DEPENDED LOADS: 3041453
Number of DEPENDED LOADS (ROI): 3041453
Number of SQ_ADDED: 38428892
Number of SQ_ADDED (ROI): 38428892
Number of LQ_ADDED: 207656475
Number of LQ_ADDED (ROI): 207656475
Number of Instructions read from trace: 600000257

ChampSim completed all CPUs

Region of Interest Statistics

CPU 0 cumulative IPC: 1.04786 instructions: 500000001 cycles: 477162346
ITLB TOTAL     ACCESS:   91772691  HIT:   91772672  MISS:         19
ITLB LOAD      ACCESS:   91772691  HIT:   91772672  MISS:         19
ITLB RFO       ACCESS:          0  HIT:          0  MISS:          0
ITLB PREFETCH  ACCESS:          0  HIT:          0  MISS:          0
ITLB WRITEBACK ACCESS:          0  HIT:          0  MISS:          0
ITLB PREFETCH  REQUESTED:          0  ISSUED:          0  USEFUL:          0  USELESS:          0
ITLB TOTAL MSHR MERGED:         40
ITLB LOAD MSHR MERGED:         40
ITLB RFO MSHR MERGED:          0
ITLB PREFETCH MSHR MERGED:          0
ITLB WRITEBACK MSHR MERGED:          0
ITLB TOTAL ACCESSES:   91772731 HITS:   91772672 MISSES:         59
ITLB LOAD ACCESSES:   91772731 HITS:   91772672 MISSES:         59
ITLB RFO ACCESSES:          0 HITS:          0 MISSES:          0
ITLB PREFETCH ACCESSES:          0 HITS:          0 MISSES:          0
ITLB WRITEBACK ACCESSES:          0 HITS:          0 MISSES:          0
ITLB RQ ACCESS:  500000003
ITLB RQ TO_CACHE:   91772731
ITLB RQ MERGED:  408227272
ITLB RQ FORWARD:          0
ITLB WQ ACCESS:          0
ITLB WQ TO_CACHE:          0
ITLB WQ MERGED:          0
ITLB WQ FORWARD:          0
DTLB TOTAL     ACCESS:  142102834  HIT:  141736372  MISS:     366462
DTLB LOAD      ACCESS:  119441619  HIT:  119128033  MISS:     313586
DTLB RFO       ACCESS:   22661215  HIT:   22608339  MISS:      52876
DTLB PREFETCH  ACCESS:          0  HIT:          0  MISS:          0
DTLB WRITEBACK ACCESS:          0  HIT:          0  MISS:          0
DTLB PREFETCH  REQUESTED:          0  ISSUED:          0  USEFUL:          0  USELESS:          0
DTLB TOTAL MSHR MERGED:     283895
DTLB LOAD MSHR MERGED:     237613
DTLB RFO MSHR MERGED:      46282
DTLB PREFETCH MSHR MERGED:          0
DTLB WRITEBACK MSHR MERGED:          0
DTLB TOTAL ACCESSES:  142386729 HITS:  141736372 MISSES:     650357
DTLB LOAD ACCESSES:  119679232 HITS:  119128033 MISSES:     551199
DTLB RFO ACCESSES:   22707497 HITS:   22608339 MISSES:      99158
DTLB PREFETCH ACCESSES:          0 HITS:          0 MISSES:          0
DTLB WRITEBACK ACCESSES:          0 HITS:          0 MISSES:          0
DTLB RQ ACCESS:  184791523
DTLB RQ TO_CACHE:  142386729
DTLB RQ MERGED:   42404794
DTLB RQ FORWARD:          0
DTLB WQ ACCESS:          0
DTLB WQ TO_CACHE:          0
DTLB WQ MERGED:          0
DTLB WQ FORWARD:          0
L1D TOTAL     ACCESS:  190764536  HIT:  177309363  MISS:   13455173
L1D LOAD      ACCESS:  112052127  HIT:  108848943  MISS:    3203184
L1D RFO       ACCESS:   19269260  HIT:   16487535  MISS:    2781725
L1D PREFETCH  ACCESS:   59443149  HIT:   51972885  MISS:    7470264
L1D WRITEBACK ACCESS:          0  HIT:          0  MISS:          0
L1D PREFETCH  REQUESTED:  116532825  ISSUED:  115178631  USEFUL:    7260434  USELESS:     209830
L1D TOTAL MSHR MERGED:   30731292
L1D LOAD MSHR MERGED:    7125494
L1D RFO MSHR MERGED:    8983514
L1D PREFETCH MSHR MERGED:   14622284
L1D WRITEBACK MSHR MERGED:          0
L1D TOTAL ACCESSES:  221496203 HITS:  177309737 MISSES:   44186466
L1D LOAD ACCESSES:  116532850 HITS:  108848968 MISSES:    7683882
L1D RFO ACCESSES:   28252715 HITS:   16487535 MISSES:   11765180
L1D PREFETCH ACCESSES:   76710638 HITS:   51973234 MISSES:   24737404
L1D WRITEBACK ACCESSES:          0 HITS:          0 MISSES:          0
L1D RQ ACCESS:  156535457
L1D RQ TO_CACHE:  116532828
L1D RQ MERGED:   40002604
L1D RQ FORWARD:          0
L1D WQ ACCESS:   28256066
L1D WQ TO_CACHE:   28252715
L1D WQ MERGED:       3351
L1D WQ FORWARD:        374
L1I TOTAL     ACCESS:  115759858  HIT:  115758910  MISS:        948
L1I LOAD      ACCESS:  115759858  HIT:  115758910  MISS:        948
L1I RFO       ACCESS:          0  HIT:          0  MISS:          0
L1I PREFETCH  ACCESS:          0  HIT:          0  MISS:          0
L1I WRITEBACK ACCESS:          0  HIT:          0  MISS:          0
L1I PREFETCH  REQUESTED:          0  ISSUED:          0  USEFUL:          0  USELESS:          0
L1I TOTAL MSHR MERGED:       1546
L1I LOAD MSHR MERGED:       1546
L1I RFO MSHR MERGED:          0
L1I PREFETCH MSHR MERGED:          0
L1I WRITEBACK MSHR MERGED:          0
L1I TOTAL ACCESSES:  115761404 HITS:  115758910 MISSES:       2494
L1I LOAD ACCESSES:  115761404 HITS:  115758910 MISSES:       2494
L1I RFO ACCESSES:          0 HITS:          0 MISSES:          0
L1I PREFETCH ACCESSES:          0 HITS:          0 MISSES:          0
L1I WRITEBACK ACCESSES:          0 HITS:          0 MISSES:          0
L1I RQ ACCESS:  500000007
L1I RQ TO_CACHE:  115761404
L1I RQ MERGED:  384238603
L1I RQ FORWARD:          0
L1I WQ ACCESS:          0
L1I WQ TO_CACHE:          0
L1I WQ MERGED:          0
L1I WQ FORWARD:          0
L2C TOTAL     ACCESS:   16701311  HIT:    4856627  MISS:   11844684
L2C LOAD      ACCESS:     559307  HIT:      95560  MISS:     463747
L2C RFO       ACCESS:    2781666  HIT:     266595  MISS:    2515071
L2C PREFETCH  ACCESS:   10139693  HIT:    1276098  MISS:    8863595
L2C WRITEBACK ACCESS:    3220645  HIT:    3218374  MISS:       2271
L2C PREFETCH  REQUESTED:      26374  ISSUED:      26374  USEFUL:      93262  USELESS:    8768381
L2C TOTAL MSHR MERGED:        288
L2C LOAD MSHR MERGED:          3
L2C RFO MSHR MERGED:          0
L2C PREFETCH MSHR MERGED:        285
L2C WRITEBACK MSHR MERGED:          0
L2C TOTAL ACCESSES:   16701753 HITS:    4856678 MISSES:   11845075
L2C LOAD ACCESSES:     559336 HITS:      95589 MISSES:     463747
L2C RFO ACCESSES:    2781666 HITS:     266595 MISSES:    2515071
L2C PREFETCH ACCESSES:   10140106 HITS:    1276120 MISSES:    8863986
L2C WRITEBACK ACCESSES:    3220645 HITS:    3218374 MISSES:       2271
L2C RQ ACCESS:    3341002
L2C RQ TO_CACHE:    3340973
L2C RQ MERGED:          0
L2C RQ FORWARD:          0
L2C WQ ACCESS:    3220645
L2C WQ TO_CACHE:    3220645
L2C WQ MERGED:          0
L2C WQ FORWARD:         51
LLC TOTAL     ACCESS:   14742971  HIT:    7676287  MISS:    7066684
LLC LOAD      ACCESS:     463742  HIT:     115817  MISS:     347925
LLC RFO       ACCESS:    2515047  HIT:    1966094  MISS:     548953
LLC PREFETCH  ACCESS:    8863639  HIT:    3337814  MISS:    5525825
LLC WRITEBACK ACCESS:    2900543  HIT:    2256562  MISS:     643981
LLC PREFETCH  REQUESTED:          0  ISSUED:          0  USEFUL:       3084  USELESS:    5529748
LLC TOTAL MSHR MERGED:          3
LLC LOAD MSHR MERGED:          0
LLC RFO MSHR MERGED:          0
LLC PREFETCH MSHR MERGED:          3
LLC WRITEBACK MSHR MERGED:          0
LLC TOTAL ACCESSES:   14743052 HITS:    7676364 MISSES:    7066688
LLC LOAD ACCESSES:     463744 HITS:     115819 MISSES:     347925
LLC RFO ACCESSES:    2515071 HITS:    1966118 MISSES:     548953
LLC PREFETCH ACCESSES:    8863694 HITS:    3337865 MISSES:    5525829
LLC WRITEBACK ACCESSES:    2900543 HITS:    2256562 MISSES:     643981
LLC 0 RQ ACCESS:    2978815
LLC 0 RQ TO_CACHE:    2978789
LLC 0 RQ MERGED:          0
LLC 0 RQ FORWARD:          0
LLC WQ ACCESS:    2900543
LLC WQ TO_CACHE:    2900543
LLC WQ MERGED:          0
LLC WQ FORWARD:         77
Major fault: 0 Minor fault: 57518
CPU 0 L1D next line prefetcher final stats
CPU 0 L2C PC-based stride prefetcher final stats
All Misses: 7674053
All Hits: 8565099
SD Algo Stats - Switches: 0 SRR-Repls: 362570 BRR-Repls: 0

DRAM Statistics
 CHANNEL 0
 RQ ROW_BUFFER_HIT:    3764103  ROW_BUFFER_MISS:    2656313
 DBUS_CONGESTED:    2920540
 WQ ROW_BUFFER_HIT:      89066  ROW_BUFFER_MISS:     722358  FULL:          0

 AVG_CONGESTED_CYCLE: 12
LOADS RETIRED: 157818985
INSTR RETIRED: 500000000
