
*** ChampSim Multicore Out-of-Order Simulator ***

Warmup Instructions: 100000000
Simulation Instructions: 500000000
Number of CPUs: 1
LLC sets: 2048
LLC ways: 16
Clean RRIP Policies: 1013220110132201 Dirty RRIP Policies: 2013222120132221 PSEL Width: 10 Track Set: 4294967295 PSEL Mask: 1 Demote Mask: 4340014243400142DS Algo: 0Window size: 0
Off-chip DRAM Size: 4096 MB Channels: 1 Width: 64-bit Data Rate: 1600 MT/s

CPU 0 runs /mnt/beegfs/iconst01/spec2017/Fotonik3d.trace.gz
NOT SORTED
TRACE STRING: /mnt/beegfs/iconst01/spec2017/Fotonik3d.trace.gz
SORTED
TRACE STRING: /mnt/beegfs/iconst01/spec2017/Fotonik3d.trace.gz
INITIAL
TRACE STRING: /mnt/beegfs/iconst01/spec2017/Fotonik3d.trace.gz

champsim_seed used: 881

CPU 0 L1D next line prefetcher
CPU 0 L2C IP-based stride prefetcher
Initialize DRRIP state
Assign rand_sets[0]: 454  LLC: 2048
rand_sets[0]: 454
Assign rand_sets[1]: 1662  LLC: 2048
rand_sets[1]: 1662
Assign rand_sets[2]: 1921  LLC: 2048
rand_sets[2]: 1921
Assign rand_sets[3]: 1131  LLC: 2048
rand_sets[3]: 1131
Assign rand_sets[4]: 331  LLC: 2048
rand_sets[4]: 331
Assign rand_sets[5]: 1531  LLC: 2048
rand_sets[5]: 1531
Assign rand_sets[6]: 482  LLC: 2048
rand_sets[6]: 482
Assign rand_sets[7]: 1275  LLC: 2048
rand_sets[7]: 1275
Assign rand_sets[8]: 1876  LLC: 2048
rand_sets[8]: 1876
Assign rand_sets[9]: 2038  LLC: 2048
rand_sets[9]: 2038
Assign rand_sets[10]: 701  LLC: 2048
rand_sets[10]: 701
Assign rand_sets[11]: 479  LLC: 2048
rand_sets[11]: 479
Assign rand_sets[12]: 892  LLC: 2048
rand_sets[12]: 892
Assign rand_sets[13]: 1820  LLC: 2048
rand_sets[13]: 1820
Assign rand_sets[14]: 1505  LLC: 2048
rand_sets[14]: 1505
Assign rand_sets[15]: 1159  LLC: 2048
rand_sets[15]: 1159
Assign rand_sets[16]: 513  LLC: 2048
rand_sets[16]: 513
Assign rand_sets[17]: 703  LLC: 2048
rand_sets[17]: 703
Assign rand_sets[18]: 561  LLC: 2048
rand_sets[18]: 561
Assign rand_sets[19]: 990  LLC: 2048
rand_sets[19]: 990
Assign rand_sets[20]: 342  LLC: 2048
rand_sets[20]: 342
Assign rand_sets[21]: 882  LLC: 2048
rand_sets[21]: 882
Assign rand_sets[22]: 15  LLC: 2048
rand_sets[22]: 15
Assign rand_sets[23]: 71  LLC: 2048
rand_sets[23]: 71
Assign rand_sets[24]: 1127  LLC: 2048
rand_sets[24]: 1127
Assign rand_sets[25]: 1382  LLC: 2048
rand_sets[25]: 1382
Assign rand_sets[26]: 647  LLC: 2048
rand_sets[26]: 647
Assign rand_sets[27]: 857  LLC: 2048
rand_sets[27]: 857
Assign rand_sets[28]: 1450  LLC: 2048
rand_sets[28]: 1450
Assign rand_sets[29]: 1160  LLC: 2048
rand_sets[29]: 1160
Assign rand_sets[30]: 1852  LLC: 2048
rand_sets[30]: 1852
Assign rand_sets[31]: 1881  LLC: 2048
rand_sets[31]: 1881
Assign rand_sets[32]: 1770  LLC: 2048
rand_sets[32]: 1770
Assign rand_sets[33]: 1622  LLC: 2048
rand_sets[33]: 1622
Assign rand_sets[34]: 275  LLC: 2048
rand_sets[34]: 275
Assign rand_sets[35]: 635  LLC: 2048
rand_sets[35]: 635
Assign rand_sets[36]: 466  LLC: 2048
rand_sets[36]: 466
Assign rand_sets[37]: 1413  LLC: 2048
rand_sets[37]: 1413
Assign rand_sets[38]: 417  LLC: 2048
rand_sets[38]: 417
Assign rand_sets[39]: 472  LLC: 2048
rand_sets[39]: 472
Assign rand_sets[40]: 1340  LLC: 2048
rand_sets[40]: 1340
Assign rand_sets[41]: 852  LLC: 2048
rand_sets[41]: 852
Assign rand_sets[42]: 1365  LLC: 2048
rand_sets[42]: 1365
Assign rand_sets[43]: 47  LLC: 2048
rand_sets[43]: 47
Assign rand_sets[44]: 823  LLC: 2048
rand_sets[44]: 823
Assign rand_sets[45]: 686  LLC: 2048
rand_sets[45]: 686
Assign rand_sets[46]: 1637  LLC: 2048
rand_sets[46]: 1637
Assign rand_sets[47]: 1115  LLC: 2048
rand_sets[47]: 1115
Assign rand_sets[48]: 986  LLC: 2048
rand_sets[48]: 986
Assign rand_sets[49]: 258  LLC: 2048
rand_sets[49]: 258
Assign rand_sets[50]: 633  LLC: 2048
rand_sets[50]: 633
Assign rand_sets[51]: 920  LLC: 2048
rand_sets[51]: 920
Assign rand_sets[52]: 204  LLC: 2048
rand_sets[52]: 204
Assign rand_sets[53]: 227  LLC: 2048
rand_sets[53]: 227
Assign rand_sets[54]: 1818  LLC: 2048
rand_sets[54]: 1818
Assign rand_sets[55]: 886  LLC: 2048
rand_sets[55]: 886
Assign rand_sets[56]: 1422  LLC: 2048
rand_sets[56]: 1422
Assign rand_sets[57]: 607  LLC: 2048
rand_sets[57]: 607
Assign rand_sets[58]: 217  LLC: 2048
rand_sets[58]: 217
Assign rand_sets[59]: 1945  LLC: 2048
rand_sets[59]: 1945
Assign rand_sets[60]: 143  LLC: 2048
rand_sets[60]: 143
Assign rand_sets[61]: 1311  LLC: 2048
rand_sets[61]: 1311
Assign rand_sets[62]: 319  LLC: 2048
rand_sets[62]: 319
Assign rand_sets[63]: 1846  LLC: 2048
rand_sets[63]: 1846
 CLEAN-RRIP-POLICY-1: 1-0-1-3-2-2-0-1- CLEAN-RRIP-POLICY-2: 1-0-1-3-2-2-0-1-
 DIRTY-RRIP-POLICY-1: 2-0-1-3-2-2-2-1- DIRTY-RRIP-POLICY-2: 2-0-1-3-2-2-2-1-
 PSEL width: 10
Heartbeat CPU 0 instructions: 10000002 cycles: 7306767 heartbeat IPC: 1.36859 cumulative IPC: 1.36859 (Simulation time: 0 hr 0 min 25 sec) 
Heartbeat CPU 0 instructions: 20000000 cycles: 14613669 heartbeat IPC: 1.36857 cumulative IPC: 1.36858 (Simulation time: 0 hr 0 min 49 sec) 
Heartbeat CPU 0 instructions: 30000001 cycles: 21920454 heartbeat IPC: 1.36859 cumulative IPC: 1.36858 (Simulation time: 0 hr 1 min 13 sec) 
Heartbeat CPU 0 instructions: 40000000 cycles: 29227086 heartbeat IPC: 1.36862 cumulative IPC: 1.36859 (Simulation time: 0 hr 1 min 38 sec) 
Heartbeat CPU 0 instructions: 50000001 cycles: 36533686 heartbeat IPC: 1.36863 cumulative IPC: 1.3686 (Simulation time: 0 hr 2 min 3 sec) 
Heartbeat CPU 0 instructions: 60000000 cycles: 43840541 heartbeat IPC: 1.36858 cumulative IPC: 1.3686 (Simulation time: 0 hr 2 min 27 sec) 
Heartbeat CPU 0 instructions: 70000002 cycles: 51147238 heartbeat IPC: 1.36861 cumulative IPC: 1.3686 (Simulation time: 0 hr 2 min 52 sec) 
Heartbeat CPU 0 instructions: 80000000 cycles: 58453886 heartbeat IPC: 1.36862 cumulative IPC: 1.3686 (Simulation time: 0 hr 3 min 17 sec) 
Heartbeat CPU 0 instructions: 90000003 cycles: 65764323 heartbeat IPC: 1.36791 cumulative IPC: 1.36852 (Simulation time: 0 hr 3 min 41 sec) 
Heartbeat CPU 0 instructions: 100000000 cycles: 73074803 heartbeat IPC: 1.3679 cumulative IPC: 1.36846 (Simulation time: 0 hr 4 min 6 sec) 

Warmup complete CPU 0 instructions: 100000002 cycles: 73074815 (Simulation time: 0 hr 4 min 6 sec) 

Heartbeat CPU 0 instructions: 110000001 cycles: 85493629 heartbeat IPC: 0.805229 cumulative IPC: 0.80523 (Simulation time: 0 hr 4 min 36 sec) 
Heartbeat CPU 0 instructions: 120000000 cycles: 97856772 heartbeat IPC: 0.808856 cumulative IPC: 0.807039 (Simulation time: 0 hr 5 min 5 sec) 
Heartbeat CPU 0 instructions: 130000000 cycles: 110274712 heartbeat IPC: 0.805287 cumulative IPC: 0.806454 (Simulation time: 0 hr 5 min 35 sec) 
Heartbeat CPU 0 instructions: 140000000 cycles: 122658433 heartbeat IPC: 0.807512 cumulative IPC: 0.806718 (Simulation time: 0 hr 6 min 5 sec) 
Heartbeat CPU 0 instructions: 150000000 cycles: 135015635 heartbeat IPC: 0.809245 cumulative IPC: 0.807222 (Simulation time: 0 hr 6 min 34 sec) 
Heartbeat CPU 0 instructions: 160000000 cycles: 147411918 heartbeat IPC: 0.806693 cumulative IPC: 0.807134 (Simulation time: 0 hr 7 min 4 sec) 
Heartbeat CPU 0 instructions: 170000001 cycles: 159790162 heartbeat IPC: 0.807869 cumulative IPC: 0.807239 (Simulation time: 0 hr 7 min 33 sec) 
Heartbeat CPU 0 instructions: 180000000 cycles: 172181086 heartbeat IPC: 0.807042 cumulative IPC: 0.807214 (Simulation time: 0 hr 8 min 3 sec) 
Heartbeat CPU 0 instructions: 190000000 cycles: 184576392 heartbeat IPC: 0.806757 cumulative IPC: 0.807163 (Simulation time: 0 hr 8 min 32 sec) 
Heartbeat CPU 0 instructions: 200000000 cycles: 196951037 heartbeat IPC: 0.808104 cumulative IPC: 0.807257 (Simulation time: 0 hr 9 min 2 sec) 
Heartbeat CPU 0 instructions: 210000002 cycles: 209377489 heartbeat IPC: 0.804735 cumulative IPC: 0.807027 (Simulation time: 0 hr 9 min 32 sec) 
Heartbeat CPU 0 instructions: 220000000 cycles: 221800661 heartbeat IPC: 0.804947 cumulative IPC: 0.806854 (Simulation time: 0 hr 10 min 1 sec) 
Heartbeat CPU 0 instructions: 230000002 cycles: 234182561 heartbeat IPC: 0.807631 cumulative IPC: 0.806913 (Simulation time: 0 hr 10 min 31 sec) 
Heartbeat CPU 0 instructions: 240000000 cycles: 247289829 heartbeat IPC: 0.762935 cumulative IPC: 0.803605 (Simulation time: 0 hr 11 min 1 sec) 
Heartbeat CPU 0 instructions: 250000002 cycles: 264560009 heartbeat IPC: 0.579033 cumulative IPC: 0.78335 (Simulation time: 0 hr 11 min 33 sec) 
Heartbeat CPU 0 instructions: 260000000 cycles: 281729383 heartbeat IPC: 0.582432 cumulative IPC: 0.766818 (Simulation time: 0 hr 12 min 5 sec) 
Heartbeat CPU 0 instructions: 270000000 cycles: 298997568 heartbeat IPC: 0.5791 cumulative IPC: 0.75247 (Simulation time: 0 hr 12 min 37 sec) 
Heartbeat CPU 0 instructions: 280000000 cycles: 316202904 heartbeat IPC: 0.581215 cumulative IPC: 0.74035 (Simulation time: 0 hr 13 min 9 sec) 
Heartbeat CPU 0 instructions: 290000001 cycles: 344777611 heartbeat IPC: 0.34996 cumulative IPC: 0.699293 (Simulation time: 0 hr 13 min 49 sec) 
Heartbeat CPU 0 instructions: 300000000 cycles: 381756007 heartbeat IPC: 0.270428 cumulative IPC: 0.647918 (Simulation time: 0 hr 14 min 35 sec) 
Heartbeat CPU 0 instructions: 310000000 cycles: 398353947 heartbeat IPC: 0.602484 cumulative IPC: 0.645599 (Simulation time: 0 hr 15 min 6 sec) 
Heartbeat CPU 0 instructions: 320000000 cycles: 414923866 heartbeat IPC: 0.603503 cumulative IPC: 0.643559 (Simulation time: 0 hr 15 min 37 sec) 
Heartbeat CPU 0 instructions: 330000003 cycles: 431550129 heartbeat IPC: 0.601458 cumulative IPC: 0.641606 (Simulation time: 0 hr 16 min 8 sec) 
Heartbeat CPU 0 instructions: 340000000 cycles: 448141586 heartbeat IPC: 0.60272 cumulative IPC: 0.639886 (Simulation time: 0 hr 16 min 39 sec) 
Heartbeat CPU 0 instructions: 350000001 cycles: 462922055 heartbeat IPC: 0.676569 cumulative IPC: 0.641277 (Simulation time: 0 hr 17 min 9 sec) 
Heartbeat CPU 0 instructions: 360000000 cycles: 474843453 heartbeat IPC: 0.838828 cumulative IPC: 0.647139 (Simulation time: 0 hr 17 min 36 sec) 
Heartbeat CPU 0 instructions: 370000002 cycles: 486551638 heartbeat IPC: 0.854104 cumulative IPC: 0.652999 (Simulation time: 0 hr 18 min 3 sec) 
Heartbeat CPU 0 instructions: 380000000 cycles: 498428639 heartbeat IPC: 0.841963 cumulative IPC: 0.658275 (Simulation time: 0 hr 18 min 31 sec) 
Heartbeat CPU 0 instructions: 390000003 cycles: 511768706 heartbeat IPC: 0.749622 cumulative IPC: 0.661053 (Simulation time: 0 hr 18 min 58 sec) 
Heartbeat CPU 0 instructions: 400000000 cycles: 524021603 heartbeat IPC: 0.816133 cumulative IPC: 0.665267 (Simulation time: 0 hr 19 min 26 sec) 
Heartbeat CPU 0 instructions: 410000001 cycles: 536007492 heartbeat IPC: 0.834315 cumulative IPC: 0.669644 (Simulation time: 0 hr 19 min 54 sec) 
Heartbeat CPU 0 instructions: 420000000 cycles: 548866534 heartbeat IPC: 0.777663 cumulative IPC: 0.672563 (Simulation time: 0 hr 20 min 22 sec) 
Heartbeat CPU 0 instructions: 430000003 cycles: 567494771 heartbeat IPC: 0.53682 cumulative IPC: 0.667449 (Simulation time: 0 hr 20 min 47 sec) 
Heartbeat CPU 0 instructions: 440000000 cycles: 586119404 heartbeat IPC: 0.536923 cumulative IPC: 0.66271 (Simulation time: 0 hr 21 min 12 sec) 
Heartbeat CPU 0 instructions: 450000003 cycles: 604786412 heartbeat IPC: 0.535705 cumulative IPC: 0.658252 (Simulation time: 0 hr 21 min 37 sec) 
Heartbeat CPU 0 instructions: 460000000 cycles: 623418538 heartbeat IPC: 0.536707 cumulative IPC: 0.654137 (Simulation time: 0 hr 22 min 3 sec) 
Heartbeat CPU 0 instructions: 470000003 cycles: 642070045 heartbeat IPC: 0.53615 cumulative IPC: 0.650269 (Simulation time: 0 hr 22 min 28 sec) 
Heartbeat CPU 0 instructions: 480000000 cycles: 660722600 heartbeat IPC: 0.536119 cumulative IPC: 0.646646 (Simulation time: 0 hr 22 min 53 sec) 
Heartbeat CPU 0 instructions: 490000003 cycles: 679395817 heartbeat IPC: 0.535527 cumulative IPC: 0.643224 (Simulation time: 0 hr 23 min 18 sec) 
Heartbeat CPU 0 instructions: 500000000 cycles: 698015593 heartbeat IPC: 0.537063 cumulative IPC: 0.640061 (Simulation time: 0 hr 23 min 44 sec) 
Heartbeat CPU 0 instructions: 510000003 cycles: 716663428 heartbeat IPC: 0.536255 cumulative IPC: 0.637053 (Simulation time: 0 hr 24 min 9 sec) 
Heartbeat CPU 0 instructions: 520000000 cycles: 735297263 heartbeat IPC: 0.536658 cumulative IPC: 0.634228 (Simulation time: 0 hr 24 min 34 sec) 
Heartbeat CPU 0 instructions: 530000001 cycles: 753963750 heartbeat IPC: 0.53572 cumulative IPC: 0.631527 (Simulation time: 0 hr 24 min 59 sec) 
Heartbeat CPU 0 instructions: 540000000 cycles: 772564761 heartbeat IPC: 0.537605 cumulative IPC: 0.62903 (Simulation time: 0 hr 25 min 25 sec) 
Heartbeat CPU 0 instructions: 550000001 cycles: 791162560 heartbeat IPC: 0.537698 cumulative IPC: 0.626664 (Simulation time: 0 hr 25 min 50 sec) 
Heartbeat CPU 0 instructions: 560000000 cycles: 809751249 heartbeat IPC: 0.537961 cumulative IPC: 0.624426 (Simulation time: 0 hr 26 min 15 sec) 
Heartbeat CPU 0 instructions: 570000001 cycles: 828347559 heartbeat IPC: 0.537741 cumulative IPC: 0.622292 (Simulation time: 0 hr 26 min 40 sec) 
Heartbeat CPU 0 instructions: 580000000 cycles: 846871052 heartbeat IPC: 0.539855 cumulative IPC: 0.620318 (Simulation time: 0 hr 27 min 5 sec) 
Heartbeat CPU 0 instructions: 590000001 cycles: 865473516 heartbeat IPC: 0.537563 cumulative IPC: 0.618376 (Simulation time: 0 hr 27 min 31 sec) 
Heartbeat CPU 0 instructions: 600000000 cycles: 884088218 heartbeat IPC: 0.53721 cumulative IPC: 0.616513 (Simulation time: 0 hr 27 min 56 sec) 
Finished CPU 0 instructions: 500000002 cycles: 811013417 cumulative IPC: 0.616513 (Simulation time: 0 hr 27 min 56 sec) 

CPU 0 Branch Prediction Accuracy: 99.5931% MPKI: 0.08288
Number of Branches: 10184133 Number of Mispredictions: 41440
Number of LOAD Instructions: 261155957
Number of LOAD Instructions (ROI): 261155957
Number of STORE Instructions: 57884062
Number of STORE Instructions (ROI): 57884062
Total Destination Memory Operands: 83293336
Total Destination Memory Operands (ROI): 83293336
Total Source Memory Operands: 261155957
Total Source Memory Operands (ROI): 261155957
Number of DEPENDED LOADS: 22255493
Number of DEPENDED LOADS (ROI): 22255493
Number of SQ_ADDED: 83293300
Number of SQ_ADDED (ROI): 83293300
Number of LQ_ADDED: 1767911946
Number of LQ_ADDED (ROI): 1767911946
Number of Instructions read from trace: 600000257

ChampSim completed all CPUs

Region of Interest Statistics

CPU 0 cumulative IPC: 0.616513 instructions: 500000002 cycles: 811013417
ITLB TOTAL     ACCESS:   94656192  HIT:   94656154  MISS:         38
ITLB LOAD      ACCESS:   94656192  HIT:   94656154  MISS:         38
ITLB RFO       ACCESS:          0  HIT:          0  MISS:          0
ITLB PREFETCH  ACCESS:          0  HIT:          0  MISS:          0
ITLB WRITEBACK ACCESS:          0  HIT:          0  MISS:          0
ITLB PREFETCH  REQUESTED:          0  ISSUED:          0  USEFUL:          0  USELESS:          0
ITLB TOTAL MSHR MERGED:         93
ITLB LOAD MSHR MERGED:         93
ITLB RFO MSHR MERGED:          0
ITLB PREFETCH MSHR MERGED:          0
ITLB WRITEBACK MSHR MERGED:          0
ITLB TOTAL ACCESSES:   94656285 HITS:   94656154 MISSES:        131
ITLB LOAD ACCESSES:   94656285 HITS:   94656154 MISSES:        131
ITLB RFO ACCESSES:          0 HITS:          0 MISSES:          0
ITLB PREFETCH ACCESSES:          0 HITS:          0 MISSES:          0
ITLB WRITEBACK ACCESSES:          0 HITS:          0 MISSES:          0
ITLB RQ ACCESS:  500000001
ITLB RQ TO_CACHE:   94656286
ITLB RQ MERGED:  405343715
ITLB RQ FORWARD:          0
ITLB WQ ACCESS:          0
ITLB WQ TO_CACHE:          0
ITLB WQ MERGED:          0
ITLB WQ FORWARD:          0
DTLB TOTAL     ACCESS:  149175332  HIT:  148578371  MISS:     596961
DTLB LOAD      ACCESS:  107301790  HIT:  106704840  MISS:     596950
DTLB RFO       ACCESS:   41873542  HIT:   41873531  MISS:         11
DTLB PREFETCH  ACCESS:          0  HIT:          0  MISS:          0
DTLB WRITEBACK ACCESS:          0  HIT:          0  MISS:          0
DTLB PREFETCH  REQUESTED:          0  ISSUED:          0  USEFUL:          0  USELESS:          0
DTLB TOTAL MSHR MERGED:     134281
DTLB LOAD MSHR MERGED:     134281
DTLB RFO MSHR MERGED:          0
DTLB PREFETCH MSHR MERGED:          0
DTLB WRITEBACK MSHR MERGED:          0
DTLB TOTAL ACCESSES:  149309613 HITS:  148578371 MISSES:     731242
DTLB LOAD ACCESSES:  107436071 HITS:  106704840 MISSES:     731231
DTLB RFO ACCESSES:   41873542 HITS:   41873531 MISSES:         11
DTLB PREFETCH ACCESSES:          0 HITS:          0 MISSES:          0
DTLB WRITEBACK ACCESSES:          0 HITS:          0 MISSES:          0
DTLB RQ ACCESS:  259760401
DTLB RQ TO_CACHE:  149309613
DTLB RQ MERGED:  110450788
DTLB RQ FORWARD:          0
DTLB WQ ACCESS:          0
DTLB WQ TO_CACHE:          0
DTLB WQ MERGED:          0
DTLB WQ FORWARD:          0
L1D TOTAL     ACCESS:  261014618  HIT:  245613852  MISS:   15400766
L1D LOAD      ACCESS:  118070420  HIT:  112567263  MISS:    5503157
L1D RFO       ACCESS:   68946742  HIT:   68932335  MISS:      14407
L1D PREFETCH  ACCESS:   73997456  HIT:   64114254  MISS:    9883202
L1D WRITEBACK ACCESS:          0  HIT:          0  MISS:          0
L1D PREFETCH  REQUESTED:  120656477  ISSUED:  119091534  USEFUL:    8009482  USELESS:    1873742
L1D TOTAL MSHR MERGED:   16530740
L1D LOAD MSHR MERGED:    4999528
L1D RFO MSHR MERGED:      21828
L1D PREFETCH MSHR MERGED:   11509384
L1D WRITEBACK MSHR MERGED:          0
L1D TOTAL ACCESSES:  277655435 HITS:  245723929 MISSES:   31931506
L1D LOAD ACCESSES:  120663996 HITS:  112574782 MISSES:    8089214
L1D RFO ACCESSES:   68968569 HITS:   68932335 MISSES:      36234
L1D PREFETCH ACCESSES:   88022870 HITS:   64216812 MISSES:   23806058
L1D WRITEBACK ACCESSES:          0 HITS:          0 MISSES:          0
L1D RQ ACCESS:  190686085
L1D RQ TO_CACHE:  120656477
L1D RQ MERGED:   70022089
L1D RQ FORWARD:          0
L1D WQ ACCESS:   69074336
L1D WQ TO_CACHE:   68968571
L1D WQ MERGED:     105765
L1D WQ FORWARD:     110077
L1I TOTAL     ACCESS:  121569289  HIT:  121568216  MISS:       1073
L1I LOAD      ACCESS:  121569289  HIT:  121568216  MISS:       1073
L1I RFO       ACCESS:          0  HIT:          0  MISS:          0
L1I PREFETCH  ACCESS:          0  HIT:          0  MISS:          0
L1I WRITEBACK ACCESS:          0  HIT:          0  MISS:          0
L1I PREFETCH  REQUESTED:          0  ISSUED:          0  USEFUL:          0  USELESS:          0
L1I TOTAL MSHR MERGED:       1046
L1I LOAD MSHR MERGED:       1046
L1I RFO MSHR MERGED:          0
L1I PREFETCH MSHR MERGED:          0
L1I WRITEBACK MSHR MERGED:          0
L1I TOTAL ACCESSES:  121570335 HITS:  121568216 MISSES:       2119
L1I LOAD ACCESSES:  121570335 HITS:  121568216 MISSES:       2119
L1I RFO ACCESSES:          0 HITS:          0 MISSES:          0
L1I PREFETCH ACCESSES:          0 HITS:          0 MISSES:          0
L1I WRITEBACK ACCESSES:          0 HITS:          0 MISSES:          0
L1I RQ ACCESS:  500000000
L1I RQ TO_CACHE:  121570335
L1I RQ MERGED:  378429665
L1I RQ FORWARD:          0
L1I WQ ACCESS:          0
L1I WQ TO_CACHE:          0
L1I WQ MERGED:          0
L1I WQ FORWARD:          0
L2C TOTAL     ACCESS:   22473365  HIT:    9151738  MISS:   13321627
L2C LOAD      ACCESS:    3090730  HIT:     416429  MISS:    2674301
L2C RFO       ACCESS:      14406  HIT:      13992  MISS:        414
L2C PREFETCH  ACCESS:   12738300  HIT:    2093186  MISS:   10645114
L2C WRITEBACK ACCESS:    6629929  HIT:    6628131  MISS:       1798
L2C PREFETCH  REQUESTED:     694673  ISSUED:     694673  USEFUL:     186263  USELESS:   10459647
L2C TOTAL MSHR MERGED:      71603
L2C LOAD MSHR MERGED:      22406
L2C RFO MSHR MERGED:          0
L2C PREFETCH MSHR MERGED:      49197
L2C WRITEBACK MSHR MERGED:          0
L2C TOTAL ACCESSES:   22686623 HITS:    9151778 MISSES:   13534845
L2C LOAD ACCESSES:    3090759 HITS:     416458 MISSES:    2674301
L2C RFO ACCESSES:      14406 HITS:      13992 MISSES:        414
L2C PREFETCH ACCESSES:   12951529 HITS:    2093197 MISSES:   10858332
L2C WRITEBACK ACCESSES:    6629929 HITS:    6628131 MISSES:       1798
L2C RQ ACCESS:    3105165
L2C RQ TO_CACHE:    3105136
L2C RQ MERGED:          0
L2C RQ FORWARD:          0
L2C WQ ACCESS:    6629929
L2C WQ TO_CACHE:    6629929
L2C WQ MERGED:          0
L2C WQ FORWARD:         40
LLC TOTAL     ACCESS:   20029767  HIT:    1897428  MISS:   18132339
LLC LOAD      ACCESS:    2651895  HIT:     419206  MISS:    2232689
LLC RFO       ACCESS:        414  HIT:         16  MISS:        398
LLC PREFETCH  ACCESS:   10786227  HIT:     108444  MISS:   10677783
LLC WRITEBACK ACCESS:    6591231  HIT:    1369762  MISS:    5221469
LLC PREFETCH  REQUESTED:          0  ISSUED:          0  USEFUL:      46255  USELESS:   10632501
LLC TOTAL MSHR MERGED:      21519
LLC LOAD MSHR MERGED:       9928
LLC RFO MSHR MERGED:          0
LLC PREFETCH MSHR MERGED:      11591
LLC WRITEBACK MSHR MERGED:          0
LLC TOTAL ACCESSES:   20051287 HITS:    1897429 MISSES:   18153858
LLC LOAD ACCESSES:    2651895 HITS:     419206 MISSES:    2232689
LLC RFO ACCESSES:        414 HITS:         16 MISSES:        398
LLC PREFETCH ACCESSES:   10807747 HITS:     108445 MISSES:   10699302
LLC WRITEBACK ACCESSES:    6591231 HITS:    1369762 MISSES:    5221469
LLC 0 RQ ACCESS:    2652309
LLC 0 RQ TO_CACHE:    2652309
LLC 0 RQ MERGED:          0
LLC 0 RQ FORWARD:          0
LLC WQ ACCESS:    6591231
LLC WQ TO_CACHE:    6591231
LLC WQ MERGED:          0
LLC WQ FORWARD:          1
Major fault: 0 Minor fault: 183991
CPU 0 L1D next line prefetcher final stats
CPU 0 L2C PC-based stride prefetcher final stats
All Misses: 20994198
All Hits: 1966615
SD Algo Stats - Switches: 0 SRR-Repls: 2284777 BRR-Repls: 0

DRAM Statistics
 CHANNEL 0
 RQ ROW_BUFFER_HIT:    7166224  ROW_BUFFER_MISS:    5744645
 DBUS_CONGESTED:   11213207
 WQ ROW_BUFFER_HIT:     838404  ROW_BUFFER_MISS:    5746523  FULL:          0

 AVG_CONGESTED_CYCLE: 13
LOADS RETIRED: 204440772
INSTR RETIRED: 500000000
