
*** ChampSim Multicore Out-of-Order Simulator ***

Warmup Instructions: 100000000
Simulation Instructions: 500000000
Number of CPUs: 1
LLC sets: 2048
LLC ways: 16
Clean RRIP Policies: 1213230112132301 Dirty RRIP Policies: 2213031122130311 PSEL Width: 10 Track Set: 4294967295 PSEL Mask: 1 Demote Mask: 3340013133400131DS Algo: 0Window size: 0
Off-chip DRAM Size: 4096 MB Channels: 1 Width: 64-bit Data Rate: 1600 MT/s

CPU 0 runs /mnt/beegfs/iconst01/spec2017/cactuBSSN.trace.gz
NOT SORTED
TRACE STRING: /mnt/beegfs/iconst01/spec2017/cactuBSSN.trace.gz
SORTED
TRACE STRING: /mnt/beegfs/iconst01/spec2017/cactuBSSN.trace.gz
INITIAL
TRACE STRING: /mnt/beegfs/iconst01/spec2017/cactuBSSN.trace.gz

champsim_seed used: 838

CPU 0 L1D next line prefetcher
CPU 0 L2C IP-based stride prefetcher
Initialize DRRIP state
Assign rand_sets[0]: 454  LLC: 2048
rand_sets[0]: 454
Assign rand_sets[1]: 1662  LLC: 2048
rand_sets[1]: 1662
Assign rand_sets[2]: 1921  LLC: 2048
rand_sets[2]: 1921
Assign rand_sets[3]: 1131  LLC: 2048
rand_sets[3]: 1131
Assign rand_sets[4]: 331  LLC: 2048
rand_sets[4]: 331
Assign rand_sets[5]: 1531  LLC: 2048
rand_sets[5]: 1531
Assign rand_sets[6]: 482  LLC: 2048
rand_sets[6]: 482
Assign rand_sets[7]: 1275  LLC: 2048
rand_sets[7]: 1275
Assign rand_sets[8]: 1876  LLC: 2048
rand_sets[8]: 1876
Assign rand_sets[9]: 2038  LLC: 2048
rand_sets[9]: 2038
Assign rand_sets[10]: 701  LLC: 2048
rand_sets[10]: 701
Assign rand_sets[11]: 479  LLC: 2048
rand_sets[11]: 479
Assign rand_sets[12]: 892  LLC: 2048
rand_sets[12]: 892
Assign rand_sets[13]: 1820  LLC: 2048
rand_sets[13]: 1820
Assign rand_sets[14]: 1505  LLC: 2048
rand_sets[14]: 1505
Assign rand_sets[15]: 1159  LLC: 2048
rand_sets[15]: 1159
Assign rand_sets[16]: 513  LLC: 2048
rand_sets[16]: 513
Assign rand_sets[17]: 703  LLC: 2048
rand_sets[17]: 703
Assign rand_sets[18]: 561  LLC: 2048
rand_sets[18]: 561
Assign rand_sets[19]: 990  LLC: 2048
rand_sets[19]: 990
Assign rand_sets[20]: 342  LLC: 2048
rand_sets[20]: 342
Assign rand_sets[21]: 882  LLC: 2048
rand_sets[21]: 882
Assign rand_sets[22]: 15  LLC: 2048
rand_sets[22]: 15
Assign rand_sets[23]: 71  LLC: 2048
rand_sets[23]: 71
Assign rand_sets[24]: 1127  LLC: 2048
rand_sets[24]: 1127
Assign rand_sets[25]: 1382  LLC: 2048
rand_sets[25]: 1382
Assign rand_sets[26]: 647  LLC: 2048
rand_sets[26]: 647
Assign rand_sets[27]: 857  LLC: 2048
rand_sets[27]: 857
Assign rand_sets[28]: 1450  LLC: 2048
rand_sets[28]: 1450
Assign rand_sets[29]: 1160  LLC: 2048
rand_sets[29]: 1160
Assign rand_sets[30]: 1852  LLC: 2048
rand_sets[30]: 1852
Assign rand_sets[31]: 1881  LLC: 2048
rand_sets[31]: 1881
Assign rand_sets[32]: 1770  LLC: 2048
rand_sets[32]: 1770
Assign rand_sets[33]: 1622  LLC: 2048
rand_sets[33]: 1622
Assign rand_sets[34]: 275  LLC: 2048
rand_sets[34]: 275
Assign rand_sets[35]: 635  LLC: 2048
rand_sets[35]: 635
Assign rand_sets[36]: 466  LLC: 2048
rand_sets[36]: 466
Assign rand_sets[37]: 1413  LLC: 2048
rand_sets[37]: 1413
Assign rand_sets[38]: 417  LLC: 2048
rand_sets[38]: 417
Assign rand_sets[39]: 472  LLC: 2048
rand_sets[39]: 472
Assign rand_sets[40]: 1340  LLC: 2048
rand_sets[40]: 1340
Assign rand_sets[41]: 852  LLC: 2048
rand_sets[41]: 852
Assign rand_sets[42]: 1365  LLC: 2048
rand_sets[42]: 1365
Assign rand_sets[43]: 47  LLC: 2048
rand_sets[43]: 47
Assign rand_sets[44]: 823  LLC: 2048
rand_sets[44]: 823
Assign rand_sets[45]: 686  LLC: 2048
rand_sets[45]: 686
Assign rand_sets[46]: 1637  LLC: 2048
rand_sets[46]: 1637
Assign rand_sets[47]: 1115  LLC: 2048
rand_sets[47]: 1115
Assign rand_sets[48]: 986  LLC: 2048
rand_sets[48]: 986
Assign rand_sets[49]: 258  LLC: 2048
rand_sets[49]: 258
Assign rand_sets[50]: 633  LLC: 2048
rand_sets[50]: 633
Assign rand_sets[51]: 920  LLC: 2048
rand_sets[51]: 920
Assign rand_sets[52]: 204  LLC: 2048
rand_sets[52]: 204
Assign rand_sets[53]: 227  LLC: 2048
rand_sets[53]: 227
Assign rand_sets[54]: 1818  LLC: 2048
rand_sets[54]: 1818
Assign rand_sets[55]: 886  LLC: 2048
rand_sets[55]: 886
Assign rand_sets[56]: 1422  LLC: 2048
rand_sets[56]: 1422
Assign rand_sets[57]: 607  LLC: 2048
rand_sets[57]: 607
Assign rand_sets[58]: 217  LLC: 2048
rand_sets[58]: 217
Assign rand_sets[59]: 1945  LLC: 2048
rand_sets[59]: 1945
Assign rand_sets[60]: 143  LLC: 2048
rand_sets[60]: 143
Assign rand_sets[61]: 1311  LLC: 2048
rand_sets[61]: 1311
Assign rand_sets[62]: 319  LLC: 2048
rand_sets[62]: 319
Assign rand_sets[63]: 1846  LLC: 2048
rand_sets[63]: 1846
 CLEAN-RRIP-POLICY-1: 1-2-1-3-2-3-0-1- CLEAN-RRIP-POLICY-2: 1-2-1-3-2-3-0-1-
 DIRTY-RRIP-POLICY-1: 2-2-1-3-0-3-1-1- DIRTY-RRIP-POLICY-2: 2-2-1-3-0-3-1-1-
 PSEL width: 10
Heartbeat CPU 0 instructions: 10000000 cycles: 6588002 heartbeat IPC: 1.51791 cumulative IPC: 1.51791 (Simulation time: 0 hr 0 min 25 sec) 
Heartbeat CPU 0 instructions: 20000000 cycles: 13179595 heartbeat IPC: 1.51708 cumulative IPC: 1.5175 (Simulation time: 0 hr 0 min 49 sec) 
Heartbeat CPU 0 instructions: 30000003 cycles: 19772915 heartbeat IPC: 1.51669 cumulative IPC: 1.51723 (Simulation time: 0 hr 1 min 14 sec) 
Heartbeat CPU 0 instructions: 40000000 cycles: 26364660 heartbeat IPC: 1.51705 cumulative IPC: 1.51718 (Simulation time: 0 hr 1 min 38 sec) 
Heartbeat CPU 0 instructions: 50000001 cycles: 32957322 heartbeat IPC: 1.51684 cumulative IPC: 1.51711 (Simulation time: 0 hr 2 min 3 sec) 
Heartbeat CPU 0 instructions: 60000000 cycles: 39556108 heartbeat IPC: 1.51543 cumulative IPC: 1.51683 (Simulation time: 0 hr 2 min 28 sec) 
Heartbeat CPU 0 instructions: 70000003 cycles: 46154474 heartbeat IPC: 1.51553 cumulative IPC: 1.51665 (Simulation time: 0 hr 2 min 52 sec) 
Heartbeat CPU 0 instructions: 80000000 cycles: 52752513 heartbeat IPC: 1.5156 cumulative IPC: 1.51652 (Simulation time: 0 hr 3 min 17 sec) 
Heartbeat CPU 0 instructions: 90000002 cycles: 59348177 heartbeat IPC: 1.51615 cumulative IPC: 1.51647 (Simulation time: 0 hr 3 min 42 sec) 
Heartbeat CPU 0 instructions: 100000000 cycles: 65943202 heartbeat IPC: 1.51629 cumulative IPC: 1.51646 (Simulation time: 0 hr 4 min 7 sec) 

Warmup complete CPU 0 instructions: 100000002 cycles: 65943203 (Simulation time: 0 hr 4 min 7 sec) 

Heartbeat CPU 0 instructions: 110000000 cycles: 79176888 heartbeat IPC: 0.755647 cumulative IPC: 0.755647 (Simulation time: 0 hr 4 min 37 sec) 
Heartbeat CPU 0 instructions: 120000000 cycles: 92366483 heartbeat IPC: 0.758173 cumulative IPC: 0.756908 (Simulation time: 0 hr 5 min 7 sec) 
Heartbeat CPU 0 instructions: 130000001 cycles: 105624321 heartbeat IPC: 0.754271 cumulative IPC: 0.756027 (Simulation time: 0 hr 5 min 38 sec) 
Heartbeat CPU 0 instructions: 140000000 cycles: 118788049 heartbeat IPC: 0.759663 cumulative IPC: 0.756933 (Simulation time: 0 hr 6 min 8 sec) 
Heartbeat CPU 0 instructions: 150000001 cycles: 131976182 heartbeat IPC: 0.758258 cumulative IPC: 0.757197 (Simulation time: 0 hr 6 min 38 sec) 
Heartbeat CPU 0 instructions: 160000000 cycles: 145203911 heartbeat IPC: 0.755988 cumulative IPC: 0.756995 (Simulation time: 0 hr 7 min 9 sec) 
Heartbeat CPU 0 instructions: 170000000 cycles: 158409161 heartbeat IPC: 0.757275 cumulative IPC: 0.757035 (Simulation time: 0 hr 7 min 39 sec) 
Heartbeat CPU 0 instructions: 180000000 cycles: 171604360 heartbeat IPC: 0.757851 cumulative IPC: 0.757137 (Simulation time: 0 hr 8 min 10 sec) 
Heartbeat CPU 0 instructions: 190000000 cycles: 184758107 heartbeat IPC: 0.76024 cumulative IPC: 0.757481 (Simulation time: 0 hr 8 min 40 sec) 
Heartbeat CPU 0 instructions: 200000000 cycles: 198004702 heartbeat IPC: 0.754911 cumulative IPC: 0.757223 (Simulation time: 0 hr 9 min 10 sec) 
Heartbeat CPU 0 instructions: 210000002 cycles: 211210071 heartbeat IPC: 0.757268 cumulative IPC: 0.757227 (Simulation time: 0 hr 9 min 41 sec) 
Heartbeat CPU 0 instructions: 220000000 cycles: 224381532 heartbeat IPC: 0.759217 cumulative IPC: 0.757392 (Simulation time: 0 hr 10 min 11 sec) 
Heartbeat CPU 0 instructions: 230000003 cycles: 237619876 heartbeat IPC: 0.755382 cumulative IPC: 0.757237 (Simulation time: 0 hr 10 min 41 sec) 
Heartbeat CPU 0 instructions: 240000000 cycles: 250800417 heartbeat IPC: 0.758694 cumulative IPC: 0.757341 (Simulation time: 0 hr 11 min 12 sec) 
Heartbeat CPU 0 instructions: 250000001 cycles: 264013191 heartbeat IPC: 0.756843 cumulative IPC: 0.757308 (Simulation time: 0 hr 11 min 42 sec) 
Heartbeat CPU 0 instructions: 260000000 cycles: 277218251 heartbeat IPC: 0.757285 cumulative IPC: 0.757307 (Simulation time: 0 hr 12 min 12 sec) 
Heartbeat CPU 0 instructions: 270000003 cycles: 290445934 heartbeat IPC: 0.755991 cumulative IPC: 0.757229 (Simulation time: 0 hr 12 min 42 sec) 
Heartbeat CPU 0 instructions: 280000000 cycles: 303636665 heartbeat IPC: 0.758108 cumulative IPC: 0.757278 (Simulation time: 0 hr 13 min 12 sec) 
Heartbeat CPU 0 instructions: 290000000 cycles: 316795231 heartbeat IPC: 0.759961 cumulative IPC: 0.757419 (Simulation time: 0 hr 13 min 42 sec) 
Heartbeat CPU 0 instructions: 300000000 cycles: 330031696 heartbeat IPC: 0.755489 cumulative IPC: 0.757322 (Simulation time: 0 hr 14 min 12 sec) 
Heartbeat CPU 0 instructions: 310000001 cycles: 343198041 heartbeat IPC: 0.759512 cumulative IPC: 0.757426 (Simulation time: 0 hr 14 min 42 sec) 
Heartbeat CPU 0 instructions: 320000000 cycles: 356383189 heartbeat IPC: 0.758429 cumulative IPC: 0.757471 (Simulation time: 0 hr 15 min 12 sec) 
Heartbeat CPU 0 instructions: 330000002 cycles: 369575046 heartbeat IPC: 0.758044 cumulative IPC: 0.757496 (Simulation time: 0 hr 15 min 42 sec) 
Heartbeat CPU 0 instructions: 340000000 cycles: 382805305 heartbeat IPC: 0.755843 cumulative IPC: 0.757427 (Simulation time: 0 hr 16 min 12 sec) 
Heartbeat CPU 0 instructions: 350000000 cycles: 396048459 heartbeat IPC: 0.755107 cumulative IPC: 0.757334 (Simulation time: 0 hr 16 min 41 sec) 
Heartbeat CPU 0 instructions: 360000000 cycles: 409264976 heartbeat IPC: 0.756629 cumulative IPC: 0.757307 (Simulation time: 0 hr 17 min 11 sec) 
Heartbeat CPU 0 instructions: 370000002 cycles: 422528743 heartbeat IPC: 0.753934 cumulative IPC: 0.757182 (Simulation time: 0 hr 17 min 41 sec) 
Heartbeat CPU 0 instructions: 380000000 cycles: 435725874 heartbeat IPC: 0.75774 cumulative IPC: 0.757201 (Simulation time: 0 hr 18 min 11 sec) 
Heartbeat CPU 0 instructions: 390000000 cycles: 448896035 heartbeat IPC: 0.759292 cumulative IPC: 0.757273 (Simulation time: 0 hr 18 min 40 sec) 
Heartbeat CPU 0 instructions: 400000000 cycles: 462083517 heartbeat IPC: 0.758295 cumulative IPC: 0.757307 (Simulation time: 0 hr 19 min 10 sec) 
Heartbeat CPU 0 instructions: 410000001 cycles: 475324941 heartbeat IPC: 0.755206 cumulative IPC: 0.757239 (Simulation time: 0 hr 19 min 40 sec) 
Heartbeat CPU 0 instructions: 420000000 cycles: 488505220 heartbeat IPC: 0.758709 cumulative IPC: 0.757285 (Simulation time: 0 hr 20 min 10 sec) 
Heartbeat CPU 0 instructions: 430000001 cycles: 501677426 heartbeat IPC: 0.759174 cumulative IPC: 0.757342 (Simulation time: 0 hr 20 min 39 sec) 
Heartbeat CPU 0 instructions: 440000000 cycles: 514839629 heartbeat IPC: 0.759751 cumulative IPC: 0.757413 (Simulation time: 0 hr 21 min 9 sec) 
Heartbeat CPU 0 instructions: 450000002 cycles: 528131418 heartbeat IPC: 0.752344 cumulative IPC: 0.757267 (Simulation time: 0 hr 21 min 39 sec) 
Heartbeat CPU 0 instructions: 460000000 cycles: 541342909 heartbeat IPC: 0.756917 cumulative IPC: 0.757258 (Simulation time: 0 hr 22 min 8 sec) 
Heartbeat CPU 0 instructions: 470000003 cycles: 554534327 heartbeat IPC: 0.758069 cumulative IPC: 0.757279 (Simulation time: 0 hr 22 min 38 sec) 
Heartbeat CPU 0 instructions: 480000000 cycles: 567765829 heartbeat IPC: 0.755772 cumulative IPC: 0.75724 (Simulation time: 0 hr 23 min 8 sec) 
Heartbeat CPU 0 instructions: 490000000 cycles: 580969009 heartbeat IPC: 0.757393 cumulative IPC: 0.757244 (Simulation time: 0 hr 23 min 38 sec) 
Heartbeat CPU 0 instructions: 500000000 cycles: 594156802 heartbeat IPC: 0.758277 cumulative IPC: 0.757269 (Simulation time: 0 hr 24 min 7 sec) 
Heartbeat CPU 0 instructions: 510000001 cycles: 607332871 heartbeat IPC: 0.758952 cumulative IPC: 0.75731 (Simulation time: 0 hr 24 min 37 sec) 
Heartbeat CPU 0 instructions: 520000000 cycles: 620608447 heartbeat IPC: 0.753263 cumulative IPC: 0.757213 (Simulation time: 0 hr 25 min 7 sec) 
Heartbeat CPU 0 instructions: 530000000 cycles: 633844143 heartbeat IPC: 0.755533 cumulative IPC: 0.757174 (Simulation time: 0 hr 25 min 36 sec) 
Heartbeat CPU 0 instructions: 540000000 cycles: 647075740 heartbeat IPC: 0.755767 cumulative IPC: 0.757142 (Simulation time: 0 hr 26 min 6 sec) 
Heartbeat CPU 0 instructions: 550000002 cycles: 660334619 heartbeat IPC: 0.754212 cumulative IPC: 0.757077 (Simulation time: 0 hr 26 min 36 sec) 
Heartbeat CPU 0 instructions: 560000000 cycles: 673519921 heartbeat IPC: 0.75842 cumulative IPC: 0.757106 (Simulation time: 0 hr 27 min 6 sec) 
Heartbeat CPU 0 instructions: 570000001 cycles: 686715973 heartbeat IPC: 0.757802 cumulative IPC: 0.757121 (Simulation time: 0 hr 27 min 35 sec) 
Heartbeat CPU 0 instructions: 580000000 cycles: 699912817 heartbeat IPC: 0.757757 cumulative IPC: 0.757134 (Simulation time: 0 hr 28 min 5 sec) 
Heartbeat CPU 0 instructions: 590000003 cycles: 713140247 heartbeat IPC: 0.756005 cumulative IPC: 0.757111 (Simulation time: 0 hr 28 min 35 sec) 
Heartbeat CPU 0 instructions: 600000000 cycles: 726389252 heartbeat IPC: 0.754773 cumulative IPC: 0.757064 (Simulation time: 0 hr 29 min 4 sec) 
Finished CPU 0 instructions: 500000000 cycles: 660446059 cumulative IPC: 0.757064 (Simulation time: 0 hr 29 min 4 sec) 

CPU 0 Branch Prediction Accuracy: 99.968% MPKI: 0.002246
Number of Branches: 3513331 Number of Mispredictions: 1123
Number of LOAD Instructions: 287251172
Number of LOAD Instructions (ROI): 287251172
Number of STORE Instructions: 51060820
Number of STORE Instructions (ROI): 51060820
Total Destination Memory Operands: 51166221
Total Destination Memory Operands (ROI): 51166221
Total Source Memory Operands: 287251172
Total Source Memory Operands (ROI): 287251172
Number of DEPENDED LOADS: 9555453
Number of DEPENDED LOADS (ROI): 9555453
Number of SQ_ADDED: 51166208
Number of SQ_ADDED (ROI): 51166208
Number of LQ_ADDED: 290420135
Number of LQ_ADDED (ROI): 290420135
Number of Instructions read from trace: 600000257

ChampSim completed all CPUs

Region of Interest Statistics

CPU 0 cumulative IPC: 0.757064 instructions: 500000000 cycles: 660446059
ITLB TOTAL     ACCESS:  108948869  HIT:  108948869  MISS:          0
ITLB LOAD      ACCESS:  108948869  HIT:  108948869  MISS:          0
ITLB RFO       ACCESS:          0  HIT:          0  MISS:          0
ITLB PREFETCH  ACCESS:          0  HIT:          0  MISS:          0
ITLB WRITEBACK ACCESS:          0  HIT:          0  MISS:          0
ITLB PREFETCH  REQUESTED:          0  ISSUED:          0  USEFUL:          0  USELESS:          0
ITLB TOTAL MSHR MERGED:          0
ITLB LOAD MSHR MERGED:          0
ITLB RFO MSHR MERGED:          0
ITLB PREFETCH MSHR MERGED:          0
ITLB WRITEBACK MSHR MERGED:          0
ITLB TOTAL ACCESSES:  108948869 HITS:  108948869 MISSES:          0
ITLB LOAD ACCESSES:  108948869 HITS:  108948869 MISSES:          0
ITLB RFO ACCESSES:          0 HITS:          0 MISSES:          0
ITLB PREFETCH ACCESSES:          0 HITS:          0 MISSES:          0
ITLB WRITEBACK ACCESSES:          0 HITS:          0 MISSES:          0
ITLB RQ ACCESS:  500000001
ITLB RQ TO_CACHE:  108948869
ITLB RQ MERGED:  391051132
ITLB RQ FORWARD:          0
ITLB WQ ACCESS:          0
ITLB WQ TO_CACHE:          0
ITLB WQ MERGED:          0
ITLB WQ FORWARD:          0
DTLB TOTAL     ACCESS:  171131179  HIT:  161114859  MISS:   10016320
DTLB LOAD      ACCESS:  143472086  HIT:  135596016  MISS:    7876070
DTLB RFO       ACCESS:   27659093  HIT:   25518843  MISS:    2140250
DTLB PREFETCH  ACCESS:          0  HIT:          0  MISS:          0
DTLB WRITEBACK ACCESS:          0  HIT:          0  MISS:          0
DTLB PREFETCH  REQUESTED:          0  ISSUED:          0  USEFUL:          0  USELESS:          0
DTLB TOTAL MSHR MERGED:     360447
DTLB LOAD MSHR MERGED:     360447
DTLB RFO MSHR MERGED:          0
DTLB PREFETCH MSHR MERGED:          0
DTLB WRITEBACK MSHR MERGED:          0
DTLB TOTAL ACCESSES:  171491626 HITS:  161114859 MISSES:   10376767
DTLB LOAD ACCESSES:  143832533 HITS:  135596016 MISSES:    8236517
DTLB RFO ACCESSES:   27659093 HITS:   25518843 MISSES:    2140250
DTLB PREFETCH ACCESSES:          0 HITS:          0 MISSES:          0
DTLB WRITEBACK ACCESSES:          0 HITS:          0 MISSES:          0
DTLB RQ ACCESS:  274072364
DTLB RQ TO_CACHE:  171491626
DTLB RQ MERGED:  102580738
DTLB RQ FORWARD:          0
DTLB WQ ACCESS:          0
DTLB WQ TO_CACHE:          0
DTLB WQ MERGED:          0
DTLB WQ FORWARD:          0
L1D TOTAL     ACCESS:  350952192  HIT:  283752939  MISS:   67199253
L1D LOAD      ACCESS:  175626314  HIT:  142587070  MISS:   33039244
L1D RFO       ACCESS:   42019876  HIT:   39214352  MISS:    2805524
L1D PREFETCH  ACCESS:  133306002  HIT:  101951517  MISS:   31354485
L1D WRITEBACK ACCESS:          0  HIT:          0  MISS:          0
L1D PREFETCH  REQUESTED:  176230411  ISSUED:  175292302  USEFUL:    2180623  USELESS:   29173864
L1D TOTAL MSHR MERGED:    1483102
L1D LOAD MSHR MERGED:     704058
L1D RFO MSHR MERGED:     349193
L1D PREFETCH MSHR MERGED:     429851
L1D WRITEBACK MSHR MERGED:          0
L1D TOTAL ACCESSES:  352548071 HITS:  283865716 MISSES:   68682355
L1D LOAD ACCESSES:  176237202 HITS:  142593861 MISSES:   33643341
L1D RFO ACCESSES:   42368393 HITS:   39214352 MISSES:    3154041
L1D PREFETCH ACCESSES:  133942476 HITS:  102057503 MISSES:   31884973
L1D WRITEBACK ACCESSES:          0 HITS:          0 MISSES:          0
L1D RQ ACCESS:  231433891
L1D RQ TO_CACHE:  176230411
L1D RQ MERGED:   55196689
L1D RQ FORWARD:          0
L1D WQ ACCESS:   42638475
L1D WQ TO_CACHE:   42368393
L1D WQ MERGED:     270082
L1D WQ FORWARD:     112777
L1I TOTAL     ACCESS:  109342264  HIT:   77826560  MISS:   31515704
L1I LOAD      ACCESS:  109342264  HIT:   77826560  MISS:   31515704
L1I RFO       ACCESS:          0  HIT:          0  MISS:          0
L1I PREFETCH  ACCESS:          0  HIT:          0  MISS:          0
L1I WRITEBACK ACCESS:          0  HIT:          0  MISS:          0
L1I PREFETCH  REQUESTED:          0  ISSUED:          0  USEFUL:          0  USELESS:          0
L1I TOTAL MSHR MERGED:   30750679
L1I LOAD MSHR MERGED:   30750679
L1I RFO MSHR MERGED:          0
L1I PREFETCH MSHR MERGED:          0
L1I WRITEBACK MSHR MERGED:          0
L1I TOTAL ACCESSES:  140092945 HITS:   77826560 MISSES:   62266385
L1I LOAD ACCESSES:  140092945 HITS:   77826560 MISSES:   62266385
L1I RFO ACCESSES:          0 HITS:          0 MISSES:          0
L1I PREFETCH ACCESSES:          0 HITS:          0 MISSES:          0
L1I WRITEBACK ACCESSES:          0 HITS:          0 MISSES:          0
L1I RQ ACCESS:  500000003
L1I RQ TO_CACHE:  140092945
L1I RQ MERGED:  359907058
L1I RQ FORWARD:          0
L1I WQ ACCESS:          0
L1I WQ TO_CACHE:          0
L1I WQ MERGED:          0
L1I WQ FORWARD:          0
L2C TOTAL     ACCESS:  113700330  HIT:  110697991  MISS:    3002339
L2C LOAD      ACCESS:   64453129  HIT:   63892429  MISS:     560700
L2C RFO       ACCESS:    2802953  HIT:    2193669  MISS:     609284
L2C PREFETCH  ACCESS:   43283308  HIT:   41457246  MISS:    1826062
L2C WRITEBACK ACCESS:    3160940  HIT:    3154647  MISS:       6293
L2C PREFETCH  REQUESTED:   15134367  ISSUED:   14619662  USEFUL:    1700990  USELESS:     125078
L2C TOTAL MSHR MERGED:      12741
L2C LOAD MSHR MERGED:          0
L2C RFO MSHR MERGED:          0
L2C PREFETCH MSHR MERGED:      12741
L2C WRITEBACK MSHR MERGED:          0
L2C TOTAL ACCESSES:  113903039 HITS:  110703855 MISSES:    3199184
L2C LOAD ACCESSES:   64454988 HITS:   63894287 MISSES:     560701
L2C RFO ACCESSES:    2804848 HITS:    2195564 MISSES:     609284
L2C PREFETCH ACCESSES:   43482263 HITS:   41459357 MISSES:    2022906
L2C WRITEBACK ACCESSES:    3160940 HITS:    3154647 MISSES:       6293
L2C RQ ACCESS:   67259837
L2C RQ TO_CACHE:   67256084
L2C RQ MERGED:          0
L2C RQ FORWARD:          0
L2C WQ ACCESS:    3160940
L2C WQ TO_CACHE:    3160940
L2C WQ MERGED:          0
L2C WQ FORWARD:       5864
LLC TOTAL     ACCESS:    3711585  HIT:    1860809  MISS:    1850776
LLC LOAD      ACCESS:     560669  HIT:     499493  MISS:      61176
LLC RFO       ACCESS:     527402  HIT:     238498  MISS:     288904
LLC PREFETCH  ACCESS:    2005200  HIT:     662600  MISS:    1342600
LLC WRITEBACK ACCESS:     618314  HIT:     460218  MISS:     158096
LLC PREFETCH  REQUESTED:          0  ISSUED:          0  USEFUL:      44489  USELESS:    1292222
LLC TOTAL MSHR MERGED:       4307
LLC LOAD MSHR MERGED:          0
LLC RFO MSHR MERGED:          0
LLC PREFETCH MSHR MERGED:       4307
LLC WRITEBACK MSHR MERGED:          0
LLC TOTAL ACCESSES:    3797892 HITS:    1942809 MISSES:    1855083
LLC LOAD ACCESSES:     560700 HITS:     499524 MISSES:      61176
LLC RFO ACCESSES:     609284 HITS:     320380 MISSES:     288904
LLC PREFETCH ACCESSES:    2009594 HITS:     662687 MISSES:    1346907
LLC WRITEBACK ACCESSES:     618314 HITS:     460218 MISSES:     158096
LLC 0 RQ ACCESS:    1169985
LLC 0 RQ TO_CACHE:    1088072
LLC 0 RQ MERGED:          0
LLC 0 RQ FORWARD:          0
LLC WQ ACCESS:     618314
LLC WQ TO_CACHE:     618314
LLC WQ MERGED:          0
LLC WQ FORWARD:      82000
Major fault: 0 Minor fault: 12800
CPU 0 L1D next line prefetcher final stats
CPU 0 L2C PC-based stride prefetcher final stats
All Misses: 2241635
All Hits: 2320906
SD Algo Stats - Switches: 0 SRR-Repls: 78036 BRR-Repls: 0

DRAM Statistics
 CHANNEL 0
 RQ ROW_BUFFER_HIT:     838300  ROW_BUFFER_MISS:     853604
 DBUS_CONGESTED:     905176
 WQ ROW_BUFFER_HIT:      40791  ROW_BUFFER_MISS:     258003  FULL:          0

 AVG_CONGESTED_CYCLE: 13
LOADS RETIRED: 239375970
INSTR RETIRED: 500000000
