
*** ChampSim Multicore Out-of-Order Simulator ***

Warmup Instructions: 100000000
Simulation Instructions: 500000000
Number of CPUs: 1
LLC sets: 2048
LLC ways: 16
Clean RRIP Policies: 1120030111200301 Dirty RRIP Policies: 2110132121101321 PSEL Width: 10 Track Set: 4294967295 PSEL Mask: 1 Demote Mask: 3414201034142010DS Algo: 0Window size: 0
Off-chip DRAM Size: 4096 MB Channels: 1 Width: 64-bit Data Rate: 1600 MT/s

CPU 0 runs /mnt/beegfs/iconst01/spec2017/Gcc.trace.gz
NOT SORTED
TRACE STRING: /mnt/beegfs/iconst01/spec2017/Gcc.trace.gz
SORTED
TRACE STRING: /mnt/beegfs/iconst01/spec2017/Gcc.trace.gz
INITIAL
TRACE STRING: /mnt/beegfs/iconst01/spec2017/Gcc.trace.gz

champsim_seed used: 269

CPU 0 L1D next line prefetcher
CPU 0 L2C IP-based stride prefetcher
Initialize DRRIP state
Assign rand_sets[0]: 454  LLC: 2048
rand_sets[0]: 454
Assign rand_sets[1]: 1662  LLC: 2048
rand_sets[1]: 1662
Assign rand_sets[2]: 1921  LLC: 2048
rand_sets[2]: 1921
Assign rand_sets[3]: 1131  LLC: 2048
rand_sets[3]: 1131
Assign rand_sets[4]: 331  LLC: 2048
rand_sets[4]: 331
Assign rand_sets[5]: 1531  LLC: 2048
rand_sets[5]: 1531
Assign rand_sets[6]: 482  LLC: 2048
rand_sets[6]: 482
Assign rand_sets[7]: 1275  LLC: 2048
rand_sets[7]: 1275
Assign rand_sets[8]: 1876  LLC: 2048
rand_sets[8]: 1876
Assign rand_sets[9]: 2038  LLC: 2048
rand_sets[9]: 2038
Assign rand_sets[10]: 701  LLC: 2048
rand_sets[10]: 701
Assign rand_sets[11]: 479  LLC: 2048
rand_sets[11]: 479
Assign rand_sets[12]: 892  LLC: 2048
rand_sets[12]: 892
Assign rand_sets[13]: 1820  LLC: 2048
rand_sets[13]: 1820
Assign rand_sets[14]: 1505  LLC: 2048
rand_sets[14]: 1505
Assign rand_sets[15]: 1159  LLC: 2048
rand_sets[15]: 1159
Assign rand_sets[16]: 513  LLC: 2048
rand_sets[16]: 513
Assign rand_sets[17]: 703  LLC: 2048
rand_sets[17]: 703
Assign rand_sets[18]: 561  LLC: 2048
rand_sets[18]: 561
Assign rand_sets[19]: 990  LLC: 2048
rand_sets[19]: 990
Assign rand_sets[20]: 342  LLC: 2048
rand_sets[20]: 342
Assign rand_sets[21]: 882  LLC: 2048
rand_sets[21]: 882
Assign rand_sets[22]: 15  LLC: 2048
rand_sets[22]: 15
Assign rand_sets[23]: 71  LLC: 2048
rand_sets[23]: 71
Assign rand_sets[24]: 1127  LLC: 2048
rand_sets[24]: 1127
Assign rand_sets[25]: 1382  LLC: 2048
rand_sets[25]: 1382
Assign rand_sets[26]: 647  LLC: 2048
rand_sets[26]: 647
Assign rand_sets[27]: 857  LLC: 2048
rand_sets[27]: 857
Assign rand_sets[28]: 1450  LLC: 2048
rand_sets[28]: 1450
Assign rand_sets[29]: 1160  LLC: 2048
rand_sets[29]: 1160
Assign rand_sets[30]: 1852  LLC: 2048
rand_sets[30]: 1852
Assign rand_sets[31]: 1881  LLC: 2048
rand_sets[31]: 1881
Assign rand_sets[32]: 1770  LLC: 2048
rand_sets[32]: 1770
Assign rand_sets[33]: 1622  LLC: 2048
rand_sets[33]: 1622
Assign rand_sets[34]: 275  LLC: 2048
rand_sets[34]: 275
Assign rand_sets[35]: 635  LLC: 2048
rand_sets[35]: 635
Assign rand_sets[36]: 466  LLC: 2048
rand_sets[36]: 466
Assign rand_sets[37]: 1413  LLC: 2048
rand_sets[37]: 1413
Assign rand_sets[38]: 417  LLC: 2048
rand_sets[38]: 417
Assign rand_sets[39]: 472  LLC: 2048
rand_sets[39]: 472
Assign rand_sets[40]: 1340  LLC: 2048
rand_sets[40]: 1340
Assign rand_sets[41]: 852  LLC: 2048
rand_sets[41]: 852
Assign rand_sets[42]: 1365  LLC: 2048
rand_sets[42]: 1365
Assign rand_sets[43]: 47  LLC: 2048
rand_sets[43]: 47
Assign rand_sets[44]: 823  LLC: 2048
rand_sets[44]: 823
Assign rand_sets[45]: 686  LLC: 2048
rand_sets[45]: 686
Assign rand_sets[46]: 1637  LLC: 2048
rand_sets[46]: 1637
Assign rand_sets[47]: 1115  LLC: 2048
rand_sets[47]: 1115
Assign rand_sets[48]: 986  LLC: 2048
rand_sets[48]: 986
Assign rand_sets[49]: 258  LLC: 2048
rand_sets[49]: 258
Assign rand_sets[50]: 633  LLC: 2048
rand_sets[50]: 633
Assign rand_sets[51]: 920  LLC: 2048
rand_sets[51]: 920
Assign rand_sets[52]: 204  LLC: 2048
rand_sets[52]: 204
Assign rand_sets[53]: 227  LLC: 2048
rand_sets[53]: 227
Assign rand_sets[54]: 1818  LLC: 2048
rand_sets[54]: 1818
Assign rand_sets[55]: 886  LLC: 2048
rand_sets[55]: 886
Assign rand_sets[56]: 1422  LLC: 2048
rand_sets[56]: 1422
Assign rand_sets[57]: 607  LLC: 2048
rand_sets[57]: 607
Assign rand_sets[58]: 217  LLC: 2048
rand_sets[58]: 217
Assign rand_sets[59]: 1945  LLC: 2048
rand_sets[59]: 1945
Assign rand_sets[60]: 143  LLC: 2048
rand_sets[60]: 143
Assign rand_sets[61]: 1311  LLC: 2048
rand_sets[61]: 1311
Assign rand_sets[62]: 319  LLC: 2048
rand_sets[62]: 319
Assign rand_sets[63]: 1846  LLC: 2048
rand_sets[63]: 1846
 CLEAN-RRIP-POLICY-1: 1-1-2-0-0-3-0-1- CLEAN-RRIP-POLICY-2: 1-1-2-0-0-3-0-1-
 DIRTY-RRIP-POLICY-1: 2-1-1-0-1-3-2-1- DIRTY-RRIP-POLICY-2: 2-1-1-0-1-3-2-1-
 PSEL width: 10
Heartbeat CPU 0 instructions: 10000001 cycles: 7315913 heartbeat IPC: 1.36688 cumulative IPC: 1.36688 (Simulation time: 0 hr 0 min 15 sec) 
Heartbeat CPU 0 instructions: 20000000 cycles: 14308080 heartbeat IPC: 1.43017 cumulative IPC: 1.39781 (Simulation time: 0 hr 0 min 30 sec) 
Heartbeat CPU 0 instructions: 30000001 cycles: 21021747 heartbeat IPC: 1.4895 cumulative IPC: 1.42709 (Simulation time: 0 hr 0 min 46 sec) 
Heartbeat CPU 0 instructions: 40000000 cycles: 27482812 heartbeat IPC: 1.54773 cumulative IPC: 1.45546 (Simulation time: 0 hr 1 min 3 sec) 
Heartbeat CPU 0 instructions: 50000001 cycles: 33585059 heartbeat IPC: 1.63874 cumulative IPC: 1.48876 (Simulation time: 0 hr 1 min 18 sec) 
Heartbeat CPU 0 instructions: 60000000 cycles: 40066635 heartbeat IPC: 1.54283 cumulative IPC: 1.49751 (Simulation time: 0 hr 1 min 35 sec) 
Heartbeat CPU 0 instructions: 70000000 cycles: 47108420 heartbeat IPC: 1.42009 cumulative IPC: 1.48593 (Simulation time: 0 hr 1 min 50 sec) 
Heartbeat CPU 0 instructions: 80000000 cycles: 54202078 heartbeat IPC: 1.40971 cumulative IPC: 1.47596 (Simulation time: 0 hr 2 min 5 sec) 
Heartbeat CPU 0 instructions: 90000003 cycles: 61211225 heartbeat IPC: 1.42671 cumulative IPC: 1.47032 (Simulation time: 0 hr 2 min 21 sec) 
Heartbeat CPU 0 instructions: 100000000 cycles: 68383382 heartbeat IPC: 1.39428 cumulative IPC: 1.46234 (Simulation time: 0 hr 2 min 36 sec) 

Warmup complete CPU 0 instructions: 100000004 cycles: 68383383 (Simulation time: 0 hr 2 min 36 sec) 

Heartbeat CPU 0 instructions: 110000003 cycles: 96748488 heartbeat IPC: 0.352546 cumulative IPC: 0.352546 (Simulation time: 0 hr 3 min 5 sec) 
Heartbeat CPU 0 instructions: 120000000 cycles: 124433978 heartbeat IPC: 0.3612 cumulative IPC: 0.35682 (Simulation time: 0 hr 3 min 35 sec) 
Heartbeat CPU 0 instructions: 130000000 cycles: 149643498 heartbeat IPC: 0.396676 cumulative IPC: 0.369185 (Simulation time: 0 hr 4 min 5 sec) 
Heartbeat CPU 0 instructions: 140000000 cycles: 180671818 heartbeat IPC: 0.322286 cumulative IPC: 0.356225 (Simulation time: 0 hr 4 min 34 sec) 
Heartbeat CPU 0 instructions: 150000000 cycles: 211451795 heartbeat IPC: 0.324887 cumulative IPC: 0.349483 (Simulation time: 0 hr 5 min 4 sec) 
Heartbeat CPU 0 instructions: 160000000 cycles: 239132301 heartbeat IPC: 0.361265 cumulative IPC: 0.351393 (Simulation time: 0 hr 5 min 33 sec) 
Heartbeat CPU 0 instructions: 170000001 cycles: 267588728 heartbeat IPC: 0.351415 cumulative IPC: 0.351396 (Simulation time: 0 hr 6 min 4 sec) 
Heartbeat CPU 0 instructions: 180000000 cycles: 296487805 heartbeat IPC: 0.346032 cumulative IPC: 0.350717 (Simulation time: 0 hr 6 min 34 sec) 
Heartbeat CPU 0 instructions: 190000002 cycles: 325171318 heartbeat IPC: 0.348632 cumulative IPC: 0.350484 (Simulation time: 0 hr 7 min 4 sec) 
Heartbeat CPU 0 instructions: 200000000 cycles: 354047906 heartbeat IPC: 0.346301 cumulative IPC: 0.350061 (Simulation time: 0 hr 7 min 34 sec) 
Heartbeat CPU 0 instructions: 210000002 cycles: 382520334 heartbeat IPC: 0.351217 cumulative IPC: 0.350166 (Simulation time: 0 hr 8 min 4 sec) 
Heartbeat CPU 0 instructions: 220000000 cycles: 413160320 heartbeat IPC: 0.326371 cumulative IPC: 0.348051 (Simulation time: 0 hr 8 min 33 sec) 
Heartbeat CPU 0 instructions: 230000000 cycles: 441296720 heartbeat IPC: 0.355411 cumulative IPC: 0.348606 (Simulation time: 0 hr 9 min 2 sec) 
Heartbeat CPU 0 instructions: 240000000 cycles: 467571528 heartbeat IPC: 0.380593 cumulative IPC: 0.350712 (Simulation time: 0 hr 9 min 30 sec) 
Heartbeat CPU 0 instructions: 250000000 cycles: 498023885 heartbeat IPC: 0.328382 cumulative IPC: 0.349129 (Simulation time: 0 hr 10 min 1 sec) 
Heartbeat CPU 0 instructions: 260000000 cycles: 525322076 heartbeat IPC: 0.366325 cumulative IPC: 0.350156 (Simulation time: 0 hr 10 min 30 sec) 
Heartbeat CPU 0 instructions: 270000003 cycles: 554139814 heartbeat IPC: 0.347009 cumulative IPC: 0.34997 (Simulation time: 0 hr 11 min 1 sec) 
Heartbeat CPU 0 instructions: 280000000 cycles: 582819283 heartbeat IPC: 0.348681 cumulative IPC: 0.349898 (Simulation time: 0 hr 11 min 32 sec) 
Heartbeat CPU 0 instructions: 290000000 cycles: 612090477 heartbeat IPC: 0.341633 cumulative IPC: 0.349453 (Simulation time: 0 hr 12 min 3 sec) 
Heartbeat CPU 0 instructions: 300000000 cycles: 643391720 heartbeat IPC: 0.319476 cumulative IPC: 0.347821 (Simulation time: 0 hr 12 min 32 sec) 
Heartbeat CPU 0 instructions: 310000001 cycles: 673675376 heartbeat IPC: 0.330211 cumulative IPC: 0.34694 (Simulation time: 0 hr 13 min 2 sec) 
Heartbeat CPU 0 instructions: 320000000 cycles: 702953411 heartbeat IPC: 0.341553 cumulative IPC: 0.346691 (Simulation time: 0 hr 13 min 31 sec) 
Heartbeat CPU 0 instructions: 330000000 cycles: 732359035 heartbeat IPC: 0.340071 cumulative IPC: 0.346398 (Simulation time: 0 hr 14 min 1 sec) 
Heartbeat CPU 0 instructions: 340000000 cycles: 762439530 heartbeat IPC: 0.332441 cumulative IPC: 0.345793 (Simulation time: 0 hr 14 min 31 sec) 
Heartbeat CPU 0 instructions: 350000003 cycles: 789959946 heartbeat IPC: 0.363367 cumulative IPC: 0.346464 (Simulation time: 0 hr 15 min 0 sec) 
Heartbeat CPU 0 instructions: 360000000 cycles: 820598735 heartbeat IPC: 0.326384 cumulative IPC: 0.345646 (Simulation time: 0 hr 15 min 29 sec) 
Heartbeat CPU 0 instructions: 370000000 cycles: 851139208 heartbeat IPC: 0.327434 cumulative IPC: 0.344935 (Simulation time: 0 hr 15 min 58 sec) 
Heartbeat CPU 0 instructions: 380000000 cycles: 881934047 heartbeat IPC: 0.32473 cumulative IPC: 0.34417 (Simulation time: 0 hr 16 min 27 sec) 
Heartbeat CPU 0 instructions: 390000001 cycles: 911588723 heartbeat IPC: 0.337215 cumulative IPC: 0.343926 (Simulation time: 0 hr 16 min 56 sec) 
Heartbeat CPU 0 instructions: 400000000 cycles: 942260090 heartbeat IPC: 0.326037 cumulative IPC: 0.343298 (Simulation time: 0 hr 17 min 25 sec) 
Heartbeat CPU 0 instructions: 410000001 cycles: 971298766 heartbeat IPC: 0.344368 cumulative IPC: 0.343332 (Simulation time: 0 hr 17 min 54 sec) 
Heartbeat CPU 0 instructions: 420000000 cycles: 1000298975 heartbeat IPC: 0.344825 cumulative IPC: 0.343379 (Simulation time: 0 hr 18 min 22 sec) 
Heartbeat CPU 0 instructions: 430000002 cycles: 1029748795 heartbeat IPC: 0.339561 cumulative IPC: 0.343262 (Simulation time: 0 hr 18 min 50 sec) 
Heartbeat CPU 0 instructions: 440000000 cycles: 1060922933 heartbeat IPC: 0.320779 cumulative IPC: 0.342556 (Simulation time: 0 hr 19 min 19 sec) 
Heartbeat CPU 0 instructions: 450000002 cycles: 1091899131 heartbeat IPC: 0.322829 cumulative IPC: 0.341959 (Simulation time: 0 hr 19 min 47 sec) 
Heartbeat CPU 0 instructions: 460000000 cycles: 1121230803 heartbeat IPC: 0.340928 cumulative IPC: 0.34193 (Simulation time: 0 hr 20 min 14 sec) 
Heartbeat CPU 0 instructions: 470000000 cycles: 1150218789 heartbeat IPC: 0.34497 cumulative IPC: 0.342011 (Simulation time: 0 hr 20 min 42 sec) 
Heartbeat CPU 0 instructions: 480000000 cycles: 1179415091 heartbeat IPC: 0.342509 cumulative IPC: 0.342024 (Simulation time: 0 hr 21 min 10 sec) 
Heartbeat CPU 0 instructions: 490000000 cycles: 1208298043 heartbeat IPC: 0.346225 cumulative IPC: 0.342131 (Simulation time: 0 hr 21 min 37 sec) 
Heartbeat CPU 0 instructions: 500000000 cycles: 1237791919 heartbeat IPC: 0.339053 cumulative IPC: 0.342053 (Simulation time: 0 hr 22 min 5 sec) 
Heartbeat CPU 0 instructions: 510000000 cycles: 1272055402 heartbeat IPC: 0.291856 cumulative IPC: 0.340624 (Simulation time: 0 hr 22 min 35 sec) 
Heartbeat CPU 0 instructions: 520000000 cycles: 1300345125 heartbeat IPC: 0.353485 cumulative IPC: 0.34092 (Simulation time: 0 hr 23 min 4 sec) 
Heartbeat CPU 0 instructions: 530000001 cycles: 1331153606 heartbeat IPC: 0.324586 cumulative IPC: 0.340521 (Simulation time: 0 hr 23 min 32 sec) 
Heartbeat CPU 0 instructions: 540000000 cycles: 1360117584 heartbeat IPC: 0.345256 cumulative IPC: 0.340627 (Simulation time: 0 hr 24 min 1 sec) 
Heartbeat CPU 0 instructions: 550000001 cycles: 1389671151 heartbeat IPC: 0.338369 cumulative IPC: 0.340577 (Simulation time: 0 hr 24 min 31 sec) 
Heartbeat CPU 0 instructions: 560000000 cycles: 1415389398 heartbeat IPC: 0.388829 cumulative IPC: 0.341498 (Simulation time: 0 hr 24 min 58 sec) 
Heartbeat CPU 0 instructions: 570000000 cycles: 1445969503 heartbeat IPC: 0.32701 cumulative IPC: 0.341176 (Simulation time: 0 hr 25 min 27 sec) 
Heartbeat CPU 0 instructions: 580000000 cycles: 1474651972 heartbeat IPC: 0.348645 cumulative IPC: 0.341329 (Simulation time: 0 hr 25 min 56 sec) 
Heartbeat CPU 0 instructions: 590000001 cycles: 1499670321 heartbeat IPC: 0.399707 cumulative IPC: 0.342349 (Simulation time: 0 hr 26 min 23 sec) 
Heartbeat CPU 0 instructions: 600000000 cycles: 1526372626 heartbeat IPC: 0.374499 cumulative IPC: 0.342938 (Simulation time: 0 hr 26 min 50 sec) 
Finished CPU 0 instructions: 500000000 cycles: 1457989265 cumulative IPC: 0.342938 (Simulation time: 0 hr 26 min 50 sec) 

CPU 0 Branch Prediction Accuracy: 86.4311% MPKI: 26.2662
Number of Branches: 96788573 Number of Mispredictions: 13133102
Number of LOAD Instructions: 164682285
Number of LOAD Instructions (ROI): 164682285
Number of STORE Instructions: 78194750
Number of STORE Instructions (ROI): 78194750
Total Destination Memory Operands: 83268534
Total Destination Memory Operands (ROI): 83268534
Total Source Memory Operands: 164712438
Total Source Memory Operands (ROI): 164712438
Number of DEPENDED LOADS: 7052370
Number of DEPENDED LOADS (ROI): 7052370
Number of SQ_ADDED: 83268522
Number of SQ_ADDED (ROI): 83268522
Number of LQ_ADDED: 236812586
Number of LQ_ADDED (ROI): 236812586
Number of Instructions read from trace: 600000066

ChampSim completed all CPUs

Region of Interest Statistics

CPU 0 cumulative IPC: 0.342938 instructions: 500000000 cycles: 1457989265
ITLB TOTAL     ACCESS:  100534110  HIT:  100329664  MISS:     204446
ITLB LOAD      ACCESS:  100534110  HIT:  100329664  MISS:     204446
ITLB RFO       ACCESS:          0  HIT:          0  MISS:          0
ITLB PREFETCH  ACCESS:          0  HIT:          0  MISS:          0
ITLB WRITEBACK ACCESS:          0  HIT:          0  MISS:          0
ITLB PREFETCH  REQUESTED:          0  ISSUED:          0  USEFUL:          0  USELESS:          0
ITLB TOTAL MSHR MERGED:     172423
ITLB LOAD MSHR MERGED:     172423
ITLB RFO MSHR MERGED:          0
ITLB PREFETCH MSHR MERGED:          0
ITLB WRITEBACK MSHR MERGED:          0
ITLB TOTAL ACCESSES:  100706533 HITS:  100329664 MISSES:     376869
ITLB LOAD ACCESSES:  100706533 HITS:  100329664 MISSES:     376869
ITLB RFO ACCESSES:          0 HITS:          0 MISSES:          0
ITLB PREFETCH ACCESSES:          0 HITS:          0 MISSES:          0
ITLB WRITEBACK ACCESSES:          0 HITS:          0 MISSES:          0
ITLB RQ ACCESS:  500000057
ITLB RQ TO_CACHE:  100706533
ITLB RQ MERGED:  399293524
ITLB RQ FORWARD:          0
ITLB WQ ACCESS:          0
ITLB WQ TO_CACHE:          0
ITLB WQ MERGED:          0
ITLB WQ FORWARD:          0
DTLB TOTAL     ACCESS:  165354786  HIT:  164720433  MISS:     634353
DTLB LOAD      ACCESS:  106305153  HIT:  105735228  MISS:     569925
DTLB RFO       ACCESS:   59049633  HIT:   58985205  MISS:      64428
DTLB PREFETCH  ACCESS:          0  HIT:          0  MISS:          0
DTLB WRITEBACK ACCESS:          0  HIT:          0  MISS:          0
DTLB PREFETCH  REQUESTED:          0  ISSUED:          0  USEFUL:          0  USELESS:          0
DTLB TOTAL MSHR MERGED:      99603
DTLB LOAD MSHR MERGED:      59228
DTLB RFO MSHR MERGED:      40375
DTLB PREFETCH MSHR MERGED:          0
DTLB WRITEBACK MSHR MERGED:          0
DTLB TOTAL ACCESSES:  165454389 HITS:  164720433 MISSES:     733956
DTLB LOAD ACCESSES:  106364381 HITS:  105735228 MISSES:     629153
DTLB RFO ACCESSES:   59090008 HITS:   58985205 MISSES:     104803
DTLB PREFETCH ACCESSES:          0 HITS:          0 MISSES:          0
DTLB WRITEBACK ACCESSES:          0 HITS:          0 MISSES:          0
DTLB RQ ACCESS:  200318492
DTLB RQ TO_CACHE:  165454389
DTLB RQ MERGED:   34864103
DTLB RQ FORWARD:          0
DTLB WQ ACCESS:          0
DTLB WQ TO_CACHE:          0
DTLB WQ MERGED:          0
DTLB WQ FORWARD:          0
L1D TOTAL     ACCESS:  281881252  HIT:  273971789  MISS:    7909463
L1D LOAD      ACCESS:  110438172  HIT:  107160304  MISS:    3277868
L1D RFO       ACCESS:   67127205  HIT:   66236882  MISS:     890323
L1D PREFETCH  ACCESS:  104315875  HIT:  100574603  MISS:    3741272
L1D WRITEBACK ACCESS:          0  HIT:          0  MISS:          0
L1D PREFETCH  REQUESTED:  110833776  ISSUED:  109134256  USEFUL:    1661864  USELESS:    2079372
L1D TOTAL MSHR MERGED:    2860694
L1D LOAD MSHR MERGED:     493242
L1D RFO MSHR MERGED:    1858190
L1D PREFETCH MSHR MERGED:     509262
L1D WRITEBACK MSHR MERGED:          0
L1D TOTAL ACCESSES:  284769304 HITS:  273999147 MISSES:   10770157
L1D LOAD ACCESSES:  110835231 HITS:  107161759 MISSES:    3673472
L1D RFO ACCESSES:   68973791 HITS:   66236882 MISSES:    2736909
L1D PREFETCH ACCESSES:  104960282 HITS:  100600506 MISSES:    4359776
L1D WRITEBACK ACCESSES:          0 HITS:          0 MISSES:          0
L1D RQ ACCESS:  130765889
L1D RQ TO_CACHE:  110833779
L1D RQ MERGED:   19930655
L1D RQ FORWARD:          0
L1D WQ ACCESS:   69552603
L1D WQ TO_CACHE:   68973792
L1D WQ MERGED:     578811
L1D WQ FORWARD:      27358
L1I TOTAL     ACCESS:  126579214  HIT:  122340682  MISS:    4238532
L1I LOAD      ACCESS:  126579214  HIT:  122340682  MISS:    4238532
L1I RFO       ACCESS:          0  HIT:          0  MISS:          0
L1I PREFETCH  ACCESS:          0  HIT:          0  MISS:          0
L1I WRITEBACK ACCESS:          0  HIT:          0  MISS:          0
L1I PREFETCH  REQUESTED:          0  ISSUED:          0  USEFUL:          0  USELESS:          0
L1I TOTAL MSHR MERGED:    1836875
L1I LOAD MSHR MERGED:    1836875
L1I RFO MSHR MERGED:          0
L1I PREFETCH MSHR MERGED:          0
L1I WRITEBACK MSHR MERGED:          0
L1I TOTAL ACCESSES:  128416092 HITS:  122340682 MISSES:    6075410
L1I LOAD ACCESSES:  128416092 HITS:  122340682 MISSES:    6075410
L1I RFO ACCESSES:          0 HITS:          0 MISSES:          0
L1I PREFETCH ACCESSES:          0 HITS:          0 MISSES:          0
L1I WRITEBACK ACCESSES:          0 HITS:          0 MISSES:          0
L1I RQ ACCESS:  500000057
L1I RQ TO_CACHE:  128416092
L1I RQ MERGED:  371583965
L1I RQ FORWARD:          0
L1I WQ ACCESS:          0
L1I WQ TO_CACHE:          0
L1I WQ MERGED:          0
L1I WQ FORWARD:          0
L2C TOTAL     ACCESS:   14905735  HIT:   11159208  MISS:    3746527
L2C LOAD      ACCESS:    7418552  HIT:    5098797  MISS:    2319755
L2C RFO       ACCESS:     878619  HIT:     409932  MISS:     468687
L2C PREFETCH  ACCESS:    4569303  HIT:    3628478  MISS:     940825
L2C WRITEBACK ACCESS:    2039261  HIT:    2022001  MISS:      17260
L2C PREFETCH  REQUESTED:     842833  ISSUED:     842833  USEFUL:     203569  USELESS:     736962
L2C TOTAL MSHR MERGED:       6711
L2C LOAD MSHR MERGED:        682
L2C RFO MSHR MERGED:          0
L2C PREFETCH MSHR MERGED:       6029
L2C WRITEBACK MSHR MERGED:          0
L2C TOTAL ACCESSES:   14913312 HITS:   11159658 MISSES:    3753654
L2C LOAD ACCESSES:    7418762 HITS:    5099007 MISSES:    2319755
L2C RFO ACCESSES:     878719 HITS:     410032 MISSES:     468687
L2C PREFETCH ACCESSES:    4576570 HITS:    3628618 MISSES:     947952
L2C WRITEBACK ACCESSES:    2039261 HITS:    2022001 MISSES:      17260
L2C RQ ACCESS:    8297484
L2C RQ TO_CACHE:    8297174
L2C RQ MERGED:          0
L2C RQ FORWARD:          0
L2C WQ ACCESS:    2039261
L2C WQ TO_CACHE:    2039261
L2C WQ MERGED:          0
L2C WQ FORWARD:        450
LLC TOTAL     ACCESS:    4609841  HIT:    3451408  MISS:    1158433
LLC LOAD      ACCESS:    2319058  HIT:    1585397  MISS:     733661
LLC RFO       ACCESS:     468680  HIT:     407382  MISS:      61298
LLC PREFETCH  ACCESS:     941806  HIT:     624009  MISS:     317797
LLC WRITEBACK ACCESS:     880297  HIT:     834620  MISS:      45677
LLC PREFETCH  REQUESTED:          0  ISSUED:          0  USEFUL:      35061  USELESS:     281543
LLC TOTAL MSHR MERGED:         89
LLC LOAD MSHR MERGED:         26
LLC RFO MSHR MERGED:          0
LLC PREFETCH MSHR MERGED:         63
LLC WRITEBACK MSHR MERGED:          0
LLC TOTAL ACCESSES:    4609965 HITS:    3451443 MISSES:    1158522
LLC LOAD ACCESSES:    2319073 HITS:    1585412 MISSES:     733661
LLC RFO ACCESSES:     468687 HITS:     407389 MISSES:      61298
LLC PREFETCH ACCESSES:     941908 HITS:     624022 MISSES:     317886
LLC WRITEBACK ACCESSES:     880297 HITS:     834620 MISSES:      45677
LLC 0 RQ ACCESS:    2787760
LLC 0 RQ TO_CACHE:    2787738
LLC 0 RQ MERGED:          0
LLC 0 RQ FORWARD:          0
LLC WQ ACCESS:     880297
LLC WQ TO_CACHE:     880297
LLC WQ MERGED:          0
LLC WQ FORWARD:         35
Major fault: 0 Minor fault: 12862
CPU 0 L1D next line prefetcher final stats
CPU 0 L2C PC-based stride prefetcher final stats
All Misses: 1313769
All Hits: 4113078
SD Algo Stats - Switches: 0 SRR-Repls: 801466 BRR-Repls: 0

DRAM Statistics
 CHANNEL 0
 RQ ROW_BUFFER_HIT:     320836  ROW_BUFFER_MISS:     789423
 DBUS_CONGESTED:     428861
 WQ ROW_BUFFER_HIT:       7518  ROW_BUFFER_MISS:     163825  FULL:          0

 AVG_CONGESTED_CYCLE: 13
LOADS RETIRED: 136549171
INSTR RETIRED: 500000000
