
*** ChampSim Multicore Out-of-Order Simulator ***

Warmup Instructions: 100000000
Simulation Instructions: 500000000
Number of CPUs: 1
LLC sets: 2048
LLC ways: 16
Clean RRIP Policies: 1213030112130301 Dirty RRIP Policies: 2203130122031301 PSEL Width: 10 Track Set: 4294967295 PSEL Mask: 1 Demote Mask: 3040201030402010DS Algo: 0Window size: 0
Off-chip DRAM Size: 4096 MB Channels: 1 Width: 64-bit Data Rate: 1600 MT/s

CPU 0 runs /mnt/beegfs/iconst01/spec2017/Lbm.trace.gz
NOT SORTED
TRACE STRING: /mnt/beegfs/iconst01/spec2017/Lbm.trace.gz
SORTED
TRACE STRING: /mnt/beegfs/iconst01/spec2017/Lbm.trace.gz
INITIAL
TRACE STRING: /mnt/beegfs/iconst01/spec2017/Lbm.trace.gz

champsim_seed used: 283

CPU 0 L1D next line prefetcher
CPU 0 L2C IP-based stride prefetcher
Initialize DRRIP state
Assign rand_sets[0]: 454  LLC: 2048
rand_sets[0]: 454
Assign rand_sets[1]: 1662  LLC: 2048
rand_sets[1]: 1662
Assign rand_sets[2]: 1921  LLC: 2048
rand_sets[2]: 1921
Assign rand_sets[3]: 1131  LLC: 2048
rand_sets[3]: 1131
Assign rand_sets[4]: 331  LLC: 2048
rand_sets[4]: 331
Assign rand_sets[5]: 1531  LLC: 2048
rand_sets[5]: 1531
Assign rand_sets[6]: 482  LLC: 2048
rand_sets[6]: 482
Assign rand_sets[7]: 1275  LLC: 2048
rand_sets[7]: 1275
Assign rand_sets[8]: 1876  LLC: 2048
rand_sets[8]: 1876
Assign rand_sets[9]: 2038  LLC: 2048
rand_sets[9]: 2038
Assign rand_sets[10]: 701  LLC: 2048
rand_sets[10]: 701
Assign rand_sets[11]: 479  LLC: 2048
rand_sets[11]: 479
Assign rand_sets[12]: 892  LLC: 2048
rand_sets[12]: 892
Assign rand_sets[13]: 1820  LLC: 2048
rand_sets[13]: 1820
Assign rand_sets[14]: 1505  LLC: 2048
rand_sets[14]: 1505
Assign rand_sets[15]: 1159  LLC: 2048
rand_sets[15]: 1159
Assign rand_sets[16]: 513  LLC: 2048
rand_sets[16]: 513
Assign rand_sets[17]: 703  LLC: 2048
rand_sets[17]: 703
Assign rand_sets[18]: 561  LLC: 2048
rand_sets[18]: 561
Assign rand_sets[19]: 990  LLC: 2048
rand_sets[19]: 990
Assign rand_sets[20]: 342  LLC: 2048
rand_sets[20]: 342
Assign rand_sets[21]: 882  LLC: 2048
rand_sets[21]: 882
Assign rand_sets[22]: 15  LLC: 2048
rand_sets[22]: 15
Assign rand_sets[23]: 71  LLC: 2048
rand_sets[23]: 71
Assign rand_sets[24]: 1127  LLC: 2048
rand_sets[24]: 1127
Assign rand_sets[25]: 1382  LLC: 2048
rand_sets[25]: 1382
Assign rand_sets[26]: 647  LLC: 2048
rand_sets[26]: 647
Assign rand_sets[27]: 857  LLC: 2048
rand_sets[27]: 857
Assign rand_sets[28]: 1450  LLC: 2048
rand_sets[28]: 1450
Assign rand_sets[29]: 1160  LLC: 2048
rand_sets[29]: 1160
Assign rand_sets[30]: 1852  LLC: 2048
rand_sets[30]: 1852
Assign rand_sets[31]: 1881  LLC: 2048
rand_sets[31]: 1881
Assign rand_sets[32]: 1770  LLC: 2048
rand_sets[32]: 1770
Assign rand_sets[33]: 1622  LLC: 2048
rand_sets[33]: 1622
Assign rand_sets[34]: 275  LLC: 2048
rand_sets[34]: 275
Assign rand_sets[35]: 635  LLC: 2048
rand_sets[35]: 635
Assign rand_sets[36]: 466  LLC: 2048
rand_sets[36]: 466
Assign rand_sets[37]: 1413  LLC: 2048
rand_sets[37]: 1413
Assign rand_sets[38]: 417  LLC: 2048
rand_sets[38]: 417
Assign rand_sets[39]: 472  LLC: 2048
rand_sets[39]: 472
Assign rand_sets[40]: 1340  LLC: 2048
rand_sets[40]: 1340
Assign rand_sets[41]: 852  LLC: 2048
rand_sets[41]: 852
Assign rand_sets[42]: 1365  LLC: 2048
rand_sets[42]: 1365
Assign rand_sets[43]: 47  LLC: 2048
rand_sets[43]: 47
Assign rand_sets[44]: 823  LLC: 2048
rand_sets[44]: 823
Assign rand_sets[45]: 686  LLC: 2048
rand_sets[45]: 686
Assign rand_sets[46]: 1637  LLC: 2048
rand_sets[46]: 1637
Assign rand_sets[47]: 1115  LLC: 2048
rand_sets[47]: 1115
Assign rand_sets[48]: 986  LLC: 2048
rand_sets[48]: 986
Assign rand_sets[49]: 258  LLC: 2048
rand_sets[49]: 258
Assign rand_sets[50]: 633  LLC: 2048
rand_sets[50]: 633
Assign rand_sets[51]: 920  LLC: 2048
rand_sets[51]: 920
Assign rand_sets[52]: 204  LLC: 2048
rand_sets[52]: 204
Assign rand_sets[53]: 227  LLC: 2048
rand_sets[53]: 227
Assign rand_sets[54]: 1818  LLC: 2048
rand_sets[54]: 1818
Assign rand_sets[55]: 886  LLC: 2048
rand_sets[55]: 886
Assign rand_sets[56]: 1422  LLC: 2048
rand_sets[56]: 1422
Assign rand_sets[57]: 607  LLC: 2048
rand_sets[57]: 607
Assign rand_sets[58]: 217  LLC: 2048
rand_sets[58]: 217
Assign rand_sets[59]: 1945  LLC: 2048
rand_sets[59]: 1945
Assign rand_sets[60]: 143  LLC: 2048
rand_sets[60]: 143
Assign rand_sets[61]: 1311  LLC: 2048
rand_sets[61]: 1311
Assign rand_sets[62]: 319  LLC: 2048
rand_sets[62]: 319
Assign rand_sets[63]: 1846  LLC: 2048
rand_sets[63]: 1846
 CLEAN-RRIP-POLICY-1: 1-2-1-3-0-3-0-1- CLEAN-RRIP-POLICY-2: 1-2-1-3-0-3-0-1-
 DIRTY-RRIP-POLICY-1: 2-2-0-3-1-3-0-1- DIRTY-RRIP-POLICY-2: 2-2-0-3-1-3-0-1-
 PSEL width: 10
Heartbeat CPU 0 instructions: 10000000 cycles: 4321591 heartbeat IPC: 2.31396 cumulative IPC: 2.31396 (Simulation time: 0 hr 0 min 18 sec) 
Heartbeat CPU 0 instructions: 20000000 cycles: 8643678 heartbeat IPC: 2.3137 cumulative IPC: 2.31383 (Simulation time: 0 hr 0 min 35 sec) 
Heartbeat CPU 0 instructions: 30000000 cycles: 12965481 heartbeat IPC: 2.31385 cumulative IPC: 2.31384 (Simulation time: 0 hr 0 min 53 sec) 
Heartbeat CPU 0 instructions: 40000000 cycles: 17291309 heartbeat IPC: 2.3117 cumulative IPC: 2.3133 (Simulation time: 0 hr 1 min 11 sec) 
Heartbeat CPU 0 instructions: 50000000 cycles: 21613188 heartbeat IPC: 2.31381 cumulative IPC: 2.3134 (Simulation time: 0 hr 1 min 29 sec) 
Heartbeat CPU 0 instructions: 60000000 cycles: 25935087 heartbeat IPC: 2.3138 cumulative IPC: 2.31347 (Simulation time: 0 hr 1 min 47 sec) 
Heartbeat CPU 0 instructions: 70000000 cycles: 30256664 heartbeat IPC: 2.31397 cumulative IPC: 2.31354 (Simulation time: 0 hr 2 min 5 sec) 
Heartbeat CPU 0 instructions: 80000000 cycles: 34582895 heartbeat IPC: 2.31148 cumulative IPC: 2.31328 (Simulation time: 0 hr 2 min 23 sec) 
Heartbeat CPU 0 instructions: 90000003 cycles: 38905036 heartbeat IPC: 2.31367 cumulative IPC: 2.31333 (Simulation time: 0 hr 2 min 41 sec) 
Heartbeat CPU 0 instructions: 100000000 cycles: 43226466 heartbeat IPC: 2.31405 cumulative IPC: 2.3134 (Simulation time: 0 hr 2 min 59 sec) 

Warmup complete CPU 0 instructions: 100000001 cycles: 43226467 (Simulation time: 0 hr 2 min 59 sec) 

Heartbeat CPU 0 instructions: 110000000 cycles: 57872688 heartbeat IPC: 0.68277 cumulative IPC: 0.68277 (Simulation time: 0 hr 3 min 26 sec) 
Heartbeat CPU 0 instructions: 120000000 cycles: 72313314 heartbeat IPC: 0.692491 cumulative IPC: 0.687596 (Simulation time: 0 hr 3 min 52 sec) 
Heartbeat CPU 0 instructions: 130000000 cycles: 86617919 heartbeat IPC: 0.699076 cumulative IPC: 0.69138 (Simulation time: 0 hr 4 min 18 sec) 
Heartbeat CPU 0 instructions: 140000000 cycles: 100729432 heartbeat IPC: 0.708641 cumulative IPC: 0.695616 (Simulation time: 0 hr 4 min 44 sec) 
Heartbeat CPU 0 instructions: 150000003 cycles: 114579153 heartbeat IPC: 0.722036 cumulative IPC: 0.700745 (Simulation time: 0 hr 5 min 10 sec) 
Heartbeat CPU 0 instructions: 160000000 cycles: 128504216 heartbeat IPC: 0.718129 cumulative IPC: 0.703583 (Simulation time: 0 hr 5 min 35 sec) 
Heartbeat CPU 0 instructions: 170000002 cycles: 143072394 heartbeat IPC: 0.686428 cumulative IPC: 0.70108 (Simulation time: 0 hr 6 min 2 sec) 
Heartbeat CPU 0 instructions: 180000000 cycles: 157306370 heartbeat IPC: 0.702544 cumulative IPC: 0.701263 (Simulation time: 0 hr 6 min 28 sec) 
Heartbeat CPU 0 instructions: 190000003 cycles: 174106381 heartbeat IPC: 0.595238 cumulative IPC: 0.687653 (Simulation time: 0 hr 6 min 56 sec) 
Heartbeat CPU 0 instructions: 200000000 cycles: 194460750 heartbeat IPC: 0.491295 cumulative IPC: 0.661226 (Simulation time: 0 hr 7 min 28 sec) 
Heartbeat CPU 0 instructions: 210000001 cycles: 208754393 heartbeat IPC: 0.699612 cumulative IPC: 0.66454 (Simulation time: 0 hr 7 min 55 sec) 
Heartbeat CPU 0 instructions: 220000000 cycles: 222710234 heartbeat IPC: 0.716546 cumulative IPC: 0.668584 (Simulation time: 0 hr 8 min 20 sec) 
Heartbeat CPU 0 instructions: 230000001 cycles: 236915845 heartbeat IPC: 0.703947 cumulative IPC: 0.671178 (Simulation time: 0 hr 8 min 46 sec) 
Heartbeat CPU 0 instructions: 240000000 cycles: 251424803 heartbeat IPC: 0.689229 cumulative IPC: 0.672436 (Simulation time: 0 hr 9 min 13 sec) 
Heartbeat CPU 0 instructions: 250000000 cycles: 266109730 heartbeat IPC: 0.68097 cumulative IPC: 0.672998 (Simulation time: 0 hr 9 min 39 sec) 
Heartbeat CPU 0 instructions: 260000000 cycles: 281128405 heartbeat IPC: 0.665838 cumulative IPC: 0.672546 (Simulation time: 0 hr 10 min 6 sec) 
Heartbeat CPU 0 instructions: 270000002 cycles: 296433542 heartbeat IPC: 0.653376 cumulative IPC: 0.671387 (Simulation time: 0 hr 10 min 33 sec) 
Heartbeat CPU 0 instructions: 280000000 cycles: 311305705 heartbeat IPC: 0.672397 cumulative IPC: 0.671443 (Simulation time: 0 hr 11 min 0 sec) 
Heartbeat CPU 0 instructions: 290000003 cycles: 327330531 heartbeat IPC: 0.624032 cumulative IPC: 0.668769 (Simulation time: 0 hr 11 min 27 sec) 
Heartbeat CPU 0 instructions: 300000000 cycles: 342498206 heartbeat IPC: 0.659297 cumulative IPC: 0.668289 (Simulation time: 0 hr 11 min 54 sec) 
Heartbeat CPU 0 instructions: 310000000 cycles: 358606430 heartbeat IPC: 0.620801 cumulative IPC: 0.665863 (Simulation time: 0 hr 12 min 22 sec) 
Heartbeat CPU 0 instructions: 320000000 cycles: 374467469 heartbeat IPC: 0.630476 cumulative IPC: 0.664169 (Simulation time: 0 hr 12 min 49 sec) 
Heartbeat CPU 0 instructions: 330000002 cycles: 389480940 heartbeat IPC: 0.666069 cumulative IPC: 0.664251 (Simulation time: 0 hr 13 min 15 sec) 
Heartbeat CPU 0 instructions: 340000000 cycles: 405615879 heartbeat IPC: 0.619773 cumulative IPC: 0.662271 (Simulation time: 0 hr 13 min 42 sec) 
Heartbeat CPU 0 instructions: 350000001 cycles: 420346719 heartbeat IPC: 0.678848 cumulative IPC: 0.662919 (Simulation time: 0 hr 14 min 8 sec) 
Heartbeat CPU 0 instructions: 360000000 cycles: 435905965 heartbeat IPC: 0.642705 cumulative IPC: 0.662118 (Simulation time: 0 hr 14 min 35 sec) 
Heartbeat CPU 0 instructions: 370000000 cycles: 450828598 heartbeat IPC: 0.670123 cumulative IPC: 0.662411 (Simulation time: 0 hr 15 min 1 sec) 
Heartbeat CPU 0 instructions: 380000000 cycles: 466034418 heartbeat IPC: 0.657643 cumulative IPC: 0.662239 (Simulation time: 0 hr 15 min 28 sec) 
Heartbeat CPU 0 instructions: 390000001 cycles: 480563660 heartbeat IPC: 0.688267 cumulative IPC: 0.663104 (Simulation time: 0 hr 15 min 53 sec) 
Heartbeat CPU 0 instructions: 400000000 cycles: 494903979 heartbeat IPC: 0.697334 cumulative IPC: 0.664191 (Simulation time: 0 hr 16 min 19 sec) 
Heartbeat CPU 0 instructions: 410000000 cycles: 508976040 heartbeat IPC: 0.710628 cumulative IPC: 0.665594 (Simulation time: 0 hr 16 min 44 sec) 
Heartbeat CPU 0 instructions: 420000000 cycles: 523337065 heartbeat IPC: 0.696329 cumulative IPC: 0.666513 (Simulation time: 0 hr 17 min 10 sec) 
Heartbeat CPU 0 instructions: 430000002 cycles: 537316460 heartbeat IPC: 0.715339 cumulative IPC: 0.667895 (Simulation time: 0 hr 17 min 35 sec) 
Heartbeat CPU 0 instructions: 440000000 cycles: 551258305 heartbeat IPC: 0.717265 cumulative IPC: 0.669249 (Simulation time: 0 hr 18 min 0 sec) 
Heartbeat CPU 0 instructions: 450000000 cycles: 565227814 heartbeat IPC: 0.715845 cumulative IPC: 0.670496 (Simulation time: 0 hr 18 min 25 sec) 
Heartbeat CPU 0 instructions: 460000000 cycles: 579939148 heartbeat IPC: 0.679748 cumulative IPC: 0.67075 (Simulation time: 0 hr 18 min 51 sec) 
Heartbeat CPU 0 instructions: 470000000 cycles: 594280052 heartbeat IPC: 0.697306 cumulative IPC: 0.671441 (Simulation time: 0 hr 19 min 16 sec) 
Heartbeat CPU 0 instructions: 480000000 cycles: 608299193 heartbeat IPC: 0.71331 cumulative IPC: 0.67248 (Simulation time: 0 hr 19 min 42 sec) 
Heartbeat CPU 0 instructions: 490000001 cycles: 622903424 heartbeat IPC: 0.684733 cumulative IPC: 0.672789 (Simulation time: 0 hr 20 min 7 sec) 
Heartbeat CPU 0 instructions: 500000000 cycles: 637324025 heartbeat IPC: 0.693452 cumulative IPC: 0.67329 (Simulation time: 0 hr 20 min 33 sec) 
Heartbeat CPU 0 instructions: 510000002 cycles: 651400653 heartbeat IPC: 0.710398 cumulative IPC: 0.674149 (Simulation time: 0 hr 20 min 58 sec) 
Heartbeat CPU 0 instructions: 520000000 cycles: 665425228 heartbeat IPC: 0.713034 cumulative IPC: 0.675025 (Simulation time: 0 hr 21 min 23 sec) 
Heartbeat CPU 0 instructions: 530000001 cycles: 679244725 heartbeat IPC: 0.723615 cumulative IPC: 0.676081 (Simulation time: 0 hr 21 min 48 sec) 
Heartbeat CPU 0 instructions: 540000000 cycles: 693731112 heartbeat IPC: 0.690303 cumulative IPC: 0.676398 (Simulation time: 0 hr 22 min 14 sec) 
Heartbeat CPU 0 instructions: 550000003 cycles: 707837684 heartbeat IPC: 0.70889 cumulative IPC: 0.677088 (Simulation time: 0 hr 22 min 39 sec) 
Heartbeat CPU 0 instructions: 560000000 cycles: 722461913 heartbeat IPC: 0.683797 cumulative IPC: 0.677232 (Simulation time: 0 hr 23 min 5 sec) 
Heartbeat CPU 0 instructions: 570000001 cycles: 736707670 heartbeat IPC: 0.701963 cumulative IPC: 0.67774 (Simulation time: 0 hr 23 min 30 sec) 
Heartbeat CPU 0 instructions: 580000000 cycles: 750516923 heartbeat IPC: 0.724152 cumulative IPC: 0.678646 (Simulation time: 0 hr 23 min 56 sec) 
Heartbeat CPU 0 instructions: 590000003 cycles: 763949954 heartbeat IPC: 0.744434 cumulative IPC: 0.679872 (Simulation time: 0 hr 24 min 20 sec) 
Heartbeat CPU 0 instructions: 600000000 cycles: 778020146 heartbeat IPC: 0.710722 cumulative IPC: 0.680463 (Simulation time: 0 hr 24 min 46 sec) 
Finished CPU 0 instructions: 500000000 cycles: 734793687 cumulative IPC: 0.680463 (Simulation time: 0 hr 24 min 46 sec) 

CPU 0 Branch Prediction Accuracy: 99.5915% MPKI: 0.037126
Number of Branches: 4544106 Number of Mispredictions: 18563
Number of LOAD Instructions: 149787067
Number of LOAD Instructions (ROI): 149787067
Number of STORE Instructions: 77239062
Number of STORE Instructions (ROI): 77239062
Total Destination Memory Operands: 77239062
Total Destination Memory Operands (ROI): 77239062
Total Source Memory Operands: 149787067
Total Source Memory Operands (ROI): 149787067
Number of DEPENDED LOADS: 19249249
Number of DEPENDED LOADS (ROI): 19249249
Number of SQ_ADDED: 77239036
Number of SQ_ADDED (ROI): 77239036
Number of LQ_ADDED: 149787020
Number of LQ_ADDED (ROI): 149787020
Number of Instructions read from trace: 600000256

ChampSim completed all CPUs

Region of Interest Statistics

CPU 0 cumulative IPC: 0.680463 instructions: 500000000 cycles: 734793687
ITLB TOTAL     ACCESS:   86451498  HIT:   86451497  MISS:          1
ITLB LOAD      ACCESS:   86451498  HIT:   86451497  MISS:          1
ITLB RFO       ACCESS:          0  HIT:          0  MISS:          0
ITLB PREFETCH  ACCESS:          0  HIT:          0  MISS:          0
ITLB WRITEBACK ACCESS:          0  HIT:          0  MISS:          0
ITLB PREFETCH  REQUESTED:          0  ISSUED:          0  USEFUL:          0  USELESS:          0
ITLB TOTAL MSHR MERGED:          1
ITLB LOAD MSHR MERGED:          1
ITLB RFO MSHR MERGED:          0
ITLB PREFETCH MSHR MERGED:          0
ITLB WRITEBACK MSHR MERGED:          0
ITLB TOTAL ACCESSES:   86451499 HITS:   86451497 MISSES:          2
ITLB LOAD ACCESSES:   86451499 HITS:   86451497 MISSES:          2
ITLB RFO ACCESSES:          0 HITS:          0 MISSES:          0
ITLB PREFETCH ACCESSES:          0 HITS:          0 MISSES:          0
ITLB WRITEBACK ACCESSES:          0 HITS:          0 MISSES:          0
ITLB RQ ACCESS:  500000002
ITLB RQ TO_CACHE:   86451499
ITLB RQ MERGED:  413548503
ITLB RQ FORWARD:          0
ITLB WQ ACCESS:          0
ITLB WQ TO_CACHE:          0
ITLB WQ MERGED:          0
ITLB WQ FORWARD:          0
DTLB TOTAL     ACCESS:   98103799  HIT:   97918538  MISS:     185261
DTLB LOAD      ACCESS:   55039268  HIT:   54992957  MISS:      46311
DTLB RFO       ACCESS:   43064531  HIT:   42925581  MISS:     138950
DTLB PREFETCH  ACCESS:          0  HIT:          0  MISS:          0
DTLB WRITEBACK ACCESS:          0  HIT:          0  MISS:          0
DTLB PREFETCH  REQUESTED:          0  ISSUED:          0  USEFUL:          0  USELESS:          0
DTLB TOTAL MSHR MERGED:      83541
DTLB LOAD MSHR MERGED:      83536
DTLB RFO MSHR MERGED:          5
DTLB PREFETCH MSHR MERGED:          0
DTLB WRITEBACK MSHR MERGED:          0
DTLB TOTAL ACCESSES:   98187340 HITS:   97918538 MISSES:     268802
DTLB LOAD ACCESSES:   55122804 HITS:   54992957 MISSES:     129847
DTLB RFO ACCESSES:   43064536 HITS:   42925581 MISSES:     138955
DTLB PREFETCH ACCESSES:          0 HITS:          0 MISSES:          0
DTLB WRITEBACK ACCESSES:          0 HITS:          0 MISSES:          0
DTLB RQ ACCESS:  173633278
DTLB RQ TO_CACHE:   98187340
DTLB RQ MERGED:   75445938
DTLB RQ FORWARD:          0
DTLB WQ ACCESS:          0
DTLB WQ TO_CACHE:          0
DTLB WQ MERGED:          0
DTLB WQ FORWARD:          0
L1D TOTAL     ACCESS:  164539424  HIT:  144966867  MISS:   19572557
L1D LOAD      ACCESS:   60515326  HIT:   58663017  MISS:    1852309
L1D RFO       ACCESS:   64513281  HIT:   47911153  MISS:   16602128
L1D PREFETCH  ACCESS:   39510817  HIT:   38392697  MISS:    1118120
L1D WRITEBACK ACCESS:          0  HIT:          0  MISS:          0
L1D PREFETCH  REQUESTED:   61685806  ISSUED:   61393838  USEFUL:    1116204  USELESS:       1917
L1D TOTAL MSHR MERGED:    3510526
L1D LOAD MSHR MERGED:    1241659
L1D RFO MSHR MERGED:      11540
L1D PREFETCH MSHR MERGED:    2257327
L1D WRITEBACK MSHR MERGED:          0
L1D TOTAL ACCESSES:  168624551 HITS:  145541468 MISSES:   23083083
L1D LOAD ACCESSES:   61953551 HITS:   58930762 MISSES:    3022789
L1D RFO ACCESSES:   64524785 HITS:   47911153 MISSES:   16613632
L1D PREFETCH ACCESSES:   42146215 HITS:   38699553 MISSES:    3446662
L1D WRITEBACK ACCESSES:          0 HITS:          0 MISSES:          0
L1D RQ ACCESS:  109091963
L1D RQ TO_CACHE:   61685806
L1D RQ MERGED:   47138412
L1D RQ FORWARD:          0
L1D WQ ACCESS:   64541313
L1D WQ TO_CACHE:   64524786
L1D WQ MERGED:      16527
L1D WQ FORWARD:     574601
L1I TOTAL     ACCESS:  107760599  HIT:  107760591  MISS:          8
L1I LOAD      ACCESS:  107760599  HIT:  107760591  MISS:          8
L1I RFO       ACCESS:          0  HIT:          0  MISS:          0
L1I PREFETCH  ACCESS:          0  HIT:          0  MISS:          0
L1I WRITEBACK ACCESS:          0  HIT:          0  MISS:          0
L1I PREFETCH  REQUESTED:          0  ISSUED:          0  USEFUL:          0  USELESS:          0
L1I TOTAL MSHR MERGED:          3
L1I LOAD MSHR MERGED:          3
L1I RFO MSHR MERGED:          0
L1I PREFETCH MSHR MERGED:          0
L1I WRITEBACK MSHR MERGED:          0
L1I TOTAL ACCESSES:  107760602 HITS:  107760591 MISSES:         11
L1I LOAD ACCESSES:  107760602 HITS:  107760591 MISSES:         11
L1I RFO ACCESSES:          0 HITS:          0 MISSES:          0
L1I PREFETCH ACCESSES:          0 HITS:          0 MISSES:          0
L1I WRITEBACK ACCESSES:          0 HITS:          0 MISSES:          0
L1I RQ ACCESS:  500000007
L1I RQ TO_CACHE:  107760602
L1I RQ MERGED:  392239405
L1I RQ FORWARD:          0
L1I WQ ACCESS:          0
L1I WQ TO_CACHE:          0
L1I WQ MERGED:          0
L1I WQ FORWARD:          0
L2C TOTAL     ACCESS:   36798904  HIT:   24841328  MISS:   11957576
L2C LOAD      ACCESS:    1781138  HIT:     252288  MISS:    1528850
L2C RFO       ACCESS:   16602086  HIT:    7610723  MISS:    8991363
L2C PREFETCH  ACCESS:    1813497  HIT:     377360  MISS:    1436137
L2C WRITEBACK ACCESS:   16602183  HIT:   16600957  MISS:       1226
L2C PREFETCH  REQUESTED:     815968  ISSUED:     815968  USEFUL:     249963  USELESS:    1186455
L2C TOTAL MSHR MERGED:       2690
L2C LOAD MSHR MERGED:        620
L2C RFO MSHR MERGED:          0
L2C PREFETCH MSHR MERGED:       2070
L2C WRITEBACK MSHR MERGED:          0
L2C TOTAL ACCESSES:   36990646 HITS:   24841335 MISSES:   12149311
L2C LOAD ACCESSES:    1781138 HITS:     252288 MISSES:    1528850
L2C RFO ACCESSES:   16602092 HITS:    7610730 MISSES:    8991362
L2C PREFETCH ACCESSES:    2005233 HITS:     377360 MISSES:    1627873
L2C WRITEBACK ACCESSES:   16602183 HITS:   16600957 MISSES:       1226
L2C RQ ACCESS:   18383230
L2C RQ TO_CACHE:   18383223
L2C RQ MERGED:          0
L2C RQ FORWARD:          0
L2C WQ ACCESS:   16602183
L2C WQ TO_CACHE:   16602183
L2C WQ MERGED:          0
L2C WQ FORWARD:          7
LLC TOTAL     ACCESS:   21134272  HIT:    1399293  MISS:   19734979
LLC LOAD      ACCESS:    1528230  HIT:      68405  MISS:    1459825
LLC RFO       ACCESS:    8991345  HIT:     535046  MISS:    8456299
LLC PREFETCH  ACCESS:    1622505  HIT:     117190  MISS:    1505315
LLC WRITEBACK ACCESS:    8992192  HIT:     678652  MISS:    8313540
LLC PREFETCH  REQUESTED:          0  ISSUED:          0  USEFUL:      68080  USELESS:    1437004
LLC TOTAL MSHR MERGED:       2874
LLC LOAD MSHR MERGED:        275
LLC RFO MSHR MERGED:          0
LLC PREFETCH MSHR MERGED:       2599
LLC WRITEBACK MSHR MERGED:          0
LLC TOTAL ACCESSES:   21137163 HITS:    1399311 MISSES:   19737852
LLC LOAD ACCESSES:    1528230 HITS:      68405 MISSES:    1459825
LLC RFO ACCESSES:    8991362 HITS:     535064 MISSES:    8456298
LLC PREFETCH ACCESSES:    1625379 HITS:     117190 MISSES:    1508189
LLC WRITEBACK ACCESSES:    8992192 HITS:     678652 MISSES:    8313540
LLC 0 RQ ACCESS:   10519592
LLC 0 RQ TO_CACHE:   10519574
LLC 0 RQ MERGED:          0
LLC 0 RQ FORWARD:          0
LLC WQ ACCESS:    8992192
LLC WQ TO_CACHE:    8992192
LLC WQ MERGED:          0
LLC WQ FORWARD:         18
Major fault: 0 Minor fault: 102360
CPU 0 L1D next line prefetcher final stats
CPU 0 L2C PC-based stride prefetcher final stats
All Misses: 23485736
All Hits: 1624047
SD Algo Stats - Switches: 0 SRR-Repls: 1638412 BRR-Repls: 0

DRAM Statistics
 CHANNEL 0
 RQ ROW_BUFFER_HIT:    3703082  ROW_BUFFER_MISS:    7716919
 DBUS_CONGESTED:   13681787
 WQ ROW_BUFFER_HIT:    1413260  ROW_BUFFER_MISS:    7075308  FULL:          0

 AVG_CONGESTED_CYCLE: 13
LOADS RETIRED: 124982196
INSTR RETIRED: 500000000
