
*** ChampSim Multicore Out-of-Order Simulator ***

Warmup Instructions: 100000000
Simulation Instructions: 500000000
Number of CPUs: 1
LLC sets: 2048
LLC ways: 16
Clean RRIP Policies: 22000100220001 Dirty RRIP Policies: 12100100121001 PSEL Width: 10 Track Set: 4294967295 PSEL Mask: 1 Demote Mask: 3411313434113134DS Algo: 0Window size: 0
Off-chip DRAM Size: 4096 MB Channels: 1 Width: 64-bit Data Rate: 1600 MT/s

CPU 0 runs /mnt/beegfs/iconst01/spec2017/Gcc.trace.gz
NOT SORTED
TRACE STRING: /mnt/beegfs/iconst01/spec2017/Gcc.trace.gz
SORTED
TRACE STRING: /mnt/beegfs/iconst01/spec2017/Gcc.trace.gz
INITIAL
TRACE STRING: /mnt/beegfs/iconst01/spec2017/Gcc.trace.gz

champsim_seed used: 269

CPU 0 L1D next line prefetcher
CPU 0 L2C IP-based stride prefetcher
Initialize DRRIP state
Assign rand_sets[0]: 454  LLC: 2048
rand_sets[0]: 454
Assign rand_sets[1]: 1662  LLC: 2048
rand_sets[1]: 1662
Assign rand_sets[2]: 1921  LLC: 2048
rand_sets[2]: 1921
Assign rand_sets[3]: 1131  LLC: 2048
rand_sets[3]: 1131
Assign rand_sets[4]: 331  LLC: 2048
rand_sets[4]: 331
Assign rand_sets[5]: 1531  LLC: 2048
rand_sets[5]: 1531
Assign rand_sets[6]: 482  LLC: 2048
rand_sets[6]: 482
Assign rand_sets[7]: 1275  LLC: 2048
rand_sets[7]: 1275
Assign rand_sets[8]: 1876  LLC: 2048
rand_sets[8]: 1876
Assign rand_sets[9]: 2038  LLC: 2048
rand_sets[9]: 2038
Assign rand_sets[10]: 701  LLC: 2048
rand_sets[10]: 701
Assign rand_sets[11]: 479  LLC: 2048
rand_sets[11]: 479
Assign rand_sets[12]: 892  LLC: 2048
rand_sets[12]: 892
Assign rand_sets[13]: 1820  LLC: 2048
rand_sets[13]: 1820
Assign rand_sets[14]: 1505  LLC: 2048
rand_sets[14]: 1505
Assign rand_sets[15]: 1159  LLC: 2048
rand_sets[15]: 1159
Assign rand_sets[16]: 513  LLC: 2048
rand_sets[16]: 513
Assign rand_sets[17]: 703  LLC: 2048
rand_sets[17]: 703
Assign rand_sets[18]: 561  LLC: 2048
rand_sets[18]: 561
Assign rand_sets[19]: 990  LLC: 2048
rand_sets[19]: 990
Assign rand_sets[20]: 342  LLC: 2048
rand_sets[20]: 342
Assign rand_sets[21]: 882  LLC: 2048
rand_sets[21]: 882
Assign rand_sets[22]: 15  LLC: 2048
rand_sets[22]: 15
Assign rand_sets[23]: 71  LLC: 2048
rand_sets[23]: 71
Assign rand_sets[24]: 1127  LLC: 2048
rand_sets[24]: 1127
Assign rand_sets[25]: 1382  LLC: 2048
rand_sets[25]: 1382
Assign rand_sets[26]: 647  LLC: 2048
rand_sets[26]: 647
Assign rand_sets[27]: 857  LLC: 2048
rand_sets[27]: 857
Assign rand_sets[28]: 1450  LLC: 2048
rand_sets[28]: 1450
Assign rand_sets[29]: 1160  LLC: 2048
rand_sets[29]: 1160
Assign rand_sets[30]: 1852  LLC: 2048
rand_sets[30]: 1852
Assign rand_sets[31]: 1881  LLC: 2048
rand_sets[31]: 1881
Assign rand_sets[32]: 1770  LLC: 2048
rand_sets[32]: 1770
Assign rand_sets[33]: 1622  LLC: 2048
rand_sets[33]: 1622
Assign rand_sets[34]: 275  LLC: 2048
rand_sets[34]: 275
Assign rand_sets[35]: 635  LLC: 2048
rand_sets[35]: 635
Assign rand_sets[36]: 466  LLC: 2048
rand_sets[36]: 466
Assign rand_sets[37]: 1413  LLC: 2048
rand_sets[37]: 1413
Assign rand_sets[38]: 417  LLC: 2048
rand_sets[38]: 417
Assign rand_sets[39]: 472  LLC: 2048
rand_sets[39]: 472
Assign rand_sets[40]: 1340  LLC: 2048
rand_sets[40]: 1340
Assign rand_sets[41]: 852  LLC: 2048
rand_sets[41]: 852
Assign rand_sets[42]: 1365  LLC: 2048
rand_sets[42]: 1365
Assign rand_sets[43]: 47  LLC: 2048
rand_sets[43]: 47
Assign rand_sets[44]: 823  LLC: 2048
rand_sets[44]: 823
Assign rand_sets[45]: 686  LLC: 2048
rand_sets[45]: 686
Assign rand_sets[46]: 1637  LLC: 2048
rand_sets[46]: 1637
Assign rand_sets[47]: 1115  LLC: 2048
rand_sets[47]: 1115
Assign rand_sets[48]: 986  LLC: 2048
rand_sets[48]: 986
Assign rand_sets[49]: 258  LLC: 2048
rand_sets[49]: 258
Assign rand_sets[50]: 633  LLC: 2048
rand_sets[50]: 633
Assign rand_sets[51]: 920  LLC: 2048
rand_sets[51]: 920
Assign rand_sets[52]: 204  LLC: 2048
rand_sets[52]: 204
Assign rand_sets[53]: 227  LLC: 2048
rand_sets[53]: 227
Assign rand_sets[54]: 1818  LLC: 2048
rand_sets[54]: 1818
Assign rand_sets[55]: 886  LLC: 2048
rand_sets[55]: 886
Assign rand_sets[56]: 1422  LLC: 2048
rand_sets[56]: 1422
Assign rand_sets[57]: 607  LLC: 2048
rand_sets[57]: 607
Assign rand_sets[58]: 217  LLC: 2048
rand_sets[58]: 217
Assign rand_sets[59]: 1945  LLC: 2048
rand_sets[59]: 1945
Assign rand_sets[60]: 143  LLC: 2048
rand_sets[60]: 143
Assign rand_sets[61]: 1311  LLC: 2048
rand_sets[61]: 1311
Assign rand_sets[62]: 319  LLC: 2048
rand_sets[62]: 319
Assign rand_sets[63]: 1846  LLC: 2048
rand_sets[63]: 1846
 CLEAN-RRIP-POLICY-1: 0-0-2-2-0-0-0-1- CLEAN-RRIP-POLICY-2: 0-0-2-2-0-0-0-1-
 DIRTY-RRIP-POLICY-1: 0-0-1-2-1-0-0-1- DIRTY-RRIP-POLICY-2: 0-0-1-2-1-0-0-1-
 PSEL width: 10
Heartbeat CPU 0 instructions: 10000001 cycles: 7315908 heartbeat IPC: 1.36688 cumulative IPC: 1.36688 (Simulation time: 0 hr 0 min 15 sec) 
Heartbeat CPU 0 instructions: 20000000 cycles: 14307627 heartbeat IPC: 1.43026 cumulative IPC: 1.39786 (Simulation time: 0 hr 0 min 30 sec) 
Heartbeat CPU 0 instructions: 30000001 cycles: 21020830 heartbeat IPC: 1.4896 cumulative IPC: 1.42716 (Simulation time: 0 hr 0 min 46 sec) 
Heartbeat CPU 0 instructions: 40000000 cycles: 27481687 heartbeat IPC: 1.54778 cumulative IPC: 1.45551 (Simulation time: 0 hr 1 min 2 sec) 
Heartbeat CPU 0 instructions: 50000001 cycles: 33583490 heartbeat IPC: 1.63886 cumulative IPC: 1.48883 (Simulation time: 0 hr 1 min 18 sec) 
Heartbeat CPU 0 instructions: 60000000 cycles: 40064783 heartbeat IPC: 1.5429 cumulative IPC: 1.49757 (Simulation time: 0 hr 1 min 34 sec) 
Heartbeat CPU 0 instructions: 70000000 cycles: 47105245 heartbeat IPC: 1.42036 cumulative IPC: 1.48603 (Simulation time: 0 hr 1 min 49 sec) 
Heartbeat CPU 0 instructions: 80000000 cycles: 54196024 heartbeat IPC: 1.41028 cumulative IPC: 1.47612 (Simulation time: 0 hr 2 min 3 sec) 
Heartbeat CPU 0 instructions: 90000003 cycles: 61201099 heartbeat IPC: 1.42754 cumulative IPC: 1.47056 (Simulation time: 0 hr 2 min 18 sec) 
Heartbeat CPU 0 instructions: 100000000 cycles: 68369093 heartbeat IPC: 1.39509 cumulative IPC: 1.46265 (Simulation time: 0 hr 2 min 33 sec) 

Warmup complete CPU 0 instructions: 100000004 cycles: 68369094 (Simulation time: 0 hr 2 min 33 sec) 

Heartbeat CPU 0 instructions: 110000003 cycles: 96093341 heartbeat IPC: 0.360695 cumulative IPC: 0.360695 (Simulation time: 0 hr 3 min 1 sec) 
Heartbeat CPU 0 instructions: 120000000 cycles: 123582713 heartbeat IPC: 0.363777 cumulative IPC: 0.362229 (Simulation time: 0 hr 3 min 30 sec) 
Heartbeat CPU 0 instructions: 130000000 cycles: 148589772 heartbeat IPC: 0.399887 cumulative IPC: 0.373968 (Simulation time: 0 hr 3 min 59 sec) 
Heartbeat CPU 0 instructions: 140000000 cycles: 178355145 heartbeat IPC: 0.335961 cumulative IPC: 0.363682 (Simulation time: 0 hr 4 min 27 sec) 
Heartbeat CPU 0 instructions: 150000000 cycles: 208326985 heartbeat IPC: 0.333647 cumulative IPC: 0.35725 (Simulation time: 0 hr 4 min 56 sec) 
Heartbeat CPU 0 instructions: 160000000 cycles: 235783438 heartbeat IPC: 0.364213 cumulative IPC: 0.358392 (Simulation time: 0 hr 5 min 24 sec) 
Heartbeat CPU 0 instructions: 170000001 cycles: 263852740 heartbeat IPC: 0.356261 cumulative IPC: 0.358086 (Simulation time: 0 hr 5 min 54 sec) 
Heartbeat CPU 0 instructions: 180000000 cycles: 292392325 heartbeat IPC: 0.35039 cumulative IPC: 0.357106 (Simulation time: 0 hr 6 min 23 sec) 
Heartbeat CPU 0 instructions: 190000002 cycles: 320531519 heartbeat IPC: 0.355376 cumulative IPC: 0.356913 (Simulation time: 0 hr 6 min 52 sec) 
Heartbeat CPU 0 instructions: 200000000 cycles: 348977581 heartbeat IPC: 0.351542 cumulative IPC: 0.356368 (Simulation time: 0 hr 7 min 21 sec) 
Heartbeat CPU 0 instructions: 210000002 cycles: 376944089 heartbeat IPC: 0.357571 cumulative IPC: 0.356477 (Simulation time: 0 hr 7 min 50 sec) 
Heartbeat CPU 0 instructions: 220000000 cycles: 406301024 heartbeat IPC: 0.340635 cumulative IPC: 0.355101 (Simulation time: 0 hr 8 min 18 sec) 
Heartbeat CPU 0 instructions: 230000000 cycles: 433905523 heartbeat IPC: 0.36226 cumulative IPC: 0.355642 (Simulation time: 0 hr 8 min 46 sec) 
Heartbeat CPU 0 instructions: 240000000 cycles: 459899635 heartbeat IPC: 0.384703 cumulative IPC: 0.357571 (Simulation time: 0 hr 9 min 14 sec) 
Heartbeat CPU 0 instructions: 250000000 cycles: 490092266 heartbeat IPC: 0.331207 cumulative IPC: 0.355684 (Simulation time: 0 hr 9 min 44 sec) 
Heartbeat CPU 0 instructions: 260000000 cycles: 517215493 heartbeat IPC: 0.368688 cumulative IPC: 0.356469 (Simulation time: 0 hr 10 min 12 sec) 
Heartbeat CPU 0 instructions: 270000003 cycles: 545716624 heartbeat IPC: 0.350863 cumulative IPC: 0.356135 (Simulation time: 0 hr 10 min 42 sec) 
Heartbeat CPU 0 instructions: 280000000 cycles: 574057307 heartbeat IPC: 0.35285 cumulative IPC: 0.355951 (Simulation time: 0 hr 11 min 12 sec) 
Heartbeat CPU 0 instructions: 290000000 cycles: 603084477 heartbeat IPC: 0.344505 cumulative IPC: 0.355329 (Simulation time: 0 hr 11 min 42 sec) 
Heartbeat CPU 0 instructions: 300000000 cycles: 633393829 heartbeat IPC: 0.329931 cumulative IPC: 0.353967 (Simulation time: 0 hr 12 min 10 sec) 
Heartbeat CPU 0 instructions: 310000001 cycles: 662942111 heartbeat IPC: 0.338429 cumulative IPC: 0.353195 (Simulation time: 0 hr 12 min 39 sec) 
Heartbeat CPU 0 instructions: 320000000 cycles: 691305429 heartbeat IPC: 0.352568 cumulative IPC: 0.353166 (Simulation time: 0 hr 13 min 7 sec) 
Heartbeat CPU 0 instructions: 330000000 cycles: 720052845 heartbeat IPC: 0.347857 cumulative IPC: 0.352932 (Simulation time: 0 hr 13 min 36 sec) 
Heartbeat CPU 0 instructions: 340000000 cycles: 749430534 heartbeat IPC: 0.340394 cumulative IPC: 0.352391 (Simulation time: 0 hr 14 min 5 sec) 
Heartbeat CPU 0 instructions: 350000003 cycles: 776554250 heartbeat IPC: 0.368681 cumulative IPC: 0.353015 (Simulation time: 0 hr 14 min 33 sec) 
Heartbeat CPU 0 instructions: 360000000 cycles: 804845059 heartbeat IPC: 0.353472 cumulative IPC: 0.353033 (Simulation time: 0 hr 15 min 1 sec) 
Heartbeat CPU 0 instructions: 370000000 cycles: 833116037 heartbeat IPC: 0.35372 cumulative IPC: 0.353058 (Simulation time: 0 hr 15 min 28 sec) 
Heartbeat CPU 0 instructions: 380000000 cycles: 861709403 heartbeat IPC: 0.349731 cumulative IPC: 0.352938 (Simulation time: 0 hr 15 min 56 sec) 
Heartbeat CPU 0 instructions: 390000001 cycles: 889384641 heartbeat IPC: 0.361334 cumulative IPC: 0.353221 (Simulation time: 0 hr 16 min 23 sec) 
Heartbeat CPU 0 instructions: 400000000 cycles: 918089534 heartbeat IPC: 0.348373 cumulative IPC: 0.353057 (Simulation time: 0 hr 16 min 50 sec) 
Heartbeat CPU 0 instructions: 410000001 cycles: 945456561 heartbeat IPC: 0.365403 cumulative IPC: 0.353443 (Simulation time: 0 hr 17 min 18 sec) 
Heartbeat CPU 0 instructions: 420000000 cycles: 972823096 heartbeat IPC: 0.36541 cumulative IPC: 0.353805 (Simulation time: 0 hr 17 min 45 sec) 
Heartbeat CPU 0 instructions: 430000002 cycles: 1000608410 heartbeat IPC: 0.359902 cumulative IPC: 0.353986 (Simulation time: 0 hr 18 min 12 sec) 
Heartbeat CPU 0 instructions: 440000000 cycles: 1030332244 heartbeat IPC: 0.33643 cumulative IPC: 0.353444 (Simulation time: 0 hr 18 min 40 sec) 
Heartbeat CPU 0 instructions: 450000002 cycles: 1059656186 heartbeat IPC: 0.341018 cumulative IPC: 0.353076 (Simulation time: 0 hr 19 min 8 sec) 
Heartbeat CPU 0 instructions: 460000000 cycles: 1087422689 heartbeat IPC: 0.360146 cumulative IPC: 0.353269 (Simulation time: 0 hr 19 min 35 sec) 
Heartbeat CPU 0 instructions: 470000000 cycles: 1115102706 heartbeat IPC: 0.361271 cumulative IPC: 0.353481 (Simulation time: 0 hr 20 min 2 sec) 
Heartbeat CPU 0 instructions: 480000000 cycles: 1143034564 heartbeat IPC: 0.358014 cumulative IPC: 0.353598 (Simulation time: 0 hr 20 min 30 sec) 
Heartbeat CPU 0 instructions: 490000000 cycles: 1170670999 heartbeat IPC: 0.361841 cumulative IPC: 0.353805 (Simulation time: 0 hr 20 min 57 sec) 
Heartbeat CPU 0 instructions: 500000000 cycles: 1199038556 heartbeat IPC: 0.352515 cumulative IPC: 0.353773 (Simulation time: 0 hr 21 min 25 sec) 
Heartbeat CPU 0 instructions: 510000000 cycles: 1233270017 heartbeat IPC: 0.292129 cumulative IPC: 0.351961 (Simulation time: 0 hr 21 min 56 sec) 
Heartbeat CPU 0 instructions: 520000000 cycles: 1261332269 heartbeat IPC: 0.356351 cumulative IPC: 0.352065 (Simulation time: 0 hr 22 min 24 sec) 
Heartbeat CPU 0 instructions: 530000001 cycles: 1291076837 heartbeat IPC: 0.336196 cumulative IPC: 0.351678 (Simulation time: 0 hr 22 min 53 sec) 
Heartbeat CPU 0 instructions: 540000000 cycles: 1319276971 heartbeat IPC: 0.354608 cumulative IPC: 0.351745 (Simulation time: 0 hr 23 min 21 sec) 
Heartbeat CPU 0 instructions: 550000001 cycles: 1348520441 heartbeat IPC: 0.341957 cumulative IPC: 0.351521 (Simulation time: 0 hr 23 min 51 sec) 
Heartbeat CPU 0 instructions: 560000000 cycles: 1373952872 heartbeat IPC: 0.393199 cumulative IPC: 0.352333 (Simulation time: 0 hr 24 min 18 sec) 
Heartbeat CPU 0 instructions: 570000000 cycles: 1403695651 heartbeat IPC: 0.336216 cumulative IPC: 0.351974 (Simulation time: 0 hr 24 min 47 sec) 
Heartbeat CPU 0 instructions: 580000000 cycles: 1431831790 heartbeat IPC: 0.355415 cumulative IPC: 0.352045 (Simulation time: 0 hr 25 min 15 sec) 
Heartbeat CPU 0 instructions: 590000001 cycles: 1456615205 heartbeat IPC: 0.403496 cumulative IPC: 0.352963 (Simulation time: 0 hr 25 min 42 sec) 
Heartbeat CPU 0 instructions: 600000000 cycles: 1482788485 heartbeat IPC: 0.382069 cumulative IPC: 0.353502 (Simulation time: 0 hr 26 min 9 sec) 
Finished CPU 0 instructions: 500000000 cycles: 1414419413 cumulative IPC: 0.353502 (Simulation time: 0 hr 26 min 9 sec) 

CPU 0 Branch Prediction Accuracy: 86.4311% MPKI: 26.2662
Number of Branches: 96788573 Number of Mispredictions: 13133102
Number of LOAD Instructions: 164682285
Number of LOAD Instructions (ROI): 164682285
Number of STORE Instructions: 78194750
Number of STORE Instructions (ROI): 78194750
Total Destination Memory Operands: 83268534
Total Destination Memory Operands (ROI): 83268534
Total Source Memory Operands: 164712438
Total Source Memory Operands (ROI): 164712438
Number of DEPENDED LOADS: 7055995
Number of DEPENDED LOADS (ROI): 7055995
Number of SQ_ADDED: 83268522
Number of SQ_ADDED (ROI): 83268522
Number of LQ_ADDED: 236759856
Number of LQ_ADDED (ROI): 236759856
Number of Instructions read from trace: 600000066

ChampSim completed all CPUs

Region of Interest Statistics

CPU 0 cumulative IPC: 0.353502 instructions: 500000000 cycles: 1414419413
ITLB TOTAL     ACCESS:  100525672  HIT:  100321226  MISS:     204446
ITLB LOAD      ACCESS:  100525672  HIT:  100321226  MISS:     204446
ITLB RFO       ACCESS:          0  HIT:          0  MISS:          0
ITLB PREFETCH  ACCESS:          0  HIT:          0  MISS:          0
ITLB WRITEBACK ACCESS:          0  HIT:          0  MISS:          0
ITLB PREFETCH  REQUESTED:          0  ISSUED:          0  USEFUL:          0  USELESS:          0
ITLB TOTAL MSHR MERGED:     172422
ITLB LOAD MSHR MERGED:     172422
ITLB RFO MSHR MERGED:          0
ITLB PREFETCH MSHR MERGED:          0
ITLB WRITEBACK MSHR MERGED:          0
ITLB TOTAL ACCESSES:  100698094 HITS:  100321226 MISSES:     376868
ITLB LOAD ACCESSES:  100698094 HITS:  100321226 MISSES:     376868
ITLB RFO ACCESSES:          0 HITS:          0 MISSES:          0
ITLB PREFETCH ACCESSES:          0 HITS:          0 MISSES:          0
ITLB WRITEBACK ACCESSES:          0 HITS:          0 MISSES:          0
ITLB RQ ACCESS:  500000057
ITLB RQ TO_CACHE:  100698094
ITLB RQ MERGED:  399301963
ITLB RQ FORWARD:          0
ITLB WQ ACCESS:          0
ITLB WQ TO_CACHE:          0
ITLB WQ MERGED:          0
ITLB WQ FORWARD:          0
DTLB TOTAL     ACCESS:  165341062  HIT:  164706709  MISS:     634353
DTLB LOAD      ACCESS:  106295425  HIT:  105725512  MISS:     569913
DTLB RFO       ACCESS:   59045637  HIT:   58981197  MISS:      64440
DTLB PREFETCH  ACCESS:          0  HIT:          0  MISS:          0
DTLB WRITEBACK ACCESS:          0  HIT:          0  MISS:          0
DTLB PREFETCH  REQUESTED:          0  ISSUED:          0  USEFUL:          0  USELESS:          0
DTLB TOTAL MSHR MERGED:      99899
DTLB LOAD MSHR MERGED:      59377
DTLB RFO MSHR MERGED:      40522
DTLB PREFETCH MSHR MERGED:          0
DTLB WRITEBACK MSHR MERGED:          0
DTLB TOTAL ACCESSES:  165440961 HITS:  164706709 MISSES:     734252
DTLB LOAD ACCESSES:  106354802 HITS:  105725512 MISSES:     629290
DTLB RFO ACCESSES:   59086159 HITS:   58981197 MISSES:     104962
DTLB PREFETCH ACCESSES:          0 HITS:          0 MISSES:          0
DTLB WRITEBACK ACCESSES:          0 HITS:          0 MISSES:          0
DTLB RQ ACCESS:  200314930
DTLB RQ TO_CACHE:  165440961
DTLB RQ MERGED:   34873969
DTLB RQ FORWARD:          0
DTLB WQ ACCESS:          0
DTLB WQ TO_CACHE:          0
DTLB WQ MERGED:          0
DTLB WQ FORWARD:          0
L1D TOTAL     ACCESS:  281816767  HIT:  273907512  MISS:    7909255
L1D LOAD      ACCESS:  110415846  HIT:  107133054  MISS:    3282792
L1D RFO       ACCESS:   67133798  HIT:   66243870  MISS:     889928
L1D PREFETCH  ACCESS:  104267123  HIT:  100530588  MISS:    3736535
L1D WRITEBACK ACCESS:          0  HIT:          0  MISS:          0
L1D PREFETCH  REQUESTED:  110822281  ISSUED:  109122984  USEFUL:    1657164  USELESS:    2079335
L1D TOTAL MSHR MERGED:    2898141
L1D LOAD MSHR MERGED:     508791
L1D RFO MSHR MERGED:    1851393
L1D PREFETCH MSHR MERGED:     537957
L1D WRITEBACK MSHR MERGED:          0
L1D TOTAL ACCESSES:  284742312 HITS:  273934916 MISSES:   10807396
L1D LOAD ACCESSES:  110823703 HITS:  107134476 MISSES:    3689227
L1D RFO ACCESSES:   68974043 HITS:   66243870 MISSES:    2730173
L1D PREFETCH ACCESSES:  104944566 HITS:  100556570 MISSES:    4387996
L1D WRITEBACK ACCESSES:          0 HITS:          0 MISSES:          0
L1D RQ ACCESS:  130762327
L1D RQ TO_CACHE:  110822284
L1D RQ MERGED:   19938621
L1D RQ FORWARD:          0
L1D WQ ACCESS:   69552603
L1D WQ TO_CACHE:   68974044
L1D WQ MERGED:     578559
L1D WQ FORWARD:      27404
L1I TOTAL     ACCESS:  126572424  HIT:  122333871  MISS:    4238553
L1I LOAD      ACCESS:  126572424  HIT:  122333871  MISS:    4238553
L1I RFO       ACCESS:          0  HIT:          0  MISS:          0
L1I PREFETCH  ACCESS:          0  HIT:          0  MISS:          0
L1I WRITEBACK ACCESS:          0  HIT:          0  MISS:          0
L1I PREFETCH  REQUESTED:          0  ISSUED:          0  USEFUL:          0  USELESS:          0
L1I TOTAL MSHR MERGED:    1834938
L1I LOAD MSHR MERGED:    1834938
L1I RFO MSHR MERGED:          0
L1I PREFETCH MSHR MERGED:          0
L1I WRITEBACK MSHR MERGED:          0
L1I TOTAL ACCESSES:  128407365 HITS:  122333871 MISSES:    6073494
L1I LOAD ACCESSES:  128407365 HITS:  122333871 MISSES:    6073494
L1I RFO ACCESSES:          0 HITS:          0 MISSES:          0
L1I PREFETCH ACCESSES:          0 HITS:          0 MISSES:          0
L1I WRITEBACK ACCESSES:          0 HITS:          0 MISSES:          0
L1I RQ ACCESS:  500000057
L1I RQ TO_CACHE:  128407365
L1I RQ MERGED:  371592692
L1I RQ FORWARD:          0
L1I WQ ACCESS:          0
L1I WQ TO_CACHE:          0
L1I WQ MERGED:          0
L1I WQ FORWARD:          0
L2C TOTAL     ACCESS:   14905185  HIT:   11158697  MISS:    3746488
L2C LOAD      ACCESS:    7418781  HIT:    5098853  MISS:    2319928
L2C RFO       ACCESS:     878683  HIT:     409888  MISS:     468795
L2C PREFETCH  ACCESS:    4568484  HIT:    3627982  MISS:     940502
L2C WRITEBACK ACCESS:    2039237  HIT:    2021974  MISS:      17263
L2C PREFETCH  REQUESTED:     842781  ISSUED:     842781  USEFUL:     203426  USELESS:     736782
L2C TOTAL MSHR MERGED:       7059
L2C LOAD MSHR MERGED:        728
L2C RFO MSHR MERGED:          0
L2C PREFETCH MSHR MERGED:       6331
L2C WRITEBACK MSHR MERGED:          0
L2C TOTAL ACCESSES:   14913100 HITS:   11159145 MISSES:    3753955
L2C LOAD ACCESSES:    7418989 HITS:    5099061 MISSES:    2319928
L2C RFO ACCESSES:     878780 HITS:     409985 MISSES:     468795
L2C PREFETCH ACCESSES:    4576094 HITS:    3628125 MISSES:     947969
L2C WRITEBACK ACCESSES:    2039237 HITS:    2021974 MISSES:      17263
L2C RQ ACCESS:    8297772
L2C RQ TO_CACHE:    8297467
L2C RQ MERGED:          0
L2C RQ FORWARD:          0
L2C WQ ACCESS:    2039237
L2C WQ TO_CACHE:    2039237
L2C WQ MERGED:          0
L2C WQ FORWARD:        448
LLC TOTAL     ACCESS:    4609790  HIT:    3865575  MISS:     744215
LLC LOAD      ACCESS:    2319185  HIT:    2033262  MISS:     285923
LLC RFO       ACCESS:     468785  HIT:     425496  MISS:      43289
LLC PREFETCH  ACCESS:     941527  HIT:     557915  MISS:     383612
LLC WRITEBACK ACCESS:     880293  HIT:     848902  MISS:      31391
LLC PREFETCH  REQUESTED:          0  ISSUED:          0  USEFUL:      12660  USELESS:     370830
LLC TOTAL MSHR MERGED:         93
LLC LOAD MSHR MERGED:         28
LLC RFO MSHR MERGED:          0
LLC PREFETCH MSHR MERGED:         65
LLC WRITEBACK MSHR MERGED:          0
LLC TOTAL ACCESSES:    4609918 HITS:    3865610 MISSES:     744308
LLC LOAD ACCESSES:    2319200 HITS:    2033277 MISSES:     285923
LLC RFO ACCESSES:     468795 HITS:     425506 MISSES:      43289
LLC PREFETCH ACCESSES:     941630 HITS:     557925 MISSES:     383705
LLC WRITEBACK ACCESSES:     880293 HITS:     848902 MISSES:      31391
LLC 0 RQ ACCESS:    2787995
LLC 0 RQ TO_CACHE:    2787970
LLC 0 RQ MERGED:          0
LLC 0 RQ FORWARD:          0
LLC WQ ACCESS:     880293
LLC WQ TO_CACHE:     880293
LLC WQ MERGED:          0
LLC WQ FORWARD:         35
Major fault: 0 Minor fault: 12862
CPU 0 L1D next line prefetcher final stats
CPU 0 L2C PC-based stride prefetcher final stats
All Misses: 872788
All Hits: 4554008
SD Algo Stats - Switches: 0 SRR-Repls: 337329 BRR-Repls: 0

DRAM Statistics
 CHANNEL 0
 RQ ROW_BUFFER_HIT:     144465  ROW_BUFFER_MISS:     567942
 DBUS_CONGESTED:     310694
 WQ ROW_BUFFER_HIT:       6447  ROW_BUFFER_MISS:     133844  FULL:          0

 AVG_CONGESTED_CYCLE: 13
LOADS RETIRED: 136549171
INSTR RETIRED: 500000000
