
*** ChampSim Multicore Out-of-Order Simulator ***

Warmup Instructions: 100000000
Simulation Instructions: 500000000
Number of CPUs: 1
LLC sets: 2048
LLC ways: 16
Clean RRIP Policies: 1323020013230200 Dirty RRIP Policies: 1313022013130220 PSEL Width: 10 Track Set: 4294967295 PSEL Mask: 1 Demote Mask: 2440101324401013DS Algo: 0Window size: 0
Off-chip DRAM Size: 4096 MB Channels: 1 Width: 64-bit Data Rate: 1600 MT/s

CPU 0 runs /mnt/beegfs/iconst01/spec2017/Gcc.trace.gz
NOT SORTED
TRACE STRING: /mnt/beegfs/iconst01/spec2017/Gcc.trace.gz
SORTED
TRACE STRING: /mnt/beegfs/iconst01/spec2017/Gcc.trace.gz
INITIAL
TRACE STRING: /mnt/beegfs/iconst01/spec2017/Gcc.trace.gz

champsim_seed used: 269

CPU 0 L1D next line prefetcher
CPU 0 L2C IP-based stride prefetcher
Initialize DRRIP state
Assign rand_sets[0]: 454  LLC: 2048
rand_sets[0]: 454
Assign rand_sets[1]: 1662  LLC: 2048
rand_sets[1]: 1662
Assign rand_sets[2]: 1921  LLC: 2048
rand_sets[2]: 1921
Assign rand_sets[3]: 1131  LLC: 2048
rand_sets[3]: 1131
Assign rand_sets[4]: 331  LLC: 2048
rand_sets[4]: 331
Assign rand_sets[5]: 1531  LLC: 2048
rand_sets[5]: 1531
Assign rand_sets[6]: 482  LLC: 2048
rand_sets[6]: 482
Assign rand_sets[7]: 1275  LLC: 2048
rand_sets[7]: 1275
Assign rand_sets[8]: 1876  LLC: 2048
rand_sets[8]: 1876
Assign rand_sets[9]: 2038  LLC: 2048
rand_sets[9]: 2038
Assign rand_sets[10]: 701  LLC: 2048
rand_sets[10]: 701
Assign rand_sets[11]: 479  LLC: 2048
rand_sets[11]: 479
Assign rand_sets[12]: 892  LLC: 2048
rand_sets[12]: 892
Assign rand_sets[13]: 1820  LLC: 2048
rand_sets[13]: 1820
Assign rand_sets[14]: 1505  LLC: 2048
rand_sets[14]: 1505
Assign rand_sets[15]: 1159  LLC: 2048
rand_sets[15]: 1159
Assign rand_sets[16]: 513  LLC: 2048
rand_sets[16]: 513
Assign rand_sets[17]: 703  LLC: 2048
rand_sets[17]: 703
Assign rand_sets[18]: 561  LLC: 2048
rand_sets[18]: 561
Assign rand_sets[19]: 990  LLC: 2048
rand_sets[19]: 990
Assign rand_sets[20]: 342  LLC: 2048
rand_sets[20]: 342
Assign rand_sets[21]: 882  LLC: 2048
rand_sets[21]: 882
Assign rand_sets[22]: 15  LLC: 2048
rand_sets[22]: 15
Assign rand_sets[23]: 71  LLC: 2048
rand_sets[23]: 71
Assign rand_sets[24]: 1127  LLC: 2048
rand_sets[24]: 1127
Assign rand_sets[25]: 1382  LLC: 2048
rand_sets[25]: 1382
Assign rand_sets[26]: 647  LLC: 2048
rand_sets[26]: 647
Assign rand_sets[27]: 857  LLC: 2048
rand_sets[27]: 857
Assign rand_sets[28]: 1450  LLC: 2048
rand_sets[28]: 1450
Assign rand_sets[29]: 1160  LLC: 2048
rand_sets[29]: 1160
Assign rand_sets[30]: 1852  LLC: 2048
rand_sets[30]: 1852
Assign rand_sets[31]: 1881  LLC: 2048
rand_sets[31]: 1881
Assign rand_sets[32]: 1770  LLC: 2048
rand_sets[32]: 1770
Assign rand_sets[33]: 1622  LLC: 2048
rand_sets[33]: 1622
Assign rand_sets[34]: 275  LLC: 2048
rand_sets[34]: 275
Assign rand_sets[35]: 635  LLC: 2048
rand_sets[35]: 635
Assign rand_sets[36]: 466  LLC: 2048
rand_sets[36]: 466
Assign rand_sets[37]: 1413  LLC: 2048
rand_sets[37]: 1413
Assign rand_sets[38]: 417  LLC: 2048
rand_sets[38]: 417
Assign rand_sets[39]: 472  LLC: 2048
rand_sets[39]: 472
Assign rand_sets[40]: 1340  LLC: 2048
rand_sets[40]: 1340
Assign rand_sets[41]: 852  LLC: 2048
rand_sets[41]: 852
Assign rand_sets[42]: 1365  LLC: 2048
rand_sets[42]: 1365
Assign rand_sets[43]: 47  LLC: 2048
rand_sets[43]: 47
Assign rand_sets[44]: 823  LLC: 2048
rand_sets[44]: 823
Assign rand_sets[45]: 686  LLC: 2048
rand_sets[45]: 686
Assign rand_sets[46]: 1637  LLC: 2048
rand_sets[46]: 1637
Assign rand_sets[47]: 1115  LLC: 2048
rand_sets[47]: 1115
Assign rand_sets[48]: 986  LLC: 2048
rand_sets[48]: 986
Assign rand_sets[49]: 258  LLC: 2048
rand_sets[49]: 258
Assign rand_sets[50]: 633  LLC: 2048
rand_sets[50]: 633
Assign rand_sets[51]: 920  LLC: 2048
rand_sets[51]: 920
Assign rand_sets[52]: 204  LLC: 2048
rand_sets[52]: 204
Assign rand_sets[53]: 227  LLC: 2048
rand_sets[53]: 227
Assign rand_sets[54]: 1818  LLC: 2048
rand_sets[54]: 1818
Assign rand_sets[55]: 886  LLC: 2048
rand_sets[55]: 886
Assign rand_sets[56]: 1422  LLC: 2048
rand_sets[56]: 1422
Assign rand_sets[57]: 607  LLC: 2048
rand_sets[57]: 607
Assign rand_sets[58]: 217  LLC: 2048
rand_sets[58]: 217
Assign rand_sets[59]: 1945  LLC: 2048
rand_sets[59]: 1945
Assign rand_sets[60]: 143  LLC: 2048
rand_sets[60]: 143
Assign rand_sets[61]: 1311  LLC: 2048
rand_sets[61]: 1311
Assign rand_sets[62]: 319  LLC: 2048
rand_sets[62]: 319
Assign rand_sets[63]: 1846  LLC: 2048
rand_sets[63]: 1846
 CLEAN-RRIP-POLICY-1: 1-3-2-3-0-2-0-0- CLEAN-RRIP-POLICY-2: 1-3-2-3-0-2-0-0-
 DIRTY-RRIP-POLICY-1: 1-3-1-3-0-2-2-0- DIRTY-RRIP-POLICY-2: 1-3-1-3-0-2-2-0-
 PSEL width: 10
Heartbeat CPU 0 instructions: 10000001 cycles: 7316002 heartbeat IPC: 1.36687 cumulative IPC: 1.36687 (Simulation time: 0 hr 0 min 15 sec) 
Heartbeat CPU 0 instructions: 20000000 cycles: 14307580 heartbeat IPC: 1.43029 cumulative IPC: 1.39786 (Simulation time: 0 hr 0 min 30 sec) 
Heartbeat CPU 0 instructions: 30000001 cycles: 21020712 heartbeat IPC: 1.48962 cumulative IPC: 1.42716 (Simulation time: 0 hr 0 min 46 sec) 
Heartbeat CPU 0 instructions: 40000000 cycles: 27481669 heartbeat IPC: 1.54776 cumulative IPC: 1.45552 (Simulation time: 0 hr 1 min 3 sec) 
Heartbeat CPU 0 instructions: 50000001 cycles: 33583626 heartbeat IPC: 1.63882 cumulative IPC: 1.48882 (Simulation time: 0 hr 1 min 19 sec) 
Heartbeat CPU 0 instructions: 60000000 cycles: 40064949 heartbeat IPC: 1.54289 cumulative IPC: 1.49757 (Simulation time: 0 hr 1 min 35 sec) 
Heartbeat CPU 0 instructions: 70000000 cycles: 47104060 heartbeat IPC: 1.42063 cumulative IPC: 1.48607 (Simulation time: 0 hr 1 min 50 sec) 
Heartbeat CPU 0 instructions: 80000000 cycles: 54193839 heartbeat IPC: 1.41048 cumulative IPC: 1.47618 (Simulation time: 0 hr 2 min 5 sec) 
Heartbeat CPU 0 instructions: 90000003 cycles: 61198335 heartbeat IPC: 1.42765 cumulative IPC: 1.47063 (Simulation time: 0 hr 2 min 20 sec) 
Heartbeat CPU 0 instructions: 100000000 cycles: 68365933 heartbeat IPC: 1.39517 cumulative IPC: 1.46272 (Simulation time: 0 hr 2 min 35 sec) 

Warmup complete CPU 0 instructions: 100000004 cycles: 68365934 (Simulation time: 0 hr 2 min 35 sec) 

Heartbeat CPU 0 instructions: 110000003 cycles: 96081407 heartbeat IPC: 0.360809 cumulative IPC: 0.360809 (Simulation time: 0 hr 3 min 5 sec) 
Heartbeat CPU 0 instructions: 120000000 cycles: 123593293 heartbeat IPC: 0.363479 cumulative IPC: 0.362139 (Simulation time: 0 hr 3 min 35 sec) 
Heartbeat CPU 0 instructions: 130000000 cycles: 148626609 heartbeat IPC: 0.399468 cumulative IPC: 0.373782 (Simulation time: 0 hr 4 min 4 sec) 
Heartbeat CPU 0 instructions: 140000000 cycles: 178170026 heartbeat IPC: 0.338485 cumulative IPC: 0.364285 (Simulation time: 0 hr 4 min 33 sec) 
Heartbeat CPU 0 instructions: 150000000 cycles: 208076997 heartbeat IPC: 0.33437 cumulative IPC: 0.357881 (Simulation time: 0 hr 5 min 3 sec) 
Heartbeat CPU 0 instructions: 160000000 cycles: 235528782 heartbeat IPC: 0.364275 cumulative IPC: 0.358931 (Simulation time: 0 hr 5 min 31 sec) 
Heartbeat CPU 0 instructions: 170000001 cycles: 263645812 heartbeat IPC: 0.355656 cumulative IPC: 0.35846 (Simulation time: 0 hr 6 min 2 sec) 
Heartbeat CPU 0 instructions: 180000000 cycles: 292149894 heartbeat IPC: 0.350827 cumulative IPC: 0.357488 (Simulation time: 0 hr 6 min 32 sec) 
Heartbeat CPU 0 instructions: 190000002 cycles: 320237601 heartbeat IPC: 0.356028 cumulative IPC: 0.357325 (Simulation time: 0 hr 7 min 1 sec) 
Heartbeat CPU 0 instructions: 200000000 cycles: 348605820 heartbeat IPC: 0.352507 cumulative IPC: 0.356837 (Simulation time: 0 hr 7 min 31 sec) 
Heartbeat CPU 0 instructions: 210000002 cycles: 376490638 heartbeat IPC: 0.358618 cumulative IPC: 0.356998 (Simulation time: 0 hr 8 min 1 sec) 
Heartbeat CPU 0 instructions: 220000000 cycles: 405652706 heartbeat IPC: 0.342911 cumulative IPC: 0.35578 (Simulation time: 0 hr 8 min 29 sec) 
Heartbeat CPU 0 instructions: 230000000 cycles: 433255075 heartbeat IPC: 0.362288 cumulative IPC: 0.356273 (Simulation time: 0 hr 8 min 58 sec) 
Heartbeat CPU 0 instructions: 240000000 cycles: 459208661 heartbeat IPC: 0.385303 cumulative IPC: 0.3582 (Simulation time: 0 hr 9 min 26 sec) 
Heartbeat CPU 0 instructions: 250000000 cycles: 489405160 heartbeat IPC: 0.331164 cumulative IPC: 0.356261 (Simulation time: 0 hr 9 min 57 sec) 
Heartbeat CPU 0 instructions: 260000000 cycles: 516576913 heartbeat IPC: 0.368029 cumulative IPC: 0.356975 (Simulation time: 0 hr 10 min 26 sec) 
Heartbeat CPU 0 instructions: 270000003 cycles: 545099714 heartbeat IPC: 0.350597 cumulative IPC: 0.356593 (Simulation time: 0 hr 10 min 56 sec) 
Heartbeat CPU 0 instructions: 280000000 cycles: 573354580 heartbeat IPC: 0.353921 cumulative IPC: 0.356444 (Simulation time: 0 hr 11 min 27 sec) 
Heartbeat CPU 0 instructions: 290000000 cycles: 602275681 heartbeat IPC: 0.345768 cumulative IPC: 0.355865 (Simulation time: 0 hr 11 min 57 sec) 
Heartbeat CPU 0 instructions: 300000000 cycles: 632237298 heartbeat IPC: 0.33376 cumulative IPC: 0.354691 (Simulation time: 0 hr 12 min 26 sec) 
Heartbeat CPU 0 instructions: 310000001 cycles: 661642782 heartbeat IPC: 0.340073 cumulative IPC: 0.353966 (Simulation time: 0 hr 12 min 55 sec) 
Heartbeat CPU 0 instructions: 320000000 cycles: 689910928 heartbeat IPC: 0.353755 cumulative IPC: 0.353957 (Simulation time: 0 hr 13 min 24 sec) 
Heartbeat CPU 0 instructions: 330000000 cycles: 718582094 heartbeat IPC: 0.348782 cumulative IPC: 0.353729 (Simulation time: 0 hr 13 min 53 sec) 
Heartbeat CPU 0 instructions: 340000000 cycles: 747910889 heartbeat IPC: 0.340962 cumulative IPC: 0.353178 (Simulation time: 0 hr 14 min 23 sec) 
Heartbeat CPU 0 instructions: 350000003 cycles: 774983698 heartbeat IPC: 0.369374 cumulative IPC: 0.353798 (Simulation time: 0 hr 14 min 51 sec) 
Heartbeat CPU 0 instructions: 360000000 cycles: 803139741 heartbeat IPC: 0.355163 cumulative IPC: 0.35385 (Simulation time: 0 hr 15 min 20 sec) 
Heartbeat CPU 0 instructions: 370000000 cycles: 831343536 heartbeat IPC: 0.354562 cumulative IPC: 0.353877 (Simulation time: 0 hr 15 min 48 sec) 
Heartbeat CPU 0 instructions: 380000000 cycles: 859897470 heartbeat IPC: 0.350214 cumulative IPC: 0.353745 (Simulation time: 0 hr 16 min 16 sec) 
Heartbeat CPU 0 instructions: 390000001 cycles: 887528218 heartbeat IPC: 0.361916 cumulative IPC: 0.35402 (Simulation time: 0 hr 16 min 44 sec) 
Heartbeat CPU 0 instructions: 400000000 cycles: 916190533 heartbeat IPC: 0.34889 cumulative IPC: 0.353847 (Simulation time: 0 hr 17 min 12 sec) 
Heartbeat CPU 0 instructions: 410000001 cycles: 943492792 heartbeat IPC: 0.36627 cumulative IPC: 0.354234 (Simulation time: 0 hr 17 min 40 sec) 
Heartbeat CPU 0 instructions: 420000000 cycles: 970805726 heartbeat IPC: 0.366127 cumulative IPC: 0.354594 (Simulation time: 0 hr 18 min 7 sec) 
Heartbeat CPU 0 instructions: 430000002 cycles: 998550776 heartbeat IPC: 0.360425 cumulative IPC: 0.354768 (Simulation time: 0 hr 18 min 35 sec) 
Heartbeat CPU 0 instructions: 440000000 cycles: 1028206706 heartbeat IPC: 0.337201 cumulative IPC: 0.354225 (Simulation time: 0 hr 19 min 4 sec) 
Heartbeat CPU 0 instructions: 450000002 cycles: 1057476136 heartbeat IPC: 0.341653 cumulative IPC: 0.353853 (Simulation time: 0 hr 19 min 32 sec) 
Heartbeat CPU 0 instructions: 460000000 cycles: 1085202475 heartbeat IPC: 0.360668 cumulative IPC: 0.354039 (Simulation time: 0 hr 19 min 59 sec) 
Heartbeat CPU 0 instructions: 470000000 cycles: 1112849177 heartbeat IPC: 0.361707 cumulative IPC: 0.354242 (Simulation time: 0 hr 20 min 27 sec) 
Heartbeat CPU 0 instructions: 480000000 cycles: 1140741279 heartbeat IPC: 0.358524 cumulative IPC: 0.354354 (Simulation time: 0 hr 20 min 55 sec) 
Heartbeat CPU 0 instructions: 490000000 cycles: 1168339699 heartbeat IPC: 0.36234 cumulative IPC: 0.354554 (Simulation time: 0 hr 21 min 22 sec) 
Heartbeat CPU 0 instructions: 500000000 cycles: 1196689719 heartbeat IPC: 0.352733 cumulative IPC: 0.354508 (Simulation time: 0 hr 21 min 50 sec) 
Heartbeat CPU 0 instructions: 510000000 cycles: 1231569845 heartbeat IPC: 0.286696 cumulative IPC: 0.352475 (Simulation time: 0 hr 22 min 22 sec) 
Heartbeat CPU 0 instructions: 520000000 cycles: 1259643079 heartbeat IPC: 0.356211 cumulative IPC: 0.352563 (Simulation time: 0 hr 22 min 50 sec) 
Heartbeat CPU 0 instructions: 530000001 cycles: 1288993890 heartbeat IPC: 0.340706 cumulative IPC: 0.352278 (Simulation time: 0 hr 23 min 19 sec) 
Heartbeat CPU 0 instructions: 540000000 cycles: 1317056158 heartbeat IPC: 0.35635 cumulative IPC: 0.352369 (Simulation time: 0 hr 23 min 48 sec) 
Heartbeat CPU 0 instructions: 550000001 cycles: 1346284321 heartbeat IPC: 0.342136 cumulative IPC: 0.352135 (Simulation time: 0 hr 24 min 18 sec) 
Heartbeat CPU 0 instructions: 560000000 cycles: 1371718020 heartbeat IPC: 0.393179 cumulative IPC: 0.352936 (Simulation time: 0 hr 24 min 46 sec) 
Heartbeat CPU 0 instructions: 570000000 cycles: 1401328845 heartbeat IPC: 0.337714 cumulative IPC: 0.352598 (Simulation time: 0 hr 25 min 15 sec) 
Heartbeat CPU 0 instructions: 580000000 cycles: 1429351292 heartbeat IPC: 0.356857 cumulative IPC: 0.352686 (Simulation time: 0 hr 25 min 44 sec) 
Heartbeat CPU 0 instructions: 590000001 cycles: 1454124262 heartbeat IPC: 0.403666 cumulative IPC: 0.353597 (Simulation time: 0 hr 26 min 12 sec) 
Heartbeat CPU 0 instructions: 600000000 cycles: 1480237226 heartbeat IPC: 0.382951 cumulative IPC: 0.35414 (Simulation time: 0 hr 26 min 40 sec) 
Finished CPU 0 instructions: 500000000 cycles: 1411871314 cumulative IPC: 0.35414 (Simulation time: 0 hr 26 min 40 sec) 

CPU 0 Branch Prediction Accuracy: 86.4311% MPKI: 26.2662
Number of Branches: 96788573 Number of Mispredictions: 13133102
Number of LOAD Instructions: 164682285
Number of LOAD Instructions (ROI): 164682285
Number of STORE Instructions: 78194750
Number of STORE Instructions (ROI): 78194750
Total Destination Memory Operands: 83268534
Total Destination Memory Operands (ROI): 83268534
Total Source Memory Operands: 164712438
Total Source Memory Operands (ROI): 164712438
Number of DEPENDED LOADS: 7057403
Number of DEPENDED LOADS (ROI): 7057403
Number of SQ_ADDED: 83268522
Number of SQ_ADDED (ROI): 83268522
Number of LQ_ADDED: 236826685
Number of LQ_ADDED (ROI): 236826685
Number of Instructions read from trace: 600000066

ChampSim completed all CPUs

Region of Interest Statistics

CPU 0 cumulative IPC: 0.35414 instructions: 500000000 cycles: 1411871314
ITLB TOTAL     ACCESS:  100523193  HIT:  100318747  MISS:     204446
ITLB LOAD      ACCESS:  100523193  HIT:  100318747  MISS:     204446
ITLB RFO       ACCESS:          0  HIT:          0  MISS:          0
ITLB PREFETCH  ACCESS:          0  HIT:          0  MISS:          0
ITLB WRITEBACK ACCESS:          0  HIT:          0  MISS:          0
ITLB PREFETCH  REQUESTED:          0  ISSUED:          0  USEFUL:          0  USELESS:          0
ITLB TOTAL MSHR MERGED:     172423
ITLB LOAD MSHR MERGED:     172423
ITLB RFO MSHR MERGED:          0
ITLB PREFETCH MSHR MERGED:          0
ITLB WRITEBACK MSHR MERGED:          0
ITLB TOTAL ACCESSES:  100695616 HITS:  100318747 MISSES:     376869
ITLB LOAD ACCESSES:  100695616 HITS:  100318747 MISSES:     376869
ITLB RFO ACCESSES:          0 HITS:          0 MISSES:          0
ITLB PREFETCH ACCESSES:          0 HITS:          0 MISSES:          0
ITLB WRITEBACK ACCESSES:          0 HITS:          0 MISSES:          0
ITLB RQ ACCESS:  500000057
ITLB RQ TO_CACHE:  100695616
ITLB RQ MERGED:  399304441
ITLB RQ FORWARD:          0
ITLB WQ ACCESS:          0
ITLB WQ TO_CACHE:          0
ITLB WQ MERGED:          0
ITLB WQ FORWARD:          0
DTLB TOTAL     ACCESS:  165338954  HIT:  164704601  MISS:     634353
DTLB LOAD      ACCESS:  106294137  HIT:  105724176  MISS:     569961
DTLB RFO       ACCESS:   59044817  HIT:   58980425  MISS:      64392
DTLB PREFETCH  ACCESS:          0  HIT:          0  MISS:          0
DTLB WRITEBACK ACCESS:          0  HIT:          0  MISS:          0
DTLB PREFETCH  REQUESTED:          0  ISSUED:          0  USEFUL:          0  USELESS:          0
DTLB TOTAL MSHR MERGED:     100017
DTLB LOAD MSHR MERGED:      59443
DTLB RFO MSHR MERGED:      40574
DTLB PREFETCH MSHR MERGED:          0
DTLB WRITEBACK MSHR MERGED:          0
DTLB TOTAL ACCESSES:  165438971 HITS:  164704601 MISSES:     734370
DTLB LOAD ACCESSES:  106353580 HITS:  105724176 MISSES:     629404
DTLB RFO ACCESSES:   59085391 HITS:   58980425 MISSES:     104966
DTLB PREFETCH ACCESSES:          0 HITS:          0 MISSES:          0
DTLB WRITEBACK ACCESSES:          0 HITS:          0 MISSES:          0
DTLB RQ ACCESS:  200313506
DTLB RQ TO_CACHE:  165438971
DTLB RQ MERGED:   34874535
DTLB RQ FORWARD:          0
DTLB WQ ACCESS:          0
DTLB WQ TO_CACHE:          0
DTLB WQ MERGED:          0
DTLB WQ FORWARD:          0
L1D TOTAL     ACCESS:  281823239  HIT:  273913947  MISS:    7909292
L1D LOAD      ACCESS:  110415408  HIT:  107134838  MISS:    3280570
L1D RFO       ACCESS:   67122186  HIT:   66231704  MISS:     890482
L1D PREFETCH  ACCESS:  104285645  HIT:  100547405  MISS:    3738240
L1D WRITEBACK ACCESS:          0  HIT:          0  MISS:          0
L1D PREFETCH  REQUESTED:  110820022  ISSUED:  109120720  USEFUL:    1658942  USELESS:    2079262
L1D TOTAL MSHR MERGED:    2886752
L1D LOAD MSHR MERGED:     504698
L1D RFO MSHR MERGED:    1863480
L1D PREFETCH MSHR MERGED:     518574
L1D WRITEBACK MSHR MERGED:          0
L1D TOTAL ACCESSES:  284737414 HITS:  273941370 MISSES:   10796044
L1D LOAD ACCESSES:  110821454 HITS:  107136270 MISSES:    3685184
L1D RFO ACCESSES:   68973979 HITS:   66231704 MISSES:    2742275
L1D PREFETCH ACCESSES:  104941981 HITS:  100573396 MISSES:    4368585
L1D WRITEBACK ACCESSES:          0 HITS:          0 MISSES:          0
L1D RQ ACCESS:  130760903
L1D RQ TO_CACHE:  110820025
L1D RQ MERGED:   19939446
L1D RQ FORWARD:          0
L1D WQ ACCESS:   69552603
L1D WQ TO_CACHE:   68973980
L1D WQ MERGED:     578623
L1D WQ FORWARD:      27423
L1I TOTAL     ACCESS:  126570078  HIT:  122331525  MISS:    4238553
L1I LOAD      ACCESS:  126570078  HIT:  122331525  MISS:    4238553
L1I RFO       ACCESS:          0  HIT:          0  MISS:          0
L1I PREFETCH  ACCESS:          0  HIT:          0  MISS:          0
L1I WRITEBACK ACCESS:          0  HIT:          0  MISS:          0
L1I PREFETCH  REQUESTED:          0  ISSUED:          0  USEFUL:          0  USELESS:          0
L1I TOTAL MSHR MERGED:    1834766
L1I LOAD MSHR MERGED:    1834766
L1I RFO MSHR MERGED:          0
L1I PREFETCH MSHR MERGED:          0
L1I WRITEBACK MSHR MERGED:          0
L1I TOTAL ACCESSES:  128404847 HITS:  122331525 MISSES:    6073322
L1I LOAD ACCESSES:  128404847 HITS:  122331525 MISSES:    6073322
L1I RFO ACCESSES:          0 HITS:          0 MISSES:          0
L1I PREFETCH ACCESSES:          0 HITS:          0 MISSES:          0
L1I WRITEBACK ACCESSES:          0 HITS:          0 MISSES:          0
L1I RQ ACCESS:  500000057
L1I RQ TO_CACHE:  128404847
L1I RQ MERGED:  371595210
L1I RQ FORWARD:          0
L1I WQ ACCESS:          0
L1I WQ TO_CACHE:          0
L1I WQ MERGED:          0
L1I WQ FORWARD:          0
L2C TOTAL     ACCESS:   14905073  HIT:   11158726  MISS:    3746347
L2C LOAD      ACCESS:    7418830  HIT:    5098901  MISS:    2319929
L2C RFO       ACCESS:     878697  HIT:     409912  MISS:     468785
L2C PREFETCH  ACCESS:    4568308  HIT:    3627933  MISS:     940375
L2C WRITEBACK ACCESS:    2039238  HIT:    2021980  MISS:      17258
L2C PREFETCH  REQUESTED:     842705  ISSUED:     842705  USEFUL:     203381  USELESS:     736700
L2C TOTAL MSHR MERGED:       7154
L2C LOAD MSHR MERGED:        785
L2C RFO MSHR MERGED:          1
L2C PREFETCH MSHR MERGED:       6368
L2C WRITEBACK MSHR MERGED:          0
L2C TOTAL ACCESSES:   14913097 HITS:   11159175 MISSES:    3753922
L2C LOAD ACCESSES:    7419039 HITS:    5099110 MISSES:    2319929
L2C RFO ACCESSES:     878795 HITS:     410010 MISSES:     468785
L2C PREFETCH ACCESSES:    4576025 HITS:    3628075 MISSES:     947950
L2C WRITEBACK ACCESSES:    2039238 HITS:    2021980 MISSES:      17258
L2C RQ ACCESS:    8297837
L2C RQ TO_CACHE:    8297530
L2C RQ MERGED:          0
L2C RQ FORWARD:          0
L2C WQ ACCESS:    2039238
L2C WQ TO_CACHE:    2039238
L2C WQ MERGED:          0
L2C WQ FORWARD:        449
LLC TOTAL     ACCESS:    4609612  HIT:    3919053  MISS:     690559
LLC LOAD      ACCESS:    2319128  HIT:    2061427  MISS:     257701
LLC RFO       ACCESS:     468772  HIT:     409970  MISS:      58802
LLC PREFETCH  ACCESS:     941472  HIT:     614381  MISS:     327091
LLC WRITEBACK ACCESS:     880240  HIT:     833275  MISS:      46965
LLC PREFETCH  REQUESTED:          0  ISSUED:          0  USEFUL:      15248  USELESS:     311596
LLC TOTAL MSHR MERGED:         90
LLC LOAD MSHR MERGED:         33
LLC RFO MSHR MERGED:          0
LLC PREFETCH MSHR MERGED:         57
LLC WRITEBACK MSHR MERGED:          0
LLC TOTAL ACCESSES:    4609741 HITS:    3919092 MISSES:     690649
LLC LOAD ACCESSES:    2319144 HITS:    2061443 MISSES:     257701
LLC RFO ACCESSES:     468784 HITS:     409982 MISSES:      58802
LLC PREFETCH ACCESSES:     941573 HITS:     614392 MISSES:     327181
LLC WRITEBACK ACCESSES:     880240 HITS:     833275 MISSES:      46965
LLC 0 RQ ACCESS:    2787928
LLC 0 RQ TO_CACHE:    2787900
LLC 0 RQ MERGED:          0
LLC 0 RQ FORWARD:          0
LLC WQ ACCESS:     880240
LLC WQ TO_CACHE:     880240
LLC WQ MERGED:          0
LLC WQ FORWARD:         39
Major fault: 0 Minor fault: 12862
CPU 0 L1D next line prefetcher final stats
CPU 0 L2C PC-based stride prefetcher final stats
All Misses: 819766
All Hits: 4606852
SD Algo Stats - Switches: 0 SRR-Repls: 302755 BRR-Repls: 0

DRAM Statistics
 CHANNEL 0
 RQ ROW_BUFFER_HIT:     127305  ROW_BUFFER_MISS:     514497
 DBUS_CONGESTED:     340868
 WQ ROW_BUFFER_HIT:      12055  ROW_BUFFER_MISS:     167031  FULL:          0

 AVG_CONGESTED_CYCLE: 13
LOADS RETIRED: 136549171
INSTR RETIRED: 500000000
