
*** ChampSim Multicore Out-of-Order Simulator ***

Warmup Instructions: 100000000
Simulation Instructions: 500000000
Number of CPUs: 1
LLC sets: 2048
LLC ways: 16
Clean RRIP Policies: 2003032120030321 Dirty RRIP Policies: 3032100030321 PSEL Width: 10 Track Set: 4294967295 PSEL Mask: 1 Demote Mask: 3400333334003333DS Algo: 0Window size: 0
Off-chip DRAM Size: 4096 MB Channels: 1 Width: 64-bit Data Rate: 1600 MT/s

CPU 0 runs /mnt/beegfs/iconst01/spec2017/Gcc.trace.gz
NOT SORTED
TRACE STRING: /mnt/beegfs/iconst01/spec2017/Gcc.trace.gz
SORTED
TRACE STRING: /mnt/beegfs/iconst01/spec2017/Gcc.trace.gz
INITIAL
TRACE STRING: /mnt/beegfs/iconst01/spec2017/Gcc.trace.gz

champsim_seed used: 269

CPU 0 L1D next line prefetcher
CPU 0 L2C IP-based stride prefetcher
Initialize DRRIP state
Assign rand_sets[0]: 454  LLC: 2048
rand_sets[0]: 454
Assign rand_sets[1]: 1662  LLC: 2048
rand_sets[1]: 1662
Assign rand_sets[2]: 1921  LLC: 2048
rand_sets[2]: 1921
Assign rand_sets[3]: 1131  LLC: 2048
rand_sets[3]: 1131
Assign rand_sets[4]: 331  LLC: 2048
rand_sets[4]: 331
Assign rand_sets[5]: 1531  LLC: 2048
rand_sets[5]: 1531
Assign rand_sets[6]: 482  LLC: 2048
rand_sets[6]: 482
Assign rand_sets[7]: 1275  LLC: 2048
rand_sets[7]: 1275
Assign rand_sets[8]: 1876  LLC: 2048
rand_sets[8]: 1876
Assign rand_sets[9]: 2038  LLC: 2048
rand_sets[9]: 2038
Assign rand_sets[10]: 701  LLC: 2048
rand_sets[10]: 701
Assign rand_sets[11]: 479  LLC: 2048
rand_sets[11]: 479
Assign rand_sets[12]: 892  LLC: 2048
rand_sets[12]: 892
Assign rand_sets[13]: 1820  LLC: 2048
rand_sets[13]: 1820
Assign rand_sets[14]: 1505  LLC: 2048
rand_sets[14]: 1505
Assign rand_sets[15]: 1159  LLC: 2048
rand_sets[15]: 1159
Assign rand_sets[16]: 513  LLC: 2048
rand_sets[16]: 513
Assign rand_sets[17]: 703  LLC: 2048
rand_sets[17]: 703
Assign rand_sets[18]: 561  LLC: 2048
rand_sets[18]: 561
Assign rand_sets[19]: 990  LLC: 2048
rand_sets[19]: 990
Assign rand_sets[20]: 342  LLC: 2048
rand_sets[20]: 342
Assign rand_sets[21]: 882  LLC: 2048
rand_sets[21]: 882
Assign rand_sets[22]: 15  LLC: 2048
rand_sets[22]: 15
Assign rand_sets[23]: 71  LLC: 2048
rand_sets[23]: 71
Assign rand_sets[24]: 1127  LLC: 2048
rand_sets[24]: 1127
Assign rand_sets[25]: 1382  LLC: 2048
rand_sets[25]: 1382
Assign rand_sets[26]: 647  LLC: 2048
rand_sets[26]: 647
Assign rand_sets[27]: 857  LLC: 2048
rand_sets[27]: 857
Assign rand_sets[28]: 1450  LLC: 2048
rand_sets[28]: 1450
Assign rand_sets[29]: 1160  LLC: 2048
rand_sets[29]: 1160
Assign rand_sets[30]: 1852  LLC: 2048
rand_sets[30]: 1852
Assign rand_sets[31]: 1881  LLC: 2048
rand_sets[31]: 1881
Assign rand_sets[32]: 1770  LLC: 2048
rand_sets[32]: 1770
Assign rand_sets[33]: 1622  LLC: 2048
rand_sets[33]: 1622
Assign rand_sets[34]: 275  LLC: 2048
rand_sets[34]: 275
Assign rand_sets[35]: 635  LLC: 2048
rand_sets[35]: 635
Assign rand_sets[36]: 466  LLC: 2048
rand_sets[36]: 466
Assign rand_sets[37]: 1413  LLC: 2048
rand_sets[37]: 1413
Assign rand_sets[38]: 417  LLC: 2048
rand_sets[38]: 417
Assign rand_sets[39]: 472  LLC: 2048
rand_sets[39]: 472
Assign rand_sets[40]: 1340  LLC: 2048
rand_sets[40]: 1340
Assign rand_sets[41]: 852  LLC: 2048
rand_sets[41]: 852
Assign rand_sets[42]: 1365  LLC: 2048
rand_sets[42]: 1365
Assign rand_sets[43]: 47  LLC: 2048
rand_sets[43]: 47
Assign rand_sets[44]: 823  LLC: 2048
rand_sets[44]: 823
Assign rand_sets[45]: 686  LLC: 2048
rand_sets[45]: 686
Assign rand_sets[46]: 1637  LLC: 2048
rand_sets[46]: 1637
Assign rand_sets[47]: 1115  LLC: 2048
rand_sets[47]: 1115
Assign rand_sets[48]: 986  LLC: 2048
rand_sets[48]: 986
Assign rand_sets[49]: 258  LLC: 2048
rand_sets[49]: 258
Assign rand_sets[50]: 633  LLC: 2048
rand_sets[50]: 633
Assign rand_sets[51]: 920  LLC: 2048
rand_sets[51]: 920
Assign rand_sets[52]: 204  LLC: 2048
rand_sets[52]: 204
Assign rand_sets[53]: 227  LLC: 2048
rand_sets[53]: 227
Assign rand_sets[54]: 1818  LLC: 2048
rand_sets[54]: 1818
Assign rand_sets[55]: 886  LLC: 2048
rand_sets[55]: 886
Assign rand_sets[56]: 1422  LLC: 2048
rand_sets[56]: 1422
Assign rand_sets[57]: 607  LLC: 2048
rand_sets[57]: 607
Assign rand_sets[58]: 217  LLC: 2048
rand_sets[58]: 217
Assign rand_sets[59]: 1945  LLC: 2048
rand_sets[59]: 1945
Assign rand_sets[60]: 143  LLC: 2048
rand_sets[60]: 143
Assign rand_sets[61]: 1311  LLC: 2048
rand_sets[61]: 1311
Assign rand_sets[62]: 319  LLC: 2048
rand_sets[62]: 319
Assign rand_sets[63]: 1846  LLC: 2048
rand_sets[63]: 1846
 CLEAN-RRIP-POLICY-1: 2-0-0-3-0-3-2-1- CLEAN-RRIP-POLICY-2: 2-0-0-3-0-3-2-1-
 DIRTY-RRIP-POLICY-1: 0-0-0-3-0-3-2-1- DIRTY-RRIP-POLICY-2: 0-0-0-3-0-3-2-1-
 PSEL width: 10
Heartbeat CPU 0 instructions: 10000001 cycles: 7315996 heartbeat IPC: 1.36687 cumulative IPC: 1.36687 (Simulation time: 0 hr 0 min 14 sec) 
Heartbeat CPU 0 instructions: 20000000 cycles: 14308117 heartbeat IPC: 1.43018 cumulative IPC: 1.39781 (Simulation time: 0 hr 0 min 27 sec) 
Heartbeat CPU 0 instructions: 30000001 cycles: 21021552 heartbeat IPC: 1.48955 cumulative IPC: 1.42711 (Simulation time: 0 hr 0 min 42 sec) 
Heartbeat CPU 0 instructions: 40000000 cycles: 27482658 heartbeat IPC: 1.54772 cumulative IPC: 1.45546 (Simulation time: 0 hr 0 min 56 sec) 
Heartbeat CPU 0 instructions: 50000001 cycles: 33584304 heartbeat IPC: 1.6389 cumulative IPC: 1.48879 (Simulation time: 0 hr 1 min 10 sec) 
Heartbeat CPU 0 instructions: 60000000 cycles: 40065505 heartbeat IPC: 1.54292 cumulative IPC: 1.49755 (Simulation time: 0 hr 1 min 25 sec) 
Heartbeat CPU 0 instructions: 70000000 cycles: 47103830 heartbeat IPC: 1.42079 cumulative IPC: 1.48608 (Simulation time: 0 hr 1 min 38 sec) 
Heartbeat CPU 0 instructions: 80000000 cycles: 54194123 heartbeat IPC: 1.41038 cumulative IPC: 1.47617 (Simulation time: 0 hr 1 min 52 sec) 
Heartbeat CPU 0 instructions: 90000003 cycles: 61199111 heartbeat IPC: 1.42755 cumulative IPC: 1.47061 (Simulation time: 0 hr 2 min 5 sec) 
Heartbeat CPU 0 instructions: 100000000 cycles: 68367165 heartbeat IPC: 1.39508 cumulative IPC: 1.46269 (Simulation time: 0 hr 2 min 18 sec) 

Warmup complete CPU 0 instructions: 100000004 cycles: 68367166 (Simulation time: 0 hr 2 min 18 sec) 

Heartbeat CPU 0 instructions: 110000003 cycles: 96263596 heartbeat IPC: 0.358469 cumulative IPC: 0.358469 (Simulation time: 0 hr 2 min 43 sec) 
Heartbeat CPU 0 instructions: 120000000 cycles: 123800370 heartbeat IPC: 0.363151 cumulative IPC: 0.360795 (Simulation time: 0 hr 3 min 9 sec) 
Heartbeat CPU 0 instructions: 130000000 cycles: 148805462 heartbeat IPC: 0.399919 cumulative IPC: 0.372957 (Simulation time: 0 hr 3 min 34 sec) 
Heartbeat CPU 0 instructions: 140000000 cycles: 178554060 heartbeat IPC: 0.33615 cumulative IPC: 0.36302 (Simulation time: 0 hr 3 min 58 sec) 
Heartbeat CPU 0 instructions: 150000000 cycles: 208709077 heartbeat IPC: 0.33162 cumulative IPC: 0.356273 (Simulation time: 0 hr 4 min 24 sec) 
Heartbeat CPU 0 instructions: 160000000 cycles: 236177118 heartbeat IPC: 0.364059 cumulative IPC: 0.357547 (Simulation time: 0 hr 4 min 48 sec) 
Heartbeat CPU 0 instructions: 170000001 cycles: 264311927 heartbeat IPC: 0.355432 cumulative IPC: 0.357244 (Simulation time: 0 hr 5 min 14 sec) 
Heartbeat CPU 0 instructions: 180000000 cycles: 292944250 heartbeat IPC: 0.349256 cumulative IPC: 0.356225 (Simulation time: 0 hr 5 min 40 sec) 
Heartbeat CPU 0 instructions: 190000002 cycles: 321063737 heartbeat IPC: 0.355625 cumulative IPC: 0.356158 (Simulation time: 0 hr 6 min 5 sec) 
Heartbeat CPU 0 instructions: 200000000 cycles: 349670494 heartbeat IPC: 0.349568 cumulative IPC: 0.355488 (Simulation time: 0 hr 6 min 30 sec) 
Heartbeat CPU 0 instructions: 210000002 cycles: 377605459 heartbeat IPC: 0.357974 cumulative IPC: 0.355713 (Simulation time: 0 hr 6 min 56 sec) 
Heartbeat CPU 0 instructions: 220000000 cycles: 406995631 heartbeat IPC: 0.34025 cumulative IPC: 0.354371 (Simulation time: 0 hr 7 min 20 sec) 
Heartbeat CPU 0 instructions: 230000000 cycles: 434742776 heartbeat IPC: 0.360397 cumulative IPC: 0.354827 (Simulation time: 0 hr 7 min 44 sec) 
Heartbeat CPU 0 instructions: 240000000 cycles: 461117512 heartbeat IPC: 0.379151 cumulative IPC: 0.356461 (Simulation time: 0 hr 8 min 8 sec) 
Heartbeat CPU 0 instructions: 250000000 cycles: 491394224 heartbeat IPC: 0.330287 cumulative IPC: 0.354587 (Simulation time: 0 hr 8 min 34 sec) 
Heartbeat CPU 0 instructions: 260000000 cycles: 518583722 heartbeat IPC: 0.367789 cumulative IPC: 0.355385 (Simulation time: 0 hr 8 min 59 sec) 
Heartbeat CPU 0 instructions: 270000003 cycles: 547031336 heartbeat IPC: 0.351523 cumulative IPC: 0.355155 (Simulation time: 0 hr 9 min 25 sec) 
Heartbeat CPU 0 instructions: 280000000 cycles: 575412763 heartbeat IPC: 0.352343 cumulative IPC: 0.354998 (Simulation time: 0 hr 9 min 51 sec) 
Heartbeat CPU 0 instructions: 290000000 cycles: 604315640 heartbeat IPC: 0.345986 cumulative IPC: 0.354512 (Simulation time: 0 hr 10 min 18 sec) 
Heartbeat CPU 0 instructions: 300000000 cycles: 634416913 heartbeat IPC: 0.332212 cumulative IPC: 0.353326 (Simulation time: 0 hr 10 min 42 sec) 
Heartbeat CPU 0 instructions: 310000001 cycles: 664109644 heartbeat IPC: 0.336783 cumulative IPC: 0.352501 (Simulation time: 0 hr 11 min 7 sec) 
Heartbeat CPU 0 instructions: 320000000 cycles: 692581099 heartbeat IPC: 0.351229 cumulative IPC: 0.352443 (Simulation time: 0 hr 11 min 32 sec) 
Heartbeat CPU 0 instructions: 330000000 cycles: 721312979 heartbeat IPC: 0.348045 cumulative IPC: 0.35225 (Simulation time: 0 hr 11 min 57 sec) 
Heartbeat CPU 0 instructions: 340000000 cycles: 750984634 heartbeat IPC: 0.337022 cumulative IPC: 0.351588 (Simulation time: 0 hr 12 min 22 sec) 
Heartbeat CPU 0 instructions: 350000003 cycles: 778078697 heartbeat IPC: 0.369085 cumulative IPC: 0.352256 (Simulation time: 0 hr 12 min 46 sec) 
Heartbeat CPU 0 instructions: 360000000 cycles: 806708527 heartbeat IPC: 0.349286 cumulative IPC: 0.352141 (Simulation time: 0 hr 13 min 10 sec) 
Heartbeat CPU 0 instructions: 370000000 cycles: 835429787 heartbeat IPC: 0.348174 cumulative IPC: 0.351992 (Simulation time: 0 hr 13 min 34 sec) 
Heartbeat CPU 0 instructions: 380000000 cycles: 864529245 heartbeat IPC: 0.343649 cumulative IPC: 0.351687 (Simulation time: 0 hr 13 min 58 sec) 
Heartbeat CPU 0 instructions: 390000001 cycles: 892638509 heartbeat IPC: 0.355755 cumulative IPC: 0.351826 (Simulation time: 0 hr 14 min 22 sec) 
Heartbeat CPU 0 instructions: 400000000 cycles: 921834530 heartbeat IPC: 0.342512 cumulative IPC: 0.351507 (Simulation time: 0 hr 14 min 46 sec) 
Heartbeat CPU 0 instructions: 410000001 cycles: 949639499 heartbeat IPC: 0.359648 cumulative IPC: 0.351764 (Simulation time: 0 hr 15 min 10 sec) 
Heartbeat CPU 0 instructions: 420000000 cycles: 977422200 heartbeat IPC: 0.359936 cumulative IPC: 0.352014 (Simulation time: 0 hr 15 min 34 sec) 
Heartbeat CPU 0 instructions: 430000002 cycles: 1005612235 heartbeat IPC: 0.354735 cumulative IPC: 0.352096 (Simulation time: 0 hr 15 min 58 sec) 
Heartbeat CPU 0 instructions: 440000000 cycles: 1035570893 heartbeat IPC: 0.333793 cumulative IPC: 0.351529 (Simulation time: 0 hr 16 min 22 sec) 
Heartbeat CPU 0 instructions: 450000002 cycles: 1065363988 heartbeat IPC: 0.335648 cumulative IPC: 0.351054 (Simulation time: 0 hr 16 min 46 sec) 
Heartbeat CPU 0 instructions: 460000000 cycles: 1093559783 heartbeat IPC: 0.354663 cumulative IPC: 0.351154 (Simulation time: 0 hr 17 min 10 sec) 
Heartbeat CPU 0 instructions: 470000000 cycles: 1121641860 heartbeat IPC: 0.356099 cumulative IPC: 0.351285 (Simulation time: 0 hr 17 min 34 sec) 
Heartbeat CPU 0 instructions: 480000000 cycles: 1149947172 heartbeat IPC: 0.353291 cumulative IPC: 0.351338 (Simulation time: 0 hr 17 min 57 sec) 
Heartbeat CPU 0 instructions: 490000000 cycles: 1177960146 heartbeat IPC: 0.356977 cumulative IPC: 0.35148 (Simulation time: 0 hr 18 min 21 sec) 
Heartbeat CPU 0 instructions: 500000000 cycles: 1206590855 heartbeat IPC: 0.349275 cumulative IPC: 0.351425 (Simulation time: 0 hr 18 min 45 sec) 
Heartbeat CPU 0 instructions: 510000000 cycles: 1241590478 heartbeat IPC: 0.285717 cumulative IPC: 0.349465 (Simulation time: 0 hr 19 min 12 sec) 
Heartbeat CPU 0 instructions: 520000000 cycles: 1269347421 heartbeat IPC: 0.36027 cumulative IPC: 0.349714 (Simulation time: 0 hr 19 min 37 sec) 
Heartbeat CPU 0 instructions: 530000001 cycles: 1299035577 heartbeat IPC: 0.336835 cumulative IPC: 0.349404 (Simulation time: 0 hr 20 min 2 sec) 
Heartbeat CPU 0 instructions: 540000000 cycles: 1327473909 heartbeat IPC: 0.351638 cumulative IPC: 0.349454 (Simulation time: 0 hr 20 min 26 sec) 
Heartbeat CPU 0 instructions: 550000001 cycles: 1356926525 heartbeat IPC: 0.339528 cumulative IPC: 0.349227 (Simulation time: 0 hr 20 min 53 sec) 
Heartbeat CPU 0 instructions: 560000000 cycles: 1382471266 heartbeat IPC: 0.39147 cumulative IPC: 0.350048 (Simulation time: 0 hr 21 min 17 sec) 
