
*** ChampSim Multicore Out-of-Order Simulator ***

Warmup Instructions: 100000000
Simulation Instructions: 500000000
Number of CPUs: 1
LLC sets: 2048
LLC ways: 16
Clean RRIP Policies: 1213030112130301 Dirty RRIP Policies: 2213130122131301 PSEL Width: 10 Track Set: 4294967295 PSEL Mask: 1 Demote Mask: 3340211033402110DS Algo: 0Window size: 0
Off-chip DRAM Size: 4096 MB Channels: 1 Width: 64-bit Data Rate: 1600 MT/s

CPU 0 runs /mnt/beegfs/iconst01/spec2017/Gcc.trace.gz
NOT SORTED
TRACE STRING: /mnt/beegfs/iconst01/spec2017/Gcc.trace.gz
SORTED
TRACE STRING: /mnt/beegfs/iconst01/spec2017/Gcc.trace.gz
INITIAL
TRACE STRING: /mnt/beegfs/iconst01/spec2017/Gcc.trace.gz

champsim_seed used: 269

CPU 0 L1D next line prefetcher
CPU 0 L2C IP-based stride prefetcher
Initialize DRRIP state
Assign rand_sets[0]: 454  LLC: 2048
rand_sets[0]: 454
Assign rand_sets[1]: 1662  LLC: 2048
rand_sets[1]: 1662
Assign rand_sets[2]: 1921  LLC: 2048
rand_sets[2]: 1921
Assign rand_sets[3]: 1131  LLC: 2048
rand_sets[3]: 1131
Assign rand_sets[4]: 331  LLC: 2048
rand_sets[4]: 331
Assign rand_sets[5]: 1531  LLC: 2048
rand_sets[5]: 1531
Assign rand_sets[6]: 482  LLC: 2048
rand_sets[6]: 482
Assign rand_sets[7]: 1275  LLC: 2048
rand_sets[7]: 1275
Assign rand_sets[8]: 1876  LLC: 2048
rand_sets[8]: 1876
Assign rand_sets[9]: 2038  LLC: 2048
rand_sets[9]: 2038
Assign rand_sets[10]: 701  LLC: 2048
rand_sets[10]: 701
Assign rand_sets[11]: 479  LLC: 2048
rand_sets[11]: 479
Assign rand_sets[12]: 892  LLC: 2048
rand_sets[12]: 892
Assign rand_sets[13]: 1820  LLC: 2048
rand_sets[13]: 1820
Assign rand_sets[14]: 1505  LLC: 2048
rand_sets[14]: 1505
Assign rand_sets[15]: 1159  LLC: 2048
rand_sets[15]: 1159
Assign rand_sets[16]: 513  LLC: 2048
rand_sets[16]: 513
Assign rand_sets[17]: 703  LLC: 2048
rand_sets[17]: 703
Assign rand_sets[18]: 561  LLC: 2048
rand_sets[18]: 561
Assign rand_sets[19]: 990  LLC: 2048
rand_sets[19]: 990
Assign rand_sets[20]: 342  LLC: 2048
rand_sets[20]: 342
Assign rand_sets[21]: 882  LLC: 2048
rand_sets[21]: 882
Assign rand_sets[22]: 15  LLC: 2048
rand_sets[22]: 15
Assign rand_sets[23]: 71  LLC: 2048
rand_sets[23]: 71
Assign rand_sets[24]: 1127  LLC: 2048
rand_sets[24]: 1127
Assign rand_sets[25]: 1382  LLC: 2048
rand_sets[25]: 1382
Assign rand_sets[26]: 647  LLC: 2048
rand_sets[26]: 647
Assign rand_sets[27]: 857  LLC: 2048
rand_sets[27]: 857
Assign rand_sets[28]: 1450  LLC: 2048
rand_sets[28]: 1450
Assign rand_sets[29]: 1160  LLC: 2048
rand_sets[29]: 1160
Assign rand_sets[30]: 1852  LLC: 2048
rand_sets[30]: 1852
Assign rand_sets[31]: 1881  LLC: 2048
rand_sets[31]: 1881
Assign rand_sets[32]: 1770  LLC: 2048
rand_sets[32]: 1770
Assign rand_sets[33]: 1622  LLC: 2048
rand_sets[33]: 1622
Assign rand_sets[34]: 275  LLC: 2048
rand_sets[34]: 275
Assign rand_sets[35]: 635  LLC: 2048
rand_sets[35]: 635
Assign rand_sets[36]: 466  LLC: 2048
rand_sets[36]: 466
Assign rand_sets[37]: 1413  LLC: 2048
rand_sets[37]: 1413
Assign rand_sets[38]: 417  LLC: 2048
rand_sets[38]: 417
Assign rand_sets[39]: 472  LLC: 2048
rand_sets[39]: 472
Assign rand_sets[40]: 1340  LLC: 2048
rand_sets[40]: 1340
Assign rand_sets[41]: 852  LLC: 2048
rand_sets[41]: 852
Assign rand_sets[42]: 1365  LLC: 2048
rand_sets[42]: 1365
Assign rand_sets[43]: 47  LLC: 2048
rand_sets[43]: 47
Assign rand_sets[44]: 823  LLC: 2048
rand_sets[44]: 823
Assign rand_sets[45]: 686  LLC: 2048
rand_sets[45]: 686
Assign rand_sets[46]: 1637  LLC: 2048
rand_sets[46]: 1637
Assign rand_sets[47]: 1115  LLC: 2048
rand_sets[47]: 1115
Assign rand_sets[48]: 986  LLC: 2048
rand_sets[48]: 986
Assign rand_sets[49]: 258  LLC: 2048
rand_sets[49]: 258
Assign rand_sets[50]: 633  LLC: 2048
rand_sets[50]: 633
Assign rand_sets[51]: 920  LLC: 2048
rand_sets[51]: 920
Assign rand_sets[52]: 204  LLC: 2048
rand_sets[52]: 204
Assign rand_sets[53]: 227  LLC: 2048
rand_sets[53]: 227
Assign rand_sets[54]: 1818  LLC: 2048
rand_sets[54]: 1818
Assign rand_sets[55]: 886  LLC: 2048
rand_sets[55]: 886
Assign rand_sets[56]: 1422  LLC: 2048
rand_sets[56]: 1422
Assign rand_sets[57]: 607  LLC: 2048
rand_sets[57]: 607
Assign rand_sets[58]: 217  LLC: 2048
rand_sets[58]: 217
Assign rand_sets[59]: 1945  LLC: 2048
rand_sets[59]: 1945
Assign rand_sets[60]: 143  LLC: 2048
rand_sets[60]: 143
Assign rand_sets[61]: 1311  LLC: 2048
rand_sets[61]: 1311
Assign rand_sets[62]: 319  LLC: 2048
rand_sets[62]: 319
Assign rand_sets[63]: 1846  LLC: 2048
rand_sets[63]: 1846
 CLEAN-RRIP-POLICY-1: 1-2-1-3-0-3-0-1- CLEAN-RRIP-POLICY-2: 1-2-1-3-0-3-0-1-
 DIRTY-RRIP-POLICY-1: 2-2-1-3-1-3-0-1- DIRTY-RRIP-POLICY-2: 2-2-1-3-1-3-0-1-
 PSEL width: 10
Heartbeat CPU 0 instructions: 10000001 cycles: 7315979 heartbeat IPC: 1.36687 cumulative IPC: 1.36687 (Simulation time: 0 hr 0 min 14 sec) 
Heartbeat CPU 0 instructions: 20000000 cycles: 14307474 heartbeat IPC: 1.43031 cumulative IPC: 1.39787 (Simulation time: 0 hr 0 min 27 sec) 
Heartbeat CPU 0 instructions: 30000001 cycles: 21020385 heartbeat IPC: 1.48967 cumulative IPC: 1.42719 (Simulation time: 0 hr 0 min 42 sec) 
Heartbeat CPU 0 instructions: 40000000 cycles: 27481196 heartbeat IPC: 1.54779 cumulative IPC: 1.45554 (Simulation time: 0 hr 0 min 58 sec) 
Heartbeat CPU 0 instructions: 50000001 cycles: 33582957 heartbeat IPC: 1.63887 cumulative IPC: 1.48885 (Simulation time: 0 hr 1 min 12 sec) 
Heartbeat CPU 0 instructions: 60000000 cycles: 40064140 heartbeat IPC: 1.54293 cumulative IPC: 1.4976 (Simulation time: 0 hr 1 min 28 sec) 
Heartbeat CPU 0 instructions: 70000000 cycles: 47102568 heartbeat IPC: 1.42077 cumulative IPC: 1.48612 (Simulation time: 0 hr 1 min 42 sec) 
Heartbeat CPU 0 instructions: 80000000 cycles: 54192118 heartbeat IPC: 1.41053 cumulative IPC: 1.47623 (Simulation time: 0 hr 1 min 56 sec) 
Heartbeat CPU 0 instructions: 90000003 cycles: 61196383 heartbeat IPC: 1.4277 cumulative IPC: 1.47068 (Simulation time: 0 hr 2 min 10 sec) 
Heartbeat CPU 0 instructions: 100000000 cycles: 68363514 heartbeat IPC: 1.39526 cumulative IPC: 1.46277 (Simulation time: 0 hr 2 min 24 sec) 

Warmup complete CPU 0 instructions: 100000004 cycles: 68363515 (Simulation time: 0 hr 2 min 24 sec) 

Heartbeat CPU 0 instructions: 110000003 cycles: 96003344 heartbeat IPC: 0.361797 cumulative IPC: 0.361797 (Simulation time: 0 hr 2 min 51 sec) 
Heartbeat CPU 0 instructions: 120000000 cycles: 123467346 heartbeat IPC: 0.364113 cumulative IPC: 0.362951 (Simulation time: 0 hr 3 min 18 sec) 
Heartbeat CPU 0 instructions: 130000000 cycles: 148442306 heartbeat IPC: 0.400401 cumulative IPC: 0.374631 (Simulation time: 0 hr 3 min 45 sec) 
Heartbeat CPU 0 instructions: 140000000 cycles: 177905853 heartbeat IPC: 0.339402 cumulative IPC: 0.365156 (Simulation time: 0 hr 4 min 11 sec) 
Heartbeat CPU 0 instructions: 150000000 cycles: 207741923 heartbeat IPC: 0.335165 cumulative IPC: 0.358736 (Simulation time: 0 hr 4 min 38 sec) 
Heartbeat CPU 0 instructions: 160000000 cycles: 235148978 heartbeat IPC: 0.36487 cumulative IPC: 0.359744 (Simulation time: 0 hr 5 min 4 sec) 
Heartbeat CPU 0 instructions: 170000001 cycles: 263175329 heartbeat IPC: 0.356807 cumulative IPC: 0.359321 (Simulation time: 0 hr 5 min 33 sec) 
Heartbeat CPU 0 instructions: 180000000 cycles: 291626886 heartbeat IPC: 0.351475 cumulative IPC: 0.358321 (Simulation time: 0 hr 6 min 0 sec) 
Heartbeat CPU 0 instructions: 190000002 cycles: 319631579 heartbeat IPC: 0.357083 cumulative IPC: 0.358183 (Simulation time: 0 hr 6 min 27 sec) 
Heartbeat CPU 0 instructions: 200000000 cycles: 347964894 heartbeat IPC: 0.352941 cumulative IPC: 0.357652 (Simulation time: 0 hr 6 min 55 sec) 
Heartbeat CPU 0 instructions: 210000002 cycles: 375780367 heartbeat IPC: 0.359512 cumulative IPC: 0.35782 (Simulation time: 0 hr 7 min 22 sec) 
Heartbeat CPU 0 instructions: 220000000 cycles: 404861646 heartbeat IPC: 0.343864 cumulative IPC: 0.356614 (Simulation time: 0 hr 7 min 48 sec) 
Heartbeat CPU 0 instructions: 230000000 cycles: 432397207 heartbeat IPC: 0.363167 cumulative IPC: 0.35711 (Simulation time: 0 hr 8 min 14 sec) 
Heartbeat CPU 0 instructions: 240000000 cycles: 458318879 heartbeat IPC: 0.385778 cumulative IPC: 0.359015 (Simulation time: 0 hr 8 min 40 sec) 
Heartbeat CPU 0 instructions: 250000000 cycles: 488458216 heartbeat IPC: 0.331792 cumulative IPC: 0.357062 (Simulation time: 0 hr 9 min 8 sec) 
Heartbeat CPU 0 instructions: 260000000 cycles: 515564108 heartbeat IPC: 0.368923 cumulative IPC: 0.357781 (Simulation time: 0 hr 9 min 35 sec) 
Heartbeat CPU 0 instructions: 270000003 cycles: 544009920 heartbeat IPC: 0.351546 cumulative IPC: 0.357408 (Simulation time: 0 hr 10 min 3 sec) 
Heartbeat CPU 0 instructions: 280000000 cycles: 572198445 heartbeat IPC: 0.354754 cumulative IPC: 0.35726 (Simulation time: 0 hr 10 min 31 sec) 
Heartbeat CPU 0 instructions: 290000000 cycles: 601087817 heartbeat IPC: 0.346148 cumulative IPC: 0.356657 (Simulation time: 0 hr 10 min 59 sec) 
Heartbeat CPU 0 instructions: 300000000 cycles: 630974307 heartbeat IPC: 0.334599 cumulative IPC: 0.355486 (Simulation time: 0 hr 11 min 26 sec) 
Heartbeat CPU 0 instructions: 310000001 cycles: 660323302 heartbeat IPC: 0.340727 cumulative IPC: 0.354754 (Simulation time: 0 hr 11 min 52 sec) 
Heartbeat CPU 0 instructions: 320000000 cycles: 688507975 heartbeat IPC: 0.354803 cumulative IPC: 0.354756 (Simulation time: 0 hr 12 min 19 sec) 
Heartbeat CPU 0 instructions: 330000000 cycles: 717115772 heartbeat IPC: 0.349555 cumulative IPC: 0.354527 (Simulation time: 0 hr 12 min 45 sec) 
Heartbeat CPU 0 instructions: 340000000 cycles: 746385950 heartbeat IPC: 0.341645 cumulative IPC: 0.353971 (Simulation time: 0 hr 13 min 11 sec) 
Heartbeat CPU 0 instructions: 350000003 cycles: 773392813 heartbeat IPC: 0.370276 cumulative IPC: 0.354595 (Simulation time: 0 hr 13 min 37 sec) 
Heartbeat CPU 0 instructions: 360000000 cycles: 801487862 heartbeat IPC: 0.355935 cumulative IPC: 0.354647 (Simulation time: 0 hr 14 min 2 sec) 
Heartbeat CPU 0 instructions: 370000000 cycles: 829667897 heartbeat IPC: 0.354861 cumulative IPC: 0.354654 (Simulation time: 0 hr 14 min 28 sec) 
Heartbeat CPU 0 instructions: 380000000 cycles: 858176206 heartbeat IPC: 0.350775 cumulative IPC: 0.354514 (Simulation time: 0 hr 14 min 53 sec) 
Heartbeat CPU 0 instructions: 390000001 cycles: 885781854 heartbeat IPC: 0.362245 cumulative IPC: 0.354775 (Simulation time: 0 hr 15 min 18 sec) 
Heartbeat CPU 0 instructions: 400000000 cycles: 914397557 heartbeat IPC: 0.349458 cumulative IPC: 0.354596 (Simulation time: 0 hr 15 min 43 sec) 
Heartbeat CPU 0 instructions: 410000001 cycles: 941693831 heartbeat IPC: 0.36635 cumulative IPC: 0.354963 (Simulation time: 0 hr 16 min 8 sec) 
Heartbeat CPU 0 instructions: 420000000 cycles: 969003163 heartbeat IPC: 0.366175 cumulative IPC: 0.355303 (Simulation time: 0 hr 16 min 32 sec) 
Heartbeat CPU 0 instructions: 430000002 cycles: 996685674 heartbeat IPC: 0.361239 cumulative IPC: 0.35548 (Simulation time: 0 hr 16 min 57 sec) 
Heartbeat CPU 0 instructions: 440000000 cycles: 1026203748 heartbeat IPC: 0.338775 cumulative IPC: 0.354965 (Simulation time: 0 hr 17 min 22 sec) 
Heartbeat CPU 0 instructions: 450000002 cycles: 1055424067 heartbeat IPC: 0.342228 cumulative IPC: 0.354588 (Simulation time: 0 hr 17 min 47 sec) 
Heartbeat CPU 0 instructions: 460000000 cycles: 1083115780 heartbeat IPC: 0.361119 cumulative IPC: 0.354766 (Simulation time: 0 hr 18 min 12 sec) 
Heartbeat CPU 0 instructions: 470000000 cycles: 1110751883 heartbeat IPC: 0.361846 cumulative IPC: 0.354954 (Simulation time: 0 hr 18 min 37 sec) 
Heartbeat CPU 0 instructions: 480000000 cycles: 1138634477 heartbeat IPC: 0.358647 cumulative IPC: 0.35505 (Simulation time: 0 hr 19 min 2 sec) 
Heartbeat CPU 0 instructions: 490000000 cycles: 1166227376 heartbeat IPC: 0.362412 cumulative IPC: 0.355235 (Simulation time: 0 hr 19 min 27 sec) 
Heartbeat CPU 0 instructions: 500000000 cycles: 1194522502 heartbeat IPC: 0.353418 cumulative IPC: 0.35519 (Simulation time: 0 hr 19 min 52 sec) 
Heartbeat CPU 0 instructions: 510000000 cycles: 1229123668 heartbeat IPC: 0.289008 cumulative IPC: 0.353217 (Simulation time: 0 hr 20 min 20 sec) 
Heartbeat CPU 0 instructions: 520000000 cycles: 1257085651 heartbeat IPC: 0.357628 cumulative IPC: 0.353321 (Simulation time: 0 hr 20 min 46 sec) 
Heartbeat CPU 0 instructions: 530000001 cycles: 1286332532 heartbeat IPC: 0.341917 cumulative IPC: 0.353047 (Simulation time: 0 hr 21 min 12 sec) 
Heartbeat CPU 0 instructions: 540000000 cycles: 1314334279 heartbeat IPC: 0.357121 cumulative IPC: 0.353138 (Simulation time: 0 hr 21 min 38 sec) 
Heartbeat CPU 0 instructions: 550000001 cycles: 1343523338 heartbeat IPC: 0.342594 cumulative IPC: 0.352897 (Simulation time: 0 hr 22 min 5 sec) 
Heartbeat CPU 0 instructions: 560000000 cycles: 1368892793 heartbeat IPC: 0.394175 cumulative IPC: 0.353702 (Simulation time: 0 hr 22 min 30 sec) 
Heartbeat CPU 0 instructions: 570000000 cycles: 1398371077 heartbeat IPC: 0.339233 cumulative IPC: 0.353381 (Simulation time: 0 hr 22 min 57 sec) 
Heartbeat CPU 0 instructions: 580000000 cycles: 1426330308 heartbeat IPC: 0.357664 cumulative IPC: 0.35347 (Simulation time: 0 hr 23 min 23 sec) 
Heartbeat CPU 0 instructions: 590000001 cycles: 1451104769 heartbeat IPC: 0.403642 cumulative IPC: 0.354369 (Simulation time: 0 hr 23 min 47 sec) 
Heartbeat CPU 0 instructions: 600000000 cycles: 1477208041 heartbeat IPC: 0.383094 cumulative IPC: 0.354901 (Simulation time: 0 hr 24 min 12 sec) 
Finished CPU 0 instructions: 500000000 cycles: 1408844548 cumulative IPC: 0.354901 (Simulation time: 0 hr 24 min 12 sec) 

CPU 0 Branch Prediction Accuracy: 86.4311% MPKI: 26.2662
Number of Branches: 96788573 Number of Mispredictions: 13133102
Number of LOAD Instructions: 164682285
Number of LOAD Instructions (ROI): 164682285
Number of STORE Instructions: 78194750
Number of STORE Instructions (ROI): 78194750
Total Destination Memory Operands: 83268534
Total Destination Memory Operands (ROI): 83268534
Total Source Memory Operands: 164712438
Total Source Memory Operands (ROI): 164712438
Number of DEPENDED LOADS: 7059116
Number of DEPENDED LOADS (ROI): 7059116
Number of SQ_ADDED: 83268522
Number of SQ_ADDED (ROI): 83268522
Number of LQ_ADDED: 236772188
Number of LQ_ADDED (ROI): 236772188
Number of Instructions read from trace: 600000066

ChampSim completed all CPUs

Region of Interest Statistics

CPU 0 cumulative IPC: 0.354901 instructions: 500000000 cycles: 1408844548
ITLB TOTAL     ACCESS:  100516581  HIT:  100312135  MISS:     204446
ITLB LOAD      ACCESS:  100516581  HIT:  100312135  MISS:     204446
ITLB RFO       ACCESS:          0  HIT:          0  MISS:          0
ITLB PREFETCH  ACCESS:          0  HIT:          0  MISS:          0
ITLB WRITEBACK ACCESS:          0  HIT:          0  MISS:          0
ITLB PREFETCH  REQUESTED:          0  ISSUED:          0  USEFUL:          0  USELESS:          0
ITLB TOTAL MSHR MERGED:     172424
ITLB LOAD MSHR MERGED:     172424
ITLB RFO MSHR MERGED:          0
ITLB PREFETCH MSHR MERGED:          0
ITLB WRITEBACK MSHR MERGED:          0
ITLB TOTAL ACCESSES:  100689005 HITS:  100312135 MISSES:     376870
ITLB LOAD ACCESSES:  100689005 HITS:  100312135 MISSES:     376870
ITLB RFO ACCESSES:          0 HITS:          0 MISSES:          0
ITLB PREFETCH ACCESSES:          0 HITS:          0 MISSES:          0
ITLB WRITEBACK ACCESSES:          0 HITS:          0 MISSES:          0
ITLB RQ ACCESS:  500000057
ITLB RQ TO_CACHE:  100689005
ITLB RQ MERGED:  399311052
ITLB RQ FORWARD:          0
ITLB WQ ACCESS:          0
ITLB WQ TO_CACHE:          0
ITLB WQ MERGED:          0
ITLB WQ FORWARD:          0
DTLB TOTAL     ACCESS:  165336512  HIT:  164702158  MISS:     634354
DTLB LOAD      ACCESS:  106292369  HIT:  105722407  MISS:     569962
DTLB RFO       ACCESS:   59044143  HIT:   58979751  MISS:      64392
DTLB PREFETCH  ACCESS:          0  HIT:          0  MISS:          0
DTLB WRITEBACK ACCESS:          0  HIT:          0  MISS:          0
DTLB PREFETCH  REQUESTED:          0  ISSUED:          0  USEFUL:          0  USELESS:          0
DTLB TOTAL MSHR MERGED:      99997
DTLB LOAD MSHR MERGED:      59448
DTLB RFO MSHR MERGED:      40549
DTLB PREFETCH MSHR MERGED:          0
DTLB WRITEBACK MSHR MERGED:          0
DTLB TOTAL ACCESSES:  165436509 HITS:  164702158 MISSES:     734351
DTLB LOAD ACCESSES:  106351817 HITS:  105722407 MISSES:     629410
DTLB RFO ACCESSES:   59084692 HITS:   58979751 MISSES:     104941
DTLB PREFETCH ACCESSES:          0 HITS:          0 MISSES:          0
DTLB WRITEBACK ACCESSES:          0 HITS:          0 MISSES:          0
DTLB RQ ACCESS:  200311777
DTLB RQ TO_CACHE:  165436509
DTLB RQ MERGED:   34875268
DTLB RQ FORWARD:          0
DTLB WQ ACCESS:          0
DTLB WQ TO_CACHE:          0
DTLB WQ MERGED:          0
DTLB WQ FORWARD:          0
L1D TOTAL     ACCESS:  281817533  HIT:  273908223  MISS:    7909310
L1D LOAD      ACCESS:  110415808  HIT:  107137305  MISS:    3278503
L1D RFO       ACCESS:   67109228  HIT:   66218180  MISS:     891048
L1D PREFETCH  ACCESS:  104292497  HIT:  100552738  MISS:    3739759
L1D WRITEBACK ACCESS:          0  HIT:          0  MISS:          0
L1D PREFETCH  REQUESTED:  110817395  ISSUED:  109118116  USEFUL:    1660516  USELESS:    2079207
L1D TOTAL MSHR MERGED:    2887156
L1D LOAD MSHR MERGED:     499580
L1D RFO MSHR MERGED:    1877193
L1D PREFETCH MSHR MERGED:     510383
L1D WRITEBACK MSHR MERGED:          0
L1D TOTAL ACCESSES:  284732211 HITS:  273935745 MISSES:   10796466
L1D LOAD ACCESSES:  110818904 HITS:  107138814 MISSES:    3680090
L1D RFO ACCESSES:   68974161 HITS:   66218180 MISSES:    2755981
L1D PREFETCH ACCESSES:  104939146 HITS:  100578751 MISSES:    4360395
L1D WRITEBACK ACCESSES:          0 HITS:          0 MISSES:          0
L1D RQ ACCESS:  130759174
L1D RQ TO_CACHE:  110817398
L1D RQ MERGED:   19940267
L1D RQ FORWARD:          0
L1D WQ ACCESS:   69552603
L1D WQ TO_CACHE:   68974162
L1D WQ MERGED:     578441
L1D WQ FORWARD:      27522
L1I TOTAL     ACCESS:  126563955  HIT:  122325402  MISS:    4238553
L1I LOAD      ACCESS:  126563955  HIT:  122325402  MISS:    4238553
L1I RFO       ACCESS:          0  HIT:          0  MISS:          0
L1I PREFETCH  ACCESS:          0  HIT:          0  MISS:          0
L1I WRITEBACK ACCESS:          0  HIT:          0  MISS:          0
L1I PREFETCH  REQUESTED:          0  ISSUED:          0  USEFUL:          0  USELESS:          0
L1I TOTAL MSHR MERGED:    1834606
L1I LOAD MSHR MERGED:    1834606
L1I RFO MSHR MERGED:          0
L1I PREFETCH MSHR MERGED:          0
L1I WRITEBACK MSHR MERGED:          0
L1I TOTAL ACCESSES:  128398564 HITS:  122325402 MISSES:    6073162
L1I LOAD ACCESSES:  128398564 HITS:  122325402 MISSES:    6073162
L1I RFO ACCESSES:          0 HITS:          0 MISSES:          0
L1I PREFETCH ACCESSES:          0 HITS:          0 MISSES:          0
L1I WRITEBACK ACCESSES:          0 HITS:          0 MISSES:          0
L1I RQ ACCESS:  500000057
L1I RQ TO_CACHE:  128398564
L1I RQ MERGED:  371601493
L1I RQ FORWARD:          0
L1I WQ ACCESS:          0
L1I WQ TO_CACHE:          0
L1I WQ MERGED:          0
L1I WQ FORWARD:          0
L2C TOTAL     ACCESS:   14904538  HIT:   11158163  MISS:    3746375
L2C LOAD      ACCESS:    7418856  HIT:    5098714  MISS:    2320142
L2C RFO       ACCESS:     878690  HIT:     409910  MISS:     468780
L2C PREFETCH  ACCESS:    4567761  HIT:    3627560  MISS:     940201
L2C WRITEBACK ACCESS:    2039231  HIT:    2021979  MISS:      17252
L2C PREFETCH  REQUESTED:     842757  ISSUED:     842757  USEFUL:     203176  USELESS:     736731
L2C TOTAL MSHR MERGED:       7678
L2C LOAD MSHR MERGED:        973
L2C RFO MSHR MERGED:          0
L2C PREFETCH MSHR MERGED:       6705
L2C WRITEBACK MSHR MERGED:          0
L2C TOTAL ACCESSES:   14913109 HITS:   11158611 MISSES:    3754498
L2C LOAD ACCESSES:    7419063 HITS:    5098921 MISSES:    2320142
L2C RFO ACCESSES:     878788 HITS:     410008 MISSES:     468780
L2C PREFETCH ACCESSES:    4576027 HITS:    3627703 MISSES:     948324
L2C WRITEBACK ACCESSES:    2039231 HITS:    2021979 MISSES:      17252
L2C RQ ACCESS:    8297854
L2C RQ TO_CACHE:    8297549
L2C RQ MERGED:          0
L2C RQ FORWARD:          0
L2C WQ ACCESS:    2039231
L2C WQ TO_CACHE:    2039231
L2C WQ MERGED:          0
L2C WQ FORWARD:        448
LLC TOTAL     ACCESS:    4609676  HIT:    3936148  MISS:     673528
LLC LOAD      ACCESS:    2319155  HIT:    2085363  MISS:     233792
LLC RFO       ACCESS:     468769  HIT:     387483  MISS:      81286
LLC PREFETCH  ACCESS:     941500  HIT:     647560  MISS:     293940
LLC WRITEBACK ACCESS:     880252  HIT:     815742  MISS:      64510
LLC PREFETCH  REQUESTED:          0  ISSUED:          0  USEFUL:      16358  USELESS:     277985
LLC TOTAL MSHR MERGED:        101
LLC LOAD MSHR MERGED:         32
LLC RFO MSHR MERGED:          0
LLC PREFETCH MSHR MERGED:         69
LLC WRITEBACK MSHR MERGED:          0
LLC TOTAL ACCESSES:    4609813 HITS:    3936184 MISSES:     673629
LLC LOAD ACCESSES:    2319169 HITS:    2085377 MISSES:     233792
LLC RFO ACCESSES:     468780 HITS:     387494 MISSES:      81286
LLC PREFETCH ACCESSES:     941612 HITS:     647571 MISSES:     294041
LLC WRITEBACK ACCESSES:     880252 HITS:     815742 MISSES:      64510
LLC 0 RQ ACCESS:    2787949
LLC 0 RQ TO_CACHE:    2787924
LLC 0 RQ MERGED:          0
LLC 0 RQ FORWARD:          0
LLC WQ ACCESS:     880252
LLC WQ TO_CACHE:     880252
LLC WQ MERGED:          0
LLC WQ FORWARD:         36
Major fault: 0 Minor fault: 12862
CPU 0 L1D next line prefetcher final stats
CPU 0 L2C PC-based stride prefetcher final stats
All Misses: 803434
All Hits: 4623248
SD Algo Stats - Switches: 0 SRR-Repls: 275221 BRR-Repls: 0

DRAM Statistics
 CHANNEL 0
 RQ ROW_BUFFER_HIT:     123314  ROW_BUFFER_MISS:     483773
 DBUS_CONGESTED:     365041
 WQ ROW_BUFFER_HIT:      15998  ROW_BUFFER_MISS:     188828  FULL:          0

 AVG_CONGESTED_CYCLE: 13
LOADS RETIRED: 136549171
INSTR RETIRED: 500000000
