
*** ChampSim Multicore Out-of-Order Simulator ***

Warmup Instructions: 100000000
Simulation Instructions: 500000000
Number of CPUs: 1
LLC sets: 2048
LLC ways: 16
Clean RRIP Policies: 1213130112131301 Dirty RRIP Policies: 2213130122131301 PSEL Width: 10 Track Set: 4294967295 PSEL Mask: 1 Demote Mask: 3340201033402010DS Algo: 0Window size: 0
Off-chip DRAM Size: 4096 MB Channels: 1 Width: 64-bit Data Rate: 1600 MT/s

CPU 0 runs /mnt/beegfs/iconst01/spec2017/Wrf.trace.gz
NOT SORTED
TRACE STRING: /mnt/beegfs/iconst01/spec2017/Wrf.trace.gz
SORTED
TRACE STRING: /mnt/beegfs/iconst01/spec2017/Wrf.trace.gz
INITIAL
TRACE STRING: /mnt/beegfs/iconst01/spec2017/Wrf.trace.gz

champsim_seed used: 303

CPU 0 L1D next line prefetcher
CPU 0 L2C IP-based stride prefetcher
Initialize DRRIP state
Assign rand_sets[0]: 454  LLC: 2048
rand_sets[0]: 454
Assign rand_sets[1]: 1662  LLC: 2048
rand_sets[1]: 1662
Assign rand_sets[2]: 1921  LLC: 2048
rand_sets[2]: 1921
Assign rand_sets[3]: 1131  LLC: 2048
rand_sets[3]: 1131
Assign rand_sets[4]: 331  LLC: 2048
rand_sets[4]: 331
Assign rand_sets[5]: 1531  LLC: 2048
rand_sets[5]: 1531
Assign rand_sets[6]: 482  LLC: 2048
rand_sets[6]: 482
Assign rand_sets[7]: 1275  LLC: 2048
rand_sets[7]: 1275
Assign rand_sets[8]: 1876  LLC: 2048
rand_sets[8]: 1876
Assign rand_sets[9]: 2038  LLC: 2048
rand_sets[9]: 2038
Assign rand_sets[10]: 701  LLC: 2048
rand_sets[10]: 701
Assign rand_sets[11]: 479  LLC: 2048
rand_sets[11]: 479
Assign rand_sets[12]: 892  LLC: 2048
rand_sets[12]: 892
Assign rand_sets[13]: 1820  LLC: 2048
rand_sets[13]: 1820
Assign rand_sets[14]: 1505  LLC: 2048
rand_sets[14]: 1505
Assign rand_sets[15]: 1159  LLC: 2048
rand_sets[15]: 1159
Assign rand_sets[16]: 513  LLC: 2048
rand_sets[16]: 513
Assign rand_sets[17]: 703  LLC: 2048
rand_sets[17]: 703
Assign rand_sets[18]: 561  LLC: 2048
rand_sets[18]: 561
Assign rand_sets[19]: 990  LLC: 2048
rand_sets[19]: 990
Assign rand_sets[20]: 342  LLC: 2048
rand_sets[20]: 342
Assign rand_sets[21]: 882  LLC: 2048
rand_sets[21]: 882
Assign rand_sets[22]: 15  LLC: 2048
rand_sets[22]: 15
Assign rand_sets[23]: 71  LLC: 2048
rand_sets[23]: 71
Assign rand_sets[24]: 1127  LLC: 2048
rand_sets[24]: 1127
Assign rand_sets[25]: 1382  LLC: 2048
rand_sets[25]: 1382
Assign rand_sets[26]: 647  LLC: 2048
rand_sets[26]: 647
Assign rand_sets[27]: 857  LLC: 2048
rand_sets[27]: 857
Assign rand_sets[28]: 1450  LLC: 2048
rand_sets[28]: 1450
Assign rand_sets[29]: 1160  LLC: 2048
rand_sets[29]: 1160
Assign rand_sets[30]: 1852  LLC: 2048
rand_sets[30]: 1852
Assign rand_sets[31]: 1881  LLC: 2048
rand_sets[31]: 1881
Assign rand_sets[32]: 1770  LLC: 2048
rand_sets[32]: 1770
Assign rand_sets[33]: 1622  LLC: 2048
rand_sets[33]: 1622
Assign rand_sets[34]: 275  LLC: 2048
rand_sets[34]: 275
Assign rand_sets[35]: 635  LLC: 2048
rand_sets[35]: 635
Assign rand_sets[36]: 466  LLC: 2048
rand_sets[36]: 466
Assign rand_sets[37]: 1413  LLC: 2048
rand_sets[37]: 1413
Assign rand_sets[38]: 417  LLC: 2048
rand_sets[38]: 417
Assign rand_sets[39]: 472  LLC: 2048
rand_sets[39]: 472
Assign rand_sets[40]: 1340  LLC: 2048
rand_sets[40]: 1340
Assign rand_sets[41]: 852  LLC: 2048
rand_sets[41]: 852
Assign rand_sets[42]: 1365  LLC: 2048
rand_sets[42]: 1365
Assign rand_sets[43]: 47  LLC: 2048
rand_sets[43]: 47
Assign rand_sets[44]: 823  LLC: 2048
rand_sets[44]: 823
Assign rand_sets[45]: 686  LLC: 2048
rand_sets[45]: 686
Assign rand_sets[46]: 1637  LLC: 2048
rand_sets[46]: 1637
Assign rand_sets[47]: 1115  LLC: 2048
rand_sets[47]: 1115
Assign rand_sets[48]: 986  LLC: 2048
rand_sets[48]: 986
Assign rand_sets[49]: 258  LLC: 2048
rand_sets[49]: 258
Assign rand_sets[50]: 633  LLC: 2048
rand_sets[50]: 633
Assign rand_sets[51]: 920  LLC: 2048
rand_sets[51]: 920
Assign rand_sets[52]: 204  LLC: 2048
rand_sets[52]: 204
Assign rand_sets[53]: 227  LLC: 2048
rand_sets[53]: 227
Assign rand_sets[54]: 1818  LLC: 2048
rand_sets[54]: 1818
Assign rand_sets[55]: 886  LLC: 2048
rand_sets[55]: 886
Assign rand_sets[56]: 1422  LLC: 2048
rand_sets[56]: 1422
Assign rand_sets[57]: 607  LLC: 2048
rand_sets[57]: 607
Assign rand_sets[58]: 217  LLC: 2048
rand_sets[58]: 217
Assign rand_sets[59]: 1945  LLC: 2048
rand_sets[59]: 1945
Assign rand_sets[60]: 143  LLC: 2048
rand_sets[60]: 143
Assign rand_sets[61]: 1311  LLC: 2048
rand_sets[61]: 1311
Assign rand_sets[62]: 319  LLC: 2048
rand_sets[62]: 319
Assign rand_sets[63]: 1846  LLC: 2048
rand_sets[63]: 1846
 CLEAN-RRIP-POLICY-1: 1-2-1-3-1-3-0-1- CLEAN-RRIP-POLICY-2: 1-2-1-3-1-3-0-1-
 DIRTY-RRIP-POLICY-1: 2-2-1-3-1-3-0-1- DIRTY-RRIP-POLICY-2: 2-2-1-3-1-3-0-1-
 PSEL width: 10
Heartbeat CPU 0 instructions: 10000002 cycles: 6559549 heartbeat IPC: 1.5245 cumulative IPC: 1.5245 (Simulation time: 0 hr 0 min 22 sec) 
Heartbeat CPU 0 instructions: 20000000 cycles: 12222148 heartbeat IPC: 1.76597 cumulative IPC: 1.63637 (Simulation time: 0 hr 0 min 42 sec) 
Heartbeat CPU 0 instructions: 30000003 cycles: 18203947 heartbeat IPC: 1.67174 cumulative IPC: 1.64799 (Simulation time: 0 hr 1 min 3 sec) 
Heartbeat CPU 0 instructions: 40000000 cycles: 24059277 heartbeat IPC: 1.70785 cumulative IPC: 1.66256 (Simulation time: 0 hr 1 min 24 sec) 
Heartbeat CPU 0 instructions: 50000000 cycles: 29527669 heartbeat IPC: 1.82869 cumulative IPC: 1.69333 (Simulation time: 0 hr 1 min 45 sec) 
Heartbeat CPU 0 instructions: 60000000 cycles: 35640487 heartbeat IPC: 1.63591 cumulative IPC: 1.68348 (Simulation time: 0 hr 2 min 8 sec) 
Heartbeat CPU 0 instructions: 70000000 cycles: 41360200 heartbeat IPC: 1.74834 cumulative IPC: 1.69245 (Simulation time: 0 hr 2 min 28 sec) 
Heartbeat CPU 0 instructions: 80000000 cycles: 47231110 heartbeat IPC: 1.70331 cumulative IPC: 1.6938 (Simulation time: 0 hr 2 min 50 sec) 
Heartbeat CPU 0 instructions: 90000000 cycles: 52984611 heartbeat IPC: 1.73807 cumulative IPC: 1.69861 (Simulation time: 0 hr 3 min 11 sec) 
Heartbeat CPU 0 instructions: 100000000 cycles: 58537481 heartbeat IPC: 1.80087 cumulative IPC: 1.70831 (Simulation time: 0 hr 3 min 32 sec) 

Warmup complete CPU 0 instructions: 100000004 cycles: 58537483 (Simulation time: 0 hr 3 min 32 sec) 

Heartbeat CPU 0 instructions: 110000001 cycles: 72751909 heartbeat IPC: 0.703511 cumulative IPC: 0.70351 (Simulation time: 0 hr 3 min 59 sec) 
Heartbeat CPU 0 instructions: 120000000 cycles: 84307439 heartbeat IPC: 0.865386 cumulative IPC: 0.776097 (Simulation time: 0 hr 4 min 24 sec) 
Heartbeat CPU 0 instructions: 130000000 cycles: 94607193 heartbeat IPC: 0.970897 cumulative IPC: 0.831723 (Simulation time: 0 hr 4 min 48 sec) 
Heartbeat CPU 0 instructions: 140000000 cycles: 105679331 heartbeat IPC: 0.903168 cumulative IPC: 0.848503 (Simulation time: 0 hr 5 min 12 sec) 
Heartbeat CPU 0 instructions: 150000002 cycles: 117113201 heartbeat IPC: 0.874595 cumulative IPC: 0.853596 (Simulation time: 0 hr 5 min 37 sec) 
Heartbeat CPU 0 instructions: 160000000 cycles: 126113758 heartbeat IPC: 1.11104 cumulative IPC: 0.887886 (Simulation time: 0 hr 6 min 0 sec) 
Heartbeat CPU 0 instructions: 170000003 cycles: 137009337 heartbeat IPC: 0.917804 cumulative IPC: 0.89204 (Simulation time: 0 hr 6 min 24 sec) 
Heartbeat CPU 0 instructions: 180000000 cycles: 150001224 heartbeat IPC: 0.769711 cumulative IPC: 0.874663 (Simulation time: 0 hr 6 min 50 sec) 
Heartbeat CPU 0 instructions: 190000000 cycles: 165082080 heartbeat IPC: 0.663092 cumulative IPC: 0.844717 (Simulation time: 0 hr 7 min 15 sec) 
Heartbeat CPU 0 instructions: 200000000 cycles: 180140739 heartbeat IPC: 0.66407 cumulative IPC: 0.822346 (Simulation time: 0 hr 7 min 40 sec) 
Heartbeat CPU 0 instructions: 210000000 cycles: 195186260 heartbeat IPC: 0.66465 cumulative IPC: 0.804983 (Simulation time: 0 hr 8 min 5 sec) 
Heartbeat CPU 0 instructions: 220000000 cycles: 210942892 heartbeat IPC: 0.634653 cumulative IPC: 0.787374 (Simulation time: 0 hr 8 min 33 sec) 
Heartbeat CPU 0 instructions: 230000003 cycles: 229589033 heartbeat IPC: 0.536304 cumulative IPC: 0.760005 (Simulation time: 0 hr 9 min 2 sec) 
Heartbeat CPU 0 instructions: 240000000 cycles: 239152623 heartbeat IPC: 1.04563 cumulative IPC: 0.775129 (Simulation time: 0 hr 9 min 25 sec) 
Heartbeat CPU 0 instructions: 250000000 cycles: 248304099 heartbeat IPC: 1.09272 cumulative IPC: 0.790445 (Simulation time: 0 hr 9 min 48 sec) 
Heartbeat CPU 0 instructions: 260000000 cycles: 257975787 heartbeat IPC: 1.03395 cumulative IPC: 0.802253 (Simulation time: 0 hr 10 min 11 sec) 
Heartbeat CPU 0 instructions: 270000000 cycles: 267822100 heartbeat IPC: 1.01561 cumulative IPC: 0.812291 (Simulation time: 0 hr 10 min 35 sec) 
Heartbeat CPU 0 instructions: 280000000 cycles: 277567630 heartbeat IPC: 1.02611 cumulative IPC: 0.821805 (Simulation time: 0 hr 11 min 0 sec) 
Heartbeat CPU 0 instructions: 290000000 cycles: 287557477 heartbeat IPC: 1.00102 cumulative IPC: 0.829622 (Simulation time: 0 hr 11 min 25 sec) 
Heartbeat CPU 0 instructions: 300000000 cycles: 296227988 heartbeat IPC: 1.15333 cumulative IPC: 0.84143 (Simulation time: 0 hr 11 min 48 sec) 
Heartbeat CPU 0 instructions: 310000002 cycles: 309961855 heartbeat IPC: 0.728127 cumulative IPC: 0.835241 (Simulation time: 0 hr 12 min 15 sec) 
Heartbeat CPU 0 instructions: 320000000 cycles: 326155365 heartbeat IPC: 0.617531 cumulative IPC: 0.822068 (Simulation time: 0 hr 12 min 44 sec) 
Heartbeat CPU 0 instructions: 330000002 cycles: 336756732 heartbeat IPC: 0.943275 cumulative IPC: 0.826686 (Simulation time: 0 hr 13 min 9 sec) 
Heartbeat CPU 0 instructions: 340000000 cycles: 347234102 heartbeat IPC: 0.954438 cumulative IPC: 0.831322 (Simulation time: 0 hr 13 min 33 sec) 
Heartbeat CPU 0 instructions: 350000002 cycles: 360634869 heartbeat IPC: 0.746226 cumulative IPC: 0.827548 (Simulation time: 0 hr 14 min 0 sec) 
Heartbeat CPU 0 instructions: 360000000 cycles: 371662601 heartbeat IPC: 0.906805 cumulative IPC: 0.830339 (Simulation time: 0 hr 14 min 25 sec) 
Heartbeat CPU 0 instructions: 370000002 cycles: 382380070 heartbeat IPC: 0.933056 cumulative IPC: 0.833738 (Simulation time: 0 hr 14 min 49 sec) 
Heartbeat CPU 0 instructions: 380000000 cycles: 392799819 heartbeat IPC: 0.959716 cumulative IPC: 0.837665 (Simulation time: 0 hr 15 min 14 sec) 
Heartbeat CPU 0 instructions: 390000003 cycles: 410275703 heartbeat IPC: 0.572217 cumulative IPC: 0.824477 (Simulation time: 0 hr 15 min 43 sec) 
Heartbeat CPU 0 instructions: 400000000 cycles: 422292275 heartbeat IPC: 0.832184 cumulative IPC: 0.824731 (Simulation time: 0 hr 16 min 7 sec) 
Heartbeat CPU 0 instructions: 410000002 cycles: 432727755 heartbeat IPC: 0.958269 cumulative IPC: 0.828456 (Simulation time: 0 hr 16 min 30 sec) 
Heartbeat CPU 0 instructions: 420000000 cycles: 442731447 heartbeat IPC: 0.999631 cumulative IPC: 0.832913 (Simulation time: 0 hr 16 min 52 sec) 
Heartbeat CPU 0 instructions: 430000001 cycles: 452717680 heartbeat IPC: 1.00138 cumulative IPC: 0.837181 (Simulation time: 0 hr 17 min 15 sec) 
Heartbeat CPU 0 instructions: 440000000 cycles: 464436603 heartbeat IPC: 0.853321 cumulative IPC: 0.837647 (Simulation time: 0 hr 17 min 38 sec) 
Heartbeat CPU 0 instructions: 450000002 cycles: 479523453 heartbeat IPC: 0.662829 cumulative IPC: 0.831382 (Simulation time: 0 hr 18 min 2 sec) 
Heartbeat CPU 0 instructions: 460000000 cycles: 494583505 heartbeat IPC: 0.664008 cumulative IPC: 0.825601 (Simulation time: 0 hr 18 min 26 sec) 
Heartbeat CPU 0 instructions: 470000003 cycles: 509632748 heartbeat IPC: 0.664485 cumulative IPC: 0.820226 (Simulation time: 0 hr 18 min 51 sec) 
Heartbeat CPU 0 instructions: 480000000 cycles: 525405300 heartbeat IPC: 0.634013 cumulative IPC: 0.813935 (Simulation time: 0 hr 19 min 17 sec) 
Heartbeat CPU 0 instructions: 490000000 cycles: 544155872 heartbeat IPC: 0.533317 cumulative IPC: 0.8031 (Simulation time: 0 hr 19 min 46 sec) 
Heartbeat CPU 0 instructions: 500000000 cycles: 553664500 heartbeat IPC: 1.05168 cumulative IPC: 0.807873 (Simulation time: 0 hr 20 min 8 sec) 
Heartbeat CPU 0 instructions: 510000002 cycles: 562875883 heartbeat IPC: 1.08561 cumulative IPC: 0.812946 (Simulation time: 0 hr 20 min 30 sec) 
Heartbeat CPU 0 instructions: 520000000 cycles: 572544676 heartbeat IPC: 1.03426 cumulative IPC: 0.817109 (Simulation time: 0 hr 20 min 52 sec) 
Heartbeat CPU 0 instructions: 530000002 cycles: 582407876 heartbeat IPC: 1.01387 cumulative IPC: 0.820814 (Simulation time: 0 hr 21 min 15 sec) 
Heartbeat CPU 0 instructions: 540000000 cycles: 592100099 heartbeat IPC: 1.03175 cumulative IPC: 0.824645 (Simulation time: 0 hr 21 min 39 sec) 
Heartbeat CPU 0 instructions: 550000002 cycles: 602122970 heartbeat IPC: 0.997718 cumulative IPC: 0.827837 (Simulation time: 0 hr 22 min 4 sec) 
Heartbeat CPU 0 instructions: 560000000 cycles: 610807307 heartbeat IPC: 1.1515 cumulative IPC: 0.832926 (Simulation time: 0 hr 22 min 26 sec) 
Heartbeat CPU 0 instructions: 570000003 cycles: 624363135 heartbeat IPC: 0.73769 cumulative IPC: 0.830645 (Simulation time: 0 hr 22 min 52 sec) 
Heartbeat CPU 0 instructions: 580000000 cycles: 640703914 heartbeat IPC: 0.611966 cumulative IPC: 0.824506 (Simulation time: 0 hr 23 min 21 sec) 
Heartbeat CPU 0 instructions: 590000002 cycles: 650867615 heartbeat IPC: 0.983894 cumulative IPC: 0.827241 (Simulation time: 0 hr 23 min 44 sec) 
Heartbeat CPU 0 instructions: 600000000 cycles: 661781193 heartbeat IPC: 0.91629 cumulative IPC: 0.828852 (Simulation time: 0 hr 24 min 9 sec) 
Finished CPU 0 instructions: 500000000 cycles: 603243729 cumulative IPC: 0.828852 (Simulation time: 0 hr 24 min 9 sec) 

CPU 0 Branch Prediction Accuracy: 99.5219% MPKI: 0.251582
Number of Branches: 26312578 Number of Mispredictions: 125791
Number of LOAD Instructions: 235643083
Number of LOAD Instructions (ROI): 235643083
Number of STORE Instructions: 37593550
Number of STORE Instructions (ROI): 37593550
Total Destination Memory Operands: 40480968
Total Destination Memory Operands (ROI): 40480968
Total Source Memory Operands: 235643083
Total Source Memory Operands (ROI): 235643083
Number of DEPENDED LOADS: 6700328
Number of DEPENDED LOADS (ROI): 6700328
Number of SQ_ADDED: 40480950
Number of SQ_ADDED (ROI): 40480950
Number of LQ_ADDED: 389304844
Number of LQ_ADDED (ROI): 389304844
Number of Instructions read from trace: 600000259

ChampSim completed all CPUs

Region of Interest Statistics

CPU 0 cumulative IPC: 0.828852 instructions: 500000000 cycles: 603243729
ITLB TOTAL     ACCESS:  109362177  HIT:  109361664  MISS:        513
ITLB LOAD      ACCESS:  109362177  HIT:  109361664  MISS:        513
ITLB RFO       ACCESS:          0  HIT:          0  MISS:          0
ITLB PREFETCH  ACCESS:          0  HIT:          0  MISS:          0
ITLB WRITEBACK ACCESS:          0  HIT:          0  MISS:          0
ITLB PREFETCH  REQUESTED:          0  ISSUED:          0  USEFUL:          0  USELESS:          0
ITLB TOTAL MSHR MERGED:        969
ITLB LOAD MSHR MERGED:        969
ITLB RFO MSHR MERGED:          0
ITLB PREFETCH MSHR MERGED:          0
ITLB WRITEBACK MSHR MERGED:          0
ITLB TOTAL ACCESSES:  109363146 HITS:  109361664 MISSES:       1482
ITLB LOAD ACCESSES:  109363146 HITS:  109361664 MISSES:       1482
ITLB RFO ACCESSES:          0 HITS:          0 MISSES:          0
ITLB PREFETCH ACCESSES:          0 HITS:          0 MISSES:          0
ITLB WRITEBACK ACCESSES:          0 HITS:          0 MISSES:          0
ITLB RQ ACCESS:  500000003
ITLB RQ TO_CACHE:  109363146
ITLB RQ MERGED:  390636857
ITLB RQ FORWARD:          0
ITLB WQ ACCESS:          0
ITLB WQ TO_CACHE:          0
ITLB WQ MERGED:          0
ITLB WQ FORWARD:          0
DTLB TOTAL     ACCESS:  130427300  HIT:  130169684  MISS:     257616
DTLB LOAD      ACCESS:  109052558  HIT:  108831760  MISS:     220798
DTLB RFO       ACCESS:   21374742  HIT:   21337924  MISS:      36818
DTLB PREFETCH  ACCESS:          0  HIT:          0  MISS:          0
DTLB WRITEBACK ACCESS:          0  HIT:          0  MISS:          0
DTLB PREFETCH  REQUESTED:          0  ISSUED:          0  USEFUL:          0  USELESS:          0
DTLB TOTAL MSHR MERGED:     121790
DTLB LOAD MSHR MERGED:      83699
DTLB RFO MSHR MERGED:      38091
DTLB PREFETCH MSHR MERGED:          0
DTLB WRITEBACK MSHR MERGED:          0
DTLB TOTAL ACCESSES:  130549090 HITS:  130169684 MISSES:     379406
DTLB LOAD ACCESSES:  109136257 HITS:  108831760 MISSES:     304497
DTLB RFO ACCESSES:   21412833 HITS:   21337924 MISSES:      74909
DTLB PREFETCH ACCESSES:          0 HITS:          0 MISSES:          0
DTLB WRITEBACK ACCESSES:          0 HITS:          0 MISSES:          0
DTLB RQ ACCESS:  218634081
DTLB RQ TO_CACHE:  130549091
DTLB RQ MERGED:   88084990
DTLB RQ FORWARD:          0
DTLB WQ ACCESS:          0
DTLB WQ TO_CACHE:          0
DTLB WQ MERGED:          0
DTLB WQ FORWARD:          0
L1D TOTAL     ACCESS:  204711655  HIT:  193633896  MISS:   11077759
L1D LOAD      ACCESS:  106278750  HIT:  103121682  MISS:    3157068
L1D RFO       ACCESS:   26937885  HIT:   25187760  MISS:    1750125
L1D PREFETCH  ACCESS:   71495020  HIT:   65324454  MISS:    6170566
L1D WRITEBACK ACCESS:          0  HIT:          0  MISS:          0
L1D PREFETCH  REQUESTED:  108940820  ISSUED:  107282618  USEFUL:    5710671  USELESS:     459889
L1D TOTAL MSHR MERGED:   18276285
L1D LOAD MSHR MERGED:    4655971
L1D RFO MSHR MERGED:    6497471
L1D PREFETCH MSHR MERGED:    7122843
L1D WRITEBACK MSHR MERGED:          0
L1D TOTAL ACCESSES:  223050122 HITS:  193696078 MISSES:   29354044
L1D LOAD ACCESSES:  108967205 HITS:  103148067 MISSES:    5819138
L1D RFO ACCESSES:   33433196 HITS:   25187760 MISSES:    8245436
L1D PREFETCH ACCESSES:   80649721 HITS:   65360251 MISSES:   15289470
L1D WRITEBACK ACCESSES:          0 HITS:          0 MISSES:          0
L1D RQ ACCESS:  184990643
L1D RQ TO_CACHE:  108940820
L1D RQ MERGED:   76023438
L1D RQ FORWARD:          0
L1D WQ ACCESS:   33643426
L1D WQ TO_CACHE:   33433195
L1D WQ MERGED:     210231
L1D WQ FORWARD:      62182
L1I TOTAL     ACCESS:  134042887  HIT:  134018309  MISS:      24578
L1I LOAD      ACCESS:  134042887  HIT:  134018309  MISS:      24578
L1I RFO       ACCESS:          0  HIT:          0  MISS:          0
L1I PREFETCH  ACCESS:          0  HIT:          0  MISS:          0
L1I WRITEBACK ACCESS:          0  HIT:          0  MISS:          0
L1I PREFETCH  REQUESTED:          0  ISSUED:          0  USEFUL:          0  USELESS:          0
L1I TOTAL MSHR MERGED:      30397
L1I LOAD MSHR MERGED:      30397
L1I RFO MSHR MERGED:          0
L1I PREFETCH MSHR MERGED:          0
L1I WRITEBACK MSHR MERGED:          0
L1I TOTAL ACCESSES:  134073284 HITS:  134018309 MISSES:      54975
L1I LOAD ACCESSES:  134073284 HITS:  134018309 MISSES:      54975
L1I RFO ACCESSES:          0 HITS:          0 MISSES:          0
L1I PREFETCH ACCESSES:          0 HITS:          0 MISSES:          0
L1I WRITEBACK ACCESSES:          0 HITS:          0 MISSES:          0
L1I RQ ACCESS:  500000005
L1I RQ TO_CACHE:  134073284
L1I RQ MERGED:  365926721
L1I RQ FORWARD:          0
L1I WQ ACCESS:          0
L1I WQ TO_CACHE:          0
L1I WQ MERGED:          0
L1I WQ FORWARD:          0
L2C TOTAL     ACCESS:   14945628  HIT:    6944861  MISS:    8000767
L2C LOAD      ACCESS:    1187556  HIT:     298793  MISS:     888763
L2C RFO       ACCESS:    1747749  HIT:     369662  MISS:    1378087
L2C PREFETCH  ACCESS:    8328215  HIT:    2602995  MISS:    5725220
L2C WRITEBACK ACCESS:    3682108  HIT:    3673411  MISS:       8697
L2C PREFETCH  REQUESTED:     387553  ISSUED:     387553  USEFUL:     114261  USELESS:    5611792
L2C TOTAL MSHR MERGED:      41763
L2C LOAD MSHR MERGED:       2296
L2C RFO MSHR MERGED:       1295
L2C PREFETCH MSHR MERGED:      38172
L2C WRITEBACK MSHR MERGED:          0
L2C TOTAL ACCESSES:   15108388 HITS:    6945547 MISSES:    8162841
L2C LOAD ACCESSES:    1187745 HITS:     298982 MISSES:     888763
L2C RFO ACCESSES:    1747965 HITS:     369878 MISSES:    1378087
L2C PREFETCH ACCESSES:    8490570 HITS:    2603276 MISSES:    5887294
L2C WRITEBACK ACCESSES:    3682108 HITS:    3673411 MISSES:       8697
L2C RQ ACCESS:    2935710
L2C RQ TO_CACHE:    2935305
L2C RQ MERGED:          0
L2C RQ FORWARD:          0
L2C WQ ACCESS:    3682108
L2C WQ TO_CACHE:    3682108
L2C WQ MERGED:          0
L2C WQ FORWARD:        686
LLC TOTAL     ACCESS:   11188001  HIT:    2862262  MISS:    8325739
LLC LOAD      ACCESS:     886459  HIT:     272090  MISS:     614369
LLC RFO       ACCESS:    1376789  HIT:     206605  MISS:    1170184
LLC PREFETCH  ACCESS:    5819804  HIT:    1131151  MISS:    4688653
LLC WRITEBACK ACCESS:    3104949  HIT:    1252416  MISS:    1852533
LLC PREFETCH  REQUESTED:          0  ISSUED:          0  USEFUL:      31680  USELESS:    4656708
LLC TOTAL MSHR MERGED:      22221
LLC LOAD MSHR MERGED:       6733
LLC RFO MSHR MERGED:        578
LLC PREFETCH MSHR MERGED:      14910
LLC WRITEBACK MSHR MERGED:          0
LLC TOTAL ACCESSES:   11210243 HITS:    2862283 MISSES:    8347960
LLC LOAD ACCESSES:     886467 HITS:     272098 MISSES:     614369
LLC RFO ACCESSES:    1376792 HITS:     206608 MISSES:    1170184
LLC PREFETCH ACCESSES:    5842035 HITS:    1131161 MISSES:    4710874
LLC WRITEBACK ACCESSES:    3104949 HITS:    1252416 MISSES:    1852533
LLC 0 RQ ACCESS:    2263259
LLC 0 RQ TO_CACHE:    2263248
LLC 0 RQ MERGED:          0
LLC 0 RQ FORWARD:          0
LLC WQ ACCESS:    3104949
LLC WQ TO_CACHE:    3104949
LLC WQ MERGED:          0
LLC WQ FORWARD:         21
Major fault: 0 Minor fault: 11519
CPU 0 L1D next line prefetcher final stats
CPU 0 L2C PC-based stride prefetcher final stats
All Misses: 10460232
All Hits: 3339023
SD Algo Stats - Switches: 0 SRR-Repls: 690086 BRR-Repls: 0

DRAM Statistics
 CHANNEL 0
 RQ ROW_BUFFER_HIT:    3928194  ROW_BUFFER_MISS:    2544307
 DBUS_CONGESTED:    4472126
 WQ ROW_BUFFER_HIT:     467828  ROW_BUFFER_MISS:    1757729  FULL:        153

 AVG_CONGESTED_CYCLE: 13
LOADS RETIRED: 190375692
INSTR RETIRED: 500000000
