
*** ChampSim Multicore Out-of-Order Simulator ***

Warmup Instructions: 100000000
Simulation Instructions: 500000000
Number of CPUs: 1
LLC sets: 2048
LLC ways: 16
Clean RRIP Policies: 2010021220100212 Dirty RRIP Policies: 1010021210100212 PSEL Width: 10 Track Set: 4294967295 PSEL Mask: 1 Demote Mask: 4111023241110232DS Algo: 0Window size: 0
Off-chip DRAM Size: 4096 MB Channels: 1 Width: 64-bit Data Rate: 1600 MT/s

CPU 0 runs /mnt/beegfs/iconst01/spec2017/Gcc.trace.gz
NOT SORTED
TRACE STRING: /mnt/beegfs/iconst01/spec2017/Gcc.trace.gz
SORTED
TRACE STRING: /mnt/beegfs/iconst01/spec2017/Gcc.trace.gz
INITIAL
TRACE STRING: /mnt/beegfs/iconst01/spec2017/Gcc.trace.gz

champsim_seed used: 269

CPU 0 L1D next line prefetcher
CPU 0 L2C IP-based stride prefetcher
Initialize DRRIP state
Assign rand_sets[0]: 454  LLC: 2048
rand_sets[0]: 454
Assign rand_sets[1]: 1662  LLC: 2048
rand_sets[1]: 1662
Assign rand_sets[2]: 1921  LLC: 2048
rand_sets[2]: 1921
Assign rand_sets[3]: 1131  LLC: 2048
rand_sets[3]: 1131
Assign rand_sets[4]: 331  LLC: 2048
rand_sets[4]: 331
Assign rand_sets[5]: 1531  LLC: 2048
rand_sets[5]: 1531
Assign rand_sets[6]: 482  LLC: 2048
rand_sets[6]: 482
Assign rand_sets[7]: 1275  LLC: 2048
rand_sets[7]: 1275
Assign rand_sets[8]: 1876  LLC: 2048
rand_sets[8]: 1876
Assign rand_sets[9]: 2038  LLC: 2048
rand_sets[9]: 2038
Assign rand_sets[10]: 701  LLC: 2048
rand_sets[10]: 701
Assign rand_sets[11]: 479  LLC: 2048
rand_sets[11]: 479
Assign rand_sets[12]: 892  LLC: 2048
rand_sets[12]: 892
Assign rand_sets[13]: 1820  LLC: 2048
rand_sets[13]: 1820
Assign rand_sets[14]: 1505  LLC: 2048
rand_sets[14]: 1505
Assign rand_sets[15]: 1159  LLC: 2048
rand_sets[15]: 1159
Assign rand_sets[16]: 513  LLC: 2048
rand_sets[16]: 513
Assign rand_sets[17]: 703  LLC: 2048
rand_sets[17]: 703
Assign rand_sets[18]: 561  LLC: 2048
rand_sets[18]: 561
Assign rand_sets[19]: 990  LLC: 2048
rand_sets[19]: 990
Assign rand_sets[20]: 342  LLC: 2048
rand_sets[20]: 342
Assign rand_sets[21]: 882  LLC: 2048
rand_sets[21]: 882
Assign rand_sets[22]: 15  LLC: 2048
rand_sets[22]: 15
Assign rand_sets[23]: 71  LLC: 2048
rand_sets[23]: 71
Assign rand_sets[24]: 1127  LLC: 2048
rand_sets[24]: 1127
Assign rand_sets[25]: 1382  LLC: 2048
rand_sets[25]: 1382
Assign rand_sets[26]: 647  LLC: 2048
rand_sets[26]: 647
Assign rand_sets[27]: 857  LLC: 2048
rand_sets[27]: 857
Assign rand_sets[28]: 1450  LLC: 2048
rand_sets[28]: 1450
Assign rand_sets[29]: 1160  LLC: 2048
rand_sets[29]: 1160
Assign rand_sets[30]: 1852  LLC: 2048
rand_sets[30]: 1852
Assign rand_sets[31]: 1881  LLC: 2048
rand_sets[31]: 1881
Assign rand_sets[32]: 1770  LLC: 2048
rand_sets[32]: 1770
Assign rand_sets[33]: 1622  LLC: 2048
rand_sets[33]: 1622
Assign rand_sets[34]: 275  LLC: 2048
rand_sets[34]: 275
Assign rand_sets[35]: 635  LLC: 2048
rand_sets[35]: 635
Assign rand_sets[36]: 466  LLC: 2048
rand_sets[36]: 466
Assign rand_sets[37]: 1413  LLC: 2048
rand_sets[37]: 1413
Assign rand_sets[38]: 417  LLC: 2048
rand_sets[38]: 417
Assign rand_sets[39]: 472  LLC: 2048
rand_sets[39]: 472
Assign rand_sets[40]: 1340  LLC: 2048
rand_sets[40]: 1340
Assign rand_sets[41]: 852  LLC: 2048
rand_sets[41]: 852
Assign rand_sets[42]: 1365  LLC: 2048
rand_sets[42]: 1365
Assign rand_sets[43]: 47  LLC: 2048
rand_sets[43]: 47
Assign rand_sets[44]: 823  LLC: 2048
rand_sets[44]: 823
Assign rand_sets[45]: 686  LLC: 2048
rand_sets[45]: 686
Assign rand_sets[46]: 1637  LLC: 2048
rand_sets[46]: 1637
Assign rand_sets[47]: 1115  LLC: 2048
rand_sets[47]: 1115
Assign rand_sets[48]: 986  LLC: 2048
rand_sets[48]: 986
Assign rand_sets[49]: 258  LLC: 2048
rand_sets[49]: 258
Assign rand_sets[50]: 633  LLC: 2048
rand_sets[50]: 633
Assign rand_sets[51]: 920  LLC: 2048
rand_sets[51]: 920
Assign rand_sets[52]: 204  LLC: 2048
rand_sets[52]: 204
Assign rand_sets[53]: 227  LLC: 2048
rand_sets[53]: 227
Assign rand_sets[54]: 1818  LLC: 2048
rand_sets[54]: 1818
Assign rand_sets[55]: 886  LLC: 2048
rand_sets[55]: 886
Assign rand_sets[56]: 1422  LLC: 2048
rand_sets[56]: 1422
Assign rand_sets[57]: 607  LLC: 2048
rand_sets[57]: 607
Assign rand_sets[58]: 217  LLC: 2048
rand_sets[58]: 217
Assign rand_sets[59]: 1945  LLC: 2048
rand_sets[59]: 1945
Assign rand_sets[60]: 143  LLC: 2048
rand_sets[60]: 143
Assign rand_sets[61]: 1311  LLC: 2048
rand_sets[61]: 1311
Assign rand_sets[62]: 319  LLC: 2048
rand_sets[62]: 319
Assign rand_sets[63]: 1846  LLC: 2048
rand_sets[63]: 1846
 CLEAN-RRIP-POLICY-1: 2-0-1-0-0-2-1-2- CLEAN-RRIP-POLICY-2: 2-0-1-0-0-2-1-2-
 DIRTY-RRIP-POLICY-1: 1-0-1-0-0-2-1-2- DIRTY-RRIP-POLICY-2: 1-0-1-0-0-2-1-2-
 PSEL width: 10
Heartbeat CPU 0 instructions: 10000001 cycles: 7315927 heartbeat IPC: 1.36688 cumulative IPC: 1.36688 (Simulation time: 0 hr 0 min 15 sec) 
Heartbeat CPU 0 instructions: 20000000 cycles: 14308961 heartbeat IPC: 1.42999 cumulative IPC: 1.39773 (Simulation time: 0 hr 0 min 30 sec) 
Heartbeat CPU 0 instructions: 30000001 cycles: 21023372 heartbeat IPC: 1.48933 cumulative IPC: 1.42698 (Simulation time: 0 hr 0 min 47 sec) 
Heartbeat CPU 0 instructions: 40000000 cycles: 27484505 heartbeat IPC: 1.54772 cumulative IPC: 1.45537 (Simulation time: 0 hr 1 min 3 sec) 
Heartbeat CPU 0 instructions: 50000001 cycles: 33586421 heartbeat IPC: 1.63883 cumulative IPC: 1.4887 (Simulation time: 0 hr 1 min 19 sec) 
Heartbeat CPU 0 instructions: 60000000 cycles: 40067910 heartbeat IPC: 1.54286 cumulative IPC: 1.49746 (Simulation time: 0 hr 1 min 36 sec) 
Heartbeat CPU 0 instructions: 70000000 cycles: 47110390 heartbeat IPC: 1.41995 cumulative IPC: 1.48587 (Simulation time: 0 hr 1 min 51 sec) 
Heartbeat CPU 0 instructions: 80000000 cycles: 54205411 heartbeat IPC: 1.40944 cumulative IPC: 1.47587 (Simulation time: 0 hr 2 min 6 sec) 
Heartbeat CPU 0 instructions: 90000003 cycles: 61215219 heartbeat IPC: 1.42657 cumulative IPC: 1.47022 (Simulation time: 0 hr 2 min 21 sec) 
Heartbeat CPU 0 instructions: 100000000 cycles: 68388718 heartbeat IPC: 1.39402 cumulative IPC: 1.46223 (Simulation time: 0 hr 2 min 36 sec) 

Warmup complete CPU 0 instructions: 100000004 cycles: 68388719 (Simulation time: 0 hr 2 min 36 sec) 

Heartbeat CPU 0 instructions: 110000003 cycles: 97118644 heartbeat IPC: 0.348069 cumulative IPC: 0.348069 (Simulation time: 0 hr 3 min 7 sec) 
Heartbeat CPU 0 instructions: 120000000 cycles: 125005774 heartbeat IPC: 0.358588 cumulative IPC: 0.35325 (Simulation time: 0 hr 3 min 37 sec) 
Heartbeat CPU 0 instructions: 130000000 cycles: 150290522 heartbeat IPC: 0.395495 cumulative IPC: 0.366292 (Simulation time: 0 hr 4 min 7 sec) 
Heartbeat CPU 0 instructions: 140000000 cycles: 181873434 heartbeat IPC: 0.316627 cumulative IPC: 0.35247 (Simulation time: 0 hr 4 min 38 sec) 
Heartbeat CPU 0 instructions: 150000000 cycles: 213271402 heartbeat IPC: 0.318492 cumulative IPC: 0.345107 (Simulation time: 0 hr 5 min 8 sec) 
Heartbeat CPU 0 instructions: 160000000 cycles: 241230894 heartbeat IPC: 0.35766 cumulative IPC: 0.347137 (Simulation time: 0 hr 5 min 37 sec) 
Heartbeat CPU 0 instructions: 170000001 cycles: 269897242 heartbeat IPC: 0.348841 cumulative IPC: 0.34738 (Simulation time: 0 hr 6 min 9 sec) 
Heartbeat CPU 0 instructions: 180000000 cycles: 299187177 heartbeat IPC: 0.341414 cumulative IPC: 0.346623 (Simulation time: 0 hr 6 min 40 sec) 
Heartbeat CPU 0 instructions: 190000002 cycles: 328084216 heartbeat IPC: 0.346056 cumulative IPC: 0.34656 (Simulation time: 0 hr 7 min 10 sec) 
Heartbeat CPU 0 instructions: 200000000 cycles: 357352364 heartbeat IPC: 0.341668 cumulative IPC: 0.346064 (Simulation time: 0 hr 7 min 41 sec) 
Heartbeat CPU 0 instructions: 210000002 cycles: 386051209 heartbeat IPC: 0.348446 cumulative IPC: 0.346279 (Simulation time: 0 hr 8 min 11 sec) 
Heartbeat CPU 0 instructions: 220000000 cycles: 417460054 heartbeat IPC: 0.318382 cumulative IPC: 0.343769 (Simulation time: 0 hr 8 min 41 sec) 
Heartbeat CPU 0 instructions: 230000000 cycles: 446091367 heartbeat IPC: 0.349268 cumulative IPC: 0.344186 (Simulation time: 0 hr 9 min 11 sec) 
Heartbeat CPU 0 instructions: 240000000 cycles: 472728175 heartbeat IPC: 0.37542 cumulative IPC: 0.346244 (Simulation time: 0 hr 9 min 39 sec) 
Heartbeat CPU 0 instructions: 250000000 cycles: 503605109 heartbeat IPC: 0.323866 cumulative IPC: 0.344656 (Simulation time: 0 hr 10 min 11 sec) 
Heartbeat CPU 0 instructions: 260000000 cycles: 531091966 heartbeat IPC: 0.36381 cumulative IPC: 0.345794 (Simulation time: 0 hr 10 min 41 sec) 
Heartbeat CPU 0 instructions: 270000003 cycles: 560195678 heartbeat IPC: 0.343599 cumulative IPC: 0.345664 (Simulation time: 0 hr 11 min 12 sec) 
Heartbeat CPU 0 instructions: 280000000 cycles: 589208726 heartbeat IPC: 0.344672 cumulative IPC: 0.345609 (Simulation time: 0 hr 11 min 43 sec) 
Heartbeat CPU 0 instructions: 290000000 cycles: 618807876 heartbeat IPC: 0.337848 cumulative IPC: 0.345191 (Simulation time: 0 hr 12 min 15 sec) 
Heartbeat CPU 0 instructions: 300000000 cycles: 650698465 heartbeat IPC: 0.313572 cumulative IPC: 0.34346 (Simulation time: 0 hr 12 min 45 sec) 
Heartbeat CPU 0 instructions: 310000001 cycles: 681578868 heartbeat IPC: 0.32383 cumulative IPC: 0.342471 (Simulation time: 0 hr 13 min 16 sec) 
Heartbeat CPU 0 instructions: 320000000 cycles: 711417370 heartbeat IPC: 0.335137 cumulative IPC: 0.342131 (Simulation time: 0 hr 13 min 46 sec) 
Heartbeat CPU 0 instructions: 330000000 cycles: 741325233 heartbeat IPC: 0.33436 cumulative IPC: 0.341786 (Simulation time: 0 hr 14 min 16 sec) 
Heartbeat CPU 0 instructions: 340000000 cycles: 772059984 heartbeat IPC: 0.325365 cumulative IPC: 0.341068 (Simulation time: 0 hr 14 min 46 sec) 
Heartbeat CPU 0 instructions: 350000003 cycles: 799926844 heartbeat IPC: 0.358849 cumulative IPC: 0.341746 (Simulation time: 0 hr 15 min 16 sec) 
