
*** ChampSim Multicore Out-of-Order Simulator ***

Warmup Instructions: 100000000
Simulation Instructions: 500000000
Number of CPUs: 1
LLC sets: 2048
LLC ways: 16
Clean RRIP Policies: 1113130111131301 Dirty RRIP Policies: 1103230111032301 PSEL Width: 10 Track Set: 4294967295 PSEL Mask: 1 Demote Mask: 4004144440041444DS Algo: 0Window size: 0
Off-chip DRAM Size: 4096 MB Channels: 1 Width: 64-bit Data Rate: 1600 MT/s

CPU 0 runs /mnt/beegfs/iconst01/spec2017/Gcc.trace.gz
NOT SORTED
TRACE STRING: /mnt/beegfs/iconst01/spec2017/Gcc.trace.gz
SORTED
TRACE STRING: /mnt/beegfs/iconst01/spec2017/Gcc.trace.gz
INITIAL
TRACE STRING: /mnt/beegfs/iconst01/spec2017/Gcc.trace.gz

champsim_seed used: 269

CPU 0 L1D next line prefetcher
CPU 0 L2C IP-based stride prefetcher
Initialize DRRIP state
Assign rand_sets[0]: 454  LLC: 2048
rand_sets[0]: 454
Assign rand_sets[1]: 1662  LLC: 2048
rand_sets[1]: 1662
Assign rand_sets[2]: 1921  LLC: 2048
rand_sets[2]: 1921
Assign rand_sets[3]: 1131  LLC: 2048
rand_sets[3]: 1131
Assign rand_sets[4]: 331  LLC: 2048
rand_sets[4]: 331
Assign rand_sets[5]: 1531  LLC: 2048
rand_sets[5]: 1531
Assign rand_sets[6]: 482  LLC: 2048
rand_sets[6]: 482
Assign rand_sets[7]: 1275  LLC: 2048
rand_sets[7]: 1275
Assign rand_sets[8]: 1876  LLC: 2048
rand_sets[8]: 1876
Assign rand_sets[9]: 2038  LLC: 2048
rand_sets[9]: 2038
Assign rand_sets[10]: 701  LLC: 2048
rand_sets[10]: 701
Assign rand_sets[11]: 479  LLC: 2048
rand_sets[11]: 479
Assign rand_sets[12]: 892  LLC: 2048
rand_sets[12]: 892
Assign rand_sets[13]: 1820  LLC: 2048
rand_sets[13]: 1820
Assign rand_sets[14]: 1505  LLC: 2048
rand_sets[14]: 1505
Assign rand_sets[15]: 1159  LLC: 2048
rand_sets[15]: 1159
Assign rand_sets[16]: 513  LLC: 2048
rand_sets[16]: 513
Assign rand_sets[17]: 703  LLC: 2048
rand_sets[17]: 703
Assign rand_sets[18]: 561  LLC: 2048
rand_sets[18]: 561
Assign rand_sets[19]: 990  LLC: 2048
rand_sets[19]: 990
Assign rand_sets[20]: 342  LLC: 2048
rand_sets[20]: 342
Assign rand_sets[21]: 882  LLC: 2048
rand_sets[21]: 882
Assign rand_sets[22]: 15  LLC: 2048
rand_sets[22]: 15
Assign rand_sets[23]: 71  LLC: 2048
rand_sets[23]: 71
Assign rand_sets[24]: 1127  LLC: 2048
rand_sets[24]: 1127
Assign rand_sets[25]: 1382  LLC: 2048
rand_sets[25]: 1382
Assign rand_sets[26]: 647  LLC: 2048
rand_sets[26]: 647
Assign rand_sets[27]: 857  LLC: 2048
rand_sets[27]: 857
Assign rand_sets[28]: 1450  LLC: 2048
rand_sets[28]: 1450
Assign rand_sets[29]: 1160  LLC: 2048
rand_sets[29]: 1160
Assign rand_sets[30]: 1852  LLC: 2048
rand_sets[30]: 1852
Assign rand_sets[31]: 1881  LLC: 2048
rand_sets[31]: 1881
Assign rand_sets[32]: 1770  LLC: 2048
rand_sets[32]: 1770
Assign rand_sets[33]: 1622  LLC: 2048
rand_sets[33]: 1622
Assign rand_sets[34]: 275  LLC: 2048
rand_sets[34]: 275
Assign rand_sets[35]: 635  LLC: 2048
rand_sets[35]: 635
Assign rand_sets[36]: 466  LLC: 2048
rand_sets[36]: 466
Assign rand_sets[37]: 1413  LLC: 2048
rand_sets[37]: 1413
Assign rand_sets[38]: 417  LLC: 2048
rand_sets[38]: 417
Assign rand_sets[39]: 472  LLC: 2048
rand_sets[39]: 472
Assign rand_sets[40]: 1340  LLC: 2048
rand_sets[40]: 1340
Assign rand_sets[41]: 852  LLC: 2048
rand_sets[41]: 852
Assign rand_sets[42]: 1365  LLC: 2048
rand_sets[42]: 1365
Assign rand_sets[43]: 47  LLC: 2048
rand_sets[43]: 47
Assign rand_sets[44]: 823  LLC: 2048
rand_sets[44]: 823
Assign rand_sets[45]: 686  LLC: 2048
rand_sets[45]: 686
Assign rand_sets[46]: 1637  LLC: 2048
rand_sets[46]: 1637
Assign rand_sets[47]: 1115  LLC: 2048
rand_sets[47]: 1115
Assign rand_sets[48]: 986  LLC: 2048
rand_sets[48]: 986
Assign rand_sets[49]: 258  LLC: 2048
rand_sets[49]: 258
Assign rand_sets[50]: 633  LLC: 2048
rand_sets[50]: 633
Assign rand_sets[51]: 920  LLC: 2048
rand_sets[51]: 920
Assign rand_sets[52]: 204  LLC: 2048
rand_sets[52]: 204
Assign rand_sets[53]: 227  LLC: 2048
rand_sets[53]: 227
Assign rand_sets[54]: 1818  LLC: 2048
rand_sets[54]: 1818
Assign rand_sets[55]: 886  LLC: 2048
rand_sets[55]: 886
Assign rand_sets[56]: 1422  LLC: 2048
rand_sets[56]: 1422
Assign rand_sets[57]: 607  LLC: 2048
rand_sets[57]: 607
Assign rand_sets[58]: 217  LLC: 2048
rand_sets[58]: 217
Assign rand_sets[59]: 1945  LLC: 2048
rand_sets[59]: 1945
Assign rand_sets[60]: 143  LLC: 2048
rand_sets[60]: 143
Assign rand_sets[61]: 1311  LLC: 2048
rand_sets[61]: 1311
Assign rand_sets[62]: 319  LLC: 2048
rand_sets[62]: 319
Assign rand_sets[63]: 1846  LLC: 2048
rand_sets[63]: 1846
 CLEAN-RRIP-POLICY-1: 1-1-1-3-1-3-0-1- CLEAN-RRIP-POLICY-2: 1-1-1-3-1-3-0-1-
 DIRTY-RRIP-POLICY-1: 1-1-0-3-2-3-0-1- DIRTY-RRIP-POLICY-2: 1-1-0-3-2-3-0-1-
 PSEL width: 10
Heartbeat CPU 0 instructions: 10000001 cycles: 7315981 heartbeat IPC: 1.36687 cumulative IPC: 1.36687 (Simulation time: 0 hr 0 min 15 sec) 
Heartbeat CPU 0 instructions: 20000000 cycles: 14307476 heartbeat IPC: 1.43031 cumulative IPC: 1.39787 (Simulation time: 0 hr 0 min 29 sec) 
Heartbeat CPU 0 instructions: 30000001 cycles: 21020283 heartbeat IPC: 1.48969 cumulative IPC: 1.42719 (Simulation time: 0 hr 0 min 45 sec) 
Heartbeat CPU 0 instructions: 40000000 cycles: 27481011 heartbeat IPC: 1.54781 cumulative IPC: 1.45555 (Simulation time: 0 hr 1 min 1 sec) 
Heartbeat CPU 0 instructions: 50000001 cycles: 33582642 heartbeat IPC: 1.63891 cumulative IPC: 1.48886 (Simulation time: 0 hr 1 min 17 sec) 
Heartbeat CPU 0 instructions: 60000000 cycles: 40063758 heartbeat IPC: 1.54294 cumulative IPC: 1.49761 (Simulation time: 0 hr 1 min 33 sec) 
Heartbeat CPU 0 instructions: 70000000 cycles: 47101270 heartbeat IPC: 1.42096 cumulative IPC: 1.48616 (Simulation time: 0 hr 1 min 47 sec) 
Heartbeat CPU 0 instructions: 80000000 cycles: 54190617 heartbeat IPC: 1.41057 cumulative IPC: 1.47627 (Simulation time: 0 hr 2 min 2 sec) 
Heartbeat CPU 0 instructions: 90000003 cycles: 61194780 heartbeat IPC: 1.42772 cumulative IPC: 1.47071 (Simulation time: 0 hr 2 min 17 sec) 
Heartbeat CPU 0 instructions: 100000000 cycles: 68361718 heartbeat IPC: 1.3953 cumulative IPC: 1.46281 (Simulation time: 0 hr 2 min 31 sec) 

Warmup complete CPU 0 instructions: 100000004 cycles: 68361719 (Simulation time: 0 hr 2 min 31 sec) 

Heartbeat CPU 0 instructions: 110000003 cycles: 95946127 heartbeat IPC: 0.362524 cumulative IPC: 0.362524 (Simulation time: 0 hr 2 min 59 sec) 
Heartbeat CPU 0 instructions: 120000000 cycles: 123376631 heartbeat IPC: 0.364558 cumulative IPC: 0.363538 (Simulation time: 0 hr 3 min 28 sec) 
Heartbeat CPU 0 instructions: 130000000 cycles: 148322437 heartbeat IPC: 0.400869 cumulative IPC: 0.375184 (Simulation time: 0 hr 3 min 56 sec) 
Heartbeat CPU 0 instructions: 140000000 cycles: 177671632 heartbeat IPC: 0.340725 cumulative IPC: 0.365932 (Simulation time: 0 hr 4 min 24 sec) 
Heartbeat CPU 0 instructions: 150000000 cycles: 207463388 heartbeat IPC: 0.335663 cumulative IPC: 0.359449 (Simulation time: 0 hr 4 min 52 sec) 
Heartbeat CPU 0 instructions: 160000000 cycles: 234836520 heartbeat IPC: 0.365322 cumulative IPC: 0.360415 (Simulation time: 0 hr 5 min 19 sec) 
Heartbeat CPU 0 instructions: 170000001 cycles: 262792047 heartbeat IPC: 0.357711 cumulative IPC: 0.360026 (Simulation time: 0 hr 5 min 48 sec) 
Heartbeat CPU 0 instructions: 180000000 cycles: 291174944 heartbeat IPC: 0.352325 cumulative IPC: 0.359045 (Simulation time: 0 hr 6 min 17 sec) 
Heartbeat CPU 0 instructions: 190000002 cycles: 319081458 heartbeat IPC: 0.358339 cumulative IPC: 0.358967 (Simulation time: 0 hr 6 min 45 sec) 
Heartbeat CPU 0 instructions: 200000000 cycles: 347366976 heartbeat IPC: 0.353538 cumulative IPC: 0.358416 (Simulation time: 0 hr 7 min 14 sec) 
Heartbeat CPU 0 instructions: 210000002 cycles: 375127215 heartbeat IPC: 0.360228 cumulative IPC: 0.35858 (Simulation time: 0 hr 7 min 42 sec) 
Heartbeat CPU 0 instructions: 220000000 cycles: 404138566 heartbeat IPC: 0.344693 cumulative IPC: 0.35738 (Simulation time: 0 hr 8 min 10 sec) 
Heartbeat CPU 0 instructions: 230000000 cycles: 431606902 heartbeat IPC: 0.364056 cumulative IPC: 0.357885 (Simulation time: 0 hr 8 min 37 sec) 
Heartbeat CPU 0 instructions: 240000000 cycles: 457514540 heartbeat IPC: 0.385987 cumulative IPC: 0.359756 (Simulation time: 0 hr 9 min 4 sec) 
Heartbeat CPU 0 instructions: 250000000 cycles: 487587889 heartbeat IPC: 0.33252 cumulative IPC: 0.357802 (Simulation time: 0 hr 9 min 33 sec) 
Heartbeat CPU 0 instructions: 260000000 cycles: 514633506 heartbeat IPC: 0.369746 cumulative IPC: 0.358526 (Simulation time: 0 hr 10 min 1 sec) 
Heartbeat CPU 0 instructions: 270000003 cycles: 542972238 heartbeat IPC: 0.352874 cumulative IPC: 0.358188 (Simulation time: 0 hr 10 min 30 sec) 
Heartbeat CPU 0 instructions: 280000000 cycles: 571041976 heartbeat IPC: 0.356255 cumulative IPC: 0.358081 (Simulation time: 0 hr 10 min 59 sec) 
Heartbeat CPU 0 instructions: 290000000 cycles: 599844674 heartbeat IPC: 0.34719 cumulative IPC: 0.35749 (Simulation time: 0 hr 11 min 29 sec) 
Heartbeat CPU 0 instructions: 300000000 cycles: 629571628 heartbeat IPC: 0.336395 cumulative IPC: 0.356373 (Simulation time: 0 hr 11 min 57 sec) 
Heartbeat CPU 0 instructions: 310000001 cycles: 658868731 heartbeat IPC: 0.341331 cumulative IPC: 0.355627 (Simulation time: 0 hr 12 min 25 sec) 
Heartbeat CPU 0 instructions: 320000000 cycles: 686970253 heartbeat IPC: 0.355853 cumulative IPC: 0.355637 (Simulation time: 0 hr 12 min 52 sec) 
Heartbeat CPU 0 instructions: 330000000 cycles: 715519726 heartbeat IPC: 0.350269 cumulative IPC: 0.3554 (Simulation time: 0 hr 13 min 20 sec) 
Heartbeat CPU 0 instructions: 340000000 cycles: 744722630 heartbeat IPC: 0.342432 cumulative IPC: 0.35484 (Simulation time: 0 hr 13 min 48 sec) 
Heartbeat CPU 0 instructions: 350000003 cycles: 771676447 heartbeat IPC: 0.371005 cumulative IPC: 0.35546 (Simulation time: 0 hr 14 min 16 sec) 
Heartbeat CPU 0 instructions: 360000000 cycles: 799715879 heartbeat IPC: 0.35664 cumulative IPC: 0.355505 (Simulation time: 0 hr 14 min 43 sec) 
Heartbeat CPU 0 instructions: 370000000 cycles: 827882722 heartbeat IPC: 0.355027 cumulative IPC: 0.355487 (Simulation time: 0 hr 15 min 10 sec) 
Heartbeat CPU 0 instructions: 380000000 cycles: 856371969 heartbeat IPC: 0.35101 cumulative IPC: 0.355325 (Simulation time: 0 hr 15 min 37 sec) 
Heartbeat CPU 0 instructions: 390000001 cycles: 883972610 heartbeat IPC: 0.36231 cumulative IPC: 0.355562 (Simulation time: 0 hr 16 min 3 sec) 
Heartbeat CPU 0 instructions: 400000000 cycles: 912592702 heartbeat IPC: 0.349405 cumulative IPC: 0.355353 (Simulation time: 0 hr 16 min 30 sec) 
Heartbeat CPU 0 instructions: 410000001 cycles: 939902089 heartbeat IPC: 0.366174 cumulative IPC: 0.355692 (Simulation time: 0 hr 16 min 57 sec) 
Heartbeat CPU 0 instructions: 420000000 cycles: 967224557 heartbeat IPC: 0.365999 cumulative IPC: 0.356005 (Simulation time: 0 hr 17 min 24 sec) 
Heartbeat CPU 0 instructions: 430000002 cycles: 994899507 heartbeat IPC: 0.361338 cumulative IPC: 0.356165 (Simulation time: 0 hr 17 min 51 sec) 
Heartbeat CPU 0 instructions: 440000000 cycles: 1024368473 heartbeat IPC: 0.33934 cumulative IPC: 0.355646 (Simulation time: 0 hr 18 min 18 sec) 
Heartbeat CPU 0 instructions: 450000002 cycles: 1053581056 heartbeat IPC: 0.342318 cumulative IPC: 0.355251 (Simulation time: 0 hr 18 min 45 sec) 
Heartbeat CPU 0 instructions: 460000000 cycles: 1081264535 heartbeat IPC: 0.361226 cumulative IPC: 0.355414 (Simulation time: 0 hr 19 min 12 sec) 
Heartbeat CPU 0 instructions: 470000000 cycles: 1108898489 heartbeat IPC: 0.361874 cumulative IPC: 0.355586 (Simulation time: 0 hr 19 min 39 sec) 
Heartbeat CPU 0 instructions: 480000000 cycles: 1136779813 heartbeat IPC: 0.358663 cumulative IPC: 0.355666 (Simulation time: 0 hr 20 min 5 sec) 
Heartbeat CPU 0 instructions: 490000000 cycles: 1164373799 heartbeat IPC: 0.362398 cumulative IPC: 0.355835 (Simulation time: 0 hr 20 min 32 sec) 
Heartbeat CPU 0 instructions: 500000000 cycles: 1192640176 heartbeat IPC: 0.353777 cumulative IPC: 0.355784 (Simulation time: 0 hr 20 min 59 sec) 
Heartbeat CPU 0 instructions: 510000000 cycles: 1227630215 heartbeat IPC: 0.285796 cumulative IPC: 0.353671 (Simulation time: 0 hr 21 min 30 sec) 
Heartbeat CPU 0 instructions: 520000000 cycles: 1255577637 heartbeat IPC: 0.357815 cumulative IPC: 0.353769 (Simulation time: 0 hr 21 min 58 sec) 
Heartbeat CPU 0 instructions: 530000001 cycles: 1284789774 heartbeat IPC: 0.342324 cumulative IPC: 0.353494 (Simulation time: 0 hr 22 min 26 sec) 
Heartbeat CPU 0 instructions: 540000000 cycles: 1312757371 heartbeat IPC: 0.357557 cumulative IPC: 0.353585 (Simulation time: 0 hr 22 min 54 sec) 
Heartbeat CPU 0 instructions: 550000001 cycles: 1341918690 heartbeat IPC: 0.34292 cumulative IPC: 0.353341 (Simulation time: 0 hr 23 min 23 sec) 
Heartbeat CPU 0 instructions: 560000000 cycles: 1367245540 heartbeat IPC: 0.394838 cumulative IPC: 0.35415 (Simulation time: 0 hr 23 min 50 sec) 
Heartbeat CPU 0 instructions: 570000000 cycles: 1396597231 heartbeat IPC: 0.340696 cumulative IPC: 0.353853 (Simulation time: 0 hr 24 min 19 sec) 
Heartbeat CPU 0 instructions: 580000000 cycles: 1424494152 heartbeat IPC: 0.358463 cumulative IPC: 0.353948 (Simulation time: 0 hr 24 min 47 sec) 
Heartbeat CPU 0 instructions: 590000001 cycles: 1449248692 heartbeat IPC: 0.403966 cumulative IPC: 0.354844 (Simulation time: 0 hr 25 min 13 sec) 
Heartbeat CPU 0 instructions: 600000000 cycles: 1475347605 heartbeat IPC: 0.383158 cumulative IPC: 0.35537 (Simulation time: 0 hr 25 min 41 sec) 
Finished CPU 0 instructions: 500000000 cycles: 1406985908 cumulative IPC: 0.35537 (Simulation time: 0 hr 25 min 41 sec) 

CPU 0 Branch Prediction Accuracy: 86.4311% MPKI: 26.2662
Number of Branches: 96788573 Number of Mispredictions: 13133102
Number of LOAD Instructions: 164682285
Number of LOAD Instructions (ROI): 164682285
Number of STORE Instructions: 78194750
Number of STORE Instructions (ROI): 78194750
Total Destination Memory Operands: 83268534
Total Destination Memory Operands (ROI): 83268534
Total Source Memory Operands: 164712438
Total Source Memory Operands (ROI): 164712438
Number of DEPENDED LOADS: 7060700
Number of DEPENDED LOADS (ROI): 7060700
Number of SQ_ADDED: 83268522
Number of SQ_ADDED (ROI): 83268522
Number of LQ_ADDED: 236720911
Number of LQ_ADDED (ROI): 236720911
Number of Instructions read from trace: 600000066

ChampSim completed all CPUs

Region of Interest Statistics

CPU 0 cumulative IPC: 0.35537 instructions: 500000000 cycles: 1406985908
ITLB TOTAL     ACCESS:  100510283  HIT:  100305837  MISS:     204446
ITLB LOAD      ACCESS:  100510283  HIT:  100305837  MISS:     204446
ITLB RFO       ACCESS:          0  HIT:          0  MISS:          0
ITLB PREFETCH  ACCESS:          0  HIT:          0  MISS:          0
ITLB WRITEBACK ACCESS:          0  HIT:          0  MISS:          0
ITLB PREFETCH  REQUESTED:          0  ISSUED:          0  USEFUL:          0  USELESS:          0
ITLB TOTAL MSHR MERGED:     172424
ITLB LOAD MSHR MERGED:     172424
ITLB RFO MSHR MERGED:          0
ITLB PREFETCH MSHR MERGED:          0
ITLB WRITEBACK MSHR MERGED:          0
ITLB TOTAL ACCESSES:  100682707 HITS:  100305837 MISSES:     376870
ITLB LOAD ACCESSES:  100682707 HITS:  100305837 MISSES:     376870
ITLB RFO ACCESSES:          0 HITS:          0 MISSES:          0
ITLB PREFETCH ACCESSES:          0 HITS:          0 MISSES:          0
ITLB WRITEBACK ACCESSES:          0 HITS:          0 MISSES:          0
ITLB RQ ACCESS:  500000057
ITLB RQ TO_CACHE:  100682707
ITLB RQ MERGED:  399317350
ITLB RQ FORWARD:          0
ITLB WQ ACCESS:          0
ITLB WQ TO_CACHE:          0
ITLB WQ MERGED:          0
ITLB WQ FORWARD:          0
DTLB TOTAL     ACCESS:  165334762  HIT:  164700414  MISS:     634348
DTLB LOAD      ACCESS:  106290947  HIT:  105720973  MISS:     569974
DTLB RFO       ACCESS:   59043815  HIT:   58979441  MISS:      64374
DTLB PREFETCH  ACCESS:          0  HIT:          0  MISS:          0
DTLB WRITEBACK ACCESS:          0  HIT:          0  MISS:          0
DTLB PREFETCH  REQUESTED:          0  ISSUED:          0  USEFUL:          0  USELESS:          0
DTLB TOTAL MSHR MERGED:     100029
DTLB LOAD MSHR MERGED:      59470
DTLB RFO MSHR MERGED:      40559
DTLB PREFETCH MSHR MERGED:          0
DTLB WRITEBACK MSHR MERGED:          0
DTLB TOTAL ACCESSES:  165434791 HITS:  164700414 MISSES:     734377
DTLB LOAD ACCESSES:  106350417 HITS:  105720973 MISSES:     629444
DTLB RFO ACCESSES:   59084374 HITS:   58979441 MISSES:     104933
DTLB PREFETCH ACCESSES:          0 HITS:          0 MISSES:          0
DTLB WRITEBACK ACCESSES:          0 HITS:          0 MISSES:          0
DTLB RQ ACCESS:  200310201
DTLB RQ TO_CACHE:  165434791
DTLB RQ MERGED:   34875410
DTLB RQ FORWARD:          0
DTLB WQ ACCESS:          0
DTLB WQ TO_CACHE:          0
DTLB WQ MERGED:          0
DTLB WQ FORWARD:          0
L1D TOTAL     ACCESS:  281818371  HIT:  273909078  MISS:    7909293
L1D LOAD      ACCESS:  110414953  HIT:  107136802  MISS:    3278151
L1D RFO       ACCESS:   67110811  HIT:   66219931  MISS:     890880
L1D PREFETCH  ACCESS:  104292607  HIT:  100552345  MISS:    3740262
L1D WRITEBACK ACCESS:          0  HIT:          0  MISS:          0
L1D PREFETCH  REQUESTED:  110815555  ISSUED:  109116290  USEFUL:    1661021  USELESS:    2079205
L1D TOTAL MSHR MERGED:    2882260
L1D LOAD MSHR MERGED:     498167
L1D RFO MSHR MERGED:    1875405
L1D PREFETCH MSHR MERGED:     508688
L1D WRITEBACK MSHR MERGED:          0
L1D TOTAL ACCESSES:  284728134 HITS:  273936581 MISSES:   10791553
L1D LOAD ACCESSES:  110817053 HITS:  107138300 MISSES:    3678753
L1D RFO ACCESSES:   68974128 HITS:   66219931 MISSES:    2754197
L1D PREFETCH ACCESSES:  104936953 HITS:  100578350 MISSES:    4358603
L1D WRITEBACK ACCESSES:          0 HITS:          0 MISSES:          0
L1D RQ ACCESS:  130757598
L1D RQ TO_CACHE:  110815558
L1D RQ MERGED:   19940542
L1D RQ FORWARD:          0
L1D WQ ACCESS:   69552603
L1D WQ TO_CACHE:   68974129
L1D WQ MERGED:     578474
L1D WQ FORWARD:      27503
L1I TOTAL     ACCESS:  126558114  HIT:  122319561  MISS:    4238553
L1I LOAD      ACCESS:  126558114  HIT:  122319561  MISS:    4238553
L1I RFO       ACCESS:          0  HIT:          0  MISS:          0
L1I PREFETCH  ACCESS:          0  HIT:          0  MISS:          0
L1I WRITEBACK ACCESS:          0  HIT:          0  MISS:          0
L1I PREFETCH  REQUESTED:          0  ISSUED:          0  USEFUL:          0  USELESS:          0
L1I TOTAL MSHR MERGED:    1834370
L1I LOAD MSHR MERGED:    1834370
L1I RFO MSHR MERGED:          0
L1I PREFETCH MSHR MERGED:          0
L1I WRITEBACK MSHR MERGED:          0
L1I TOTAL ACCESSES:  128392487 HITS:  122319561 MISSES:    6072926
L1I LOAD ACCESSES:  128392487 HITS:  122319561 MISSES:    6072926
L1I RFO ACCESSES:          0 HITS:          0 MISSES:          0
L1I PREFETCH ACCESSES:          0 HITS:          0 MISSES:          0
L1I WRITEBACK ACCESSES:          0 HITS:          0 MISSES:          0
L1I RQ ACCESS:  500000057
L1I RQ TO_CACHE:  128392487
L1I RQ MERGED:  371607570
L1I RQ FORWARD:          0
L1I WQ ACCESS:          0
L1I WQ TO_CACHE:          0
L1I WQ MERGED:          0
L1I WQ FORWARD:          0
L2C TOTAL     ACCESS:   14904744  HIT:   11158379  MISS:    3746365
L2C LOAD      ACCESS:    7418932  HIT:    5098832  MISS:    2320100
L2C RFO       ACCESS:     878694  HIT:     409910  MISS:     468784
L2C PREFETCH  ACCESS:    4567886  HIT:    3627662  MISS:     940224
L2C WRITEBACK ACCESS:    2039232  HIT:    2021975  MISS:      17257
L2C PREFETCH  REQUESTED:     842753  ISSUED:     842753  USEFUL:     203273  USELESS:     736657
L2C TOTAL MSHR MERGED:       7446
L2C LOAD MSHR MERGED:        873
L2C RFO MSHR MERGED:          0
L2C PREFETCH MSHR MERGED:       6573
L2C WRITEBACK MSHR MERGED:          0
L2C TOTAL ACCESSES:   14913106 HITS:   11158825 MISSES:    3754281
L2C LOAD ACCESSES:    7419139 HITS:    5099039 MISSES:    2320100
L2C RFO ACCESSES:     878792 HITS:     410008 MISSES:     468784
L2C PREFETCH ACCESSES:    4575943 HITS:    3627803 MISSES:     948140
L2C WRITEBACK ACCESSES:    2039232 HITS:    2021975 MISSES:      17257
L2C RQ ACCESS:    8297934
L2C RQ TO_CACHE:    8297629
L2C RQ MERGED:          0
L2C RQ FORWARD:          0
L2C WQ ACCESS:    2039232
L2C WQ TO_CACHE:    2039232
L2C WQ MERGED:          0
L2C WQ FORWARD:        446
LLC TOTAL     ACCESS:    4609650  HIT:    3930198  MISS:     679452
LLC LOAD      ACCESS:    2319213  HIT:    2102233  MISS:     216980
LLC RFO       ACCESS:     468773  HIT:     393285  MISS:      75488
LLC PREFETCH  ACCESS:     941426  HIT:     646568  MISS:     294858
LLC WRITEBACK ACCESS:     880238  HIT:     788112  MISS:      92126
LLC PREFETCH  REQUESTED:          0  ISSUED:          0  USEFUL:      15143  USELESS:     280630
LLC TOTAL MSHR MERGED:        121
LLC LOAD MSHR MERGED:         41
LLC RFO MSHR MERGED:          0
LLC PREFETCH MSHR MERGED:         80
LLC WRITEBACK MSHR MERGED:          0
LLC TOTAL ACCESSES:    4609808 HITS:    3930235 MISSES:     679573
LLC LOAD ACCESSES:    2319227 HITS:    2102247 MISSES:     216980
LLC RFO ACCESSES:     468784 HITS:     393296 MISSES:      75488
LLC PREFETCH ACCESSES:     941559 HITS:     646580 MISSES:     294979
LLC WRITEBACK ACCESSES:     880238 HITS:     788112 MISSES:      92126
LLC 0 RQ ACCESS:    2788011
LLC 0 RQ TO_CACHE:    2787986
LLC 0 RQ MERGED:          0
LLC 0 RQ FORWARD:          0
LLC WQ ACCESS:     880238
LLC WQ TO_CACHE:     880238
LLC WQ MERGED:          0
LLC WQ FORWARD:         37
Major fault: 0 Minor fault: 12862
CPU 0 L1D next line prefetcher final stats
CPU 0 L2C PC-based stride prefetcher final stats
All Misses: 801987
All Hits: 4624669
SD Algo Stats - Switches: 0 SRR-Repls: 254746 BRR-Repls: 0

DRAM Statistics
 CHANNEL 0
 RQ ROW_BUFFER_HIT:     113514  ROW_BUFFER_MISS:     472964
 DBUS_CONGESTED:     393361
 WQ ROW_BUFFER_HIT:      20865  ROW_BUFFER_MISS:     211076  FULL:          0

 AVG_CONGESTED_CYCLE: 13
LOADS RETIRED: 136549171
INSTR RETIRED: 500000000
