
*** ChampSim Multicore Out-of-Order Simulator ***

Warmup Instructions: 100000000
Simulation Instructions: 500000000
Number of CPUs: 1
LLC sets: 2048
LLC ways: 16
Clean RRIP Policies: 2213200222132002 Dirty RRIP Policies: 1203100212031002 PSEL Width: 10 Track Set: 4294967295 PSEL Mask: 1 Demote Mask: 1040100010401000DS Algo: 0Window size: 0
Off-chip DRAM Size: 4096 MB Channels: 1 Width: 64-bit Data Rate: 1600 MT/s

CPU 0 runs /mnt/beegfs/iconst01/spec2017/Wrf.trace.gz
NOT SORTED
TRACE STRING: /mnt/beegfs/iconst01/spec2017/Wrf.trace.gz
SORTED
TRACE STRING: /mnt/beegfs/iconst01/spec2017/Wrf.trace.gz
INITIAL
TRACE STRING: /mnt/beegfs/iconst01/spec2017/Wrf.trace.gz

champsim_seed used: 303

CPU 0 L1D next line prefetcher
CPU 0 L2C IP-based stride prefetcher
Initialize DRRIP state
Assign rand_sets[0]: 454  LLC: 2048
rand_sets[0]: 454
Assign rand_sets[1]: 1662  LLC: 2048
rand_sets[1]: 1662
Assign rand_sets[2]: 1921  LLC: 2048
rand_sets[2]: 1921
Assign rand_sets[3]: 1131  LLC: 2048
rand_sets[3]: 1131
Assign rand_sets[4]: 331  LLC: 2048
rand_sets[4]: 331
Assign rand_sets[5]: 1531  LLC: 2048
rand_sets[5]: 1531
Assign rand_sets[6]: 482  LLC: 2048
rand_sets[6]: 482
Assign rand_sets[7]: 1275  LLC: 2048
rand_sets[7]: 1275
Assign rand_sets[8]: 1876  LLC: 2048
rand_sets[8]: 1876
Assign rand_sets[9]: 2038  LLC: 2048
rand_sets[9]: 2038
Assign rand_sets[10]: 701  LLC: 2048
rand_sets[10]: 701
Assign rand_sets[11]: 479  LLC: 2048
rand_sets[11]: 479
Assign rand_sets[12]: 892  LLC: 2048
rand_sets[12]: 892
Assign rand_sets[13]: 1820  LLC: 2048
rand_sets[13]: 1820
Assign rand_sets[14]: 1505  LLC: 2048
rand_sets[14]: 1505
Assign rand_sets[15]: 1159  LLC: 2048
rand_sets[15]: 1159
Assign rand_sets[16]: 513  LLC: 2048
rand_sets[16]: 513
Assign rand_sets[17]: 703  LLC: 2048
rand_sets[17]: 703
Assign rand_sets[18]: 561  LLC: 2048
rand_sets[18]: 561
Assign rand_sets[19]: 990  LLC: 2048
rand_sets[19]: 990
Assign rand_sets[20]: 342  LLC: 2048
rand_sets[20]: 342
Assign rand_sets[21]: 882  LLC: 2048
rand_sets[21]: 882
Assign rand_sets[22]: 15  LLC: 2048
rand_sets[22]: 15
Assign rand_sets[23]: 71  LLC: 2048
rand_sets[23]: 71
Assign rand_sets[24]: 1127  LLC: 2048
rand_sets[24]: 1127
Assign rand_sets[25]: 1382  LLC: 2048
rand_sets[25]: 1382
Assign rand_sets[26]: 647  LLC: 2048
rand_sets[26]: 647
Assign rand_sets[27]: 857  LLC: 2048
rand_sets[27]: 857
Assign rand_sets[28]: 1450  LLC: 2048
rand_sets[28]: 1450
Assign rand_sets[29]: 1160  LLC: 2048
rand_sets[29]: 1160
Assign rand_sets[30]: 1852  LLC: 2048
rand_sets[30]: 1852
Assign rand_sets[31]: 1881  LLC: 2048
rand_sets[31]: 1881
Assign rand_sets[32]: 1770  LLC: 2048
rand_sets[32]: 1770
Assign rand_sets[33]: 1622  LLC: 2048
rand_sets[33]: 1622
Assign rand_sets[34]: 275  LLC: 2048
rand_sets[34]: 275
Assign rand_sets[35]: 635  LLC: 2048
rand_sets[35]: 635
Assign rand_sets[36]: 466  LLC: 2048
rand_sets[36]: 466
Assign rand_sets[37]: 1413  LLC: 2048
rand_sets[37]: 1413
Assign rand_sets[38]: 417  LLC: 2048
rand_sets[38]: 417
Assign rand_sets[39]: 472  LLC: 2048
rand_sets[39]: 472
Assign rand_sets[40]: 1340  LLC: 2048
rand_sets[40]: 1340
Assign rand_sets[41]: 852  LLC: 2048
rand_sets[41]: 852
Assign rand_sets[42]: 1365  LLC: 2048
rand_sets[42]: 1365
Assign rand_sets[43]: 47  LLC: 2048
rand_sets[43]: 47
Assign rand_sets[44]: 823  LLC: 2048
rand_sets[44]: 823
Assign rand_sets[45]: 686  LLC: 2048
rand_sets[45]: 686
Assign rand_sets[46]: 1637  LLC: 2048
rand_sets[46]: 1637
Assign rand_sets[47]: 1115  LLC: 2048
rand_sets[47]: 1115
Assign rand_sets[48]: 986  LLC: 2048
rand_sets[48]: 986
Assign rand_sets[49]: 258  LLC: 2048
rand_sets[49]: 258
Assign rand_sets[50]: 633  LLC: 2048
rand_sets[50]: 633
Assign rand_sets[51]: 920  LLC: 2048
rand_sets[51]: 920
Assign rand_sets[52]: 204  LLC: 2048
rand_sets[52]: 204
Assign rand_sets[53]: 227  LLC: 2048
rand_sets[53]: 227
Assign rand_sets[54]: 1818  LLC: 2048
rand_sets[54]: 1818
Assign rand_sets[55]: 886  LLC: 2048
rand_sets[55]: 886
Assign rand_sets[56]: 1422  LLC: 2048
rand_sets[56]: 1422
Assign rand_sets[57]: 607  LLC: 2048
rand_sets[57]: 607
Assign rand_sets[58]: 217  LLC: 2048
rand_sets[58]: 217
Assign rand_sets[59]: 1945  LLC: 2048
rand_sets[59]: 1945
Assign rand_sets[60]: 143  LLC: 2048
rand_sets[60]: 143
Assign rand_sets[61]: 1311  LLC: 2048
rand_sets[61]: 1311
Assign rand_sets[62]: 319  LLC: 2048
rand_sets[62]: 319
Assign rand_sets[63]: 1846  LLC: 2048
rand_sets[63]: 1846
 CLEAN-RRIP-POLICY-1: 2-2-1-3-2-0-0-2- CLEAN-RRIP-POLICY-2: 2-2-1-3-2-0-0-2-
 DIRTY-RRIP-POLICY-1: 1-2-0-3-1-0-0-2- DIRTY-RRIP-POLICY-2: 1-2-0-3-1-0-0-2-
 PSEL width: 10
Heartbeat CPU 0 instructions: 10000002 cycles: 6559548 heartbeat IPC: 1.5245 cumulative IPC: 1.5245 (Simulation time: 0 hr 0 min 22 sec) 
Heartbeat CPU 0 instructions: 20000000 cycles: 12222148 heartbeat IPC: 1.76597 cumulative IPC: 1.63637 (Simulation time: 0 hr 0 min 42 sec) 
Heartbeat CPU 0 instructions: 30000003 cycles: 18203960 heartbeat IPC: 1.67173 cumulative IPC: 1.64799 (Simulation time: 0 hr 1 min 2 sec) 
Heartbeat CPU 0 instructions: 40000000 cycles: 24059300 heartbeat IPC: 1.70784 cumulative IPC: 1.66256 (Simulation time: 0 hr 1 min 22 sec) 
Heartbeat CPU 0 instructions: 50000000 cycles: 29527638 heartbeat IPC: 1.82871 cumulative IPC: 1.69333 (Simulation time: 0 hr 1 min 43 sec) 
Heartbeat CPU 0 instructions: 60000000 cycles: 35640446 heartbeat IPC: 1.63591 cumulative IPC: 1.68348 (Simulation time: 0 hr 2 min 4 sec) 
Heartbeat CPU 0 instructions: 70000000 cycles: 41360097 heartbeat IPC: 1.74836 cumulative IPC: 1.69245 (Simulation time: 0 hr 2 min 24 sec) 
Heartbeat CPU 0 instructions: 80000000 cycles: 47231044 heartbeat IPC: 1.7033 cumulative IPC: 1.6938 (Simulation time: 0 hr 2 min 45 sec) 
Heartbeat CPU 0 instructions: 90000000 cycles: 52984530 heartbeat IPC: 1.73808 cumulative IPC: 1.69861 (Simulation time: 0 hr 3 min 6 sec) 
Heartbeat CPU 0 instructions: 100000000 cycles: 58537321 heartbeat IPC: 1.8009 cumulative IPC: 1.70831 (Simulation time: 0 hr 3 min 26 sec) 

Warmup complete CPU 0 instructions: 100000004 cycles: 58537323 (Simulation time: 0 hr 3 min 26 sec) 

Heartbeat CPU 0 instructions: 110000001 cycles: 72409432 heartbeat IPC: 0.720871 cumulative IPC: 0.720871 (Simulation time: 0 hr 3 min 51 sec) 
Heartbeat CPU 0 instructions: 120000000 cycles: 83066548 heartbeat IPC: 0.93834 cumulative IPC: 0.815354 (Simulation time: 0 hr 4 min 15 sec) 
Heartbeat CPU 0 instructions: 130000000 cycles: 92769376 heartbeat IPC: 1.03063 cumulative IPC: 0.876372 (Simulation time: 0 hr 4 min 37 sec) 
Heartbeat CPU 0 instructions: 140000000 cycles: 103189482 heartbeat IPC: 0.959683 cumulative IPC: 0.895813 (Simulation time: 0 hr 4 min 59 sec) 
Heartbeat CPU 0 instructions: 150000002 cycles: 113925473 heartbeat IPC: 0.931447 cumulative IPC: 0.90272 (Simulation time: 0 hr 5 min 23 sec) 
Heartbeat CPU 0 instructions: 160000000 cycles: 122771864 heartbeat IPC: 1.1304 cumulative IPC: 0.934077 (Simulation time: 0 hr 5 min 45 sec) 
Heartbeat CPU 0 instructions: 170000003 cycles: 132997610 heartbeat IPC: 0.977924 cumulative IPC: 0.940098 (Simulation time: 0 hr 6 min 8 sec) 
Heartbeat CPU 0 instructions: 180000000 cycles: 145522363 heartbeat IPC: 0.798419 cumulative IPC: 0.919698 (Simulation time: 0 hr 6 min 33 sec) 
Heartbeat CPU 0 instructions: 190000000 cycles: 160595837 heartbeat IPC: 0.663417 cumulative IPC: 0.881847 (Simulation time: 0 hr 6 min 57 sec) 
Heartbeat CPU 0 instructions: 200000000 cycles: 175645923 heartbeat IPC: 0.664448 cumulative IPC: 0.853908 (Simulation time: 0 hr 7 min 21 sec) 
Heartbeat CPU 0 instructions: 210000000 cycles: 190693062 heartbeat IPC: 0.664578 cumulative IPC: 0.832351 (Simulation time: 0 hr 7 min 45 sec) 
Heartbeat CPU 0 instructions: 220000000 cycles: 206728320 heartbeat IPC: 0.623626 cumulative IPC: 0.809766 (Simulation time: 0 hr 8 min 11 sec) 
Heartbeat CPU 0 instructions: 230000003 cycles: 225561127 heartbeat IPC: 0.530988 cumulative IPC: 0.778332 (Simulation time: 0 hr 8 min 40 sec) 
Heartbeat CPU 0 instructions: 240000000 cycles: 234773385 heartbeat IPC: 1.08551 cumulative IPC: 0.794389 (Simulation time: 0 hr 9 min 2 sec) 
Heartbeat CPU 0 instructions: 250000000 cycles: 243569019 heartbeat IPC: 1.13693 cumulative IPC: 0.810672 (Simulation time: 0 hr 9 min 23 sec) 
Heartbeat CPU 0 instructions: 260000000 cycles: 252706544 heartbeat IPC: 1.09439 cumulative IPC: 0.824023 (Simulation time: 0 hr 9 min 45 sec) 
Heartbeat CPU 0 instructions: 270000000 cycles: 262324866 heartbeat IPC: 1.03968 cumulative IPC: 0.834202 (Simulation time: 0 hr 10 min 7 sec) 
Heartbeat CPU 0 instructions: 280000000 cycles: 272081417 heartbeat IPC: 1.02495 cumulative IPC: 0.842917 (Simulation time: 0 hr 10 min 31 sec) 
Heartbeat CPU 0 instructions: 290000000 cycles: 282237933 heartbeat IPC: 0.98459 cumulative IPC: 0.849349 (Simulation time: 0 hr 10 min 56 sec) 
Heartbeat CPU 0 instructions: 300000000 cycles: 291116089 heartbeat IPC: 1.12636 cumulative IPC: 0.859924 (Simulation time: 0 hr 11 min 18 sec) 
Heartbeat CPU 0 instructions: 310000002 cycles: 305561221 heartbeat IPC: 0.692275 cumulative IPC: 0.85012 (Simulation time: 0 hr 11 min 45 sec) 
Heartbeat CPU 0 instructions: 320000000 cycles: 321836051 heartbeat IPC: 0.614446 cumulative IPC: 0.835553 (Simulation time: 0 hr 12 min 13 sec) 
Heartbeat CPU 0 instructions: 330000002 cycles: 332464060 heartbeat IPC: 0.94091 cumulative IPC: 0.839641 (Simulation time: 0 hr 12 min 36 sec) 
Heartbeat CPU 0 instructions: 340000000 cycles: 342954739 heartbeat IPC: 0.953227 cumulative IPC: 0.84383 (Simulation time: 0 hr 12 min 59 sec) 
Heartbeat CPU 0 instructions: 350000002 cycles: 356107533 heartbeat IPC: 0.760295 cumulative IPC: 0.840138 (Simulation time: 0 hr 13 min 25 sec) 
Heartbeat CPU 0 instructions: 360000000 cycles: 367222977 heartbeat IPC: 0.899649 cumulative IPC: 0.842281 (Simulation time: 0 hr 13 min 48 sec) 
Heartbeat CPU 0 instructions: 370000000 cycles: 377978866 heartbeat IPC: 0.929723 cumulative IPC: 0.845225 (Simulation time: 0 hr 14 min 12 sec) 
Heartbeat CPU 0 instructions: 380000000 cycles: 388470295 heartbeat IPC: 0.953159 cumulative IPC: 0.848657 (Simulation time: 0 hr 14 min 36 sec) 
Heartbeat CPU 0 instructions: 390000003 cycles: 406012830 heartbeat IPC: 0.570043 cumulative IPC: 0.834591 (Simulation time: 0 hr 15 min 4 sec) 
Heartbeat CPU 0 instructions: 400000000 cycles: 416663694 heartbeat IPC: 0.938891 cumulative IPC: 0.837693 (Simulation time: 0 hr 15 min 26 sec) 
Heartbeat CPU 0 instructions: 410000002 cycles: 426489390 heartbeat IPC: 1.01774 cumulative IPC: 0.842501 (Simulation time: 0 hr 15 min 47 sec) 
Heartbeat CPU 0 instructions: 420000000 cycles: 436171475 heartbeat IPC: 1.03284 cumulative IPC: 0.847381 (Simulation time: 0 hr 16 min 9 sec) 
Heartbeat CPU 0 instructions: 430000001 cycles: 445885487 heartbeat IPC: 1.02944 cumulative IPC: 0.851947 (Simulation time: 0 hr 16 min 30 sec) 
Heartbeat CPU 0 instructions: 440000000 cycles: 457362206 heartbeat IPC: 0.871329 cumulative IPC: 0.852504 (Simulation time: 0 hr 16 min 52 sec) 
Heartbeat CPU 0 instructions: 450000002 cycles: 472439843 heartbeat IPC: 0.663234 cumulative IPC: 0.84561 (Simulation time: 0 hr 17 min 16 sec) 
Heartbeat CPU 0 instructions: 460000000 cycles: 487511525 heartbeat IPC: 0.663496 cumulative IPC: 0.839211 (Simulation time: 0 hr 17 min 39 sec) 
Heartbeat CPU 0 instructions: 470000003 cycles: 502570709 heartbeat IPC: 0.664047 cumulative IPC: 0.833271 (Simulation time: 0 hr 18 min 2 sec) 
Heartbeat CPU 0 instructions: 480000000 cycles: 518643640 heartbeat IPC: 0.622164 cumulative IPC: 0.825896 (Simulation time: 0 hr 18 min 28 sec) 
Heartbeat CPU 0 instructions: 490000002 cycles: 537615527 heartbeat IPC: 0.527096 cumulative IPC: 0.814063 (Simulation time: 0 hr 18 min 55 sec) 
Heartbeat CPU 0 instructions: 500000000 cycles: 546758122 heartbeat IPC: 1.09378 cumulative IPC: 0.819301 (Simulation time: 0 hr 19 min 16 sec) 
Heartbeat CPU 0 instructions: 510000002 cycles: 555610338 heartbeat IPC: 1.12966 cumulative IPC: 0.824829 (Simulation time: 0 hr 19 min 37 sec) 
Heartbeat CPU 0 instructions: 520000000 cycles: 564746463 heartbeat IPC: 1.09456 cumulative IPC: 0.829697 (Simulation time: 0 hr 19 min 58 sec) 
Heartbeat CPU 0 instructions: 530000002 cycles: 574360281 heartbeat IPC: 1.04017 cumulative IPC: 0.833619 (Simulation time: 0 hr 20 min 20 sec) 
Heartbeat CPU 0 instructions: 540000000 cycles: 584059884 heartbeat IPC: 1.03097 cumulative IPC: 0.837262 (Simulation time: 0 hr 20 min 43 sec) 
Heartbeat CPU 0 instructions: 550000002 cycles: 594254030 heartbeat IPC: 0.980955 cumulative IPC: 0.839996 (Simulation time: 0 hr 21 min 7 sec) 
Heartbeat CPU 0 instructions: 560000000 cycles: 603126362 heartbeat IPC: 1.1271 cumulative IPC: 0.844674 (Simulation time: 0 hr 21 min 29 sec) 
Heartbeat CPU 0 instructions: 570000003 cycles: 617402183 heartbeat IPC: 0.700485 cumulative IPC: 0.84099 (Simulation time: 0 hr 21 min 54 sec) 
Heartbeat CPU 0 instructions: 580000000 cycles: 633807718 heartbeat IPC: 0.60955 cumulative IPC: 0.83439 (Simulation time: 0 hr 22 min 22 sec) 
Heartbeat CPU 0 instructions: 590000002 cycles: 644028346 heartbeat IPC: 0.978414 cumulative IPC: 0.836904 (Simulation time: 0 hr 22 min 44 sec) 
Heartbeat CPU 0 instructions: 600000000 cycles: 654929712 heartbeat IPC: 0.917316 cumulative IPC: 0.838374 (Simulation time: 0 hr 23 min 8 sec) 
Finished CPU 0 instructions: 500000000 cycles: 596392408 cumulative IPC: 0.838374 (Simulation time: 0 hr 23 min 8 sec) 

CPU 0 Branch Prediction Accuracy: 99.5219% MPKI: 0.251582
Number of Branches: 26312578 Number of Mispredictions: 125791
Number of LOAD Instructions: 235643083
Number of LOAD Instructions (ROI): 235643083
Number of STORE Instructions: 37593550
Number of STORE Instructions (ROI): 37593550
Total Destination Memory Operands: 40480968
Total Destination Memory Operands (ROI): 40480968
Total Source Memory Operands: 235643083
Total Source Memory Operands (ROI): 235643083
Number of DEPENDED LOADS: 6698868
Number of DEPENDED LOADS (ROI): 6698868
Number of SQ_ADDED: 40480950
Number of SQ_ADDED (ROI): 40480950
Number of LQ_ADDED: 388771572
Number of LQ_ADDED (ROI): 388771572
Number of Instructions read from trace: 600000259

ChampSim completed all CPUs

Region of Interest Statistics

CPU 0 cumulative IPC: 0.838374 instructions: 500000000 cycles: 596392408
ITLB TOTAL     ACCESS:  109322846  HIT:  109322333  MISS:        513
ITLB LOAD      ACCESS:  109322846  HIT:  109322333  MISS:        513
ITLB RFO       ACCESS:          0  HIT:          0  MISS:          0
ITLB PREFETCH  ACCESS:          0  HIT:          0  MISS:          0
ITLB WRITEBACK ACCESS:          0  HIT:          0  MISS:          0
ITLB PREFETCH  REQUESTED:          0  ISSUED:          0  USEFUL:          0  USELESS:          0
ITLB TOTAL MSHR MERGED:        971
ITLB LOAD MSHR MERGED:        971
ITLB RFO MSHR MERGED:          0
ITLB PREFETCH MSHR MERGED:          0
ITLB WRITEBACK MSHR MERGED:          0
ITLB TOTAL ACCESSES:  109323817 HITS:  109322333 MISSES:       1484
ITLB LOAD ACCESSES:  109323817 HITS:  109322333 MISSES:       1484
ITLB RFO ACCESSES:          0 HITS:          0 MISSES:          0
ITLB PREFETCH ACCESSES:          0 HITS:          0 MISSES:          0
ITLB WRITEBACK ACCESSES:          0 HITS:          0 MISSES:          0
ITLB RQ ACCESS:  500000003
ITLB RQ TO_CACHE:  109323817
ITLB RQ MERGED:  390676186
ITLB RQ FORWARD:          0
ITLB WQ ACCESS:          0
ITLB WQ TO_CACHE:          0
ITLB WQ MERGED:          0
ITLB WQ FORWARD:          0
DTLB TOTAL     ACCESS:  130437724  HIT:  130180011  MISS:     257713
DTLB LOAD      ACCESS:  109032387  HIT:  108811571  MISS:     220816
DTLB RFO       ACCESS:   21405337  HIT:   21368440  MISS:      36897
DTLB PREFETCH  ACCESS:          0  HIT:          0  MISS:          0
DTLB WRITEBACK ACCESS:          0  HIT:          0  MISS:          0
DTLB PREFETCH  REQUESTED:          0  ISSUED:          0  USEFUL:          0  USELESS:          0
DTLB TOTAL MSHR MERGED:     121930
DTLB LOAD MSHR MERGED:      84215
DTLB RFO MSHR MERGED:      37715
DTLB PREFETCH MSHR MERGED:          0
DTLB WRITEBACK MSHR MERGED:          0
DTLB TOTAL ACCESSES:  130559654 HITS:  130180011 MISSES:     379643
DTLB LOAD ACCESSES:  109116602 HITS:  108811571 MISSES:     305031
DTLB RFO ACCESSES:   21443052 HITS:   21368440 MISSES:      74612
DTLB PREFETCH ACCESSES:          0 HITS:          0 MISSES:          0
DTLB WRITEBACK ACCESSES:          0 HITS:          0 MISSES:          0
DTLB RQ ACCESS:  218635544
DTLB RQ TO_CACHE:  130559655
DTLB RQ MERGED:   88075889
DTLB RQ FORWARD:          0
DTLB WQ ACCESS:          0
DTLB WQ TO_CACHE:          0
DTLB WQ MERGED:          0
DTLB WQ FORWARD:          0
L1D TOTAL     ACCESS:  204716887  HIT:  193646776  MISS:   11070111
L1D LOAD      ACCESS:  106323880  HIT:  103171783  MISS:    3152097
L1D RFO       ACCESS:   26967400  HIT:   25217076  MISS:    1750324
L1D PREFETCH  ACCESS:   71425607  HIT:   65257917  MISS:    6167690
L1D WRITEBACK ACCESS:          0  HIT:          0  MISS:          0
L1D PREFETCH  REQUESTED:  108924817  ISSUED:  107261487  USEFUL:    5714991  USELESS:     452693
L1D TOTAL MSHR MERGED:   18227300
L1D LOAD MSHR MERGED:    4588913
L1D RFO MSHR MERGED:    6475457
L1D PREFETCH MSHR MERGED:    7162930
L1D WRITEBACK MSHR MERGED:          0
L1D TOTAL ACCESSES:  223003293 HITS:  193705882 MISSES:   29297411
L1D LOAD ACCESSES:  108948268 HITS:  103195234 MISSES:    5753034
L1D RFO ACCESSES:   33440742 HITS:   25217076 MISSES:    8223666
L1D PREFETCH ACCESSES:   80614283 HITS:   65293572 MISSES:   15320711
L1D WRITEBACK ACCESSES:          0 HITS:          0 MISSES:          0
L1D RQ ACCESS:  184992106
L1D RQ TO_CACHE:  108924817
L1D RQ MERGED:   76043838
L1D RQ FORWARD:          0
L1D WQ ACCESS:   33643426
L1D WQ TO_CACHE:   33440741
L1D WQ MERGED:     202685
L1D WQ FORWARD:      59106
L1I TOTAL     ACCESS:  134011647  HIT:  133987069  MISS:      24578
L1I LOAD      ACCESS:  134011647  HIT:  133987069  MISS:      24578
L1I RFO       ACCESS:          0  HIT:          0  MISS:          0
L1I PREFETCH  ACCESS:          0  HIT:          0  MISS:          0
L1I WRITEBACK ACCESS:          0  HIT:          0  MISS:          0
L1I PREFETCH  REQUESTED:          0  ISSUED:          0  USEFUL:          0  USELESS:          0
L1I TOTAL MSHR MERGED:      30662
L1I LOAD MSHR MERGED:      30662
L1I RFO MSHR MERGED:          0
L1I PREFETCH MSHR MERGED:          0
L1I WRITEBACK MSHR MERGED:          0
L1I TOTAL ACCESSES:  134042309 HITS:  133987069 MISSES:      55240
L1I LOAD ACCESSES:  134042309 HITS:  133987069 MISSES:      55240
L1I RFO ACCESSES:          0 HITS:          0 MISSES:          0
L1I PREFETCH ACCESSES:          0 HITS:          0 MISSES:          0
L1I WRITEBACK ACCESSES:          0 HITS:          0 MISSES:          0
L1I RQ ACCESS:  500000005
L1I RQ TO_CACHE:  134042309
L1I RQ MERGED:  365957696
L1I RQ FORWARD:          0
L1I WQ ACCESS:          0
L1I WQ TO_CACHE:          0
L1I WQ MERGED:          0
L1I WQ FORWARD:          0
L2C TOTAL     ACCESS:   14941099  HIT:    6945360  MISS:    7995739
L2C LOAD      ACCESS:    1188508  HIT:     299699  MISS:     888809
L2C RFO       ACCESS:    1748001  HIT:     369404  MISS:    1378597
L2C PREFETCH  ACCESS:    8322730  HIT:    2603086  MISS:    5719644
L2C WRITEBACK ACCESS:    3681860  HIT:    3673171  MISS:       8689
L2C PREFETCH  REQUESTED:     390191  ISSUED:     390189  USEFUL:     114585  USELESS:    5605893
L2C TOTAL MSHR MERGED:      42056
L2C LOAD MSHR MERGED:       2337
L2C RFO MSHR MERGED:       1508
L2C PREFETCH MSHR MERGED:      38211
L2C WRITEBACK MSHR MERGED:          0
L2C TOTAL ACCESSES:   15102187 HITS:    6946048 MISSES:    8156139
L2C LOAD ACCESSES:    1188699 HITS:     299890 MISSES:     888809
L2C RFO ACCESSES:    1748209 HITS:     369612 MISSES:    1378597
L2C PREFETCH ACCESSES:    8483419 HITS:    2603375 MISSES:    5880044
L2C WRITEBACK ACCESSES:    3681860 HITS:    3673171 MISSES:       8689
L2C RQ ACCESS:    2936908
L2C RQ TO_CACHE:    2936509
L2C RQ MERGED:          0
L2C RQ FORWARD:          0
L2C WQ ACCESS:    3681860
L2C WQ TO_CACHE:    3681860
L2C WQ MERGED:          0
L2C WQ FORWARD:        688
LLC TOTAL     ACCESS:   11181059  HIT:    4102413  MISS:    7078646
LLC LOAD      ACCESS:     886461  HIT:     312348  MISS:     574113
LLC RFO       ACCESS:    1377088  HIT:     250444  MISS:    1126644
LLC PREFETCH  ACCESS:    5813157  HIT:    1175107  MISS:    4638050
LLC WRITEBACK ACCESS:    3104353  HIT:    2364514  MISS:     739839
LLC PREFETCH  REQUESTED:          0  ISSUED:          0  USEFUL:      31918  USELESS:    4605691
LLC TOTAL MSHR MERGED:      21715
LLC LOAD MSHR MERGED:       6602
LLC RFO MSHR MERGED:        620
LLC PREFETCH MSHR MERGED:      14493
LLC WRITEBACK MSHR MERGED:          0
LLC TOTAL ACCESSES:   11202793 HITS:    4102432 MISSES:    7100361
LLC LOAD ACCESSES:     886472 HITS:     312359 MISSES:     574113
LLC RFO ACCESSES:    1377089 HITS:     250445 MISSES:    1126644
LLC PREFETCH ACCESSES:    5834879 HITS:    1175114 MISSES:    4659765
LLC WRITEBACK ACCESSES:    3104353 HITS:    2364514 MISSES:     739839
LLC 0 RQ ACCESS:    2263561
LLC 0 RQ TO_CACHE:    2263549
LLC 0 RQ MERGED:          0
LLC 0 RQ FORWARD:          0
LLC WQ ACCESS:    3104353
LLC WQ TO_CACHE:    3104353
LLC WQ MERGED:          0
LLC WQ FORWARD:         19
Major fault: 0 Minor fault: 11519
CPU 0 L1D next line prefetcher final stats
CPU 0 L2C PC-based stride prefetcher final stats
All Misses: 8963978
All Hits: 4828154
SD Algo Stats - Switches: 0 SRR-Repls: 645805 BRR-Repls: 0

DRAM Statistics
 CHANNEL 0
 RQ ROW_BUFFER_HIT:    3829668  ROW_BUFFER_MISS:    2508357
 DBUS_CONGESTED:    4325943
 WQ ROW_BUFFER_HIT:     360536  ROW_BUFFER_MISS:    1776605  FULL:        422

 AVG_CONGESTED_CYCLE: 13
LOADS RETIRED: 190375692
INSTR RETIRED: 500000000
