
*** ChampSim Multicore Out-of-Order Simulator ***

Warmup Instructions: 100000000
Simulation Instructions: 500000000
Number of CPUs: 1
LLC sets: 2048
LLC ways: 16
Clean RRIP Policies: 2213230022132300 Dirty RRIP Policies: 1203130012031300 PSEL Width: 10 Track Set: 4294967295 PSEL Mask: 1 Demote Mask: 4040100040401000DS Algo: 0Window size: 0
Off-chip DRAM Size: 4096 MB Channels: 1 Width: 64-bit Data Rate: 1600 MT/s

CPU 0 runs /mnt/beegfs/iconst01/spec2017/cactuBSSN.trace.gz
NOT SORTED
TRACE STRING: /mnt/beegfs/iconst01/spec2017/cactuBSSN.trace.gz
SORTED
TRACE STRING: /mnt/beegfs/iconst01/spec2017/cactuBSSN.trace.gz
INITIAL
TRACE STRING: /mnt/beegfs/iconst01/spec2017/cactuBSSN.trace.gz

champsim_seed used: 838

CPU 0 L1D next line prefetcher
CPU 0 L2C IP-based stride prefetcher
Initialize DRRIP state
Assign rand_sets[0]: 454  LLC: 2048
rand_sets[0]: 454
Assign rand_sets[1]: 1662  LLC: 2048
rand_sets[1]: 1662
Assign rand_sets[2]: 1921  LLC: 2048
rand_sets[2]: 1921
Assign rand_sets[3]: 1131  LLC: 2048
rand_sets[3]: 1131
Assign rand_sets[4]: 331  LLC: 2048
rand_sets[4]: 331
Assign rand_sets[5]: 1531  LLC: 2048
rand_sets[5]: 1531
Assign rand_sets[6]: 482  LLC: 2048
rand_sets[6]: 482
Assign rand_sets[7]: 1275  LLC: 2048
rand_sets[7]: 1275
Assign rand_sets[8]: 1876  LLC: 2048
rand_sets[8]: 1876
Assign rand_sets[9]: 2038  LLC: 2048
rand_sets[9]: 2038
Assign rand_sets[10]: 701  LLC: 2048
rand_sets[10]: 701
Assign rand_sets[11]: 479  LLC: 2048
rand_sets[11]: 479
Assign rand_sets[12]: 892  LLC: 2048
rand_sets[12]: 892
Assign rand_sets[13]: 1820  LLC: 2048
rand_sets[13]: 1820
Assign rand_sets[14]: 1505  LLC: 2048
rand_sets[14]: 1505
Assign rand_sets[15]: 1159  LLC: 2048
rand_sets[15]: 1159
Assign rand_sets[16]: 513  LLC: 2048
rand_sets[16]: 513
Assign rand_sets[17]: 703  LLC: 2048
rand_sets[17]: 703
Assign rand_sets[18]: 561  LLC: 2048
rand_sets[18]: 561
Assign rand_sets[19]: 990  LLC: 2048
rand_sets[19]: 990
Assign rand_sets[20]: 342  LLC: 2048
rand_sets[20]: 342
Assign rand_sets[21]: 882  LLC: 2048
rand_sets[21]: 882
Assign rand_sets[22]: 15  LLC: 2048
rand_sets[22]: 15
Assign rand_sets[23]: 71  LLC: 2048
rand_sets[23]: 71
Assign rand_sets[24]: 1127  LLC: 2048
rand_sets[24]: 1127
Assign rand_sets[25]: 1382  LLC: 2048
rand_sets[25]: 1382
Assign rand_sets[26]: 647  LLC: 2048
rand_sets[26]: 647
Assign rand_sets[27]: 857  LLC: 2048
rand_sets[27]: 857
Assign rand_sets[28]: 1450  LLC: 2048
rand_sets[28]: 1450
Assign rand_sets[29]: 1160  LLC: 2048
rand_sets[29]: 1160
Assign rand_sets[30]: 1852  LLC: 2048
rand_sets[30]: 1852
Assign rand_sets[31]: 1881  LLC: 2048
rand_sets[31]: 1881
Assign rand_sets[32]: 1770  LLC: 2048
rand_sets[32]: 1770
Assign rand_sets[33]: 1622  LLC: 2048
rand_sets[33]: 1622
Assign rand_sets[34]: 275  LLC: 2048
rand_sets[34]: 275
Assign rand_sets[35]: 635  LLC: 2048
rand_sets[35]: 635
Assign rand_sets[36]: 466  LLC: 2048
rand_sets[36]: 466
Assign rand_sets[37]: 1413  LLC: 2048
rand_sets[37]: 1413
Assign rand_sets[38]: 417  LLC: 2048
rand_sets[38]: 417
Assign rand_sets[39]: 472  LLC: 2048
rand_sets[39]: 472
Assign rand_sets[40]: 1340  LLC: 2048
rand_sets[40]: 1340
Assign rand_sets[41]: 852  LLC: 2048
rand_sets[41]: 852
Assign rand_sets[42]: 1365  LLC: 2048
rand_sets[42]: 1365
Assign rand_sets[43]: 47  LLC: 2048
rand_sets[43]: 47
Assign rand_sets[44]: 823  LLC: 2048
rand_sets[44]: 823
Assign rand_sets[45]: 686  LLC: 2048
rand_sets[45]: 686
Assign rand_sets[46]: 1637  LLC: 2048
rand_sets[46]: 1637
Assign rand_sets[47]: 1115  LLC: 2048
rand_sets[47]: 1115
Assign rand_sets[48]: 986  LLC: 2048
rand_sets[48]: 986
Assign rand_sets[49]: 258  LLC: 2048
rand_sets[49]: 258
Assign rand_sets[50]: 633  LLC: 2048
rand_sets[50]: 633
Assign rand_sets[51]: 920  LLC: 2048
rand_sets[51]: 920
Assign rand_sets[52]: 204  LLC: 2048
rand_sets[52]: 204
Assign rand_sets[53]: 227  LLC: 2048
rand_sets[53]: 227
Assign rand_sets[54]: 1818  LLC: 2048
rand_sets[54]: 1818
Assign rand_sets[55]: 886  LLC: 2048
rand_sets[55]: 886
Assign rand_sets[56]: 1422  LLC: 2048
rand_sets[56]: 1422
Assign rand_sets[57]: 607  LLC: 2048
rand_sets[57]: 607
Assign rand_sets[58]: 217  LLC: 2048
rand_sets[58]: 217
Assign rand_sets[59]: 1945  LLC: 2048
rand_sets[59]: 1945
Assign rand_sets[60]: 143  LLC: 2048
rand_sets[60]: 143
Assign rand_sets[61]: 1311  LLC: 2048
rand_sets[61]: 1311
Assign rand_sets[62]: 319  LLC: 2048
rand_sets[62]: 319
Assign rand_sets[63]: 1846  LLC: 2048
rand_sets[63]: 1846
 CLEAN-RRIP-POLICY-1: 2-2-1-3-2-3-0-0- CLEAN-RRIP-POLICY-2: 2-2-1-3-2-3-0-0-
 DIRTY-RRIP-POLICY-1: 1-2-0-3-1-3-0-0- DIRTY-RRIP-POLICY-2: 1-2-0-3-1-3-0-0-
 PSEL width: 10
Heartbeat CPU 0 instructions: 10000000 cycles: 6588002 heartbeat IPC: 1.51791 cumulative IPC: 1.51791 (Simulation time: 0 hr 0 min 23 sec) 
Heartbeat CPU 0 instructions: 20000000 cycles: 13179595 heartbeat IPC: 1.51708 cumulative IPC: 1.5175 (Simulation time: 0 hr 0 min 47 sec) 
Heartbeat CPU 0 instructions: 30000003 cycles: 19772914 heartbeat IPC: 1.51669 cumulative IPC: 1.51723 (Simulation time: 0 hr 1 min 11 sec) 
Heartbeat CPU 0 instructions: 40000000 cycles: 26364659 heartbeat IPC: 1.51705 cumulative IPC: 1.51718 (Simulation time: 0 hr 1 min 34 sec) 
Heartbeat CPU 0 instructions: 50000001 cycles: 32957323 heartbeat IPC: 1.51684 cumulative IPC: 1.51711 (Simulation time: 0 hr 1 min 58 sec) 
Heartbeat CPU 0 instructions: 60000000 cycles: 39556140 heartbeat IPC: 1.51542 cumulative IPC: 1.51683 (Simulation time: 0 hr 2 min 22 sec) 
Heartbeat CPU 0 instructions: 70000003 cycles: 46154511 heartbeat IPC: 1.51553 cumulative IPC: 1.51664 (Simulation time: 0 hr 2 min 45 sec) 
Heartbeat CPU 0 instructions: 80000000 cycles: 52752563 heartbeat IPC: 1.5156 cumulative IPC: 1.51651 (Simulation time: 0 hr 3 min 9 sec) 
Heartbeat CPU 0 instructions: 90000002 cycles: 59348231 heartbeat IPC: 1.51615 cumulative IPC: 1.51647 (Simulation time: 0 hr 3 min 33 sec) 
Heartbeat CPU 0 instructions: 100000000 cycles: 65943289 heartbeat IPC: 1.51629 cumulative IPC: 1.51645 (Simulation time: 0 hr 3 min 57 sec) 

Warmup complete CPU 0 instructions: 100000002 cycles: 65943290 (Simulation time: 0 hr 3 min 57 sec) 

Heartbeat CPU 0 instructions: 110000000 cycles: 79183300 heartbeat IPC: 0.755286 cumulative IPC: 0.755286 (Simulation time: 0 hr 4 min 25 sec) 
Heartbeat CPU 0 instructions: 120000000 cycles: 92376600 heartbeat IPC: 0.75796 cumulative IPC: 0.756621 (Simulation time: 0 hr 4 min 54 sec) 
Heartbeat CPU 0 instructions: 130000001 cycles: 105644241 heartbeat IPC: 0.753714 cumulative IPC: 0.755649 (Simulation time: 0 hr 5 min 23 sec) 
Heartbeat CPU 0 instructions: 140000000 cycles: 118821528 heartbeat IPC: 0.758881 cumulative IPC: 0.756455 (Simulation time: 0 hr 5 min 52 sec) 
Heartbeat CPU 0 instructions: 150000001 cycles: 132008968 heartbeat IPC: 0.758297 cumulative IPC: 0.756823 (Simulation time: 0 hr 6 min 21 sec) 
Heartbeat CPU 0 instructions: 160000000 cycles: 145237610 heartbeat IPC: 0.755935 cumulative IPC: 0.756675 (Simulation time: 0 hr 6 min 49 sec) 
Heartbeat CPU 0 instructions: 170000000 cycles: 158441347 heartbeat IPC: 0.757361 cumulative IPC: 0.756773 (Simulation time: 0 hr 7 min 18 sec) 
Heartbeat CPU 0 instructions: 180000000 cycles: 171638885 heartbeat IPC: 0.757717 cumulative IPC: 0.756891 (Simulation time: 0 hr 7 min 47 sec) 
Heartbeat CPU 0 instructions: 190000000 cycles: 184794602 heartbeat IPC: 0.760126 cumulative IPC: 0.757249 (Simulation time: 0 hr 8 min 16 sec) 
Heartbeat CPU 0 instructions: 200000000 cycles: 198047923 heartbeat IPC: 0.754528 cumulative IPC: 0.756976 (Simulation time: 0 hr 8 min 45 sec) 
Heartbeat CPU 0 instructions: 210000002 cycles: 211257431 heartbeat IPC: 0.757031 cumulative IPC: 0.756981 (Simulation time: 0 hr 9 min 14 sec) 
Heartbeat CPU 0 instructions: 220000000 cycles: 224432703 heartbeat IPC: 0.758997 cumulative IPC: 0.757148 (Simulation time: 0 hr 9 min 43 sec) 
Heartbeat CPU 0 instructions: 230000003 cycles: 237673585 heartbeat IPC: 0.755237 cumulative IPC: 0.757001 (Simulation time: 0 hr 10 min 11 sec) 
Heartbeat CPU 0 instructions: 240000000 cycles: 250857781 heartbeat IPC: 0.758484 cumulative IPC: 0.757107 (Simulation time: 0 hr 10 min 40 sec) 
Heartbeat CPU 0 instructions: 250000001 cycles: 264079557 heartbeat IPC: 0.756328 cumulative IPC: 0.757055 (Simulation time: 0 hr 11 min 9 sec) 
Heartbeat CPU 0 instructions: 260000000 cycles: 277294458 heartbeat IPC: 0.756721 cumulative IPC: 0.757034 (Simulation time: 0 hr 11 min 38 sec) 
Heartbeat CPU 0 instructions: 270000003 cycles: 290528737 heartbeat IPC: 0.755614 cumulative IPC: 0.75695 (Simulation time: 0 hr 12 min 7 sec) 
Heartbeat CPU 0 instructions: 280000000 cycles: 303729926 heartbeat IPC: 0.757507 cumulative IPC: 0.756981 (Simulation time: 0 hr 12 min 35 sec) 
Heartbeat CPU 0 instructions: 290000000 cycles: 316903505 heartbeat IPC: 0.759095 cumulative IPC: 0.757092 (Simulation time: 0 hr 13 min 4 sec) 
Heartbeat CPU 0 instructions: 300000000 cycles: 330154869 heartbeat IPC: 0.754639 cumulative IPC: 0.756969 (Simulation time: 0 hr 13 min 33 sec) 
Heartbeat CPU 0 instructions: 310000001 cycles: 343328806 heartbeat IPC: 0.759075 cumulative IPC: 0.757069 (Simulation time: 0 hr 14 min 2 sec) 
Heartbeat CPU 0 instructions: 320000000 cycles: 356517100 heartbeat IPC: 0.758248 cumulative IPC: 0.757123 (Simulation time: 0 hr 14 min 30 sec) 
Heartbeat CPU 0 instructions: 330000002 cycles: 369711182 heartbeat IPC: 0.757916 cumulative IPC: 0.757157 (Simulation time: 0 hr 14 min 59 sec) 
Heartbeat CPU 0 instructions: 340000000 cycles: 382941658 heartbeat IPC: 0.755831 cumulative IPC: 0.757102 (Simulation time: 0 hr 15 min 28 sec) 
Heartbeat CPU 0 instructions: 350000000 cycles: 396189112 heartbeat IPC: 0.754862 cumulative IPC: 0.757012 (Simulation time: 0 hr 15 min 56 sec) 
Heartbeat CPU 0 instructions: 360000000 cycles: 409405203 heartbeat IPC: 0.756653 cumulative IPC: 0.756998 (Simulation time: 0 hr 16 min 25 sec) 
Heartbeat CPU 0 instructions: 370000002 cycles: 422677591 heartbeat IPC: 0.753444 cumulative IPC: 0.756866 (Simulation time: 0 hr 16 min 54 sec) 
Heartbeat CPU 0 instructions: 380000000 cycles: 435885253 heartbeat IPC: 0.757136 cumulative IPC: 0.756875 (Simulation time: 0 hr 17 min 22 sec) 
Heartbeat CPU 0 instructions: 390000000 cycles: 449061598 heartbeat IPC: 0.758936 cumulative IPC: 0.756946 (Simulation time: 0 hr 17 min 51 sec) 
Heartbeat CPU 0 instructions: 400000000 cycles: 462256012 heartbeat IPC: 0.757896 cumulative IPC: 0.756978 (Simulation time: 0 hr 18 min 20 sec) 
Heartbeat CPU 0 instructions: 410000001 cycles: 475503795 heartbeat IPC: 0.754843 cumulative IPC: 0.756909 (Simulation time: 0 hr 18 min 49 sec) 
Heartbeat CPU 0 instructions: 420000000 cycles: 488684908 heartbeat IPC: 0.758661 cumulative IPC: 0.756964 (Simulation time: 0 hr 19 min 17 sec) 
Heartbeat CPU 0 instructions: 430000001 cycles: 501872132 heartbeat IPC: 0.75831 cumulative IPC: 0.757004 (Simulation time: 0 hr 19 min 46 sec) 
Heartbeat CPU 0 instructions: 440000000 cycles: 515041193 heartbeat IPC: 0.759355 cumulative IPC: 0.757073 (Simulation time: 0 hr 20 min 14 sec) 
Heartbeat CPU 0 instructions: 450000002 cycles: 528342145 heartbeat IPC: 0.751826 cumulative IPC: 0.756922 (Simulation time: 0 hr 20 min 43 sec) 
Heartbeat CPU 0 instructions: 460000000 cycles: 541556426 heartbeat IPC: 0.756757 cumulative IPC: 0.756918 (Simulation time: 0 hr 21 min 12 sec) 
Heartbeat CPU 0 instructions: 470000003 cycles: 554754537 heartbeat IPC: 0.757684 cumulative IPC: 0.756938 (Simulation time: 0 hr 21 min 40 sec) 
Heartbeat CPU 0 instructions: 480000000 cycles: 567986145 heartbeat IPC: 0.755766 cumulative IPC: 0.756907 (Simulation time: 0 hr 22 min 9 sec) 
Heartbeat CPU 0 instructions: 490000000 cycles: 581196745 heartbeat IPC: 0.756968 cumulative IPC: 0.756909 (Simulation time: 0 hr 22 min 38 sec) 
Heartbeat CPU 0 instructions: 500000000 cycles: 594387241 heartbeat IPC: 0.758122 cumulative IPC: 0.756939 (Simulation time: 0 hr 23 min 6 sec) 
Heartbeat CPU 0 instructions: 510000001 cycles: 607559284 heartbeat IPC: 0.759184 cumulative IPC: 0.756994 (Simulation time: 0 hr 23 min 35 sec) 
Heartbeat CPU 0 instructions: 520000000 cycles: 620831914 heartbeat IPC: 0.75343 cumulative IPC: 0.756909 (Simulation time: 0 hr 24 min 4 sec) 
Heartbeat CPU 0 instructions: 530000000 cycles: 634074615 heartbeat IPC: 0.755133 cumulative IPC: 0.756867 (Simulation time: 0 hr 24 min 32 sec) 
Heartbeat CPU 0 instructions: 540000000 cycles: 647302859 heartbeat IPC: 0.755958 cumulative IPC: 0.756847 (Simulation time: 0 hr 25 min 1 sec) 
Heartbeat CPU 0 instructions: 550000002 cycles: 660555695 heartbeat IPC: 0.754556 cumulative IPC: 0.756796 (Simulation time: 0 hr 25 min 30 sec) 
Heartbeat CPU 0 instructions: 560000000 cycles: 673744365 heartbeat IPC: 0.758226 cumulative IPC: 0.756827 (Simulation time: 0 hr 25 min 58 sec) 
Heartbeat CPU 0 instructions: 570000001 cycles: 686949230 heartbeat IPC: 0.757297 cumulative IPC: 0.756837 (Simulation time: 0 hr 26 min 27 sec) 
Heartbeat CPU 0 instructions: 580000000 cycles: 700148315 heartbeat IPC: 0.757628 cumulative IPC: 0.756853 (Simulation time: 0 hr 26 min 55 sec) 
Heartbeat CPU 0 instructions: 590000003 cycles: 713378348 heartbeat IPC: 0.755856 cumulative IPC: 0.756833 (Simulation time: 0 hr 27 min 23 sec) 
Heartbeat CPU 0 instructions: 600000000 cycles: 726633913 heartbeat IPC: 0.7544 cumulative IPC: 0.756784 (Simulation time: 0 hr 27 min 52 sec) 
Finished CPU 0 instructions: 500000000 cycles: 660690633 cumulative IPC: 0.756784 (Simulation time: 0 hr 27 min 52 sec) 

CPU 0 Branch Prediction Accuracy: 99.968% MPKI: 0.002246
Number of Branches: 3513331 Number of Mispredictions: 1123
Number of LOAD Instructions: 287251172
Number of LOAD Instructions (ROI): 287251172
Number of STORE Instructions: 51060820
Number of STORE Instructions (ROI): 51060820
Total Destination Memory Operands: 51166221
Total Destination Memory Operands (ROI): 51166221
Total Source Memory Operands: 287251172
Total Source Memory Operands (ROI): 287251172
Number of DEPENDED LOADS: 9555443
Number of DEPENDED LOADS (ROI): 9555443
Number of SQ_ADDED: 51166208
Number of SQ_ADDED (ROI): 51166208
Number of LQ_ADDED: 290419970
Number of LQ_ADDED (ROI): 290419970
Number of Instructions read from trace: 600000257

ChampSim completed all CPUs

Region of Interest Statistics

CPU 0 cumulative IPC: 0.756784 instructions: 500000000 cycles: 660690633
ITLB TOTAL     ACCESS:  108949474  HIT:  108949474  MISS:          0
ITLB LOAD      ACCESS:  108949474  HIT:  108949474  MISS:          0
ITLB RFO       ACCESS:          0  HIT:          0  MISS:          0
ITLB PREFETCH  ACCESS:          0  HIT:          0  MISS:          0
ITLB WRITEBACK ACCESS:          0  HIT:          0  MISS:          0
ITLB PREFETCH  REQUESTED:          0  ISSUED:          0  USEFUL:          0  USELESS:          0
ITLB TOTAL MSHR MERGED:          0
ITLB LOAD MSHR MERGED:          0
ITLB RFO MSHR MERGED:          0
ITLB PREFETCH MSHR MERGED:          0
ITLB WRITEBACK MSHR MERGED:          0
ITLB TOTAL ACCESSES:  108949474 HITS:  108949474 MISSES:          0
ITLB LOAD ACCESSES:  108949474 HITS:  108949474 MISSES:          0
ITLB RFO ACCESSES:          0 HITS:          0 MISSES:          0
ITLB PREFETCH ACCESSES:          0 HITS:          0 MISSES:          0
ITLB WRITEBACK ACCESSES:          0 HITS:          0 MISSES:          0
ITLB RQ ACCESS:  500000001
ITLB RQ TO_CACHE:  108949474
ITLB RQ MERGED:  391050527
ITLB RQ FORWARD:          0
ITLB WQ ACCESS:          0
ITLB WQ TO_CACHE:          0
ITLB WQ MERGED:          0
ITLB WQ FORWARD:          0
DTLB TOTAL     ACCESS:  171130957  HIT:  161114624  MISS:   10016333
DTLB LOAD      ACCESS:  143471734  HIT:  135595651  MISS:    7876083
DTLB RFO       ACCESS:   27659223  HIT:   25518973  MISS:    2140250
DTLB PREFETCH  ACCESS:          0  HIT:          0  MISS:          0
DTLB WRITEBACK ACCESS:          0  HIT:          0  MISS:          0
DTLB PREFETCH  REQUESTED:          0  ISSUED:          0  USEFUL:          0  USELESS:          0
DTLB TOTAL MSHR MERGED:     360452
DTLB LOAD MSHR MERGED:     360452
DTLB RFO MSHR MERGED:          0
DTLB PREFETCH MSHR MERGED:          0
DTLB WRITEBACK MSHR MERGED:          0
DTLB TOTAL ACCESSES:  171491409 HITS:  161114624 MISSES:   10376785
DTLB LOAD ACCESSES:  143832186 HITS:  135595651 MISSES:    8236535
DTLB RFO ACCESSES:   27659223 HITS:   25518973 MISSES:    2140250
DTLB PREFETCH ACCESSES:          0 HITS:          0 MISSES:          0
DTLB WRITEBACK ACCESSES:          0 HITS:          0 MISSES:          0
DTLB RQ ACCESS:  274072374
DTLB RQ TO_CACHE:  171491409
DTLB RQ MERGED:  102580965
DTLB RQ FORWARD:          0
DTLB WQ ACCESS:          0
DTLB WQ TO_CACHE:          0
DTLB WQ MERGED:          0
DTLB WQ FORWARD:          0
L1D TOTAL     ACCESS:  350946918  HIT:  283747687  MISS:   67199231
L1D LOAD      ACCESS:  175626971  HIT:  142587835  MISS:   33039136
L1D RFO       ACCESS:   42019947  HIT:   39214361  MISS:    2805586
L1D PREFETCH  ACCESS:  133300000  HIT:  101945491  MISS:   31354509
L1D WRITEBACK ACCESS:          0  HIT:          0  MISS:          0
L1D PREFETCH  REQUESTED:  176230889  ISSUED:  175292852  USEFUL:    2180584  USELESS:   29173927
L1D TOTAL MSHR MERGED:    1482658
L1D LOAD MSHR MERGED:     703856
L1D RFO MSHR MERGED:     349174
L1D PREFETCH MSHR MERGED:     429628
L1D WRITEBACK MSHR MERGED:          0
L1D TOTAL ACCESSES:  352542328 HITS:  283860439 MISSES:   68681889
L1D LOAD ACCESSES:  176237646 HITS:  142594592 MISSES:   33643054
L1D RFO ACCESSES:   42368443 HITS:   39214361 MISSES:    3154082
L1D PREFETCH ACCESSES:  133936239 HITS:  102051486 MISSES:   31884753
L1D WRITEBACK ACCESSES:          0 HITS:          0 MISSES:          0
L1D RQ ACCESS:  231433901
L1D RQ TO_CACHE:  176230889
L1D RQ MERGED:   55196255
L1D RQ FORWARD:          0
L1D WQ ACCESS:   42638475
L1D WQ TO_CACHE:   42368443
L1D WQ MERGED:     270032
L1D WQ FORWARD:     112752
L1I TOTAL     ACCESS:  109343346  HIT:   77827642  MISS:   31515704
L1I LOAD      ACCESS:  109343346  HIT:   77827642  MISS:   31515704
L1I RFO       ACCESS:          0  HIT:          0  MISS:          0
L1I PREFETCH  ACCESS:          0  HIT:          0  MISS:          0
L1I WRITEBACK ACCESS:          0  HIT:          0  MISS:          0
L1I PREFETCH  REQUESTED:          0  ISSUED:          0  USEFUL:          0  USELESS:          0
L1I TOTAL MSHR MERGED:   30750106
L1I LOAD MSHR MERGED:   30750106
L1I RFO MSHR MERGED:          0
L1I PREFETCH MSHR MERGED:          0
L1I WRITEBACK MSHR MERGED:          0
L1I TOTAL ACCESSES:  140093454 HITS:   77827642 MISSES:   62265812
L1I LOAD ACCESSES:  140093454 HITS:   77827642 MISSES:   62265812
L1I RFO ACCESSES:          0 HITS:          0 MISSES:          0
L1I PREFETCH ACCESSES:          0 HITS:          0 MISSES:          0
L1I WRITEBACK ACCESSES:          0 HITS:          0 MISSES:          0
L1I RQ ACCESS:  500000003
L1I RQ TO_CACHE:  140093454
L1I RQ MERGED:  359906549
L1I RQ FORWARD:          0
L1I WQ ACCESS:          0
L1I WQ TO_CACHE:          0
L1I WQ MERGED:          0
L1I WQ FORWARD:          0
L2C TOTAL     ACCESS:  113698279  HIT:  110696181  MISS:    3002098
L2C LOAD      ACCESS:   64453034  HIT:   63892507  MISS:     560527
L2C RFO       ACCESS:    2803012  HIT:    2193496  MISS:     609516
L2C PREFETCH  ACCESS:   43281279  HIT:   41455496  MISS:    1825783
L2C WRITEBACK ACCESS:    3160954  HIT:    3154682  MISS:       6272
L2C PREFETCH  REQUESTED:   15134529  ISSUED:   14620270  USEFUL:    1700826  USELESS:     124964
L2C TOTAL MSHR MERGED:      12826
L2C LOAD MSHR MERGED:          0
L2C RFO MSHR MERGED:          0
L2C PREFETCH MSHR MERGED:      12826
L2C WRITEBACK MSHR MERGED:          0
L2C TOTAL ACCESSES:  113904274 HITS:  110702052 MISSES:    3202222
L2C LOAD ACCESSES:   64454903 HITS:   63894375 MISSES:     560528
L2C RFO ACCESSES:    2804908 HITS:    2195392 MISSES:     609516
L2C PREFETCH ACCESSES:   43483509 HITS:   41457603 MISSES:    2025906
L2C WRITEBACK ACCESSES:    3160954 HITS:    3154682 MISSES:       6272
L2C RQ ACCESS:   67259812
L2C RQ TO_CACHE:   67256048
L2C RQ MERGED:          0
L2C RQ FORWARD:          0
L2C WQ ACCESS:    3160954
L2C WQ TO_CACHE:    3160954
L2C WQ MERGED:          0
L2C WQ FORWARD:       5871
LLC TOTAL     ACCESS:    3714402  HIT:    1839942  MISS:    1874460
LLC LOAD      ACCESS:     560496  HIT:     498116  MISS:      62380
LLC RFO       ACCESS:     527397  HIT:     239297  MISS:     288100
LLC PREFETCH  ACCESS:    2007971  HIT:     633487  MISS:    1374484
LLC WRITEBACK ACCESS:     618538  HIT:     469042  MISS:     149496
LLC PREFETCH  REQUESTED:          0  ISSUED:          0  USEFUL:      43699  USELESS:    1324705
LLC TOTAL MSHR MERGED:       4458
LLC LOAD MSHR MERGED:          0
LLC RFO MSHR MERGED:          0
LLC PREFETCH MSHR MERGED:       4458
LLC WRITEBACK MSHR MERGED:          0
LLC TOTAL ACCESSES:    3801097 HITS:    1922179 MISSES:    1878918
LLC LOAD ACCESSES:     560527 HITS:     498147 MISSES:      62380
LLC RFO ACCESSES:     609516 HITS:     321416 MISSES:     288100
LLC PREFETCH ACCESSES:    2012516 HITS:     633574 MISSES:    1378942
LLC WRITEBACK ACCESSES:     618538 HITS:     469042 MISSES:     149496
LLC 0 RQ ACCESS:    1170044
LLC 0 RQ TO_CACHE:    1087894
LLC 0 RQ MERGED:          0
LLC 0 RQ FORWARD:          0
LLC WQ ACCESS:     618538
LLC WQ TO_CACHE:     618538
LLC WQ MERGED:          0
LLC WQ FORWARD:      82237
Major fault: 0 Minor fault: 12800
CPU 0 L1D next line prefetcher final stats
CPU 0 L2C PC-based stride prefetcher final stats
All Misses: 2273950
All Hits: 2291402
SD Algo Stats - Switches: 0 SRR-Repls: 79927 BRR-Repls: 0

DRAM Statistics
 CHANNEL 0
 RQ ROW_BUFFER_HIT:     851740  ROW_BUFFER_MISS:     873224
 DBUS_CONGESTED:     915106
 WQ ROW_BUFFER_HIT:      30919  ROW_BUFFER_MISS:     259649  FULL:          0

 AVG_CONGESTED_CYCLE: 13
LOADS RETIRED: 239375970
INSTR RETIRED: 500000000
