
*** ChampSim Multicore Out-of-Order Simulator ***

Warmup Instructions: 100000000
Simulation Instructions: 500000000
Number of CPUs: 1
LLC sets: 2048
LLC ways: 16
Clean RRIP Policies: 1213230112132301 Dirty RRIP Policies: 2203131122031311 PSEL Width: 10 Track Set: 4294967295 PSEL Mask: 1 Demote Mask: 3010100030101000DS Algo: 0Window size: 0
Off-chip DRAM Size: 4096 MB Channels: 1 Width: 64-bit Data Rate: 1600 MT/s

CPU 0 runs /mnt/beegfs/iconst01/spec2017/Cam4.trace.gz
NOT SORTED
TRACE STRING: /mnt/beegfs/iconst01/spec2017/Cam4.trace.gz
SORTED
TRACE STRING: /mnt/beegfs/iconst01/spec2017/Cam4.trace.gz
INITIAL
TRACE STRING: /mnt/beegfs/iconst01/spec2017/Cam4.trace.gz

champsim_seed used: 325

CPU 0 L1D next line prefetcher
CPU 0 L2C IP-based stride prefetcher
Initialize DRRIP state
Assign rand_sets[0]: 454  LLC: 2048
rand_sets[0]: 454
Assign rand_sets[1]: 1662  LLC: 2048
rand_sets[1]: 1662
Assign rand_sets[2]: 1921  LLC: 2048
rand_sets[2]: 1921
Assign rand_sets[3]: 1131  LLC: 2048
rand_sets[3]: 1131
Assign rand_sets[4]: 331  LLC: 2048
rand_sets[4]: 331
Assign rand_sets[5]: 1531  LLC: 2048
rand_sets[5]: 1531
Assign rand_sets[6]: 482  LLC: 2048
rand_sets[6]: 482
Assign rand_sets[7]: 1275  LLC: 2048
rand_sets[7]: 1275
Assign rand_sets[8]: 1876  LLC: 2048
rand_sets[8]: 1876
Assign rand_sets[9]: 2038  LLC: 2048
rand_sets[9]: 2038
Assign rand_sets[10]: 701  LLC: 2048
rand_sets[10]: 701
Assign rand_sets[11]: 479  LLC: 2048
rand_sets[11]: 479
Assign rand_sets[12]: 892  LLC: 2048
rand_sets[12]: 892
Assign rand_sets[13]: 1820  LLC: 2048
rand_sets[13]: 1820
Assign rand_sets[14]: 1505  LLC: 2048
rand_sets[14]: 1505
Assign rand_sets[15]: 1159  LLC: 2048
rand_sets[15]: 1159
Assign rand_sets[16]: 513  LLC: 2048
rand_sets[16]: 513
Assign rand_sets[17]: 703  LLC: 2048
rand_sets[17]: 703
Assign rand_sets[18]: 561  LLC: 2048
rand_sets[18]: 561
Assign rand_sets[19]: 990  LLC: 2048
rand_sets[19]: 990
Assign rand_sets[20]: 342  LLC: 2048
rand_sets[20]: 342
Assign rand_sets[21]: 882  LLC: 2048
rand_sets[21]: 882
Assign rand_sets[22]: 15  LLC: 2048
rand_sets[22]: 15
Assign rand_sets[23]: 71  LLC: 2048
rand_sets[23]: 71
Assign rand_sets[24]: 1127  LLC: 2048
rand_sets[24]: 1127
Assign rand_sets[25]: 1382  LLC: 2048
rand_sets[25]: 1382
Assign rand_sets[26]: 647  LLC: 2048
rand_sets[26]: 647
Assign rand_sets[27]: 857  LLC: 2048
rand_sets[27]: 857
Assign rand_sets[28]: 1450  LLC: 2048
rand_sets[28]: 1450
Assign rand_sets[29]: 1160  LLC: 2048
rand_sets[29]: 1160
Assign rand_sets[30]: 1852  LLC: 2048
rand_sets[30]: 1852
Assign rand_sets[31]: 1881  LLC: 2048
rand_sets[31]: 1881
Assign rand_sets[32]: 1770  LLC: 2048
rand_sets[32]: 1770
Assign rand_sets[33]: 1622  LLC: 2048
rand_sets[33]: 1622
Assign rand_sets[34]: 275  LLC: 2048
rand_sets[34]: 275
Assign rand_sets[35]: 635  LLC: 2048
rand_sets[35]: 635
Assign rand_sets[36]: 466  LLC: 2048
rand_sets[36]: 466
Assign rand_sets[37]: 1413  LLC: 2048
rand_sets[37]: 1413
Assign rand_sets[38]: 417  LLC: 2048
rand_sets[38]: 417
Assign rand_sets[39]: 472  LLC: 2048
rand_sets[39]: 472
Assign rand_sets[40]: 1340  LLC: 2048
rand_sets[40]: 1340
Assign rand_sets[41]: 852  LLC: 2048
rand_sets[41]: 852
Assign rand_sets[42]: 1365  LLC: 2048
rand_sets[42]: 1365
Assign rand_sets[43]: 47  LLC: 2048
rand_sets[43]: 47
Assign rand_sets[44]: 823  LLC: 2048
rand_sets[44]: 823
Assign rand_sets[45]: 686  LLC: 2048
rand_sets[45]: 686
Assign rand_sets[46]: 1637  LLC: 2048
rand_sets[46]: 1637
Assign rand_sets[47]: 1115  LLC: 2048
rand_sets[47]: 1115
Assign rand_sets[48]: 986  LLC: 2048
rand_sets[48]: 986
Assign rand_sets[49]: 258  LLC: 2048
rand_sets[49]: 258
Assign rand_sets[50]: 633  LLC: 2048
rand_sets[50]: 633
Assign rand_sets[51]: 920  LLC: 2048
rand_sets[51]: 920
Assign rand_sets[52]: 204  LLC: 2048
rand_sets[52]: 204
Assign rand_sets[53]: 227  LLC: 2048
rand_sets[53]: 227
Assign rand_sets[54]: 1818  LLC: 2048
rand_sets[54]: 1818
Assign rand_sets[55]: 886  LLC: 2048
rand_sets[55]: 886
Assign rand_sets[56]: 1422  LLC: 2048
rand_sets[56]: 1422
Assign rand_sets[57]: 607  LLC: 2048
rand_sets[57]: 607
Assign rand_sets[58]: 217  LLC: 2048
rand_sets[58]: 217
Assign rand_sets[59]: 1945  LLC: 2048
rand_sets[59]: 1945
Assign rand_sets[60]: 143  LLC: 2048
rand_sets[60]: 143
Assign rand_sets[61]: 1311  LLC: 2048
rand_sets[61]: 1311
Assign rand_sets[62]: 319  LLC: 2048
rand_sets[62]: 319
Assign rand_sets[63]: 1846  LLC: 2048
rand_sets[63]: 1846
 CLEAN-RRIP-POLICY-1: 1-2-1-3-2-3-0-1- CLEAN-RRIP-POLICY-2: 1-2-1-3-2-3-0-1-
 DIRTY-RRIP-POLICY-1: 2-2-0-3-1-3-1-1- DIRTY-RRIP-POLICY-2: 2-2-0-3-1-3-1-1-
 PSEL width: 10
Heartbeat CPU 0 instructions: 10000000 cycles: 4859184 heartbeat IPC: 2.05796 cumulative IPC: 2.05796 (Simulation time: 0 hr 0 min 16 sec) 
Heartbeat CPU 0 instructions: 20000000 cycles: 9790786 heartbeat IPC: 2.02774 cumulative IPC: 2.04274 (Simulation time: 0 hr 0 min 32 sec) 
Heartbeat CPU 0 instructions: 30000001 cycles: 14562979 heartbeat IPC: 2.09547 cumulative IPC: 2.06002 (Simulation time: 0 hr 0 min 47 sec) 
Heartbeat CPU 0 instructions: 40000000 cycles: 19399966 heartbeat IPC: 2.0674 cumulative IPC: 2.06186 (Simulation time: 0 hr 1 min 4 sec) 
Heartbeat CPU 0 instructions: 50000000 cycles: 24256471 heartbeat IPC: 2.05909 cumulative IPC: 2.06131 (Simulation time: 0 hr 1 min 20 sec) 
Heartbeat CPU 0 instructions: 60000000 cycles: 29181905 heartbeat IPC: 2.03028 cumulative IPC: 2.05607 (Simulation time: 0 hr 1 min 36 sec) 
Heartbeat CPU 0 instructions: 70000001 cycles: 33956760 heartbeat IPC: 2.0943 cumulative IPC: 2.06145 (Simulation time: 0 hr 1 min 51 sec) 
Heartbeat CPU 0 instructions: 80000000 cycles: 38793049 heartbeat IPC: 2.0677 cumulative IPC: 2.06223 (Simulation time: 0 hr 2 min 8 sec) 
Heartbeat CPU 0 instructions: 90000002 cycles: 43647120 heartbeat IPC: 2.06013 cumulative IPC: 2.06199 (Simulation time: 0 hr 2 min 24 sec) 
Heartbeat CPU 0 instructions: 100000000 cycles: 48565936 heartbeat IPC: 2.03301 cumulative IPC: 2.05906 (Simulation time: 0 hr 2 min 41 sec) 

Warmup complete CPU 0 instructions: 100000001 cycles: 48565937 (Simulation time: 0 hr 2 min 41 sec) 

Heartbeat CPU 0 instructions: 110000000 cycles: 61801630 heartbeat IPC: 0.755533 cumulative IPC: 0.755533 (Simulation time: 0 hr 3 min 3 sec) 
Heartbeat CPU 0 instructions: 120000000 cycles: 75579076 heartbeat IPC: 0.725824 cumulative IPC: 0.74038 (Simulation time: 0 hr 3 min 27 sec) 
Heartbeat CPU 0 instructions: 130000000 cycles: 89337504 heartbeat IPC: 0.726827 cumulative IPC: 0.735807 (Simulation time: 0 hr 3 min 52 sec) 
Heartbeat CPU 0 instructions: 140000000 cycles: 103622961 heartbeat IPC: 0.700013 cumulative IPC: 0.726519 (Simulation time: 0 hr 4 min 16 sec) 
Heartbeat CPU 0 instructions: 150000003 cycles: 116923610 heartbeat IPC: 0.751843 cumulative IPC: 0.731447 (Simulation time: 0 hr 4 min 38 sec) 
Heartbeat CPU 0 instructions: 160000000 cycles: 130701056 heartbeat IPC: 0.725824 cumulative IPC: 0.730504 (Simulation time: 0 hr 5 min 3 sec) 
Heartbeat CPU 0 instructions: 170000001 cycles: 144497399 heartbeat IPC: 0.72483 cumulative IPC: 0.729688 (Simulation time: 0 hr 5 min 27 sec) 
Heartbeat CPU 0 instructions: 180000000 cycles: 158760231 heartbeat IPC: 0.701123 cumulative IPC: 0.72599 (Simulation time: 0 hr 5 min 52 sec) 
Heartbeat CPU 0 instructions: 190000003 cycles: 172023877 heartbeat IPC: 0.753941 cumulative IPC: 0.728993 (Simulation time: 0 hr 6 min 14 sec) 
Heartbeat CPU 0 instructions: 200000000 cycles: 185795908 heartbeat IPC: 0.726109 cumulative IPC: 0.728704 (Simulation time: 0 hr 6 min 38 sec) 
Heartbeat CPU 0 instructions: 210000002 cycles: 199595427 heartbeat IPC: 0.724663 cumulative IPC: 0.728335 (Simulation time: 0 hr 7 min 3 sec) 
Heartbeat CPU 0 instructions: 220000000 cycles: 213862295 heartbeat IPC: 0.700925 cumulative IPC: 0.725969 (Simulation time: 0 hr 7 min 27 sec) 
Heartbeat CPU 0 instructions: 230000001 cycles: 227045500 heartbeat IPC: 0.758541 cumulative IPC: 0.728375 (Simulation time: 0 hr 7 min 50 sec) 
Heartbeat CPU 0 instructions: 240000000 cycles: 240811654 heartbeat IPC: 0.726419 cumulative IPC: 0.728235 (Simulation time: 0 hr 8 min 14 sec) 
Heartbeat CPU 0 instructions: 250000001 cycles: 254556170 heartbeat IPC: 0.727563 cumulative IPC: 0.72819 (Simulation time: 0 hr 8 min 38 sec) 
Heartbeat CPU 0 instructions: 260000000 cycles: 268714224 heartbeat IPC: 0.706312 cumulative IPC: 0.726783 (Simulation time: 0 hr 9 min 3 sec) 
Heartbeat CPU 0 instructions: 270000003 cycles: 282030866 heartbeat IPC: 0.75094 cumulative IPC: 0.728161 (Simulation time: 0 hr 9 min 25 sec) 
Heartbeat CPU 0 instructions: 280000000 cycles: 295810960 heartbeat IPC: 0.725684 cumulative IPC: 0.728023 (Simulation time: 0 hr 9 min 50 sec) 
Heartbeat CPU 0 instructions: 290000001 cycles: 309603253 heartbeat IPC: 0.725043 cumulative IPC: 0.727865 (Simulation time: 0 hr 10 min 14 sec) 
Heartbeat CPU 0 instructions: 300000000 cycles: 323700254 heartbeat IPC: 0.709371 cumulative IPC: 0.726918 (Simulation time: 0 hr 10 min 39 sec) 
Heartbeat CPU 0 instructions: 310000000 cycles: 337046104 heartbeat IPC: 0.749297 cumulative IPC: 0.727953 (Simulation time: 0 hr 11 min 1 sec) 
Heartbeat CPU 0 instructions: 320000000 cycles: 350870271 heartbeat IPC: 0.723371 cumulative IPC: 0.727743 (Simulation time: 0 hr 11 min 25 sec) 
Heartbeat CPU 0 instructions: 330000000 cycles: 364677576 heartbeat IPC: 0.724254 cumulative IPC: 0.727591 (Simulation time: 0 hr 11 min 49 sec) 
Heartbeat CPU 0 instructions: 340000000 cycles: 378750402 heartbeat IPC: 0.710589 cumulative IPC: 0.726866 (Simulation time: 0 hr 12 min 14 sec) 
Heartbeat CPU 0 instructions: 350000000 cycles: 392139717 heartbeat IPC: 0.746864 cumulative IPC: 0.727646 (Simulation time: 0 hr 12 min 36 sec) 
Heartbeat CPU 0 instructions: 360000000 cycles: 405999160 heartbeat IPC: 0.72153 cumulative IPC: 0.727409 (Simulation time: 0 hr 13 min 0 sec) 
Heartbeat CPU 0 instructions: 370000003 cycles: 419809409 heartbeat IPC: 0.7241 cumulative IPC: 0.727286 (Simulation time: 0 hr 13 min 24 sec) 
Heartbeat CPU 0 instructions: 380000000 cycles: 433849278 heartbeat IPC: 0.712257 cumulative IPC: 0.726738 (Simulation time: 0 hr 13 min 49 sec) 
Heartbeat CPU 0 instructions: 390000003 cycles: 447252590 heartbeat IPC: 0.746084 cumulative IPC: 0.727388 (Simulation time: 0 hr 14 min 10 sec) 
Heartbeat CPU 0 instructions: 400000000 cycles: 461102813 heartbeat IPC: 0.72201 cumulative IPC: 0.727208 (Simulation time: 0 hr 14 min 35 sec) 
Heartbeat CPU 0 instructions: 410000000 cycles: 474881947 heartbeat IPC: 0.725735 cumulative IPC: 0.72716 (Simulation time: 0 hr 14 min 59 sec) 
Heartbeat CPU 0 instructions: 420000000 cycles: 488903081 heartbeat IPC: 0.713209 cumulative IPC: 0.726716 (Simulation time: 0 hr 15 min 23 sec) 
Heartbeat CPU 0 instructions: 430000003 cycles: 502319304 heartbeat IPC: 0.745367 cumulative IPC: 0.727267 (Simulation time: 0 hr 15 min 45 sec) 
Heartbeat CPU 0 instructions: 440000000 cycles: 516170149 heartbeat IPC: 0.721977 cumulative IPC: 0.727111 (Simulation time: 0 hr 16 min 9 sec) 
Heartbeat CPU 0 instructions: 450000000 cycles: 529970873 heartbeat IPC: 0.7246 cumulative IPC: 0.727039 (Simulation time: 0 hr 16 min 34 sec) 
Heartbeat CPU 0 instructions: 460000000 cycles: 543976618 heartbeat IPC: 0.713993 cumulative IPC: 0.72667 (Simulation time: 0 hr 16 min 58 sec) 
Heartbeat CPU 0 instructions: 470000001 cycles: 557402206 heartbeat IPC: 0.744846 cumulative IPC: 0.727149 (Simulation time: 0 hr 17 min 20 sec) 
Heartbeat CPU 0 instructions: 480000000 cycles: 571224687 heartbeat IPC: 0.723459 cumulative IPC: 0.727052 (Simulation time: 0 hr 17 min 44 sec) 
Heartbeat CPU 0 instructions: 490000002 cycles: 585000244 heartbeat IPC: 0.725924 cumulative IPC: 0.727023 (Simulation time: 0 hr 18 min 8 sec) 
Heartbeat CPU 0 instructions: 500000000 cycles: 599003540 heartbeat IPC: 0.714117 cumulative IPC: 0.726695 (Simulation time: 0 hr 18 min 33 sec) 
Heartbeat CPU 0 instructions: 510000002 cycles: 612438639 heartbeat IPC: 0.744319 cumulative IPC: 0.727114 (Simulation time: 0 hr 18 min 55 sec) 
Heartbeat CPU 0 instructions: 520000000 cycles: 626255256 heartbeat IPC: 0.723766 cumulative IPC: 0.727034 (Simulation time: 0 hr 19 min 19 sec) 
Heartbeat CPU 0 instructions: 530000003 cycles: 640013232 heartbeat IPC: 0.726851 cumulative IPC: 0.72703 (Simulation time: 0 hr 19 min 43 sec) 
Heartbeat CPU 0 instructions: 540000000 cycles: 654036420 heartbeat IPC: 0.713104 cumulative IPC: 0.726708 (Simulation time: 0 hr 20 min 7 sec) 
Heartbeat CPU 0 instructions: 550000003 cycles: 667474791 heartbeat IPC: 0.744138 cumulative IPC: 0.727086 (Simulation time: 0 hr 20 min 29 sec) 
Heartbeat CPU 0 instructions: 560000000 cycles: 681266799 heartbeat IPC: 0.725057 cumulative IPC: 0.727042 (Simulation time: 0 hr 20 min 53 sec) 
Heartbeat CPU 0 instructions: 570000001 cycles: 695050867 heartbeat IPC: 0.725475 cumulative IPC: 0.727008 (Simulation time: 0 hr 21 min 17 sec) 
Heartbeat CPU 0 instructions: 580000000 cycles: 709101459 heartbeat IPC: 0.711714 cumulative IPC: 0.726683 (Simulation time: 0 hr 21 min 42 sec) 
Heartbeat CPU 0 instructions: 590000000 cycles: 722485160 heartbeat IPC: 0.747177 cumulative IPC: 0.72709 (Simulation time: 0 hr 22 min 4 sec) 
Heartbeat CPU 0 instructions: 600000000 cycles: 736275918 heartbeat IPC: 0.725123 cumulative IPC: 0.727051 (Simulation time: 0 hr 22 min 28 sec) 
Finished CPU 0 instructions: 500000001 cycles: 687709989 cumulative IPC: 0.727051 (Simulation time: 0 hr 22 min 28 sec) 

CPU 0 Branch Prediction Accuracy: 97.5275% MPKI: 2.1997
Number of Branches: 44482865 Number of Mispredictions: 1099852
Number of LOAD Instructions: 144955155
Number of LOAD Instructions (ROI): 144955155
Number of STORE Instructions: 55921098
Number of STORE Instructions (ROI): 55921098
Total Destination Memory Operands: 57111147
Total Destination Memory Operands (ROI): 57111147
Total Source Memory Operands: 144955155
Total Source Memory Operands (ROI): 144955155
Number of DEPENDED LOADS: 13455141
Number of DEPENDED LOADS (ROI): 13455141
Number of SQ_ADDED: 57111126
Number of SQ_ADDED (ROI): 57111126
Number of LQ_ADDED: 174503698
Number of LQ_ADDED (ROI): 174503698
Number of Instructions read from trace: 600000256

ChampSim completed all CPUs

Region of Interest Statistics

CPU 0 cumulative IPC: 0.727051 instructions: 500000001 cycles: 687709989
ITLB TOTAL     ACCESS:  136065114  HIT:  136062561  MISS:       2553
ITLB LOAD      ACCESS:  136065114  HIT:  136062561  MISS:       2553
ITLB RFO       ACCESS:          0  HIT:          0  MISS:          0
ITLB PREFETCH  ACCESS:          0  HIT:          0  MISS:          0
ITLB WRITEBACK ACCESS:          0  HIT:          0  MISS:          0
ITLB PREFETCH  REQUESTED:          0  ISSUED:          0  USEFUL:          0  USELESS:          0
ITLB TOTAL MSHR MERGED:       4374
ITLB LOAD MSHR MERGED:       4374
ITLB RFO MSHR MERGED:          0
ITLB PREFETCH MSHR MERGED:          0
ITLB WRITEBACK MSHR MERGED:          0
ITLB TOTAL ACCESSES:  136069488 HITS:  136062561 MISSES:       6927
ITLB LOAD ACCESSES:  136069488 HITS:  136062561 MISSES:       6927
ITLB RFO ACCESSES:          0 HITS:          0 MISSES:          0
ITLB PREFETCH ACCESSES:          0 HITS:          0 MISSES:          0
ITLB WRITEBACK ACCESSES:          0 HITS:          0 MISSES:          0
ITLB RQ ACCESS:  500000202
ITLB RQ TO_CACHE:  136069488
ITLB RQ MERGED:  363930714
ITLB RQ FORWARD:          0
ITLB WQ ACCESS:          0
ITLB WQ TO_CACHE:          0
ITLB WQ MERGED:          0
ITLB WQ FORWARD:          0
DTLB TOTAL     ACCESS:  111545712  HIT:  111409518  MISS:     136194
DTLB LOAD      ACCESS:   78949665  HIT:   78824039  MISS:     125626
DTLB RFO       ACCESS:   32596047  HIT:   32585479  MISS:      10568
DTLB PREFETCH  ACCESS:          0  HIT:          0  MISS:          0
DTLB WRITEBACK ACCESS:          0  HIT:          0  MISS:          0
DTLB PREFETCH  REQUESTED:          0  ISSUED:          0  USEFUL:          0  USELESS:          0
DTLB TOTAL MSHR MERGED:      63405
DTLB LOAD MSHR MERGED:      50912
DTLB RFO MSHR MERGED:      12493
DTLB PREFETCH MSHR MERGED:          0
DTLB WRITEBACK MSHR MERGED:          0
DTLB TOTAL ACCESSES:  111609117 HITS:  111409518 MISSES:     199599
DTLB LOAD ACCESSES:   79000577 HITS:   78824039 MISSES:     176538
DTLB RFO ACCESSES:   32608540 HITS:   32585479 MISSES:      23061
DTLB PREFETCH ACCESSES:          0 HITS:          0 MISSES:          0
DTLB WRITEBACK ACCESSES:          0 HITS:          0 MISSES:          0
DTLB RQ ACCESS:  157180302
DTLB RQ TO_CACHE:  111609117
DTLB RQ MERGED:   45571185
DTLB RQ FORWARD:          0
DTLB WQ ACCESS:          0
DTLB WQ TO_CACHE:          0
DTLB WQ MERGED:          0
DTLB WQ FORWARD:          0
L1D TOTAL     ACCESS:  198200211  HIT:  188359219  MISS:    9840992
L1D LOAD      ACCESS:   79945294  HIT:   75681241  MISS:    4264053
L1D RFO       ACCESS:   44511985  HIT:   43611480  MISS:     900505
L1D PREFETCH  ACCESS:   73742932  HIT:   69066498  MISS:    4676434
L1D WRITEBACK ACCESS:          0  HIT:          0  MISS:          0
L1D PREFETCH  REQUESTED:   80344939  ISSUED:   79889301  USEFUL:    1818183  USELESS:    2858160
L1D TOTAL MSHR MERGED:    2528186
L1D LOAD MSHR MERGED:     524906
L1D RFO MSHR MERGED:    1440582
L1D PREFETCH MSHR MERGED:     562698
L1D WRITEBACK MSHR MERGED:          0
L1D TOTAL ACCESSES:  200749984 HITS:  188380806 MISSES:   12369178
L1D LOAD ACCESSES:   80357876 HITS:   75694178 MISSES:    4663698
L1D RFO ACCESSES:   45949486 HITS:   43611480 MISSES:    2338006
L1D PREFETCH ACCESSES:   74442622 HITS:   69075148 MISSES:    5367474
L1D WRITEBACK ACCESSES:          0 HITS:          0 MISSES:          0
L1D RQ ACCESS:  109538332
L1D RQ TO_CACHE:   80344939
L1D RQ MERGED:   29180456
L1D RQ FORWARD:          0
L1D WQ ACCESS:   47641970
L1D WQ TO_CACHE:   45949486
L1D WQ MERGED:    1692484
L1D WQ FORWARD:      21587
L1I TOTAL     ACCESS:  161535321  HIT:  161271354  MISS:     263967
L1I LOAD      ACCESS:  161535321  HIT:  161271354  MISS:     263967
L1I RFO       ACCESS:          0  HIT:          0  MISS:          0
L1I PREFETCH  ACCESS:          0  HIT:          0  MISS:          0
L1I WRITEBACK ACCESS:          0  HIT:          0  MISS:          0
L1I PREFETCH  REQUESTED:          0  ISSUED:          0  USEFUL:          0  USELESS:          0
L1I TOTAL MSHR MERGED:     261077
L1I LOAD MSHR MERGED:     261077
L1I RFO MSHR MERGED:          0
L1I PREFETCH MSHR MERGED:          0
L1I WRITEBACK MSHR MERGED:          0
L1I TOTAL ACCESSES:  161796398 HITS:  161271354 MISSES:     525044
L1I LOAD ACCESSES:  161796398 HITS:  161271354 MISSES:     525044
L1I RFO ACCESSES:          0 HITS:          0 MISSES:          0
L1I PREFETCH ACCESSES:          0 HITS:          0 MISSES:          0
L1I WRITEBACK ACCESSES:          0 HITS:          0 MISSES:          0
L1I RQ ACCESS:  500000202
L1I RQ TO_CACHE:  161796398
L1I RQ MERGED:  338203804
L1I RQ FORWARD:          0
L1I WQ ACCESS:          0
L1I WQ TO_CACHE:          0
L1I WQ MERGED:          0
L1I WQ FORWARD:          0
L2C TOTAL     ACCESS:   11771375  HIT:   10382114  MISS:    1389261
L2C LOAD      ACCESS:    4402693  HIT:    3905935  MISS:     496758
L2C RFO       ACCESS:     897359  HIT:     536293  MISS:     361066
L2C PREFETCH  ACCESS:    5283800  HIT:    4755309  MISS:     528491
L2C WRITEBACK ACCESS:    1187523  HIT:    1184577  MISS:       2946
L2C PREFETCH  REQUESTED:     504530  ISSUED:     504530  USEFUL:     114901  USELESS:     413783
L2C TOTAL MSHR MERGED:       2159
L2C LOAD MSHR MERGED:        429
L2C RFO MSHR MERGED:          0
L2C PREFETCH MSHR MERGED:       1730
L2C WRITEBACK MSHR MERGED:          0
L2C TOTAL ACCESSES:   11776345 HITS:   10382332 MISSES:    1394013
L2C LOAD ACCESSES:    4402759 HITS:    3906001 MISSES:     496758
L2C RFO ACCESSES:     897424 HITS:     536358 MISSES:     361066
L2C PREFETCH ACCESSES:    5288639 HITS:    4755396 MISSES:     533243
L2C WRITEBACK ACCESSES:    1187523 HITS:    1184577 MISSES:       2946
L2C RQ ACCESS:    5300183
L2C RQ TO_CACHE:    5300052
L2C RQ MERGED:          0
L2C RQ FORWARD:          0
L2C WQ ACCESS:    1187523
L2C WQ TO_CACHE:    1187523
L2C WQ MERGED:          0
L2C WQ FORWARD:        218
LLC TOTAL     ACCESS:    1849513  HIT:    1010337  MISS:     839176
LLC LOAD      ACCESS:     496327  HIT:     231073  MISS:     265254
LLC RFO       ACCESS:     361060  HIT:     181688  MISS:     179372
LLC PREFETCH  ACCESS:     531395  HIT:     300016  MISS:     231379
LLC WRITEBACK ACCESS:     460731  HIT:     297560  MISS:     163171
LLC PREFETCH  REQUESTED:          0  ISSUED:          0  USEFUL:       3999  USELESS:     227668
LLC TOTAL MSHR MERGED:         90
LLC LOAD MSHR MERGED:         36
LLC RFO MSHR MERGED:          0
LLC PREFETCH MSHR MERGED:         54
LLC WRITEBACK MSHR MERGED:          0
LLC TOTAL ACCESSES:    1849631 HITS:    1010365 MISSES:     839266
LLC LOAD ACCESSES:     496329 HITS:     231075 MISSES:     265254
LLC RFO ACCESSES:     361066 HITS:     181694 MISSES:     179372
LLC PREFETCH ACCESSES:     531505 HITS:     300036 MISSES:     231469
LLC WRITEBACK ACCESSES:     460731 HITS:     297560 MISSES:     163171
LLC 0 RQ ACCESS:     857395
LLC 0 RQ TO_CACHE:     857387
LLC 0 RQ MERGED:          0
LLC 0 RQ FORWARD:          0
LLC WQ ACCESS:     460731
LLC WQ TO_CACHE:     460731
LLC WQ MERGED:          0
LLC WQ FORWARD:         28
Major fault: 0 Minor fault: 3073
CPU 0 L1D next line prefetcher final stats
CPU 0 L2C PC-based stride prefetcher final stats
All Misses: 1006204
All Hits: 1170001
SD Algo Stats - Switches: 0 SRR-Repls: 303323 BRR-Repls: 0

DRAM Statistics
 CHANNEL 0
 RQ ROW_BUFFER_HIT:     428297  ROW_BUFFER_MISS:     247430
 DBUS_CONGESTED:     519728
 WQ ROW_BUFFER_HIT:      21825  ROW_BUFFER_MISS:     169430  FULL:          0

 AVG_CONGESTED_CYCLE: 13
LOADS RETIRED: 120673965
INSTR RETIRED: 500000000
