
*** ChampSim Multicore Out-of-Order Simulator ***

Warmup Instructions: 100000000
Simulation Instructions: 500000000
Number of CPUs: 1
LLC sets: 2048
LLC ways: 16
Clean RRIP Policies: 1213230112132301 Dirty RRIP Policies: 2203131122031311 PSEL Width: 10 Track Set: 4294967295 PSEL Mask: 1 Demote Mask: 3010100030101000DS Algo: 0Window size: 0
Off-chip DRAM Size: 4096 MB Channels: 1 Width: 64-bit Data Rate: 1600 MT/s

CPU 0 runs /mnt/beegfs/iconst01/spec2017/Omnetpp.trace.gz
NOT SORTED
TRACE STRING: /mnt/beegfs/iconst01/spec2017/Omnetpp.trace.gz
SORTED
TRACE STRING: /mnt/beegfs/iconst01/spec2017/Omnetpp.trace.gz
INITIAL
TRACE STRING: /mnt/beegfs/iconst01/spec2017/Omnetpp.trace.gz

champsim_seed used: 739

CPU 0 L1D next line prefetcher
CPU 0 L2C IP-based stride prefetcher
Initialize DRRIP state
Assign rand_sets[0]: 454  LLC: 2048
rand_sets[0]: 454
Assign rand_sets[1]: 1662  LLC: 2048
rand_sets[1]: 1662
Assign rand_sets[2]: 1921  LLC: 2048
rand_sets[2]: 1921
Assign rand_sets[3]: 1131  LLC: 2048
rand_sets[3]: 1131
Assign rand_sets[4]: 331  LLC: 2048
rand_sets[4]: 331
Assign rand_sets[5]: 1531  LLC: 2048
rand_sets[5]: 1531
Assign rand_sets[6]: 482  LLC: 2048
rand_sets[6]: 482
Assign rand_sets[7]: 1275  LLC: 2048
rand_sets[7]: 1275
Assign rand_sets[8]: 1876  LLC: 2048
rand_sets[8]: 1876
Assign rand_sets[9]: 2038  LLC: 2048
rand_sets[9]: 2038
Assign rand_sets[10]: 701  LLC: 2048
rand_sets[10]: 701
Assign rand_sets[11]: 479  LLC: 2048
rand_sets[11]: 479
Assign rand_sets[12]: 892  LLC: 2048
rand_sets[12]: 892
Assign rand_sets[13]: 1820  LLC: 2048
rand_sets[13]: 1820
Assign rand_sets[14]: 1505  LLC: 2048
rand_sets[14]: 1505
Assign rand_sets[15]: 1159  LLC: 2048
rand_sets[15]: 1159
Assign rand_sets[16]: 513  LLC: 2048
rand_sets[16]: 513
Assign rand_sets[17]: 703  LLC: 2048
rand_sets[17]: 703
Assign rand_sets[18]: 561  LLC: 2048
rand_sets[18]: 561
Assign rand_sets[19]: 990  LLC: 2048
rand_sets[19]: 990
Assign rand_sets[20]: 342  LLC: 2048
rand_sets[20]: 342
Assign rand_sets[21]: 882  LLC: 2048
rand_sets[21]: 882
Assign rand_sets[22]: 15  LLC: 2048
rand_sets[22]: 15
Assign rand_sets[23]: 71  LLC: 2048
rand_sets[23]: 71
Assign rand_sets[24]: 1127  LLC: 2048
rand_sets[24]: 1127
Assign rand_sets[25]: 1382  LLC: 2048
rand_sets[25]: 1382
Assign rand_sets[26]: 647  LLC: 2048
rand_sets[26]: 647
Assign rand_sets[27]: 857  LLC: 2048
rand_sets[27]: 857
Assign rand_sets[28]: 1450  LLC: 2048
rand_sets[28]: 1450
Assign rand_sets[29]: 1160  LLC: 2048
rand_sets[29]: 1160
Assign rand_sets[30]: 1852  LLC: 2048
rand_sets[30]: 1852
Assign rand_sets[31]: 1881  LLC: 2048
rand_sets[31]: 1881
Assign rand_sets[32]: 1770  LLC: 2048
rand_sets[32]: 1770
Assign rand_sets[33]: 1622  LLC: 2048
rand_sets[33]: 1622
Assign rand_sets[34]: 275  LLC: 2048
rand_sets[34]: 275
Assign rand_sets[35]: 635  LLC: 2048
rand_sets[35]: 635
Assign rand_sets[36]: 466  LLC: 2048
rand_sets[36]: 466
Assign rand_sets[37]: 1413  LLC: 2048
rand_sets[37]: 1413
Assign rand_sets[38]: 417  LLC: 2048
rand_sets[38]: 417
Assign rand_sets[39]: 472  LLC: 2048
rand_sets[39]: 472
Assign rand_sets[40]: 1340  LLC: 2048
rand_sets[40]: 1340
Assign rand_sets[41]: 852  LLC: 2048
rand_sets[41]: 852
Assign rand_sets[42]: 1365  LLC: 2048
rand_sets[42]: 1365
Assign rand_sets[43]: 47  LLC: 2048
rand_sets[43]: 47
Assign rand_sets[44]: 823  LLC: 2048
rand_sets[44]: 823
Assign rand_sets[45]: 686  LLC: 2048
rand_sets[45]: 686
Assign rand_sets[46]: 1637  LLC: 2048
rand_sets[46]: 1637
Assign rand_sets[47]: 1115  LLC: 2048
rand_sets[47]: 1115
Assign rand_sets[48]: 986  LLC: 2048
rand_sets[48]: 986
Assign rand_sets[49]: 258  LLC: 2048
rand_sets[49]: 258
Assign rand_sets[50]: 633  LLC: 2048
rand_sets[50]: 633
Assign rand_sets[51]: 920  LLC: 2048
rand_sets[51]: 920
Assign rand_sets[52]: 204  LLC: 2048
rand_sets[52]: 204
Assign rand_sets[53]: 227  LLC: 2048
rand_sets[53]: 227
Assign rand_sets[54]: 1818  LLC: 2048
rand_sets[54]: 1818
Assign rand_sets[55]: 886  LLC: 2048
rand_sets[55]: 886
Assign rand_sets[56]: 1422  LLC: 2048
rand_sets[56]: 1422
Assign rand_sets[57]: 607  LLC: 2048
rand_sets[57]: 607
Assign rand_sets[58]: 217  LLC: 2048
rand_sets[58]: 217
Assign rand_sets[59]: 1945  LLC: 2048
rand_sets[59]: 1945
Assign rand_sets[60]: 143  LLC: 2048
rand_sets[60]: 143
Assign rand_sets[61]: 1311  LLC: 2048
rand_sets[61]: 1311
Assign rand_sets[62]: 319  LLC: 2048
rand_sets[62]: 319
Assign rand_sets[63]: 1846  LLC: 2048
rand_sets[63]: 1846
 CLEAN-RRIP-POLICY-1: 1-2-1-3-2-3-0-1- CLEAN-RRIP-POLICY-2: 1-2-1-3-2-3-0-1-
 DIRTY-RRIP-POLICY-1: 2-2-0-3-1-3-1-1- DIRTY-RRIP-POLICY-2: 2-2-0-3-1-3-1-1-
 PSEL width: 10
Heartbeat CPU 0 instructions: 10000000 cycles: 7319892 heartbeat IPC: 1.36614 cumulative IPC: 1.36614 (Simulation time: 0 hr 0 min 20 sec) 
Heartbeat CPU 0 instructions: 20000000 cycles: 14623703 heartbeat IPC: 1.36915 cumulative IPC: 1.36764 (Simulation time: 0 hr 0 min 40 sec) 
Heartbeat CPU 0 instructions: 30000003 cycles: 21925147 heartbeat IPC: 1.36959 cumulative IPC: 1.36829 (Simulation time: 0 hr 0 min 59 sec) 
Heartbeat CPU 0 instructions: 40000000 cycles: 29213517 heartbeat IPC: 1.37205 cumulative IPC: 1.36923 (Simulation time: 0 hr 1 min 19 sec) 
Heartbeat CPU 0 instructions: 50000000 cycles: 36490068 heartbeat IPC: 1.37428 cumulative IPC: 1.37024 (Simulation time: 0 hr 1 min 39 sec) 
Heartbeat CPU 0 instructions: 60000000 cycles: 43770201 heartbeat IPC: 1.3736 cumulative IPC: 1.3708 (Simulation time: 0 hr 1 min 59 sec) 
Heartbeat CPU 0 instructions: 70000001 cycles: 51055581 heartbeat IPC: 1.37261 cumulative IPC: 1.37105 (Simulation time: 0 hr 2 min 19 sec) 
Heartbeat CPU 0 instructions: 80000000 cycles: 58330674 heartbeat IPC: 1.37455 cumulative IPC: 1.37149 (Simulation time: 0 hr 2 min 40 sec) 
Heartbeat CPU 0 instructions: 90000000 cycles: 65637129 heartbeat IPC: 1.36865 cumulative IPC: 1.37118 (Simulation time: 0 hr 2 min 59 sec) 
Heartbeat CPU 0 instructions: 100000000 cycles: 72929385 heartbeat IPC: 1.37132 cumulative IPC: 1.37119 (Simulation time: 0 hr 3 min 19 sec) 

Warmup complete CPU 0 instructions: 100000002 cycles: 72929386 (Simulation time: 0 hr 3 min 19 sec) 

Heartbeat CPU 0 instructions: 110000002 cycles: 113375034 heartbeat IPC: 0.247245 cumulative IPC: 0.247245 (Simulation time: 0 hr 4 min 0 sec) 
Heartbeat CPU 0 instructions: 120000000 cycles: 153535538 heartbeat IPC: 0.249001 cumulative IPC: 0.24812 (Simulation time: 0 hr 4 min 40 sec) 
Heartbeat CPU 0 instructions: 130000002 cycles: 193933441 heartbeat IPC: 0.247538 cumulative IPC: 0.247926 (Simulation time: 0 hr 5 min 20 sec) 
Heartbeat CPU 0 instructions: 140000000 cycles: 234433913 heartbeat IPC: 0.246911 cumulative IPC: 0.247671 (Simulation time: 0 hr 6 min 1 sec) 
Heartbeat CPU 0 instructions: 150000002 cycles: 274482088 heartbeat IPC: 0.249699 cumulative IPC: 0.248074 (Simulation time: 0 hr 6 min 41 sec) 
Heartbeat CPU 0 instructions: 160000000 cycles: 314584333 heartbeat IPC: 0.249363 cumulative IPC: 0.248288 (Simulation time: 0 hr 7 min 21 sec) 
Heartbeat CPU 0 instructions: 170000001 cycles: 353950519 heartbeat IPC: 0.254025 cumulative IPC: 0.249092 (Simulation time: 0 hr 8 min 1 sec) 
Heartbeat CPU 0 instructions: 180000000 cycles: 394083624 heartbeat IPC: 0.249171 cumulative IPC: 0.249101 (Simulation time: 0 hr 8 min 41 sec) 
Heartbeat CPU 0 instructions: 190000002 cycles: 434171805 heartbeat IPC: 0.24945 cumulative IPC: 0.24914 (Simulation time: 0 hr 9 min 21 sec) 
Heartbeat CPU 0 instructions: 200000000 cycles: 475415511 heartbeat IPC: 0.242461 cumulative IPC: 0.248456 (Simulation time: 0 hr 10 min 2 sec) 
Heartbeat CPU 0 instructions: 210000003 cycles: 515519798 heartbeat IPC: 0.24935 cumulative IPC: 0.248537 (Simulation time: 0 hr 10 min 42 sec) 
Heartbeat CPU 0 instructions: 220000000 cycles: 555850018 heartbeat IPC: 0.247953 cumulative IPC: 0.248488 (Simulation time: 0 hr 11 min 22 sec) 
Heartbeat CPU 0 instructions: 230000000 cycles: 596180608 heartbeat IPC: 0.247951 cumulative IPC: 0.248447 (Simulation time: 0 hr 12 min 3 sec) 
Heartbeat CPU 0 instructions: 240000000 cycles: 636239312 heartbeat IPC: 0.249634 cumulative IPC: 0.248531 (Simulation time: 0 hr 12 min 42 sec) 
Heartbeat CPU 0 instructions: 250000000 cycles: 676331510 heartbeat IPC: 0.249425 cumulative IPC: 0.24859 (Simulation time: 0 hr 13 min 22 sec) 
Heartbeat CPU 0 instructions: 260000000 cycles: 716529874 heartbeat IPC: 0.248766 cumulative IPC: 0.248601 (Simulation time: 0 hr 14 min 1 sec) 
Heartbeat CPU 0 instructions: 270000000 cycles: 756793326 heartbeat IPC: 0.248364 cumulative IPC: 0.248587 (Simulation time: 0 hr 14 min 41 sec) 
Heartbeat CPU 0 instructions: 280000000 cycles: 797401962 heartbeat IPC: 0.246253 cumulative IPC: 0.248457 (Simulation time: 0 hr 15 min 21 sec) 
Heartbeat CPU 0 instructions: 290000001 cycles: 837225326 heartbeat IPC: 0.251109 cumulative IPC: 0.248595 (Simulation time: 0 hr 16 min 0 sec) 
Heartbeat CPU 0 instructions: 300000000 cycles: 877715370 heartbeat IPC: 0.246974 cumulative IPC: 0.248513 (Simulation time: 0 hr 16 min 39 sec) 
Heartbeat CPU 0 instructions: 310000000 cycles: 918154195 heartbeat IPC: 0.247287 cumulative IPC: 0.248455 (Simulation time: 0 hr 17 min 19 sec) 
Heartbeat CPU 0 instructions: 320000000 cycles: 958285792 heartbeat IPC: 0.24918 cumulative IPC: 0.248488 (Simulation time: 0 hr 17 min 58 sec) 
Heartbeat CPU 0 instructions: 330000000 cycles: 998429292 heartbeat IPC: 0.249106 cumulative IPC: 0.248514 (Simulation time: 0 hr 18 min 37 sec) 
Heartbeat CPU 0 instructions: 340000000 cycles: 1039159845 heartbeat IPC: 0.245516 cumulative IPC: 0.248388 (Simulation time: 0 hr 19 min 17 sec) 
Heartbeat CPU 0 instructions: 350000001 cycles: 1079393969 heartbeat IPC: 0.248545 cumulative IPC: 0.248394 (Simulation time: 0 hr 19 min 56 sec) 
Heartbeat CPU 0 instructions: 360000000 cycles: 1119927904 heartbeat IPC: 0.246707 cumulative IPC: 0.248329 (Simulation time: 0 hr 20 min 35 sec) 
Heartbeat CPU 0 instructions: 370000000 cycles: 1159536716 heartbeat IPC: 0.252469 cumulative IPC: 0.24848 (Simulation time: 0 hr 21 min 14 sec) 
Heartbeat CPU 0 instructions: 380000000 cycles: 1200009079 heartbeat IPC: 0.247082 cumulative IPC: 0.24843 (Simulation time: 0 hr 21 min 53 sec) 
Heartbeat CPU 0 instructions: 390000001 cycles: 1240032269 heartbeat IPC: 0.249855 cumulative IPC: 0.248479 (Simulation time: 0 hr 22 min 32 sec) 
Heartbeat CPU 0 instructions: 400000000 cycles: 1280174882 heartbeat IPC: 0.249112 cumulative IPC: 0.2485 (Simulation time: 0 hr 23 min 11 sec) 
Heartbeat CPU 0 instructions: 410000000 cycles: 1320163709 heartbeat IPC: 0.25007 cumulative IPC: 0.24855 (Simulation time: 0 hr 23 min 50 sec) 
Heartbeat CPU 0 instructions: 420000000 cycles: 1360172929 heartbeat IPC: 0.249942 cumulative IPC: 0.248593 (Simulation time: 0 hr 24 min 29 sec) 
Heartbeat CPU 0 instructions: 430000000 cycles: 1400241369 heartbeat IPC: 0.249573 cumulative IPC: 0.248623 (Simulation time: 0 hr 25 min 8 sec) 
Heartbeat CPU 0 instructions: 440000000 cycles: 1440350662 heartbeat IPC: 0.249319 cumulative IPC: 0.248643 (Simulation time: 0 hr 25 min 47 sec) 
Heartbeat CPU 0 instructions: 450000002 cycles: 1480327726 heartbeat IPC: 0.250143 cumulative IPC: 0.248686 (Simulation time: 0 hr 26 min 26 sec) 
Heartbeat CPU 0 instructions: 460000000 cycles: 1519764373 heartbeat IPC: 0.253571 cumulative IPC: 0.248819 (Simulation time: 0 hr 27 min 5 sec) 
Heartbeat CPU 0 instructions: 470000000 cycles: 1560047479 heartbeat IPC: 0.248243 cumulative IPC: 0.248803 (Simulation time: 0 hr 27 min 44 sec) 
Heartbeat CPU 0 instructions: 480000000 cycles: 1599943897 heartbeat IPC: 0.250649 cumulative IPC: 0.248852 (Simulation time: 0 hr 28 min 23 sec) 
Heartbeat CPU 0 instructions: 490000001 cycles: 1640004022 heartbeat IPC: 0.249625 cumulative IPC: 0.248871 (Simulation time: 0 hr 29 min 2 sec) 
Heartbeat CPU 0 instructions: 500000000 cycles: 1680291911 heartbeat IPC: 0.248214 cumulative IPC: 0.248855 (Simulation time: 0 hr 29 min 40 sec) 
Heartbeat CPU 0 instructions: 510000000 cycles: 1720034313 heartbeat IPC: 0.25162 cumulative IPC: 0.248922 (Simulation time: 0 hr 30 min 18 sec) 
Heartbeat CPU 0 instructions: 520000000 cycles: 1760513883 heartbeat IPC: 0.247038 cumulative IPC: 0.248876 (Simulation time: 0 hr 30 min 56 sec) 
Heartbeat CPU 0 instructions: 530000000 cycles: 1800456501 heartbeat IPC: 0.250359 cumulative IPC: 0.248911 (Simulation time: 0 hr 31 min 32 sec) 
Heartbeat CPU 0 instructions: 540000000 cycles: 1840142435 heartbeat IPC: 0.251978 cumulative IPC: 0.24898 (Simulation time: 0 hr 32 min 9 sec) 
Heartbeat CPU 0 instructions: 550000001 cycles: 1880537627 heartbeat IPC: 0.247554 cumulative IPC: 0.248948 (Simulation time: 0 hr 32 min 46 sec) 
Heartbeat CPU 0 instructions: 560000000 cycles: 1921059005 heartbeat IPC: 0.246783 cumulative IPC: 0.2489 (Simulation time: 0 hr 33 min 22 sec) 
Heartbeat CPU 0 instructions: 570000003 cycles: 1961559029 heartbeat IPC: 0.246914 cumulative IPC: 0.248858 (Simulation time: 0 hr 33 min 59 sec) 
Heartbeat CPU 0 instructions: 580000000 cycles: 2001868671 heartbeat IPC: 0.24808 cumulative IPC: 0.248841 (Simulation time: 0 hr 34 min 36 sec) 
Heartbeat CPU 0 instructions: 590000001 cycles: 2042556654 heartbeat IPC: 0.245773 cumulative IPC: 0.248778 (Simulation time: 0 hr 35 min 13 sec) 
Heartbeat CPU 0 instructions: 600000000 cycles: 2083027953 heartbeat IPC: 0.247089 cumulative IPC: 0.248744 (Simulation time: 0 hr 35 min 50 sec) 
Finished CPU 0 instructions: 500000000 cycles: 2010098575 cumulative IPC: 0.248744 (Simulation time: 0 hr 35 min 50 sec) 

CPU 0 Branch Prediction Accuracy: 96.2429% MPKI: 5.85335
Number of Branches: 77897976 Number of Mispredictions: 2926674
Number of LOAD Instructions: 193081861
Number of LOAD Instructions (ROI): 193081861
Number of STORE Instructions: 97310749
Number of STORE Instructions (ROI): 97310749
Total Destination Memory Operands: 106368027
Total Destination Memory Operands (ROI): 106368027
Total Source Memory Operands: 193081861
Total Source Memory Operands (ROI): 193081861
Number of DEPENDED LOADS: 6447749
Number of DEPENDED LOADS (ROI): 6447749
Number of SQ_ADDED: 106367982
Number of SQ_ADDED (ROI): 106367982
Number of LQ_ADDED: 426837232
Number of LQ_ADDED (ROI): 426837232
Number of Instructions read from trace: 600000256

ChampSim completed all CPUs

Region of Interest Statistics

CPU 0 cumulative IPC: 0.248744 instructions: 500000000 cycles: 2010098575
ITLB TOTAL     ACCESS:  151201035  HIT:  151185204  MISS:      15831
ITLB LOAD      ACCESS:  151201035  HIT:  151185204  MISS:      15831
ITLB RFO       ACCESS:          0  HIT:          0  MISS:          0
ITLB PREFETCH  ACCESS:          0  HIT:          0  MISS:          0
ITLB WRITEBACK ACCESS:          0  HIT:          0  MISS:          0
ITLB PREFETCH  REQUESTED:          0  ISSUED:          0  USEFUL:          0  USELESS:          0
ITLB TOTAL MSHR MERGED:      17734
ITLB LOAD MSHR MERGED:      17734
ITLB RFO MSHR MERGED:          0
ITLB PREFETCH MSHR MERGED:          0
ITLB WRITEBACK MSHR MERGED:          0
ITLB TOTAL ACCESSES:  151218769 HITS:  151185204 MISSES:      33565
ITLB LOAD ACCESSES:  151218769 HITS:  151185204 MISSES:      33565
ITLB RFO ACCESSES:          0 HITS:          0 MISSES:          0
ITLB PREFETCH ACCESSES:          0 HITS:          0 MISSES:          0
ITLB WRITEBACK ACCESSES:          0 HITS:          0 MISSES:          0
ITLB RQ ACCESS:  500000242
ITLB RQ TO_CACHE:  151218769
ITLB RQ MERGED:  348781473
ITLB RQ FORWARD:          0
ITLB WQ ACCESS:          0
ITLB WQ TO_CACHE:          0
ITLB WQ MERGED:          0
ITLB WQ FORWARD:          0
DTLB TOTAL     ACCESS:  199555608  HIT:  194176624  MISS:    5378984
DTLB LOAD      ACCESS:  123126349  HIT:  118107850  MISS:    5018499
DTLB RFO       ACCESS:   76429259  HIT:   76068774  MISS:     360485
DTLB PREFETCH  ACCESS:          0  HIT:          0  MISS:          0
DTLB WRITEBACK ACCESS:          0  HIT:          0  MISS:          0
DTLB PREFETCH  REQUESTED:          0  ISSUED:          0  USEFUL:          0  USELESS:          0
DTLB TOTAL MSHR MERGED:     916824
DTLB LOAD MSHR MERGED:     807194
DTLB RFO MSHR MERGED:     109630
DTLB PREFETCH MSHR MERGED:          0
DTLB WRITEBACK MSHR MERGED:          0
DTLB TOTAL ACCESSES:  200472432 HITS:  194176624 MISSES:    6295808
DTLB LOAD ACCESSES:  123933543 HITS:  118107850 MISSES:    5825693
DTLB RFO ACCESSES:   76538889 HITS:   76068774 MISSES:     470115
DTLB PREFETCH ACCESSES:          0 HITS:          0 MISSES:          0
DTLB WRITEBACK ACCESSES:          0 HITS:          0 MISSES:          0
DTLB RQ ACCESS:  243877781
DTLB RQ TO_CACHE:  200472432
DTLB RQ MERGED:   43405349
DTLB RQ FORWARD:          0
DTLB WQ ACCESS:          0
DTLB WQ TO_CACHE:          0
DTLB WQ MERGED:          0
DTLB WQ FORWARD:          0
L1D TOTAL     ACCESS:  335582940  HIT:  317486894  MISS:   18096046
L1D LOAD      ACCESS:  127683643  HIT:  118739070  MISS:    8944573
L1D RFO       ACCESS:   87085367  HIT:   86297119  MISS:     788248
L1D PREFETCH  ACCESS:  120813930  HIT:  112450705  MISS:    8363225
L1D WRITEBACK ACCESS:          0  HIT:          0  MISS:          0
L1D PREFETCH  REQUESTED:  128468895  ISSUED:  126870909  USEFUL:    1740267  USELESS:    6622970
L1D TOTAL MSHR MERGED:    3861226
L1D LOAD MSHR MERGED:     950919
L1D RFO MSHR MERGED:    1068337
L1D PREFETCH MSHR MERGED:    1841970
L1D WRITEBACK MSHR MERGED:          0
L1D TOTAL ACCESSES:  339529113 HITS:  317571841 MISSES:   21957272
L1D LOAD ACCESSES:  128469324 HITS:  118739499 MISSES:    9729825
L1D RFO ACCESSES:   88086227 HITS:   86297119 MISSES:    1789108
L1D PREFETCH ACCESSES:  122973562 HITS:  112535223 MISSES:   10438339
L1D WRITEBACK ACCESSES:          0 HITS:          0 MISSES:          0
L1D RQ ACCESS:  155246396
L1D RQ TO_CACHE:  128468895
L1D RQ MERGED:   26777072
L1D RQ FORWARD:          0
L1D WQ ACCESS:   88631385
L1D WQ TO_CACHE:   88086226
L1D WQ MERGED:     545159
L1D WQ FORWARD:      84947
L1I TOTAL     ACCESS:  175510867  HIT:  175244398  MISS:     266469
L1I LOAD      ACCESS:  175510867  HIT:  175244398  MISS:     266469
L1I RFO       ACCESS:          0  HIT:          0  MISS:          0
L1I PREFETCH  ACCESS:          0  HIT:          0  MISS:          0
L1I WRITEBACK ACCESS:          0  HIT:          0  MISS:          0
L1I PREFETCH  REQUESTED:          0  ISSUED:          0  USEFUL:          0  USELESS:          0
L1I TOTAL MSHR MERGED:     213168
L1I LOAD MSHR MERGED:     213168
L1I RFO MSHR MERGED:          0
L1I PREFETCH MSHR MERGED:          0
L1I WRITEBACK MSHR MERGED:          0
L1I TOTAL ACCESSES:  175724035 HITS:  175244398 MISSES:     479637
L1I LOAD ACCESSES:  175724035 HITS:  175244398 MISSES:     479637
L1I RFO ACCESSES:          0 HITS:          0 MISSES:          0
L1I PREFETCH ACCESSES:          0 HITS:          0 MISSES:          0
L1I WRITEBACK ACCESSES:          0 HITS:          0 MISSES:          0
L1I RQ ACCESS:  500000242
L1I RQ TO_CACHE:  175724035
L1I RQ MERGED:  324276207
L1I RQ FORWARD:          0
L1I WQ ACCESS:          0
L1I WQ TO_CACHE:          0
L1I WQ MERGED:          0
L1I WQ FORWARD:          0
L2C TOTAL     ACCESS:   23738593  HIT:   12112862  MISS:   11625731
L2C LOAD      ACCESS:    9044200  HIT:    3564676  MISS:    5479524
L2C RFO       ACCESS:     720718  HIT:     130448  MISS:     590270
L2C PREFETCH  ACCESS:    8613365  HIT:    3086131  MISS:    5527234
L2C WRITEBACK ACCESS:    5360310  HIT:    5331607  MISS:      28703
L2C PREFETCH  REQUESTED:      18040  ISSUED:      18040  USEFUL:     323048  USELESS:    5204361
L2C TOTAL MSHR MERGED:         24
L2C LOAD MSHR MERGED:          2
L2C RFO MSHR MERGED:          0
L2C PREFETCH MSHR MERGED:         22
L2C WRITEBACK MSHR MERGED:          0
L2C TOTAL ACCESSES:   23740404 HITS:   12114645 MISSES:   11625759
L2C LOAD ACCESSES:    9045375 HITS:    3565851 MISSES:    5479524
L2C RFO ACCESSES:     720771 HITS:     130501 MISSES:     590270
L2C PREFETCH ACCESSES:    8613948 HITS:    3086686 MISSES:    5527262
L2C WRITEBACK ACCESSES:    5360310 HITS:    5331607 MISSES:      28703
L2C RQ ACCESS:    9766146
L2C RQ TO_CACHE:    9764918
L2C RQ MERGED:          0
L2C RQ FORWARD:          0
L2C WQ ACCESS:    5360310
L2C WQ TO_CACHE:    5360310
L2C WQ MERGED:          0
L2C WQ FORWARD:       1783
LLC TOTAL     ACCESS:   15448686  HIT:    6428207  MISS:    9020479
LLC LOAD      ACCESS:    5479494  HIT:    2055783  MISS:    3423711
LLC RFO       ACCESS:     590268  HIT:     276503  MISS:     313765
LLC PREFETCH  ACCESS:    5527224  HIT:    1028642  MISS:    4498582
LLC WRITEBACK ACCESS:    3851700  HIT:    3067279  MISS:     784421
LLC PREFETCH  REQUESTED:          0  ISSUED:          0  USEFUL:      25178  USELESS:    4473906
LLC TOTAL MSHR MERGED:          0
LLC LOAD MSHR MERGED:          0
LLC RFO MSHR MERGED:          0
LLC PREFETCH MSHR MERGED:          0
LLC WRITEBACK MSHR MERGED:          0
LLC TOTAL ACCESSES:   15448732 HITS:    6428253 MISSES:    9020479
LLC LOAD ACCESSES:    5479522 HITS:    2055811 MISSES:    3423711
LLC RFO ACCESSES:     590270 HITS:     276505 MISSES:     313765
LLC PREFETCH ACCESSES:    5527240 HITS:    1028658 MISSES:    4498582
LLC WRITEBACK ACCESSES:    3851700 HITS:    3067279 MISSES:     784421
LLC 0 RQ ACCESS:    6069792
LLC 0 RQ TO_CACHE:    6069762
LLC 0 RQ MERGED:          0
LLC 0 RQ FORWARD:          0
LLC WQ ACCESS:    3851700
LLC WQ TO_CACHE:    3851700
LLC WQ MERGED:          0
LLC WQ FORWARD:         46
Major fault: 0 Minor fault: 44814
CPU 0 L1D next line prefetcher final stats
CPU 0 L2C PC-based stride prefetcher final stats
All Misses: 10910780
All Hits: 7710385
SD Algo Stats - Switches: 0 SRR-Repls: 3907167 BRR-Repls: 0

DRAM Statistics
 CHANNEL 0
 RQ ROW_BUFFER_HIT:    1439216  ROW_BUFFER_MISS:    6795164
 DBUS_CONGESTED:    5542379
 WQ ROW_BUFFER_HIT:     179770  ROW_BUFFER_MISS:    2120736  FULL:          0

 AVG_CONGESTED_CYCLE: 13
LOADS RETIRED: 160808997
INSTR RETIRED: 500000000
