
*** ChampSim Multicore Out-of-Order Simulator ***

Warmup Instructions: 100000000
Simulation Instructions: 500000000
Number of CPUs: 1
LLC sets: 2048
LLC ways: 16
Clean RRIP Policies: 2213230222132302 Dirty RRIP Policies: 2203130222031302 PSEL Width: 10 Track Set: 4294967295 PSEL Mask: 1 Demote Mask: 3040100230401002DS Algo: 0Window size: 0
Off-chip DRAM Size: 4096 MB Channels: 1 Width: 64-bit Data Rate: 1600 MT/s

CPU 0 runs /mnt/beegfs/iconst01/spec2017/Lbm.trace.gz
NOT SORTED
TRACE STRING: /mnt/beegfs/iconst01/spec2017/Lbm.trace.gz
SORTED
TRACE STRING: /mnt/beegfs/iconst01/spec2017/Lbm.trace.gz
INITIAL
TRACE STRING: /mnt/beegfs/iconst01/spec2017/Lbm.trace.gz

champsim_seed used: 283

CPU 0 L1D next line prefetcher
CPU 0 L2C IP-based stride prefetcher
Initialize DRRIP state
Assign rand_sets[0]: 454  LLC: 2048
rand_sets[0]: 454
Assign rand_sets[1]: 1662  LLC: 2048
rand_sets[1]: 1662
Assign rand_sets[2]: 1921  LLC: 2048
rand_sets[2]: 1921
Assign rand_sets[3]: 1131  LLC: 2048
rand_sets[3]: 1131
Assign rand_sets[4]: 331  LLC: 2048
rand_sets[4]: 331
Assign rand_sets[5]: 1531  LLC: 2048
rand_sets[5]: 1531
Assign rand_sets[6]: 482  LLC: 2048
rand_sets[6]: 482
Assign rand_sets[7]: 1275  LLC: 2048
rand_sets[7]: 1275
Assign rand_sets[8]: 1876  LLC: 2048
rand_sets[8]: 1876
Assign rand_sets[9]: 2038  LLC: 2048
rand_sets[9]: 2038
Assign rand_sets[10]: 701  LLC: 2048
rand_sets[10]: 701
Assign rand_sets[11]: 479  LLC: 2048
rand_sets[11]: 479
Assign rand_sets[12]: 892  LLC: 2048
rand_sets[12]: 892
Assign rand_sets[13]: 1820  LLC: 2048
rand_sets[13]: 1820
Assign rand_sets[14]: 1505  LLC: 2048
rand_sets[14]: 1505
Assign rand_sets[15]: 1159  LLC: 2048
rand_sets[15]: 1159
Assign rand_sets[16]: 513  LLC: 2048
rand_sets[16]: 513
Assign rand_sets[17]: 703  LLC: 2048
rand_sets[17]: 703
Assign rand_sets[18]: 561  LLC: 2048
rand_sets[18]: 561
Assign rand_sets[19]: 990  LLC: 2048
rand_sets[19]: 990
Assign rand_sets[20]: 342  LLC: 2048
rand_sets[20]: 342
Assign rand_sets[21]: 882  LLC: 2048
rand_sets[21]: 882
Assign rand_sets[22]: 15  LLC: 2048
rand_sets[22]: 15
Assign rand_sets[23]: 71  LLC: 2048
rand_sets[23]: 71
Assign rand_sets[24]: 1127  LLC: 2048
rand_sets[24]: 1127
Assign rand_sets[25]: 1382  LLC: 2048
rand_sets[25]: 1382
Assign rand_sets[26]: 647  LLC: 2048
rand_sets[26]: 647
Assign rand_sets[27]: 857  LLC: 2048
rand_sets[27]: 857
Assign rand_sets[28]: 1450  LLC: 2048
rand_sets[28]: 1450
Assign rand_sets[29]: 1160  LLC: 2048
rand_sets[29]: 1160
Assign rand_sets[30]: 1852  LLC: 2048
rand_sets[30]: 1852
Assign rand_sets[31]: 1881  LLC: 2048
rand_sets[31]: 1881
Assign rand_sets[32]: 1770  LLC: 2048
rand_sets[32]: 1770
Assign rand_sets[33]: 1622  LLC: 2048
rand_sets[33]: 1622
Assign rand_sets[34]: 275  LLC: 2048
rand_sets[34]: 275
Assign rand_sets[35]: 635  LLC: 2048
rand_sets[35]: 635
Assign rand_sets[36]: 466  LLC: 2048
rand_sets[36]: 466
Assign rand_sets[37]: 1413  LLC: 2048
rand_sets[37]: 1413
Assign rand_sets[38]: 417  LLC: 2048
rand_sets[38]: 417
Assign rand_sets[39]: 472  LLC: 2048
rand_sets[39]: 472
Assign rand_sets[40]: 1340  LLC: 2048
rand_sets[40]: 1340
Assign rand_sets[41]: 852  LLC: 2048
rand_sets[41]: 852
Assign rand_sets[42]: 1365  LLC: 2048
rand_sets[42]: 1365
Assign rand_sets[43]: 47  LLC: 2048
rand_sets[43]: 47
Assign rand_sets[44]: 823  LLC: 2048
rand_sets[44]: 823
Assign rand_sets[45]: 686  LLC: 2048
rand_sets[45]: 686
Assign rand_sets[46]: 1637  LLC: 2048
rand_sets[46]: 1637
Assign rand_sets[47]: 1115  LLC: 2048
rand_sets[47]: 1115
Assign rand_sets[48]: 986  LLC: 2048
rand_sets[48]: 986
Assign rand_sets[49]: 258  LLC: 2048
rand_sets[49]: 258
Assign rand_sets[50]: 633  LLC: 2048
rand_sets[50]: 633
Assign rand_sets[51]: 920  LLC: 2048
rand_sets[51]: 920
Assign rand_sets[52]: 204  LLC: 2048
rand_sets[52]: 204
Assign rand_sets[53]: 227  LLC: 2048
rand_sets[53]: 227
Assign rand_sets[54]: 1818  LLC: 2048
rand_sets[54]: 1818
Assign rand_sets[55]: 886  LLC: 2048
rand_sets[55]: 886
Assign rand_sets[56]: 1422  LLC: 2048
rand_sets[56]: 1422
Assign rand_sets[57]: 607  LLC: 2048
rand_sets[57]: 607
Assign rand_sets[58]: 217  LLC: 2048
rand_sets[58]: 217
Assign rand_sets[59]: 1945  LLC: 2048
rand_sets[59]: 1945
Assign rand_sets[60]: 143  LLC: 2048
rand_sets[60]: 143
Assign rand_sets[61]: 1311  LLC: 2048
rand_sets[61]: 1311
Assign rand_sets[62]: 319  LLC: 2048
rand_sets[62]: 319
Assign rand_sets[63]: 1846  LLC: 2048
rand_sets[63]: 1846
 CLEAN-RRIP-POLICY-1: 2-2-1-3-2-3-0-2- CLEAN-RRIP-POLICY-2: 2-2-1-3-2-3-0-2-
 DIRTY-RRIP-POLICY-1: 2-2-0-3-1-3-0-2- DIRTY-RRIP-POLICY-2: 2-2-0-3-1-3-0-2-
 PSEL width: 10
Heartbeat CPU 0 instructions: 10000000 cycles: 4321584 heartbeat IPC: 2.31397 cumulative IPC: 2.31397 (Simulation time: 0 hr 0 min 18 sec) 
Heartbeat CPU 0 instructions: 20000000 cycles: 8643658 heartbeat IPC: 2.3137 cumulative IPC: 2.31384 (Simulation time: 0 hr 0 min 36 sec) 
Heartbeat CPU 0 instructions: 30000000 cycles: 12965418 heartbeat IPC: 2.31387 cumulative IPC: 2.31385 (Simulation time: 0 hr 0 min 54 sec) 
Heartbeat CPU 0 instructions: 40000000 cycles: 17291233 heartbeat IPC: 2.3117 cumulative IPC: 2.31331 (Simulation time: 0 hr 1 min 12 sec) 
Heartbeat CPU 0 instructions: 50000000 cycles: 21613110 heartbeat IPC: 2.31381 cumulative IPC: 2.31341 (Simulation time: 0 hr 1 min 30 sec) 
Heartbeat CPU 0 instructions: 60000000 cycles: 25935015 heartbeat IPC: 2.31379 cumulative IPC: 2.31347 (Simulation time: 0 hr 1 min 48 sec) 
Heartbeat CPU 0 instructions: 70000000 cycles: 30256536 heartbeat IPC: 2.314 cumulative IPC: 2.31355 (Simulation time: 0 hr 2 min 6 sec) 
Heartbeat CPU 0 instructions: 80000000 cycles: 34582723 heartbeat IPC: 2.3115 cumulative IPC: 2.31329 (Simulation time: 0 hr 2 min 24 sec) 
Heartbeat CPU 0 instructions: 90000003 cycles: 38904810 heartbeat IPC: 2.3137 cumulative IPC: 2.31334 (Simulation time: 0 hr 2 min 42 sec) 
Heartbeat CPU 0 instructions: 100000000 cycles: 43226291 heartbeat IPC: 2.31402 cumulative IPC: 2.31341 (Simulation time: 0 hr 3 min 0 sec) 

Warmup complete CPU 0 instructions: 100000001 cycles: 43226292 (Simulation time: 0 hr 3 min 0 sec) 

Heartbeat CPU 0 instructions: 110000000 cycles: 57569762 heartbeat IPC: 0.697181 cumulative IPC: 0.697181 (Simulation time: 0 hr 3 min 26 sec) 
Heartbeat CPU 0 instructions: 120000000 cycles: 71893470 heartbeat IPC: 0.698143 cumulative IPC: 0.697662 (Simulation time: 0 hr 3 min 52 sec) 
Heartbeat CPU 0 instructions: 130000000 cycles: 86004488 heartbeat IPC: 0.708666 cumulative IPC: 0.701292 (Simulation time: 0 hr 4 min 18 sec) 
Heartbeat CPU 0 instructions: 140000000 cycles: 100086494 heartbeat IPC: 0.710126 cumulative IPC: 0.70348 (Simulation time: 0 hr 4 min 43 sec) 
Heartbeat CPU 0 instructions: 150000003 cycles: 113863230 heartbeat IPC: 0.725862 cumulative IPC: 0.707845 (Simulation time: 0 hr 5 min 9 sec) 
Heartbeat CPU 0 instructions: 160000000 cycles: 127810908 heartbeat IPC: 0.716965 cumulative IPC: 0.709349 (Simulation time: 0 hr 5 min 34 sec) 
Heartbeat CPU 0 instructions: 170000002 cycles: 142245623 heartbeat IPC: 0.692774 cumulative IPC: 0.706933 (Simulation time: 0 hr 6 min 0 sec) 
Heartbeat CPU 0 instructions: 180000000 cycles: 156259209 heartbeat IPC: 0.713593 cumulative IPC: 0.707758 (Simulation time: 0 hr 6 min 26 sec) 
Heartbeat CPU 0 instructions: 190000003 cycles: 172997153 heartbeat IPC: 0.597445 cumulative IPC: 0.69353 (Simulation time: 0 hr 6 min 54 sec) 
Heartbeat CPU 0 instructions: 200000000 cycles: 193465115 heartbeat IPC: 0.488568 cumulative IPC: 0.665607 (Simulation time: 0 hr 7 min 26 sec) 
Heartbeat CPU 0 instructions: 210000001 cycles: 207710948 heartbeat IPC: 0.70196 cumulative IPC: 0.668755 (Simulation time: 0 hr 7 min 52 sec) 
Heartbeat CPU 0 instructions: 220000000 cycles: 221507204 heartbeat IPC: 0.724834 cumulative IPC: 0.673095 (Simulation time: 0 hr 8 min 18 sec) 
Heartbeat CPU 0 instructions: 230000001 cycles: 235641619 heartbeat IPC: 0.707493 cumulative IPC: 0.675622 (Simulation time: 0 hr 8 min 43 sec) 
Heartbeat CPU 0 instructions: 240000000 cycles: 249900351 heartbeat IPC: 0.701325 cumulative IPC: 0.677395 (Simulation time: 0 hr 9 min 9 sec) 
Heartbeat CPU 0 instructions: 250000000 cycles: 264471291 heartbeat IPC: 0.686298 cumulative IPC: 0.677981 (Simulation time: 0 hr 9 min 35 sec) 
Heartbeat CPU 0 instructions: 260000000 cycles: 279333981 heartbeat IPC: 0.672826 cumulative IPC: 0.677657 (Simulation time: 0 hr 10 min 2 sec) 
Heartbeat CPU 0 instructions: 270000002 cycles: 294310683 heartbeat IPC: 0.667704 cumulative IPC: 0.677063 (Simulation time: 0 hr 10 min 28 sec) 
Heartbeat CPU 0 instructions: 280000000 cycles: 309241927 heartbeat IPC: 0.669736 cumulative IPC: 0.676652 (Simulation time: 0 hr 10 min 55 sec) 
Heartbeat CPU 0 instructions: 290000003 cycles: 324998649 heartbeat IPC: 0.63465 cumulative IPC: 0.674303 (Simulation time: 0 hr 11 min 22 sec) 
Heartbeat CPU 0 instructions: 300000000 cycles: 340215514 heartbeat IPC: 0.657165 cumulative IPC: 0.673425 (Simulation time: 0 hr 11 min 48 sec) 
Heartbeat CPU 0 instructions: 310000000 cycles: 356120790 heartbeat IPC: 0.628722 cumulative IPC: 0.671153 (Simulation time: 0 hr 12 min 16 sec) 
Heartbeat CPU 0 instructions: 320000000 cycles: 371859444 heartbeat IPC: 0.635378 cumulative IPC: 0.669439 (Simulation time: 0 hr 12 min 43 sec) 
Heartbeat CPU 0 instructions: 330000002 cycles: 386820350 heartbeat IPC: 0.668409 cumulative IPC: 0.669395 (Simulation time: 0 hr 13 min 9 sec) 
Heartbeat CPU 0 instructions: 340000000 cycles: 402872395 heartbeat IPC: 0.622973 cumulative IPC: 0.667323 (Simulation time: 0 hr 13 min 37 sec) 
Heartbeat CPU 0 instructions: 350000001 cycles: 417464288 heartbeat IPC: 0.685312 cumulative IPC: 0.668024 (Simulation time: 0 hr 14 min 3 sec) 
Heartbeat CPU 0 instructions: 360000000 cycles: 432972158 heartbeat IPC: 0.644834 cumulative IPC: 0.667101 (Simulation time: 0 hr 14 min 30 sec) 
Heartbeat CPU 0 instructions: 370000000 cycles: 447739692 heartbeat IPC: 0.677161 cumulative IPC: 0.667469 (Simulation time: 0 hr 14 min 56 sec) 
Heartbeat CPU 0 instructions: 380000000 cycles: 462874036 heartbeat IPC: 0.660749 cumulative IPC: 0.667226 (Simulation time: 0 hr 15 min 23 sec) 
Heartbeat CPU 0 instructions: 390000000 cycles: 477261572 heartbeat IPC: 0.695046 cumulative IPC: 0.668148 (Simulation time: 0 hr 15 min 49 sec) 
Heartbeat CPU 0 instructions: 400000000 cycles: 491470962 heartbeat IPC: 0.70376 cumulative IPC: 0.669277 (Simulation time: 0 hr 16 min 14 sec) 
Heartbeat CPU 0 instructions: 410000000 cycles: 505285575 heartbeat IPC: 0.723871 cumulative IPC: 0.67091 (Simulation time: 0 hr 16 min 40 sec) 
Heartbeat CPU 0 instructions: 420000000 cycles: 519475310 heartbeat IPC: 0.704735 cumulative IPC: 0.671917 (Simulation time: 0 hr 17 min 6 sec) 
Heartbeat CPU 0 instructions: 430000002 cycles: 533195356 heartbeat IPC: 0.728861 cumulative IPC: 0.673512 (Simulation time: 0 hr 17 min 31 sec) 
Heartbeat CPU 0 instructions: 440000000 cycles: 546957315 heartbeat IPC: 0.726641 cumulative IPC: 0.674963 (Simulation time: 0 hr 17 min 56 sec) 
Heartbeat CPU 0 instructions: 450000000 cycles: 560693727 heartbeat IPC: 0.727992 cumulative IPC: 0.676371 (Simulation time: 0 hr 18 min 22 sec) 
Heartbeat CPU 0 instructions: 460000000 cycles: 575341388 heartbeat IPC: 0.682703 cumulative IPC: 0.676545 (Simulation time: 0 hr 18 min 48 sec) 
Heartbeat CPU 0 instructions: 470000000 cycles: 589505818 heartbeat IPC: 0.705994 cumulative IPC: 0.677309 (Simulation time: 0 hr 19 min 14 sec) 
Heartbeat CPU 0 instructions: 480000000 cycles: 603539955 heartbeat IPC: 0.712548 cumulative IPC: 0.678192 (Simulation time: 0 hr 19 min 39 sec) 
Heartbeat CPU 0 instructions: 490000001 cycles: 618022954 heartbeat IPC: 0.690465 cumulative IPC: 0.678501 (Simulation time: 0 hr 20 min 5 sec) 
Heartbeat CPU 0 instructions: 500000000 cycles: 632457104 heartbeat IPC: 0.692801 cumulative IPC: 0.678851 (Simulation time: 0 hr 20 min 32 sec) 
Heartbeat CPU 0 instructions: 510000002 cycles: 646460032 heartbeat IPC: 0.714136 cumulative IPC: 0.67967 (Simulation time: 0 hr 20 min 57 sec) 
Heartbeat CPU 0 instructions: 520000000 cycles: 660284751 heartbeat IPC: 0.723342 cumulative IPC: 0.680649 (Simulation time: 0 hr 21 min 23 sec) 
Heartbeat CPU 0 instructions: 530000001 cycles: 674188354 heartbeat IPC: 0.719238 cumulative IPC: 0.681499 (Simulation time: 0 hr 21 min 48 sec) 
Heartbeat CPU 0 instructions: 540000000 cycles: 688596549 heartbeat IPC: 0.694049 cumulative IPC: 0.681779 (Simulation time: 0 hr 22 min 14 sec) 
Heartbeat CPU 0 instructions: 550000003 cycles: 702509188 heartbeat IPC: 0.718771 cumulative IPC: 0.68256 (Simulation time: 0 hr 22 min 40 sec) 
Heartbeat CPU 0 instructions: 560000000 cycles: 717031829 heartbeat IPC: 0.68858 cumulative IPC: 0.68269 (Simulation time: 0 hr 23 min 6 sec) 
Heartbeat CPU 0 instructions: 570000001 cycles: 731245757 heartbeat IPC: 0.703535 cumulative IPC: 0.68312 (Simulation time: 0 hr 23 min 32 sec) 
Heartbeat CPU 0 instructions: 580000000 cycles: 745032985 heartbeat IPC: 0.725309 cumulative IPC: 0.683949 (Simulation time: 0 hr 23 min 57 sec) 
Heartbeat CPU 0 instructions: 590000003 cycles: 758391506 heartbeat IPC: 0.748586 cumulative IPC: 0.685156 (Simulation time: 0 hr 24 min 22 sec) 
Heartbeat CPU 0 instructions: 600000000 cycles: 772272329 heartbeat IPC: 0.720418 cumulative IPC: 0.685828 (Simulation time: 0 hr 24 min 48 sec) 
Finished CPU 0 instructions: 500000000 cycles: 729046045 cumulative IPC: 0.685828 (Simulation time: 0 hr 24 min 48 sec) 

CPU 0 Branch Prediction Accuracy: 99.5915% MPKI: 0.037126
Number of Branches: 4544106 Number of Mispredictions: 18563
Number of LOAD Instructions: 149787067
Number of LOAD Instructions (ROI): 149787067
Number of STORE Instructions: 77239062
Number of STORE Instructions (ROI): 77239062
Total Destination Memory Operands: 77239062
Total Destination Memory Operands (ROI): 77239062
Total Source Memory Operands: 149787067
Total Source Memory Operands (ROI): 149787067
Number of DEPENDED LOADS: 19247686
Number of DEPENDED LOADS (ROI): 19247686
Number of SQ_ADDED: 77239036
Number of SQ_ADDED (ROI): 77239036
Number of LQ_ADDED: 149787020
Number of LQ_ADDED (ROI): 149787020
Number of Instructions read from trace: 600000256

ChampSim completed all CPUs

Region of Interest Statistics

CPU 0 cumulative IPC: 0.685828 instructions: 500000000 cycles: 729046045
ITLB TOTAL     ACCESS:   86455054  HIT:   86455053  MISS:          1
ITLB LOAD      ACCESS:   86455054  HIT:   86455053  MISS:          1
ITLB RFO       ACCESS:          0  HIT:          0  MISS:          0
ITLB PREFETCH  ACCESS:          0  HIT:          0  MISS:          0
ITLB WRITEBACK ACCESS:          0  HIT:          0  MISS:          0
ITLB PREFETCH  REQUESTED:          0  ISSUED:          0  USEFUL:          0  USELESS:          0
ITLB TOTAL MSHR MERGED:          1
ITLB LOAD MSHR MERGED:          1
ITLB RFO MSHR MERGED:          0
ITLB PREFETCH MSHR MERGED:          0
ITLB WRITEBACK MSHR MERGED:          0
ITLB TOTAL ACCESSES:   86455055 HITS:   86455053 MISSES:          2
ITLB LOAD ACCESSES:   86455055 HITS:   86455053 MISSES:          2
ITLB RFO ACCESSES:          0 HITS:          0 MISSES:          0
ITLB PREFETCH ACCESSES:          0 HITS:          0 MISSES:          0
ITLB WRITEBACK ACCESSES:          0 HITS:          0 MISSES:          0
ITLB RQ ACCESS:  500000002
ITLB RQ TO_CACHE:   86455055
ITLB RQ MERGED:  413544947
ITLB RQ FORWARD:          0
ITLB WQ ACCESS:          0
ITLB WQ TO_CACHE:          0
ITLB WQ MERGED:          0
ITLB WQ FORWARD:          0
DTLB TOTAL     ACCESS:   98107618  HIT:   97922357  MISS:     185261
DTLB LOAD      ACCESS:   55040381  HIT:   54994070  MISS:      46311
DTLB RFO       ACCESS:   43067237  HIT:   42928287  MISS:     138950
DTLB PREFETCH  ACCESS:          0  HIT:          0  MISS:          0
DTLB WRITEBACK ACCESS:          0  HIT:          0  MISS:          0
DTLB PREFETCH  REQUESTED:          0  ISSUED:          0  USEFUL:          0  USELESS:          0
DTLB TOTAL MSHR MERGED:      83555
DTLB LOAD MSHR MERGED:      83550
DTLB RFO MSHR MERGED:          5
DTLB PREFETCH MSHR MERGED:          0
DTLB WRITEBACK MSHR MERGED:          0
DTLB TOTAL ACCESSES:   98191173 HITS:   97922357 MISSES:     268816
DTLB LOAD ACCESSES:   55123931 HITS:   54994070 MISSES:     129861
DTLB RFO ACCESSES:   43067242 HITS:   42928287 MISSES:     138955
DTLB PREFETCH ACCESSES:          0 HITS:          0 MISSES:          0
DTLB WRITEBACK ACCESSES:          0 HITS:          0 MISSES:          0
DTLB RQ ACCESS:  173634841
DTLB RQ TO_CACHE:   98191173
DTLB RQ MERGED:   75443668
DTLB RQ FORWARD:          0
DTLB WQ ACCESS:          0
DTLB WQ TO_CACHE:          0
DTLB WQ MERGED:          0
DTLB WQ FORWARD:          0
L1D TOTAL     ACCESS:  164580457  HIT:  145007896  MISS:   19572561
L1D LOAD      ACCESS:   60547023  HIT:   58695371  MISS:    1851652
L1D RFO       ACCESS:   64513723  HIT:   47911590  MISS:   16602133
L1D PREFETCH  ACCESS:   39519711  HIT:   38400935  MISS:    1118776
L1D WRITEBACK ACCESS:          0  HIT:          0  MISS:          0
L1D PREFETCH  REQUESTED:   61734941  ISSUED:   61442634  USEFUL:    1116857  USELESS:       1920
L1D TOTAL MSHR MERGED:    3533196
L1D LOAD MSHR MERGED:    1259403
L1D RFO MSHR MERGED:      11641
L1D PREFETCH MSHR MERGED:    2262152
L1D WRITEBACK MSHR MERGED:          0
L1D TOTAL ACCESSES:  168677797 HITS:  145572040 MISSES:   23105757
L1D LOAD ACCESSES:   61991964 HITS:   58952394 MISSES:    3039570
L1D RFO ACCESSES:   64525334 HITS:   47911590 MISSES:   16613744
L1D PREFETCH ACCESSES:   42160499 HITS:   38708056 MISSES:    3452443
L1D WRITEBACK ACCESSES:          0 HITS:          0 MISSES:          0
L1D RQ ACCESS:  109093526
L1D RQ TO_CACHE:   61734941
L1D RQ MERGED:   47101562
L1D RQ FORWARD:          0
L1D WQ ACCESS:   64541313
L1D WQ TO_CACHE:   64525335
L1D WQ MERGED:      15978
L1D WQ FORWARD:     564144
L1I TOTAL     ACCESS:  107763303  HIT:  107763295  MISS:          8
L1I LOAD      ACCESS:  107763303  HIT:  107763295  MISS:          8
L1I RFO       ACCESS:          0  HIT:          0  MISS:          0
L1I PREFETCH  ACCESS:          0  HIT:          0  MISS:          0
L1I WRITEBACK ACCESS:          0  HIT:          0  MISS:          0
L1I PREFETCH  REQUESTED:          0  ISSUED:          0  USEFUL:          0  USELESS:          0
L1I TOTAL MSHR MERGED:          3
L1I LOAD MSHR MERGED:          3
L1I RFO MSHR MERGED:          0
L1I PREFETCH MSHR MERGED:          0
L1I WRITEBACK MSHR MERGED:          0
L1I TOTAL ACCESSES:  107763306 HITS:  107763295 MISSES:         11
L1I LOAD ACCESSES:  107763306 HITS:  107763295 MISSES:         11
L1I RFO ACCESSES:          0 HITS:          0 MISSES:          0
L1I PREFETCH ACCESSES:          0 HITS:          0 MISSES:          0
L1I WRITEBACK ACCESSES:          0 HITS:          0 MISSES:          0
L1I RQ ACCESS:  500000007
L1I RQ TO_CACHE:  107763306
L1I RQ MERGED:  392236701
L1I RQ FORWARD:          0
L1I WQ ACCESS:          0
L1I WQ TO_CACHE:          0
L1I WQ MERGED:          0
L1I WQ FORWARD:          0
L2C TOTAL     ACCESS:   36806968  HIT:   24849386  MISS:   11957582
L2C LOAD      ACCESS:    1780175  HIT:     255048  MISS:    1525127
L2C RFO       ACCESS:   16602102  HIT:    7610727  MISS:    8991375
L2C PREFETCH  ACCESS:    1822504  HIT:     382649  MISS:    1439855
L2C WRITEBACK ACCESS:   16602187  HIT:   16600962  MISS:       1225
L2C PREFETCH  REQUESTED:     814259  ISSUED:     814259  USEFUL:     252739  USELESS:    1187398
L2C TOTAL MSHR MERGED:       2738
L2C LOAD MSHR MERGED:        618
L2C RFO MSHR MERGED:          0
L2C PREFETCH MSHR MERGED:       2120
L2C WRITEBACK MSHR MERGED:          0
L2C TOTAL ACCESSES:   36988961 HITS:   24849388 MISSES:   12139573
L2C LOAD ACCESSES:    1780175 HITS:     255048 MISSES:    1525127
L2C RFO ACCESSES:   16602103 HITS:    7610729 MISSES:    8991374
L2C PREFETCH ACCESSES:    2004496 HITS:     382649 MISSES:    1621847
L2C WRITEBACK ACCESSES:   16602187 HITS:   16600962 MISSES:       1225
L2C RQ ACCESS:   18382278
L2C RQ TO_CACHE:   18382276
L2C RQ MERGED:          0
L2C RQ FORWARD:          0
L2C WQ ACCESS:   16602187
L2C WQ TO_CACHE:   16602187
L2C WQ MERGED:          0
L2C WQ FORWARD:          2
LLC TOTAL     ACCESS:   21124647  HIT:    1782949  MISS:   19341698
LLC LOAD      ACCESS:    1524509  HIT:      64742  MISS:    1459767
LLC RFO       ACCESS:    8991366  HIT:     719701  MISS:    8271665
LLC PREFETCH  ACCESS:    1616575  HIT:     110982  MISS:    1505593
LLC WRITEBACK ACCESS:    8992197  HIT:     887524  MISS:    8104673
LLC PREFETCH  REQUESTED:          0  ISSUED:          0  USEFUL:      64584  USELESS:    1440835
LLC TOTAL MSHR MERGED:       2786
LLC LOAD MSHR MERGED:        227
LLC RFO MSHR MERGED:          0
LLC PREFETCH MSHR MERGED:       2559
LLC WRITEBACK MSHR MERGED:          0
LLC TOTAL ACCESSES:   21127442 HITS:    1782958 MISSES:   19344484
LLC LOAD ACCESSES:    1524509 HITS:      64742 MISSES:    1459767
LLC RFO ACCESSES:    8991374 HITS:     719710 MISSES:    8271664
LLC PREFETCH ACCESSES:    1619362 HITS:     110982 MISSES:    1508380
LLC WRITEBACK ACCESSES:    8992197 HITS:     887524 MISSES:    8104673
LLC 0 RQ ACCESS:   10515883
LLC 0 RQ TO_CACHE:   10515874
LLC 0 RQ MERGED:          0
LLC 0 RQ FORWARD:          0
LLC WQ ACCESS:    8992197
LLC WQ TO_CACHE:    8992197
LLC WQ MERGED:          0
LLC WQ FORWARD:          9
Major fault: 0 Minor fault: 102360
CPU 0 L1D next line prefetcher final stats
CPU 0 L2C PC-based stride prefetcher final stats
All Misses: 23034868
All Hits: 2065290
SD Algo Stats - Switches: 0 SRR-Repls: 1638359 BRR-Repls: 0

DRAM Statistics
 CHANNEL 0
 RQ ROW_BUFFER_HIT:    3732805  ROW_BUFFER_MISS:    7502486
 DBUS_CONGESTED:   13377834
 WQ ROW_BUFFER_HIT:    1291068  ROW_BUFFER_MISS:    7007732  FULL:          0

 AVG_CONGESTED_CYCLE: 13
LOADS RETIRED: 124982196
INSTR RETIRED: 500000000
