
*** ChampSim Multicore Out-of-Order Simulator ***

Warmup Instructions: 100000000
Simulation Instructions: 500000000
Number of CPUs: 1
LLC sets: 2048
LLC ways: 16
Clean RRIP Policies: 1213230112132301 Dirty RRIP Policies: 2213231122132311 PSEL Width: 10 Track Set: 4294967295 PSEL Mask: 1 Demote Mask: 1340011013400110DS Algo: 0Window size: 0
Off-chip DRAM Size: 4096 MB Channels: 1 Width: 64-bit Data Rate: 1600 MT/s

CPU 0 runs /mnt/beegfs/iconst01/spec2017/Omnetpp.trace.gz
NOT SORTED
TRACE STRING: /mnt/beegfs/iconst01/spec2017/Omnetpp.trace.gz
SORTED
TRACE STRING: /mnt/beegfs/iconst01/spec2017/Omnetpp.trace.gz
INITIAL
TRACE STRING: /mnt/beegfs/iconst01/spec2017/Omnetpp.trace.gz

champsim_seed used: 739

CPU 0 L1D next line prefetcher
CPU 0 L2C IP-based stride prefetcher
Initialize DRRIP state
Assign rand_sets[0]: 454  LLC: 2048
rand_sets[0]: 454
Assign rand_sets[1]: 1662  LLC: 2048
rand_sets[1]: 1662
Assign rand_sets[2]: 1921  LLC: 2048
rand_sets[2]: 1921
Assign rand_sets[3]: 1131  LLC: 2048
rand_sets[3]: 1131
Assign rand_sets[4]: 331  LLC: 2048
rand_sets[4]: 331
Assign rand_sets[5]: 1531  LLC: 2048
rand_sets[5]: 1531
Assign rand_sets[6]: 482  LLC: 2048
rand_sets[6]: 482
Assign rand_sets[7]: 1275  LLC: 2048
rand_sets[7]: 1275
Assign rand_sets[8]: 1876  LLC: 2048
rand_sets[8]: 1876
Assign rand_sets[9]: 2038  LLC: 2048
rand_sets[9]: 2038
Assign rand_sets[10]: 701  LLC: 2048
rand_sets[10]: 701
Assign rand_sets[11]: 479  LLC: 2048
rand_sets[11]: 479
Assign rand_sets[12]: 892  LLC: 2048
rand_sets[12]: 892
Assign rand_sets[13]: 1820  LLC: 2048
rand_sets[13]: 1820
Assign rand_sets[14]: 1505  LLC: 2048
rand_sets[14]: 1505
Assign rand_sets[15]: 1159  LLC: 2048
rand_sets[15]: 1159
Assign rand_sets[16]: 513  LLC: 2048
rand_sets[16]: 513
Assign rand_sets[17]: 703  LLC: 2048
rand_sets[17]: 703
Assign rand_sets[18]: 561  LLC: 2048
rand_sets[18]: 561
Assign rand_sets[19]: 990  LLC: 2048
rand_sets[19]: 990
Assign rand_sets[20]: 342  LLC: 2048
rand_sets[20]: 342
Assign rand_sets[21]: 882  LLC: 2048
rand_sets[21]: 882
Assign rand_sets[22]: 15  LLC: 2048
rand_sets[22]: 15
Assign rand_sets[23]: 71  LLC: 2048
rand_sets[23]: 71
Assign rand_sets[24]: 1127  LLC: 2048
rand_sets[24]: 1127
Assign rand_sets[25]: 1382  LLC: 2048
rand_sets[25]: 1382
Assign rand_sets[26]: 647  LLC: 2048
rand_sets[26]: 647
Assign rand_sets[27]: 857  LLC: 2048
rand_sets[27]: 857
Assign rand_sets[28]: 1450  LLC: 2048
rand_sets[28]: 1450
Assign rand_sets[29]: 1160  LLC: 2048
rand_sets[29]: 1160
Assign rand_sets[30]: 1852  LLC: 2048
rand_sets[30]: 1852
Assign rand_sets[31]: 1881  LLC: 2048
rand_sets[31]: 1881
Assign rand_sets[32]: 1770  LLC: 2048
rand_sets[32]: 1770
Assign rand_sets[33]: 1622  LLC: 2048
rand_sets[33]: 1622
Assign rand_sets[34]: 275  LLC: 2048
rand_sets[34]: 275
Assign rand_sets[35]: 635  LLC: 2048
rand_sets[35]: 635
Assign rand_sets[36]: 466  LLC: 2048
rand_sets[36]: 466
Assign rand_sets[37]: 1413  LLC: 2048
rand_sets[37]: 1413
Assign rand_sets[38]: 417  LLC: 2048
rand_sets[38]: 417
Assign rand_sets[39]: 472  LLC: 2048
rand_sets[39]: 472
Assign rand_sets[40]: 1340  LLC: 2048
rand_sets[40]: 1340
Assign rand_sets[41]: 852  LLC: 2048
rand_sets[41]: 852
Assign rand_sets[42]: 1365  LLC: 2048
rand_sets[42]: 1365
Assign rand_sets[43]: 47  LLC: 2048
rand_sets[43]: 47
Assign rand_sets[44]: 823  LLC: 2048
rand_sets[44]: 823
Assign rand_sets[45]: 686  LLC: 2048
rand_sets[45]: 686
Assign rand_sets[46]: 1637  LLC: 2048
rand_sets[46]: 1637
Assign rand_sets[47]: 1115  LLC: 2048
rand_sets[47]: 1115
Assign rand_sets[48]: 986  LLC: 2048
rand_sets[48]: 986
Assign rand_sets[49]: 258  LLC: 2048
rand_sets[49]: 258
Assign rand_sets[50]: 633  LLC: 2048
rand_sets[50]: 633
Assign rand_sets[51]: 920  LLC: 2048
rand_sets[51]: 920
Assign rand_sets[52]: 204  LLC: 2048
rand_sets[52]: 204
Assign rand_sets[53]: 227  LLC: 2048
rand_sets[53]: 227
Assign rand_sets[54]: 1818  LLC: 2048
rand_sets[54]: 1818
Assign rand_sets[55]: 886  LLC: 2048
rand_sets[55]: 886
Assign rand_sets[56]: 1422  LLC: 2048
rand_sets[56]: 1422
Assign rand_sets[57]: 607  LLC: 2048
rand_sets[57]: 607
Assign rand_sets[58]: 217  LLC: 2048
rand_sets[58]: 217
Assign rand_sets[59]: 1945  LLC: 2048
rand_sets[59]: 1945
Assign rand_sets[60]: 143  LLC: 2048
rand_sets[60]: 143
Assign rand_sets[61]: 1311  LLC: 2048
rand_sets[61]: 1311
Assign rand_sets[62]: 319  LLC: 2048
rand_sets[62]: 319
Assign rand_sets[63]: 1846  LLC: 2048
rand_sets[63]: 1846
 CLEAN-RRIP-POLICY-1: 1-2-1-3-2-3-0-1- CLEAN-RRIP-POLICY-2: 1-2-1-3-2-3-0-1-
 DIRTY-RRIP-POLICY-1: 2-2-1-3-2-3-1-1- DIRTY-RRIP-POLICY-2: 2-2-1-3-2-3-1-1-
 PSEL width: 10
Heartbeat CPU 0 instructions: 10000000 cycles: 7320197 heartbeat IPC: 1.36608 cumulative IPC: 1.36608 (Simulation time: 0 hr 0 min 19 sec) 
Heartbeat CPU 0 instructions: 20000000 cycles: 14624198 heartbeat IPC: 1.36911 cumulative IPC: 1.3676 (Simulation time: 0 hr 0 min 38 sec) 
Heartbeat CPU 0 instructions: 30000003 cycles: 21925849 heartbeat IPC: 1.36955 cumulative IPC: 1.36825 (Simulation time: 0 hr 0 min 57 sec) 
Heartbeat CPU 0 instructions: 40000000 cycles: 29214391 heartbeat IPC: 1.37202 cumulative IPC: 1.36919 (Simulation time: 0 hr 1 min 16 sec) 
Heartbeat CPU 0 instructions: 50000000 cycles: 36491080 heartbeat IPC: 1.37425 cumulative IPC: 1.3702 (Simulation time: 0 hr 1 min 35 sec) 
Heartbeat CPU 0 instructions: 60000000 cycles: 43771376 heartbeat IPC: 1.37357 cumulative IPC: 1.37076 (Simulation time: 0 hr 1 min 54 sec) 
Heartbeat CPU 0 instructions: 70000001 cycles: 51056995 heartbeat IPC: 1.37257 cumulative IPC: 1.37102 (Simulation time: 0 hr 2 min 13 sec) 
Heartbeat CPU 0 instructions: 80000000 cycles: 58332336 heartbeat IPC: 1.37451 cumulative IPC: 1.37145 (Simulation time: 0 hr 2 min 32 sec) 
Heartbeat CPU 0 instructions: 90000000 cycles: 65638977 heartbeat IPC: 1.36862 cumulative IPC: 1.37114 (Simulation time: 0 hr 2 min 51 sec) 
Heartbeat CPU 0 instructions: 100000000 cycles: 72931336 heartbeat IPC: 1.3713 cumulative IPC: 1.37115 (Simulation time: 0 hr 3 min 10 sec) 

Warmup complete CPU 0 instructions: 100000002 cycles: 72931337 (Simulation time: 0 hr 3 min 10 sec) 

Heartbeat CPU 0 instructions: 110000002 cycles: 113496270 heartbeat IPC: 0.246518 cumulative IPC: 0.246518 (Simulation time: 0 hr 3 min 48 sec) 
Heartbeat CPU 0 instructions: 120000000 cycles: 153781409 heartbeat IPC: 0.24823 cumulative IPC: 0.247371 (Simulation time: 0 hr 4 min 25 sec) 
Heartbeat CPU 0 instructions: 130000002 cycles: 194253501 heartbeat IPC: 0.247084 cumulative IPC: 0.247276 (Simulation time: 0 hr 5 min 3 sec) 
Heartbeat CPU 0 instructions: 140000000 cycles: 234848477 heartbeat IPC: 0.246336 cumulative IPC: 0.24704 (Simulation time: 0 hr 5 min 40 sec) 
Heartbeat CPU 0 instructions: 150000002 cycles: 275019328 heartbeat IPC: 0.248937 cumulative IPC: 0.247417 (Simulation time: 0 hr 6 min 17 sec) 
Heartbeat CPU 0 instructions: 160000000 cycles: 315243236 heartbeat IPC: 0.248608 cumulative IPC: 0.247615 (Simulation time: 0 hr 6 min 55 sec) 
Heartbeat CPU 0 instructions: 170000001 cycles: 354676869 heartbeat IPC: 0.253591 cumulative IPC: 0.248451 (Simulation time: 0 hr 7 min 31 sec) 
Heartbeat CPU 0 instructions: 180000000 cycles: 394889223 heartbeat IPC: 0.24868 cumulative IPC: 0.24848 (Simulation time: 0 hr 8 min 8 sec) 
Heartbeat CPU 0 instructions: 190000002 cycles: 435071009 heartbeat IPC: 0.248869 cumulative IPC: 0.248523 (Simulation time: 0 hr 8 min 45 sec) 
Heartbeat CPU 0 instructions: 200000000 cycles: 476377397 heartbeat IPC: 0.242093 cumulative IPC: 0.247865 (Simulation time: 0 hr 9 min 23 sec) 
Heartbeat CPU 0 instructions: 210000003 cycles: 516575597 heartbeat IPC: 0.248767 cumulative IPC: 0.247946 (Simulation time: 0 hr 10 min 0 sec) 
Heartbeat CPU 0 instructions: 220000000 cycles: 557008090 heartbeat IPC: 0.247326 cumulative IPC: 0.247895 (Simulation time: 0 hr 10 min 38 sec) 
Heartbeat CPU 0 instructions: 230000000 cycles: 597407712 heartbeat IPC: 0.247527 cumulative IPC: 0.247866 (Simulation time: 0 hr 11 min 15 sec) 
Heartbeat CPU 0 instructions: 240000000 cycles: 637580209 heartbeat IPC: 0.248927 cumulative IPC: 0.247942 (Simulation time: 0 hr 11 min 52 sec) 
Heartbeat CPU 0 instructions: 250000000 cycles: 677775518 heartbeat IPC: 0.248785 cumulative IPC: 0.247998 (Simulation time: 0 hr 12 min 29 sec) 
Heartbeat CPU 0 instructions: 260000000 cycles: 718070870 heartbeat IPC: 0.248168 cumulative IPC: 0.248008 (Simulation time: 0 hr 13 min 6 sec) 
Heartbeat CPU 0 instructions: 270000000 cycles: 758436387 heartbeat IPC: 0.247736 cumulative IPC: 0.247992 (Simulation time: 0 hr 13 min 43 sec) 
Heartbeat CPU 0 instructions: 280000000 cycles: 799138991 heartbeat IPC: 0.245685 cumulative IPC: 0.247863 (Simulation time: 0 hr 14 min 20 sec) 
Heartbeat CPU 0 instructions: 290000001 cycles: 839075118 heartbeat IPC: 0.2504 cumulative IPC: 0.247995 (Simulation time: 0 hr 14 min 57 sec) 
Heartbeat CPU 0 instructions: 300000000 cycles: 879651054 heartbeat IPC: 0.246451 cumulative IPC: 0.247918 (Simulation time: 0 hr 15 min 34 sec) 
Heartbeat CPU 0 instructions: 310000000 cycles: 920196013 heartbeat IPC: 0.24664 cumulative IPC: 0.247856 (Simulation time: 0 hr 16 min 11 sec) 
Heartbeat CPU 0 instructions: 320000000 cycles: 960443262 heartbeat IPC: 0.248464 cumulative IPC: 0.247884 (Simulation time: 0 hr 16 min 48 sec) 
Heartbeat CPU 0 instructions: 330000000 cycles: 1000681185 heartbeat IPC: 0.248522 cumulative IPC: 0.247912 (Simulation time: 0 hr 17 min 26 sec) 
Heartbeat CPU 0 instructions: 340000000 cycles: 1041563726 heartbeat IPC: 0.244603 cumulative IPC: 0.247772 (Simulation time: 0 hr 18 min 3 sec) 
Heartbeat CPU 0 instructions: 350000001 cycles: 1081870484 heartbeat IPC: 0.248097 cumulative IPC: 0.247785 (Simulation time: 0 hr 18 min 40 sec) 
Heartbeat CPU 0 instructions: 360000000 cycles: 1122468684 heartbeat IPC: 0.246316 cumulative IPC: 0.247728 (Simulation time: 0 hr 19 min 17 sec) 
Heartbeat CPU 0 instructions: 370000000 cycles: 1162162113 heartbeat IPC: 0.251931 cumulative IPC: 0.247881 (Simulation time: 0 hr 19 min 53 sec) 
Heartbeat CPU 0 instructions: 380000000 cycles: 1202764058 heartbeat IPC: 0.246294 cumulative IPC: 0.247824 (Simulation time: 0 hr 20 min 30 sec) 
Heartbeat CPU 0 instructions: 390000001 cycles: 1242908380 heartbeat IPC: 0.249101 cumulative IPC: 0.247868 (Simulation time: 0 hr 21 min 7 sec) 
Heartbeat CPU 0 instructions: 400000000 cycles: 1283159786 heartbeat IPC: 0.248439 cumulative IPC: 0.247887 (Simulation time: 0 hr 21 min 44 sec) 
Heartbeat CPU 0 instructions: 410000000 cycles: 1323237370 heartbeat IPC: 0.249516 cumulative IPC: 0.247939 (Simulation time: 0 hr 22 min 21 sec) 
Heartbeat CPU 0 instructions: 420000000 cycles: 1363369995 heartbeat IPC: 0.249174 cumulative IPC: 0.247978 (Simulation time: 0 hr 22 min 57 sec) 
Heartbeat CPU 0 instructions: 430000000 cycles: 1403565629 heartbeat IPC: 0.248783 cumulative IPC: 0.248002 (Simulation time: 0 hr 23 min 34 sec) 
Heartbeat CPU 0 instructions: 440000000 cycles: 1443783827 heartbeat IPC: 0.248644 cumulative IPC: 0.248021 (Simulation time: 0 hr 24 min 11 sec) 
Heartbeat CPU 0 instructions: 450000002 cycles: 1483880799 heartbeat IPC: 0.249395 cumulative IPC: 0.24806 (Simulation time: 0 hr 24 min 47 sec) 
Heartbeat CPU 0 instructions: 460000000 cycles: 1523399580 heartbeat IPC: 0.253044 cumulative IPC: 0.248196 (Simulation time: 0 hr 25 min 24 sec) 
Heartbeat CPU 0 instructions: 470000000 cycles: 1563785196 heartbeat IPC: 0.247613 cumulative IPC: 0.24818 (Simulation time: 0 hr 26 min 1 sec) 
Heartbeat CPU 0 instructions: 480000000 cycles: 1603779543 heartbeat IPC: 0.250035 cumulative IPC: 0.248228 (Simulation time: 0 hr 26 min 38 sec) 
Heartbeat CPU 0 instructions: 490000001 cycles: 1643966941 heartbeat IPC: 0.248834 cumulative IPC: 0.248244 (Simulation time: 0 hr 27 min 14 sec) 
Heartbeat CPU 0 instructions: 500000000 cycles: 1684347110 heartbeat IPC: 0.247646 cumulative IPC: 0.248229 (Simulation time: 0 hr 27 min 51 sec) 
Heartbeat CPU 0 instructions: 510000000 cycles: 1724203623 heartbeat IPC: 0.2509 cumulative IPC: 0.248293 (Simulation time: 0 hr 28 min 27 sec) 
Heartbeat CPU 0 instructions: 520000000 cycles: 1764797890 heartbeat IPC: 0.24634 cumulative IPC: 0.248247 (Simulation time: 0 hr 29 min 3 sec) 
Heartbeat CPU 0 instructions: 530000000 cycles: 1804851712 heartbeat IPC: 0.249664 cumulative IPC: 0.248279 (Simulation time: 0 hr 29 min 38 sec) 
Heartbeat CPU 0 instructions: 540000000 cycles: 1844638530 heartbeat IPC: 0.25134 cumulative IPC: 0.248348 (Simulation time: 0 hr 30 min 13 sec) 
Heartbeat CPU 0 instructions: 550000001 cycles: 1885161153 heartbeat IPC: 0.246776 cumulative IPC: 0.248313 (Simulation time: 0 hr 30 min 48 sec) 
Heartbeat CPU 0 instructions: 560000000 cycles: 1925785816 heartbeat IPC: 0.246156 cumulative IPC: 0.248266 (Simulation time: 0 hr 31 min 23 sec) 
Heartbeat CPU 0 instructions: 570000003 cycles: 1966389083 heartbeat IPC: 0.246286 cumulative IPC: 0.248223 (Simulation time: 0 hr 31 min 58 sec) 
Heartbeat CPU 0 instructions: 580000000 cycles: 2006800657 heartbeat IPC: 0.247454 cumulative IPC: 0.248207 (Simulation time: 0 hr 32 min 33 sec) 
Heartbeat CPU 0 instructions: 590000001 cycles: 2047613440 heartbeat IPC: 0.245021 cumulative IPC: 0.248141 (Simulation time: 0 hr 33 min 8 sec) 
Heartbeat CPU 0 instructions: 600000000 cycles: 2088210486 heartbeat IPC: 0.246323 cumulative IPC: 0.248105 (Simulation time: 0 hr 33 min 43 sec) 
Finished CPU 0 instructions: 500000000 cycles: 2015279157 cumulative IPC: 0.248105 (Simulation time: 0 hr 33 min 43 sec) 

CPU 0 Branch Prediction Accuracy: 96.2429% MPKI: 5.85335
Number of Branches: 77897976 Number of Mispredictions: 2926674
Number of LOAD Instructions: 193081861
Number of LOAD Instructions (ROI): 193081861
Number of STORE Instructions: 97310749
Number of STORE Instructions (ROI): 97310749
Total Destination Memory Operands: 106368027
Total Destination Memory Operands (ROI): 106368027
Total Source Memory Operands: 193081861
Total Source Memory Operands (ROI): 193081861
Number of DEPENDED LOADS: 6455737
Number of DEPENDED LOADS (ROI): 6455737
Number of SQ_ADDED: 106367982
Number of SQ_ADDED (ROI): 106367982
Number of LQ_ADDED: 427371514
Number of LQ_ADDED (ROI): 427371514
Number of Instructions read from trace: 600000256

ChampSim completed all CPUs

Region of Interest Statistics

CPU 0 cumulative IPC: 0.248105 instructions: 500000000 cycles: 2015279157
ITLB TOTAL     ACCESS:  151140945  HIT:  151125114  MISS:      15831
ITLB LOAD      ACCESS:  151140945  HIT:  151125114  MISS:      15831
ITLB RFO       ACCESS:          0  HIT:          0  MISS:          0
ITLB PREFETCH  ACCESS:          0  HIT:          0  MISS:          0
ITLB WRITEBACK ACCESS:          0  HIT:          0  MISS:          0
ITLB PREFETCH  REQUESTED:          0  ISSUED:          0  USEFUL:          0  USELESS:          0
ITLB TOTAL MSHR MERGED:      17748
ITLB LOAD MSHR MERGED:      17748
ITLB RFO MSHR MERGED:          0
ITLB PREFETCH MSHR MERGED:          0
ITLB WRITEBACK MSHR MERGED:          0
ITLB TOTAL ACCESSES:  151158693 HITS:  151125114 MISSES:      33579
ITLB LOAD ACCESSES:  151158693 HITS:  151125114 MISSES:      33579
ITLB RFO ACCESSES:          0 HITS:          0 MISSES:          0
ITLB PREFETCH ACCESSES:          0 HITS:          0 MISSES:          0
ITLB WRITEBACK ACCESSES:          0 HITS:          0 MISSES:          0
ITLB RQ ACCESS:  500000242
ITLB RQ TO_CACHE:  151158693
ITLB RQ MERGED:  348841549
ITLB RQ FORWARD:          0
ITLB WQ ACCESS:          0
ITLB WQ TO_CACHE:          0
ITLB WQ MERGED:          0
ITLB WQ FORWARD:          0
DTLB TOTAL     ACCESS:  199549029  HIT:  194170086  MISS:    5378943
DTLB LOAD      ACCESS:  123119970  HIT:  118101517  MISS:    5018453
DTLB RFO       ACCESS:   76429059  HIT:   76068569  MISS:     360490
DTLB PREFETCH  ACCESS:          0  HIT:          0  MISS:          0
DTLB WRITEBACK ACCESS:          0  HIT:          0  MISS:          0
DTLB PREFETCH  REQUESTED:          0  ISSUED:          0  USEFUL:          0  USELESS:          0
DTLB TOTAL MSHR MERGED:     916489
DTLB LOAD MSHR MERGED:     807089
DTLB RFO MSHR MERGED:     109400
DTLB PREFETCH MSHR MERGED:          0
DTLB WRITEBACK MSHR MERGED:          0
DTLB TOTAL ACCESSES:  200465518 HITS:  194170086 MISSES:    6295432
DTLB LOAD ACCESSES:  123927059 HITS:  118101517 MISSES:    5825542
DTLB RFO ACCESSES:   76538459 HITS:   76068569 MISSES:     469890
DTLB PREFETCH ACCESSES:          0 HITS:          0 MISSES:          0
DTLB WRITEBACK ACCESSES:          0 HITS:          0 MISSES:          0
DTLB RQ ACCESS:  243869826
DTLB RQ TO_CACHE:  200465518
DTLB RQ MERGED:   43404308
DTLB RQ FORWARD:          0
DTLB WQ ACCESS:          0
DTLB WQ TO_CACHE:          0
DTLB WQ MERGED:          0
DTLB WQ FORWARD:          0
L1D TOTAL     ACCESS:  335539418  HIT:  317443435  MISS:   18095983
L1D LOAD      ACCESS:  127671792  HIT:  118724479  MISS:    8947313
L1D RFO       ACCESS:   87073816  HIT:   86282016  MISS:     791800
L1D PREFETCH  ACCESS:  120793810  HIT:  112436940  MISS:    8356870
L1D WRITEBACK ACCESS:          0  HIT:          0  MISS:          0
L1D PREFETCH  REQUESTED:  128462642  ISSUED:  126864656  USEFUL:    1737227  USELESS:    6619655
L1D TOTAL MSHR MERGED:    3887644
L1D LOAD MSHR MERGED:     959075
L1D RFO MSHR MERGED:    1079511
L1D PREFETCH MSHR MERGED:    1849058
L1D WRITEBACK MSHR MERGED:          0
L1D TOTAL ACCESSES:  339512592 HITS:  317528965 MISSES:   21983627
L1D LOAD ACCESSES:  128463102 HITS:  118724939 MISSES:    9738163
L1D RFO ACCESSES:   88082092 HITS:   86282016 MISSES:    1800076
L1D PREFETCH ACCESSES:  122967398 HITS:  112522010 MISSES:   10445388
L1D WRITEBACK ACCESSES:          0 HITS:          0 MISSES:          0
L1D RQ ACCESS:  155238441
L1D RQ TO_CACHE:  128462642
L1D RQ MERGED:   26775339
L1D RQ FORWARD:          0
L1D WQ ACCESS:   88631385
L1D WQ TO_CACHE:   88082091
L1D WQ MERGED:     549294
L1D WQ FORWARD:      85530
L1I TOTAL     ACCESS:  175453449  HIT:  175186986  MISS:     266463
L1I LOAD      ACCESS:  175453449  HIT:  175186986  MISS:     266463
L1I RFO       ACCESS:          0  HIT:          0  MISS:          0
L1I PREFETCH  ACCESS:          0  HIT:          0  MISS:          0
L1I WRITEBACK ACCESS:          0  HIT:          0  MISS:          0
L1I PREFETCH  REQUESTED:          0  ISSUED:          0  USEFUL:          0  USELESS:          0
L1I TOTAL MSHR MERGED:     213208
L1I LOAD MSHR MERGED:     213208
L1I RFO MSHR MERGED:          0
L1I PREFETCH MSHR MERGED:          0
L1I WRITEBACK MSHR MERGED:          0
L1I TOTAL ACCESSES:  175666657 HITS:  175186986 MISSES:     479671
L1I LOAD ACCESSES:  175666657 HITS:  175186986 MISSES:     479671
L1I RFO ACCESSES:          0 HITS:          0 MISSES:          0
L1I PREFETCH ACCESSES:          0 HITS:          0 MISSES:          0
L1I WRITEBACK ACCESSES:          0 HITS:          0 MISSES:          0
L1I RQ ACCESS:  500000242
L1I RQ TO_CACHE:  175666657
L1I RQ MERGED:  324333585
L1I RQ FORWARD:          0
L1I WQ ACCESS:          0
L1I WQ TO_CACHE:          0
L1I WQ MERGED:          0
L1I WQ FORWARD:          0
L2C TOTAL     ACCESS:   23738489  HIT:   12112787  MISS:   11625702
L2C LOAD      ACCESS:    9044377  HIT:    3564762  MISS:    5479615
L2C RFO       ACCESS:     720510  HIT:     130326  MISS:     590184
L2C PREFETCH  ACCESS:    8613331  HIT:    3086134  MISS:    5527197
L2C WRITEBACK ACCESS:    5360271  HIT:    5331565  MISS:      28706
L2C PREFETCH  REQUESTED:      18041  ISSUED:      18041  USEFUL:     323027  USELESS:    5204345
L2C TOTAL MSHR MERGED:         24
L2C LOAD MSHR MERGED:          2
L2C RFO MSHR MERGED:          0
L2C PREFETCH MSHR MERGED:         22
L2C WRITEBACK MSHR MERGED:          0
L2C TOTAL ACCESSES:   23740297 HITS:   12114567 MISSES:   11625730
L2C LOAD ACCESSES:    9045551 HITS:    3565936 MISSES:    5479615
L2C RFO ACCESSES:     720565 HITS:     130381 MISSES:     590184
L2C PREFETCH ACCESSES:    8613910 HITS:    3086685 MISSES:    5527225
L2C WRITEBACK ACCESSES:    5360271 HITS:    5331565 MISSES:      28706
L2C RQ ACCESS:    9766116
L2C RQ TO_CACHE:    9764887
L2C RQ MERGED:          0
L2C RQ FORWARD:          0
L2C WQ ACCESS:    5360271
L2C WQ TO_CACHE:    5360271
L2C WQ MERGED:          0
L2C WQ FORWARD:       1780
LLC TOTAL     ACCESS:   15448648  HIT:    6269960  MISS:    9178688
LLC LOAD      ACCESS:    5479585  HIT:    2009545  MISS:    3470040
LLC RFO       ACCESS:     590182  HIT:     263945  MISS:     326237
LLC PREFETCH  ACCESS:    5527188  HIT:     973886  MISS:    4553302
LLC WRITEBACK ACCESS:    3851693  HIT:    3022584  MISS:     829109
LLC PREFETCH  REQUESTED:          0  ISSUED:          0  USEFUL:      22864  USELESS:    4530938
LLC TOTAL MSHR MERGED:          0
LLC LOAD MSHR MERGED:          0
LLC RFO MSHR MERGED:          0
LLC PREFETCH MSHR MERGED:          0
LLC WRITEBACK MSHR MERGED:          0
LLC TOTAL ACCESSES:   15448693 HITS:    6270005 MISSES:    9178688
LLC LOAD ACCESSES:    5479613 HITS:    2009573 MISSES:    3470040
LLC RFO ACCESSES:     590184 HITS:     263947 MISSES:     326237
LLC PREFETCH ACCESSES:    5527203 HITS:     973901 MISSES:    4553302
LLC WRITEBACK ACCESSES:    3851693 HITS:    3022584 MISSES:     829109
LLC 0 RQ ACCESS:    6069797
LLC 0 RQ TO_CACHE:    6069767
LLC 0 RQ MERGED:          0
LLC 0 RQ FORWARD:          0
LLC WQ ACCESS:    3851693
LLC WQ TO_CACHE:    3851693
LLC WQ MERGED:          0
LLC WQ FORWARD:         45
Major fault: 0 Minor fault: 44814
CPU 0 L1D next line prefetcher final stats
CPU 0 L2C PC-based stride prefetcher final stats
All Misses: 11111383
All Hits: 7509756
SD Algo Stats - Switches: 0 SRR-Repls: 3961359 BRR-Repls: 0

DRAM Statistics
 CHANNEL 0
 RQ ROW_BUFFER_HIT:    1448922  ROW_BUFFER_MISS:    6898772
 DBUS_CONGESTED:    5669563
 WQ ROW_BUFFER_HIT:     191024  ROW_BUFFER_MISS:    2194047  FULL:          0

 AVG_CONGESTED_CYCLE: 13
LOADS RETIRED: 160808997
INSTR RETIRED: 500000000
