
*** ChampSim Multicore Out-of-Order Simulator ***

Warmup Instructions: 100000000
Simulation Instructions: 500000000
Number of CPUs: 1
LLC sets: 2048
LLC ways: 16
Clean RRIP Policies: 323220103232201 Dirty RRIP Policies: 313222103132221 PSEL Width: 10 Track Set: 4294967295 PSEL Mask: 1 Demote Mask: 41014200410142DS Algo: 0Window size: 0
Off-chip DRAM Size: 4096 MB Channels: 1 Width: 64-bit Data Rate: 1600 MT/s

CPU 0 runs /mnt/beegfs/iconst01/spec2017/cactuBSSN.trace.gz
NOT SORTED
TRACE STRING: /mnt/beegfs/iconst01/spec2017/cactuBSSN.trace.gz
SORTED
TRACE STRING: /mnt/beegfs/iconst01/spec2017/cactuBSSN.trace.gz
INITIAL
TRACE STRING: /mnt/beegfs/iconst01/spec2017/cactuBSSN.trace.gz

champsim_seed used: 838

CPU 0 L1D next line prefetcher
CPU 0 L2C IP-based stride prefetcher
Initialize DRRIP state
Assign rand_sets[0]: 454  LLC: 2048
rand_sets[0]: 454
Assign rand_sets[1]: 1662  LLC: 2048
rand_sets[1]: 1662
Assign rand_sets[2]: 1921  LLC: 2048
rand_sets[2]: 1921
Assign rand_sets[3]: 1131  LLC: 2048
rand_sets[3]: 1131
Assign rand_sets[4]: 331  LLC: 2048
rand_sets[4]: 331
Assign rand_sets[5]: 1531  LLC: 2048
rand_sets[5]: 1531
Assign rand_sets[6]: 482  LLC: 2048
rand_sets[6]: 482
Assign rand_sets[7]: 1275  LLC: 2048
rand_sets[7]: 1275
Assign rand_sets[8]: 1876  LLC: 2048
rand_sets[8]: 1876
Assign rand_sets[9]: 2038  LLC: 2048
rand_sets[9]: 2038
Assign rand_sets[10]: 701  LLC: 2048
rand_sets[10]: 701
Assign rand_sets[11]: 479  LLC: 2048
rand_sets[11]: 479
Assign rand_sets[12]: 892  LLC: 2048
rand_sets[12]: 892
Assign rand_sets[13]: 1820  LLC: 2048
rand_sets[13]: 1820
Assign rand_sets[14]: 1505  LLC: 2048
rand_sets[14]: 1505
Assign rand_sets[15]: 1159  LLC: 2048
rand_sets[15]: 1159
Assign rand_sets[16]: 513  LLC: 2048
rand_sets[16]: 513
Assign rand_sets[17]: 703  LLC: 2048
rand_sets[17]: 703
Assign rand_sets[18]: 561  LLC: 2048
rand_sets[18]: 561
Assign rand_sets[19]: 990  LLC: 2048
rand_sets[19]: 990
Assign rand_sets[20]: 342  LLC: 2048
rand_sets[20]: 342
Assign rand_sets[21]: 882  LLC: 2048
rand_sets[21]: 882
Assign rand_sets[22]: 15  LLC: 2048
rand_sets[22]: 15
Assign rand_sets[23]: 71  LLC: 2048
rand_sets[23]: 71
Assign rand_sets[24]: 1127  LLC: 2048
rand_sets[24]: 1127
Assign rand_sets[25]: 1382  LLC: 2048
rand_sets[25]: 1382
Assign rand_sets[26]: 647  LLC: 2048
rand_sets[26]: 647
Assign rand_sets[27]: 857  LLC: 2048
rand_sets[27]: 857
Assign rand_sets[28]: 1450  LLC: 2048
rand_sets[28]: 1450
Assign rand_sets[29]: 1160  LLC: 2048
rand_sets[29]: 1160
Assign rand_sets[30]: 1852  LLC: 2048
rand_sets[30]: 1852
Assign rand_sets[31]: 1881  LLC: 2048
rand_sets[31]: 1881
Assign rand_sets[32]: 1770  LLC: 2048
rand_sets[32]: 1770
Assign rand_sets[33]: 1622  LLC: 2048
rand_sets[33]: 1622
Assign rand_sets[34]: 275  LLC: 2048
rand_sets[34]: 275
Assign rand_sets[35]: 635  LLC: 2048
rand_sets[35]: 635
Assign rand_sets[36]: 466  LLC: 2048
rand_sets[36]: 466
Assign rand_sets[37]: 1413  LLC: 2048
rand_sets[37]: 1413
Assign rand_sets[38]: 417  LLC: 2048
rand_sets[38]: 417
Assign rand_sets[39]: 472  LLC: 2048
rand_sets[39]: 472
Assign rand_sets[40]: 1340  LLC: 2048
rand_sets[40]: 1340
Assign rand_sets[41]: 852  LLC: 2048
rand_sets[41]: 852
Assign rand_sets[42]: 1365  LLC: 2048
rand_sets[42]: 1365
Assign rand_sets[43]: 47  LLC: 2048
rand_sets[43]: 47
Assign rand_sets[44]: 823  LLC: 2048
rand_sets[44]: 823
Assign rand_sets[45]: 686  LLC: 2048
rand_sets[45]: 686
Assign rand_sets[46]: 1637  LLC: 2048
rand_sets[46]: 1637
Assign rand_sets[47]: 1115  LLC: 2048
rand_sets[47]: 1115
Assign rand_sets[48]: 986  LLC: 2048
rand_sets[48]: 986
Assign rand_sets[49]: 258  LLC: 2048
rand_sets[49]: 258
Assign rand_sets[50]: 633  LLC: 2048
rand_sets[50]: 633
Assign rand_sets[51]: 920  LLC: 2048
rand_sets[51]: 920
Assign rand_sets[52]: 204  LLC: 2048
rand_sets[52]: 204
Assign rand_sets[53]: 227  LLC: 2048
rand_sets[53]: 227
Assign rand_sets[54]: 1818  LLC: 2048
rand_sets[54]: 1818
Assign rand_sets[55]: 886  LLC: 2048
rand_sets[55]: 886
Assign rand_sets[56]: 1422  LLC: 2048
rand_sets[56]: 1422
Assign rand_sets[57]: 607  LLC: 2048
rand_sets[57]: 607
Assign rand_sets[58]: 217  LLC: 2048
rand_sets[58]: 217
Assign rand_sets[59]: 1945  LLC: 2048
rand_sets[59]: 1945
Assign rand_sets[60]: 143  LLC: 2048
rand_sets[60]: 143
Assign rand_sets[61]: 1311  LLC: 2048
rand_sets[61]: 1311
Assign rand_sets[62]: 319  LLC: 2048
rand_sets[62]: 319
Assign rand_sets[63]: 1846  LLC: 2048
rand_sets[63]: 1846
 CLEAN-RRIP-POLICY-1: 0-3-2-3-2-2-0-1- CLEAN-RRIP-POLICY-2: 0-3-2-3-2-2-0-1-
 DIRTY-RRIP-POLICY-1: 0-3-1-3-2-2-2-1- DIRTY-RRIP-POLICY-2: 0-3-1-3-2-2-2-1-
 PSEL width: 10
Heartbeat CPU 0 instructions: 10000000 cycles: 6588007 heartbeat IPC: 1.51791 cumulative IPC: 1.51791 (Simulation time: 0 hr 0 min 24 sec) 
Heartbeat CPU 0 instructions: 20000000 cycles: 13179620 heartbeat IPC: 1.51708 cumulative IPC: 1.51749 (Simulation time: 0 hr 0 min 49 sec) 
Heartbeat CPU 0 instructions: 30000003 cycles: 19772998 heartbeat IPC: 1.51667 cumulative IPC: 1.51722 (Simulation time: 0 hr 1 min 13 sec) 
Heartbeat CPU 0 instructions: 40000000 cycles: 26364781 heartbeat IPC: 1.51704 cumulative IPC: 1.51718 (Simulation time: 0 hr 1 min 37 sec) 
Heartbeat CPU 0 instructions: 50000001 cycles: 32957459 heartbeat IPC: 1.51683 cumulative IPC: 1.51711 (Simulation time: 0 hr 2 min 1 sec) 
Heartbeat CPU 0 instructions: 60000000 cycles: 39556331 heartbeat IPC: 1.51541 cumulative IPC: 1.51682 (Simulation time: 0 hr 2 min 26 sec) 
Heartbeat CPU 0 instructions: 70000003 cycles: 46154714 heartbeat IPC: 1.51552 cumulative IPC: 1.51664 (Simulation time: 0 hr 2 min 50 sec) 
Heartbeat CPU 0 instructions: 80000000 cycles: 52752789 heartbeat IPC: 1.51559 cumulative IPC: 1.51651 (Simulation time: 0 hr 3 min 14 sec) 
Heartbeat CPU 0 instructions: 90000002 cycles: 59348435 heartbeat IPC: 1.51615 cumulative IPC: 1.51647 (Simulation time: 0 hr 3 min 39 sec) 
Heartbeat CPU 0 instructions: 100000000 cycles: 65943504 heartbeat IPC: 1.51628 cumulative IPC: 1.51645 (Simulation time: 0 hr 4 min 3 sec) 

Warmup complete CPU 0 instructions: 100000002 cycles: 65943505 (Simulation time: 0 hr 4 min 3 sec) 

Heartbeat CPU 0 instructions: 110000000 cycles: 79204504 heartbeat IPC: 0.754091 cumulative IPC: 0.754091 (Simulation time: 0 hr 4 min 33 sec) 
Heartbeat CPU 0 instructions: 120000000 cycles: 92419655 heartbeat IPC: 0.756707 cumulative IPC: 0.755397 (Simulation time: 0 hr 5 min 2 sec) 
Heartbeat CPU 0 instructions: 130000001 cycles: 105705443 heartbeat IPC: 0.752684 cumulative IPC: 0.75449 (Simulation time: 0 hr 5 min 32 sec) 
Heartbeat CPU 0 instructions: 140000000 cycles: 118896130 heartbeat IPC: 0.758111 cumulative IPC: 0.755392 (Simulation time: 0 hr 6 min 2 sec) 
Heartbeat CPU 0 instructions: 150000001 cycles: 132095407 heartbeat IPC: 0.757617 cumulative IPC: 0.755836 (Simulation time: 0 hr 6 min 31 sec) 
Heartbeat CPU 0 instructions: 160000000 cycles: 145331395 heartbeat IPC: 0.755516 cumulative IPC: 0.755783 (Simulation time: 0 hr 7 min 1 sec) 
Heartbeat CPU 0 instructions: 170000000 cycles: 158557678 heartbeat IPC: 0.75607 cumulative IPC: 0.755824 (Simulation time: 0 hr 7 min 31 sec) 
Heartbeat CPU 0 instructions: 180000000 cycles: 171769436 heartbeat IPC: 0.756902 cumulative IPC: 0.755958 (Simulation time: 0 hr 8 min 1 sec) 
Heartbeat CPU 0 instructions: 190000000 cycles: 184934470 heartbeat IPC: 0.759588 cumulative IPC: 0.75636 (Simulation time: 0 hr 8 min 30 sec) 
Heartbeat CPU 0 instructions: 200000000 cycles: 198197965 heartbeat IPC: 0.753949 cumulative IPC: 0.756118 (Simulation time: 0 hr 9 min 0 sec) 
Heartbeat CPU 0 instructions: 210000002 cycles: 211428166 heartbeat IPC: 0.755847 cumulative IPC: 0.756093 (Simulation time: 0 hr 9 min 30 sec) 
Heartbeat CPU 0 instructions: 220000000 cycles: 224623979 heartbeat IPC: 0.757816 cumulative IPC: 0.756237 (Simulation time: 0 hr 9 min 59 sec) 
Heartbeat CPU 0 instructions: 230000003 cycles: 237879139 heartbeat IPC: 0.754423 cumulative IPC: 0.756097 (Simulation time: 0 hr 10 min 29 sec) 
Heartbeat CPU 0 instructions: 240000000 cycles: 251081531 heartbeat IPC: 0.757438 cumulative IPC: 0.756193 (Simulation time: 0 hr 10 min 59 sec) 
Heartbeat CPU 0 instructions: 250000001 cycles: 264326257 heartbeat IPC: 0.755018 cumulative IPC: 0.756114 (Simulation time: 0 hr 11 min 28 sec) 
Heartbeat CPU 0 instructions: 260000000 cycles: 277542246 heartbeat IPC: 0.756659 cumulative IPC: 0.756148 (Simulation time: 0 hr 11 min 58 sec) 
Heartbeat CPU 0 instructions: 270000003 cycles: 290785967 heartbeat IPC: 0.755075 cumulative IPC: 0.756085 (Simulation time: 0 hr 12 min 28 sec) 
Heartbeat CPU 0 instructions: 280000000 cycles: 304004854 heartbeat IPC: 0.756493 cumulative IPC: 0.756108 (Simulation time: 0 hr 12 min 57 sec) 
Heartbeat CPU 0 instructions: 290000000 cycles: 317180630 heartbeat IPC: 0.758969 cumulative IPC: 0.756258 (Simulation time: 0 hr 13 min 27 sec) 
Heartbeat CPU 0 instructions: 300000000 cycles: 330434492 heartbeat IPC: 0.754497 cumulative IPC: 0.756169 (Simulation time: 0 hr 13 min 57 sec) 
Heartbeat CPU 0 instructions: 310000001 cycles: 343621815 heartbeat IPC: 0.758304 cumulative IPC: 0.756271 (Simulation time: 0 hr 14 min 26 sec) 
Heartbeat CPU 0 instructions: 320000000 cycles: 356818920 heartbeat IPC: 0.757742 cumulative IPC: 0.756338 (Simulation time: 0 hr 14 min 56 sec) 
Heartbeat CPU 0 instructions: 330000002 cycles: 370016958 heartbeat IPC: 0.757689 cumulative IPC: 0.756396 (Simulation time: 0 hr 15 min 26 sec) 
Heartbeat CPU 0 instructions: 340000000 cycles: 383266820 heartbeat IPC: 0.754725 cumulative IPC: 0.756326 (Simulation time: 0 hr 15 min 55 sec) 
Heartbeat CPU 0 instructions: 350000000 cycles: 396524688 heartbeat IPC: 0.754269 cumulative IPC: 0.756244 (Simulation time: 0 hr 16 min 25 sec) 
Heartbeat CPU 0 instructions: 360000000 cycles: 409755683 heartbeat IPC: 0.755801 cumulative IPC: 0.756227 (Simulation time: 0 hr 16 min 55 sec) 
Heartbeat CPU 0 instructions: 370000002 cycles: 423040935 heartbeat IPC: 0.752715 cumulative IPC: 0.756096 (Simulation time: 0 hr 17 min 25 sec) 
Heartbeat CPU 0 instructions: 380000000 cycles: 436258556 heartbeat IPC: 0.756566 cumulative IPC: 0.756113 (Simulation time: 0 hr 17 min 54 sec) 
Heartbeat CPU 0 instructions: 390000000 cycles: 449447575 heartbeat IPC: 0.758206 cumulative IPC: 0.756185 (Simulation time: 0 hr 18 min 24 sec) 
Heartbeat CPU 0 instructions: 400000000 cycles: 462660139 heartbeat IPC: 0.756855 cumulative IPC: 0.756207 (Simulation time: 0 hr 18 min 54 sec) 
Heartbeat CPU 0 instructions: 410000001 cycles: 475921949 heartbeat IPC: 0.754045 cumulative IPC: 0.756137 (Simulation time: 0 hr 19 min 23 sec) 
Heartbeat CPU 0 instructions: 420000000 cycles: 489109237 heartbeat IPC: 0.758306 cumulative IPC: 0.756205 (Simulation time: 0 hr 19 min 53 sec) 
Heartbeat CPU 0 instructions: 430000001 cycles: 502298558 heartbeat IPC: 0.758189 cumulative IPC: 0.756265 (Simulation time: 0 hr 20 min 23 sec) 
Heartbeat CPU 0 instructions: 440000000 cycles: 515483035 heartbeat IPC: 0.758468 cumulative IPC: 0.756329 (Simulation time: 0 hr 20 min 52 sec) 
Heartbeat CPU 0 instructions: 450000002 cycles: 528800143 heartbeat IPC: 0.750914 cumulative IPC: 0.756174 (Simulation time: 0 hr 21 min 22 sec) 
Heartbeat CPU 0 instructions: 460000000 cycles: 542018079 heartbeat IPC: 0.756548 cumulative IPC: 0.756184 (Simulation time: 0 hr 21 min 52 sec) 
Heartbeat CPU 0 instructions: 470000003 cycles: 555223630 heartbeat IPC: 0.757258 cumulative IPC: 0.756213 (Simulation time: 0 hr 22 min 21 sec) 
Heartbeat CPU 0 instructions: 480000000 cycles: 568470665 heartbeat IPC: 0.754886 cumulative IPC: 0.756178 (Simulation time: 0 hr 22 min 51 sec) 
Heartbeat CPU 0 instructions: 490000000 cycles: 581691110 heartbeat IPC: 0.756404 cumulative IPC: 0.756184 (Simulation time: 0 hr 23 min 21 sec) 
Heartbeat CPU 0 instructions: 500000000 cycles: 594891535 heartbeat IPC: 0.757551 cumulative IPC: 0.756218 (Simulation time: 0 hr 23 min 50 sec) 
Heartbeat CPU 0 instructions: 510000001 cycles: 608076781 heartbeat IPC: 0.758424 cumulative IPC: 0.756272 (Simulation time: 0 hr 24 min 20 sec) 
Heartbeat CPU 0 instructions: 520000000 cycles: 621376427 heartbeat IPC: 0.7519 cumulative IPC: 0.756167 (Simulation time: 0 hr 24 min 49 sec) 
Heartbeat CPU 0 instructions: 530000000 cycles: 634622136 heartbeat IPC: 0.754961 cumulative IPC: 0.756139 (Simulation time: 0 hr 25 min 19 sec) 
Heartbeat CPU 0 instructions: 540000000 cycles: 647860838 heartbeat IPC: 0.755361 cumulative IPC: 0.756121 (Simulation time: 0 hr 25 min 49 sec) 
Heartbeat CPU 0 instructions: 550000002 cycles: 661132155 heartbeat IPC: 0.753505 cumulative IPC: 0.756063 (Simulation time: 0 hr 26 min 18 sec) 
Heartbeat CPU 0 instructions: 560000000 cycles: 674330801 heartbeat IPC: 0.757653 cumulative IPC: 0.756097 (Simulation time: 0 hr 26 min 48 sec) 
Heartbeat CPU 0 instructions: 570000001 cycles: 687538740 heartbeat IPC: 0.75712 cumulative IPC: 0.756119 (Simulation time: 0 hr 27 min 17 sec) 
Heartbeat CPU 0 instructions: 580000000 cycles: 700766102 heartbeat IPC: 0.756009 cumulative IPC: 0.756117 (Simulation time: 0 hr 27 min 47 sec) 
Heartbeat CPU 0 instructions: 590000003 cycles: 714002791 heartbeat IPC: 0.755476 cumulative IPC: 0.756104 (Simulation time: 0 hr 28 min 17 sec) 
Heartbeat CPU 0 instructions: 600000000 cycles: 727263263 heartbeat IPC: 0.754121 cumulative IPC: 0.756064 (Simulation time: 0 hr 28 min 46 sec) 
Finished CPU 0 instructions: 500000000 cycles: 661319768 cumulative IPC: 0.756064 (Simulation time: 0 hr 28 min 46 sec) 

CPU 0 Branch Prediction Accuracy: 99.968% MPKI: 0.002246
Number of Branches: 3513331 Number of Mispredictions: 1123
Number of LOAD Instructions: 287251172
Number of LOAD Instructions (ROI): 287251172
Number of STORE Instructions: 51060820
Number of STORE Instructions (ROI): 51060820
Total Destination Memory Operands: 51166221
Total Destination Memory Operands (ROI): 51166221
Total Source Memory Operands: 287251172
Total Source Memory Operands (ROI): 287251172
Number of DEPENDED LOADS: 9555426
Number of DEPENDED LOADS (ROI): 9555426
Number of SQ_ADDED: 51166208
Number of SQ_ADDED (ROI): 51166208
Number of LQ_ADDED: 290422662
Number of LQ_ADDED (ROI): 290422662
Number of Instructions read from trace: 600000257

ChampSim completed all CPUs

Region of Interest Statistics

CPU 0 cumulative IPC: 0.756064 instructions: 500000000 cycles: 661319768
ITLB TOTAL     ACCESS:  108952146  HIT:  108952146  MISS:          0
ITLB LOAD      ACCESS:  108952146  HIT:  108952146  MISS:          0
ITLB RFO       ACCESS:          0  HIT:          0  MISS:          0
ITLB PREFETCH  ACCESS:          0  HIT:          0  MISS:          0
ITLB WRITEBACK ACCESS:          0  HIT:          0  MISS:          0
ITLB PREFETCH  REQUESTED:          0  ISSUED:          0  USEFUL:          0  USELESS:          0
ITLB TOTAL MSHR MERGED:          0
ITLB LOAD MSHR MERGED:          0
ITLB RFO MSHR MERGED:          0
ITLB PREFETCH MSHR MERGED:          0
ITLB WRITEBACK MSHR MERGED:          0
ITLB TOTAL ACCESSES:  108952146 HITS:  108952146 MISSES:          0
ITLB LOAD ACCESSES:  108952146 HITS:  108952146 MISSES:          0
ITLB RFO ACCESSES:          0 HITS:          0 MISSES:          0
ITLB PREFETCH ACCESSES:          0 HITS:          0 MISSES:          0
ITLB WRITEBACK ACCESSES:          0 HITS:          0 MISSES:          0
ITLB RQ ACCESS:  500000001
ITLB RQ TO_CACHE:  108952146
ITLB RQ MERGED:  391047855
ITLB RQ FORWARD:          0
ITLB WQ ACCESS:          0
ITLB WQ TO_CACHE:          0
ITLB WQ MERGED:          0
ITLB WQ FORWARD:          0
DTLB TOTAL     ACCESS:  171131339  HIT:  161115049  MISS:   10016290
DTLB LOAD      ACCESS:  143472313  HIT:  135596273  MISS:    7876040
DTLB RFO       ACCESS:   27659026  HIT:   25518776  MISS:    2140250
DTLB PREFETCH  ACCESS:          0  HIT:          0  MISS:          0
DTLB WRITEBACK ACCESS:          0  HIT:          0  MISS:          0
DTLB PREFETCH  REQUESTED:          0  ISSUED:          0  USEFUL:          0  USELESS:          0
DTLB TOTAL MSHR MERGED:     360419
DTLB LOAD MSHR MERGED:     360419
DTLB RFO MSHR MERGED:          0
DTLB PREFETCH MSHR MERGED:          0
DTLB WRITEBACK MSHR MERGED:          0
DTLB TOTAL ACCESSES:  171491758 HITS:  161115049 MISSES:   10376709
DTLB LOAD ACCESSES:  143832732 HITS:  135596273 MISSES:    8236459
DTLB RFO ACCESSES:   27659026 HITS:   25518776 MISSES:    2140250
DTLB PREFETCH ACCESSES:          0 HITS:          0 MISSES:          0
DTLB WRITEBACK ACCESSES:          0 HITS:          0 MISSES:          0
DTLB RQ ACCESS:  274072391
DTLB RQ TO_CACHE:  171491758
DTLB RQ MERGED:  102580633
DTLB RQ FORWARD:          0
DTLB WQ ACCESS:          0
DTLB WQ TO_CACHE:          0
DTLB WQ MERGED:          0
DTLB WQ FORWARD:          0
L1D TOTAL     ACCESS:  350961718  HIT:  283762401  MISS:   67199317
L1D LOAD      ACCESS:  175628156  HIT:  142589151  MISS:   33039005
L1D RFO       ACCESS:   42020359  HIT:   39214835  MISS:    2805524
L1D PREFETCH  ACCESS:  133313203  HIT:  101958415  MISS:   31354788
L1D WRITEBACK ACCESS:          0  HIT:          0  MISS:          0
L1D PREFETCH  REQUESTED:  176232293  ISSUED:  175294004  USEFUL:    2180628  USELESS:   29174162
L1D TOTAL MSHR MERGED:    1482733
L1D LOAD MSHR MERGED:     704119
L1D RFO MSHR MERGED:     348728
L1D PREFETCH MSHR MERGED:     429886
L1D WRITEBACK MSHR MERGED:          0
L1D TOTAL ACCESSES:  352556807 HITS:  283874757 MISSES:   68682050
L1D LOAD ACCESSES:  176238736 HITS:  142595594 MISSES:   33643142
L1D RFO ACCESSES:   42368417 HITS:   39214835 MISSES:    3153582
L1D PREFETCH ACCESSES:  133949654 HITS:  102064328 MISSES:   31885326
L1D WRITEBACK ACCESSES:          0 HITS:          0 MISSES:          0
L1D RQ ACCESS:  231433918
L1D RQ TO_CACHE:  176232293
L1D RQ MERGED:   55195182
L1D RQ FORWARD:          0
L1D WQ ACCESS:   42638475
L1D WQ TO_CACHE:   42368417
L1D WQ MERGED:     270058
L1D WQ FORWARD:     112356
L1I TOTAL     ACCESS:  109345888  HIT:   77830184  MISS:   31515704
L1I LOAD      ACCESS:  109345888  HIT:   77830184  MISS:   31515704
L1I RFO       ACCESS:          0  HIT:          0  MISS:          0
L1I PREFETCH  ACCESS:          0  HIT:          0  MISS:          0
L1I WRITEBACK ACCESS:          0  HIT:          0  MISS:          0
L1I PREFETCH  REQUESTED:          0  ISSUED:          0  USEFUL:          0  USELESS:          0
L1I TOTAL MSHR MERGED:   30749795
L1I LOAD MSHR MERGED:   30749795
L1I RFO MSHR MERGED:          0
L1I PREFETCH MSHR MERGED:          0
L1I WRITEBACK MSHR MERGED:          0
L1I TOTAL ACCESSES:  140095685 HITS:   77830184 MISSES:   62265501
L1I LOAD ACCESSES:  140095685 HITS:   77830184 MISSES:   62265501
L1I RFO ACCESSES:          0 HITS:          0 MISSES:          0
L1I PREFETCH ACCESSES:          0 HITS:          0 MISSES:          0
L1I WRITEBACK ACCESSES:          0 HITS:          0 MISSES:          0
L1I RQ ACCESS:  500000003
L1I RQ TO_CACHE:  140095685
L1I RQ MERGED:  359904318
L1I RQ FORWARD:          0
L1I WQ ACCESS:          0
L1I WQ TO_CACHE:          0
L1I WQ MERGED:          0
L1I WQ FORWARD:          0
L2C TOTAL     ACCESS:  113700628  HIT:  110698649  MISS:    3001979
L2C LOAD      ACCESS:   64452868  HIT:   63892416  MISS:     560452
L2C RFO       ACCESS:    2802970  HIT:    2193432  MISS:     609538
L2C PREFETCH  ACCESS:   43283840  HIT:   41458121  MISS:    1825719
L2C WRITEBACK ACCESS:    3160950  HIT:    3154680  MISS:       6270
L2C PREFETCH  REQUESTED:   15134530  ISSUED:   14621161  USEFUL:    1700843  USELESS:     124880
L2C TOTAL MSHR MERGED:      13067
L2C LOAD MSHR MERGED:          0
L2C RFO MSHR MERGED:          0
L2C PREFETCH MSHR MERGED:      13067
L2C WRITEBACK MSHR MERGED:          0
L2C TOTAL ACCESSES:  113904686 HITS:  110704498 MISSES:    3200188
L2C LOAD ACCESSES:   64454728 HITS:   63894275 MISSES:     560453
L2C RFO ACCESSES:    2804854 HITS:    2195316 MISSES:     609538
L2C PREFETCH ACCESSES:   43484154 HITS:   41460227 MISSES:    2023927
L2C WRITEBACK ACCESSES:    3160950 HITS:    3154680 MISSES:       6270
L2C RQ ACCESS:   67259583
L2C RQ TO_CACHE:   67255840
L2C RQ MERGED:          0
L2C RQ FORWARD:          0
L2C WQ ACCESS:    3160950
L2C WQ TO_CACHE:    3160950
L2C WQ MERGED:          0
L2C WQ FORWARD:       5849
LLC TOTAL     ACCESS:    3712313  HIT:    1929914  MISS:    1782399
LLC LOAD      ACCESS:     560427  HIT:     492667  MISS:      67760
LLC RFO       ACCESS:     527409  HIT:     239119  MISS:     288290
LLC PREFETCH  ACCESS:    2005939  HIT:     640678  MISS:    1365261
LLC WRITEBACK ACCESS:     618538  HIT:     557450  MISS:      61088
LLC PREFETCH  REQUESTED:          0  ISSUED:          0  USEFUL:      39231  USELESS:    1318853
LLC TOTAL MSHR MERGED:       4311
LLC LOAD MSHR MERGED:          0
LLC RFO MSHR MERGED:          0
LLC PREFETCH MSHR MERGED:       4311
LLC WRITEBACK MSHR MERGED:          0
LLC TOTAL ACCESSES:    3798850 HITS:    2012140 MISSES:    1786710
LLC LOAD ACCESSES:     560452 HITS:     492692 MISSES:      67760
LLC RFO ACCESSES:     609538 HITS:     321248 MISSES:     288290
LLC PREFETCH ACCESSES:    2010322 HITS:     640750 MISSES:    1369572
LLC WRITEBACK ACCESSES:     618538 HITS:     557450 MISSES:      61088
LLC 0 RQ ACCESS:    1169991
LLC 0 RQ TO_CACHE:    1087837
LLC 0 RQ MERGED:          0
LLC 0 RQ FORWARD:          0
LLC WQ ACCESS:     618538
LLC WQ TO_CACHE:     618538
LLC WQ MERGED:          0
LLC WQ FORWARD:      82226
Major fault: 0 Minor fault: 12800
CPU 0 L1D next line prefetcher final stats
CPU 0 L2C PC-based stride prefetcher final stats
All Misses: 2153474
All Hits: 2409779
SD Algo Stats - Switches: 1 SRR-Repls: 82165 BRR-Repls: 3913

DRAM Statistics
 CHANNEL 0
 RQ ROW_BUFFER_HIT:     840959  ROW_BUFFER_MISS:     880150
 DBUS_CONGESTED:     923588
 WQ ROW_BUFFER_HIT:      35748  ROW_BUFFER_MISS:     276413  FULL:          0

 AVG_CONGESTED_CYCLE: 13
LOADS RETIRED: 239375970
INSTR RETIRED: 500000000
