
*** ChampSim Multicore Out-of-Order Simulator ***

Warmup Instructions: 100000000
Simulation Instructions: 500000000
Number of CPUs: 1
LLC sets: 2048
LLC ways: 16
Clean RRIP Policies: 323220103232201 Dirty RRIP Policies: 313222103132221 PSEL Width: 10 Track Set: 4294967295 PSEL Mask: 1 Demote Mask: 41014200410142DS Algo: 0Window size: 0
Off-chip DRAM Size: 4096 MB Channels: 1 Width: 64-bit Data Rate: 1600 MT/s

CPU 0 runs /mnt/beegfs/iconst01/spec2017/Cam4.trace.gz
NOT SORTED
TRACE STRING: /mnt/beegfs/iconst01/spec2017/Cam4.trace.gz
SORTED
TRACE STRING: /mnt/beegfs/iconst01/spec2017/Cam4.trace.gz
INITIAL
TRACE STRING: /mnt/beegfs/iconst01/spec2017/Cam4.trace.gz

champsim_seed used: 325

CPU 0 L1D next line prefetcher
CPU 0 L2C IP-based stride prefetcher
Initialize DRRIP state
Assign rand_sets[0]: 454  LLC: 2048
rand_sets[0]: 454
Assign rand_sets[1]: 1662  LLC: 2048
rand_sets[1]: 1662
Assign rand_sets[2]: 1921  LLC: 2048
rand_sets[2]: 1921
Assign rand_sets[3]: 1131  LLC: 2048
rand_sets[3]: 1131
Assign rand_sets[4]: 331  LLC: 2048
rand_sets[4]: 331
Assign rand_sets[5]: 1531  LLC: 2048
rand_sets[5]: 1531
Assign rand_sets[6]: 482  LLC: 2048
rand_sets[6]: 482
Assign rand_sets[7]: 1275  LLC: 2048
rand_sets[7]: 1275
Assign rand_sets[8]: 1876  LLC: 2048
rand_sets[8]: 1876
Assign rand_sets[9]: 2038  LLC: 2048
rand_sets[9]: 2038
Assign rand_sets[10]: 701  LLC: 2048
rand_sets[10]: 701
Assign rand_sets[11]: 479  LLC: 2048
rand_sets[11]: 479
Assign rand_sets[12]: 892  LLC: 2048
rand_sets[12]: 892
Assign rand_sets[13]: 1820  LLC: 2048
rand_sets[13]: 1820
Assign rand_sets[14]: 1505  LLC: 2048
rand_sets[14]: 1505
Assign rand_sets[15]: 1159  LLC: 2048
rand_sets[15]: 1159
Assign rand_sets[16]: 513  LLC: 2048
rand_sets[16]: 513
Assign rand_sets[17]: 703  LLC: 2048
rand_sets[17]: 703
Assign rand_sets[18]: 561  LLC: 2048
rand_sets[18]: 561
Assign rand_sets[19]: 990  LLC: 2048
rand_sets[19]: 990
Assign rand_sets[20]: 342  LLC: 2048
rand_sets[20]: 342
Assign rand_sets[21]: 882  LLC: 2048
rand_sets[21]: 882
Assign rand_sets[22]: 15  LLC: 2048
rand_sets[22]: 15
Assign rand_sets[23]: 71  LLC: 2048
rand_sets[23]: 71
Assign rand_sets[24]: 1127  LLC: 2048
rand_sets[24]: 1127
Assign rand_sets[25]: 1382  LLC: 2048
rand_sets[25]: 1382
Assign rand_sets[26]: 647  LLC: 2048
rand_sets[26]: 647
Assign rand_sets[27]: 857  LLC: 2048
rand_sets[27]: 857
Assign rand_sets[28]: 1450  LLC: 2048
rand_sets[28]: 1450
Assign rand_sets[29]: 1160  LLC: 2048
rand_sets[29]: 1160
Assign rand_sets[30]: 1852  LLC: 2048
rand_sets[30]: 1852
Assign rand_sets[31]: 1881  LLC: 2048
rand_sets[31]: 1881
Assign rand_sets[32]: 1770  LLC: 2048
rand_sets[32]: 1770
Assign rand_sets[33]: 1622  LLC: 2048
rand_sets[33]: 1622
Assign rand_sets[34]: 275  LLC: 2048
rand_sets[34]: 275
Assign rand_sets[35]: 635  LLC: 2048
rand_sets[35]: 635
Assign rand_sets[36]: 466  LLC: 2048
rand_sets[36]: 466
Assign rand_sets[37]: 1413  LLC: 2048
rand_sets[37]: 1413
Assign rand_sets[38]: 417  LLC: 2048
rand_sets[38]: 417
Assign rand_sets[39]: 472  LLC: 2048
rand_sets[39]: 472
Assign rand_sets[40]: 1340  LLC: 2048
rand_sets[40]: 1340
Assign rand_sets[41]: 852  LLC: 2048
rand_sets[41]: 852
Assign rand_sets[42]: 1365  LLC: 2048
rand_sets[42]: 1365
Assign rand_sets[43]: 47  LLC: 2048
rand_sets[43]: 47
Assign rand_sets[44]: 823  LLC: 2048
rand_sets[44]: 823
Assign rand_sets[45]: 686  LLC: 2048
rand_sets[45]: 686
Assign rand_sets[46]: 1637  LLC: 2048
rand_sets[46]: 1637
Assign rand_sets[47]: 1115  LLC: 2048
rand_sets[47]: 1115
Assign rand_sets[48]: 986  LLC: 2048
rand_sets[48]: 986
Assign rand_sets[49]: 258  LLC: 2048
rand_sets[49]: 258
Assign rand_sets[50]: 633  LLC: 2048
rand_sets[50]: 633
Assign rand_sets[51]: 920  LLC: 2048
rand_sets[51]: 920
Assign rand_sets[52]: 204  LLC: 2048
rand_sets[52]: 204
Assign rand_sets[53]: 227  LLC: 2048
rand_sets[53]: 227
Assign rand_sets[54]: 1818  LLC: 2048
rand_sets[54]: 1818
Assign rand_sets[55]: 886  LLC: 2048
rand_sets[55]: 886
Assign rand_sets[56]: 1422  LLC: 2048
rand_sets[56]: 1422
Assign rand_sets[57]: 607  LLC: 2048
rand_sets[57]: 607
Assign rand_sets[58]: 217  LLC: 2048
rand_sets[58]: 217
Assign rand_sets[59]: 1945  LLC: 2048
rand_sets[59]: 1945
Assign rand_sets[60]: 143  LLC: 2048
rand_sets[60]: 143
Assign rand_sets[61]: 1311  LLC: 2048
rand_sets[61]: 1311
Assign rand_sets[62]: 319  LLC: 2048
rand_sets[62]: 319
Assign rand_sets[63]: 1846  LLC: 2048
rand_sets[63]: 1846
 CLEAN-RRIP-POLICY-1: 0-3-2-3-2-2-0-1- CLEAN-RRIP-POLICY-2: 0-3-2-3-2-2-0-1-
 DIRTY-RRIP-POLICY-1: 0-3-1-3-2-2-2-1- DIRTY-RRIP-POLICY-2: 0-3-1-3-2-2-2-1-
 PSEL width: 10
Heartbeat CPU 0 instructions: 10000000 cycles: 4859184 heartbeat IPC: 2.05796 cumulative IPC: 2.05796 (Simulation time: 0 hr 0 min 17 sec) 
Heartbeat CPU 0 instructions: 20000000 cycles: 9790786 heartbeat IPC: 2.02774 cumulative IPC: 2.04274 (Simulation time: 0 hr 0 min 33 sec) 
Heartbeat CPU 0 instructions: 30000001 cycles: 14563033 heartbeat IPC: 2.09545 cumulative IPC: 2.06001 (Simulation time: 0 hr 0 min 48 sec) 
Heartbeat CPU 0 instructions: 40000000 cycles: 19400071 heartbeat IPC: 2.06738 cumulative IPC: 2.06185 (Simulation time: 0 hr 1 min 5 sec) 
Heartbeat CPU 0 instructions: 50000000 cycles: 24256603 heartbeat IPC: 2.05908 cumulative IPC: 2.06129 (Simulation time: 0 hr 1 min 22 sec) 
Heartbeat CPU 0 instructions: 60000000 cycles: 29182066 heartbeat IPC: 2.03027 cumulative IPC: 2.05606 (Simulation time: 0 hr 1 min 38 sec) 
Heartbeat CPU 0 instructions: 70000001 cycles: 33956832 heartbeat IPC: 2.09434 cumulative IPC: 2.06144 (Simulation time: 0 hr 1 min 53 sec) 
Heartbeat CPU 0 instructions: 80000000 cycles: 38793165 heartbeat IPC: 2.06768 cumulative IPC: 2.06222 (Simulation time: 0 hr 2 min 10 sec) 
Heartbeat CPU 0 instructions: 90000002 cycles: 43647250 heartbeat IPC: 2.06012 cumulative IPC: 2.06199 (Simulation time: 0 hr 2 min 27 sec) 
Heartbeat CPU 0 instructions: 100000000 cycles: 48566041 heartbeat IPC: 2.03302 cumulative IPC: 2.05905 (Simulation time: 0 hr 2 min 43 sec) 

Warmup complete CPU 0 instructions: 100000001 cycles: 48566042 (Simulation time: 0 hr 2 min 43 sec) 

Heartbeat CPU 0 instructions: 110000000 cycles: 61840591 heartbeat IPC: 0.753321 cumulative IPC: 0.753321 (Simulation time: 0 hr 3 min 6 sec) 
Heartbeat CPU 0 instructions: 120000000 cycles: 75626513 heartbeat IPC: 0.725378 cumulative IPC: 0.739085 (Simulation time: 0 hr 3 min 31 sec) 
Heartbeat CPU 0 instructions: 130000000 cycles: 89402891 heartbeat IPC: 0.72588 cumulative IPC: 0.734631 (Simulation time: 0 hr 3 min 56 sec) 
Heartbeat CPU 0 instructions: 140000000 cycles: 103693154 heartbeat IPC: 0.699777 cumulative IPC: 0.725596 (Simulation time: 0 hr 4 min 21 sec) 
Heartbeat CPU 0 instructions: 150000003 cycles: 116994573 heartbeat IPC: 0.7518 cumulative IPC: 0.730689 (Simulation time: 0 hr 4 min 44 sec) 
Heartbeat CPU 0 instructions: 160000000 cycles: 130783681 heartbeat IPC: 0.72521 cumulative IPC: 0.72977 (Simulation time: 0 hr 5 min 9 sec) 
Heartbeat CPU 0 instructions: 170000001 cycles: 144594918 heartbeat IPC: 0.724048 cumulative IPC: 0.728947 (Simulation time: 0 hr 5 min 33 sec) 
Heartbeat CPU 0 instructions: 180000000 cycles: 158868834 heartbeat IPC: 0.700579 cumulative IPC: 0.725276 (Simulation time: 0 hr 5 min 58 sec) 
Heartbeat CPU 0 instructions: 190000003 cycles: 172110800 heartbeat IPC: 0.755175 cumulative IPC: 0.728481 (Simulation time: 0 hr 6 min 21 sec) 
Heartbeat CPU 0 instructions: 200000000 cycles: 185900287 heartbeat IPC: 0.72519 cumulative IPC: 0.72815 (Simulation time: 0 hr 6 min 46 sec) 
Heartbeat CPU 0 instructions: 210000002 cycles: 199714811 heartbeat IPC: 0.723876 cumulative IPC: 0.72776 (Simulation time: 0 hr 7 min 11 sec) 
Heartbeat CPU 0 instructions: 220000000 cycles: 213986351 heartbeat IPC: 0.700695 cumulative IPC: 0.725425 (Simulation time: 0 hr 7 min 36 sec) 
Heartbeat CPU 0 instructions: 230000001 cycles: 227122510 heartbeat IPC: 0.761258 cumulative IPC: 0.728061 (Simulation time: 0 hr 7 min 59 sec) 
Heartbeat CPU 0 instructions: 240000000 cycles: 240899172 heartbeat IPC: 0.725865 cumulative IPC: 0.727904 (Simulation time: 0 hr 8 min 23 sec) 
Heartbeat CPU 0 instructions: 250000001 cycles: 254660546 heartbeat IPC: 0.726672 cumulative IPC: 0.727821 (Simulation time: 0 hr 8 min 48 sec) 
Heartbeat CPU 0 instructions: 260000000 cycles: 268828343 heartbeat IPC: 0.705826 cumulative IPC: 0.726407 (Simulation time: 0 hr 9 min 13 sec) 
Heartbeat CPU 0 instructions: 270000003 cycles: 282079123 heartbeat IPC: 0.754673 cumulative IPC: 0.728011 (Simulation time: 0 hr 9 min 36 sec) 
Heartbeat CPU 0 instructions: 280000000 cycles: 295882794 heartbeat IPC: 0.724445 cumulative IPC: 0.727812 (Simulation time: 0 hr 10 min 1 sec) 
Heartbeat CPU 0 instructions: 290000001 cycles: 309693861 heartbeat IPC: 0.724057 cumulative IPC: 0.727613 (Simulation time: 0 hr 10 min 26 sec) 
Heartbeat CPU 0 instructions: 300000000 cycles: 323805390 heartbeat IPC: 0.70864 cumulative IPC: 0.72664 (Simulation time: 0 hr 10 min 51 sec) 
Heartbeat CPU 0 instructions: 310000000 cycles: 337098532 heartbeat IPC: 0.752268 cumulative IPC: 0.727821 (Simulation time: 0 hr 11 min 13 sec) 
Heartbeat CPU 0 instructions: 320000000 cycles: 350932278 heartbeat IPC: 0.72287 cumulative IPC: 0.727594 (Simulation time: 0 hr 11 min 38 sec) 
Heartbeat CPU 0 instructions: 330000000 cycles: 364759891 heartbeat IPC: 0.723191 cumulative IPC: 0.727402 (Simulation time: 0 hr 12 min 3 sec) 
Heartbeat CPU 0 instructions: 340000000 cycles: 378849821 heartbeat IPC: 0.709727 cumulative IPC: 0.726648 (Simulation time: 0 hr 12 min 28 sec) 
Heartbeat CPU 0 instructions: 350000000 cycles: 392222573 heartbeat IPC: 0.747789 cumulative IPC: 0.727471 (Simulation time: 0 hr 12 min 51 sec) 
Heartbeat CPU 0 instructions: 360000000 cycles: 406094439 heartbeat IPC: 0.720884 cumulative IPC: 0.727215 (Simulation time: 0 hr 13 min 15 sec) 
Heartbeat CPU 0 instructions: 370000003 cycles: 419920373 heartbeat IPC: 0.723279 cumulative IPC: 0.727068 (Simulation time: 0 hr 13 min 40 sec) 
Heartbeat CPU 0 instructions: 380000000 cycles: 433975788 heartbeat IPC: 0.711469 cumulative IPC: 0.7265 (Simulation time: 0 hr 14 min 5 sec) 
Heartbeat CPU 0 instructions: 390000003 cycles: 447378820 heartbeat IPC: 0.7461 cumulative IPC: 0.727158 (Simulation time: 0 hr 14 min 28 sec) 
Heartbeat CPU 0 instructions: 400000000 cycles: 461237920 heartbeat IPC: 0.721547 cumulative IPC: 0.72697 (Simulation time: 0 hr 14 min 53 sec) 
Heartbeat CPU 0 instructions: 410000000 cycles: 475033854 heartbeat IPC: 0.724851 cumulative IPC: 0.726901 (Simulation time: 0 hr 15 min 18 sec) 
Heartbeat CPU 0 instructions: 420000000 cycles: 489074855 heartbeat IPC: 0.7122 cumulative IPC: 0.726433 (Simulation time: 0 hr 15 min 43 sec) 
Heartbeat CPU 0 instructions: 430000003 cycles: 502484063 heartbeat IPC: 0.745756 cumulative IPC: 0.727004 (Simulation time: 0 hr 16 min 5 sec) 
Heartbeat CPU 0 instructions: 440000000 cycles: 516350287 heartbeat IPC: 0.721177 cumulative IPC: 0.726831 (Simulation time: 0 hr 16 min 30 sec) 
Heartbeat CPU 0 instructions: 450000000 cycles: 530173934 heartbeat IPC: 0.723398 cumulative IPC: 0.726732 (Simulation time: 0 hr 16 min 55 sec) 
Heartbeat CPU 0 instructions: 460000000 cycles: 544200891 heartbeat IPC: 0.712913 cumulative IPC: 0.726341 (Simulation time: 0 hr 17 min 20 sec) 
Heartbeat CPU 0 instructions: 470000001 cycles: 557596216 heartbeat IPC: 0.746529 cumulative IPC: 0.726872 (Simulation time: 0 hr 17 min 43 sec) 
Heartbeat CPU 0 instructions: 480000000 cycles: 571419623 heartbeat IPC: 0.723411 cumulative IPC: 0.726781 (Simulation time: 0 hr 18 min 8 sec) 
Heartbeat CPU 0 instructions: 490000002 cycles: 585206297 heartbeat IPC: 0.725338 cumulative IPC: 0.726744 (Simulation time: 0 hr 18 min 33 sec) 
Heartbeat CPU 0 instructions: 500000000 cycles: 599230820 heartbeat IPC: 0.713037 cumulative IPC: 0.726395 (Simulation time: 0 hr 18 min 58 sec) 
Heartbeat CPU 0 instructions: 510000002 cycles: 612601267 heartbeat IPC: 0.747918 cumulative IPC: 0.726905 (Simulation time: 0 hr 19 min 20 sec) 
Heartbeat CPU 0 instructions: 520000000 cycles: 626420909 heartbeat IPC: 0.723608 cumulative IPC: 0.726826 (Simulation time: 0 hr 19 min 45 sec) 
Heartbeat CPU 0 instructions: 530000003 cycles: 640196682 heartbeat IPC: 0.725912 cumulative IPC: 0.726805 (Simulation time: 0 hr 20 min 10 sec) 
Heartbeat CPU 0 instructions: 540000000 cycles: 654241711 heartbeat IPC: 0.711995 cumulative IPC: 0.726461 (Simulation time: 0 hr 20 min 35 sec) 
Heartbeat CPU 0 instructions: 550000003 cycles: 667631500 heartbeat IPC: 0.746838 cumulative IPC: 0.726902 (Simulation time: 0 hr 20 min 58 sec) 
Heartbeat CPU 0 instructions: 560000000 cycles: 681431347 heartbeat IPC: 0.724645 cumulative IPC: 0.726853 (Simulation time: 0 hr 21 min 23 sec) 
Heartbeat CPU 0 instructions: 570000001 cycles: 695228661 heartbeat IPC: 0.724779 cumulative IPC: 0.726809 (Simulation time: 0 hr 21 min 47 sec) 
Heartbeat CPU 0 instructions: 580000000 cycles: 709292457 heartbeat IPC: 0.711046 cumulative IPC: 0.726473 (Simulation time: 0 hr 22 min 12 sec) 
Heartbeat CPU 0 instructions: 590000000 cycles: 722590929 heartbeat IPC: 0.751966 cumulative IPC: 0.726976 (Simulation time: 0 hr 22 min 35 sec) 
Heartbeat CPU 0 instructions: 600000000 cycles: 736392175 heartbeat IPC: 0.724572 cumulative IPC: 0.726928 (Simulation time: 0 hr 23 min 0 sec) 
Finished CPU 0 instructions: 500000001 cycles: 687826141 cumulative IPC: 0.726928 (Simulation time: 0 hr 23 min 0 sec) 

CPU 0 Branch Prediction Accuracy: 97.5275% MPKI: 2.1997
Number of Branches: 44482865 Number of Mispredictions: 1099852
Number of LOAD Instructions: 144955155
Number of LOAD Instructions (ROI): 144955155
Number of STORE Instructions: 55921098
Number of STORE Instructions (ROI): 55921098
Total Destination Memory Operands: 57111147
Total Destination Memory Operands (ROI): 57111147
Total Source Memory Operands: 144955155
Total Source Memory Operands (ROI): 144955155
Number of DEPENDED LOADS: 13455286
Number of DEPENDED LOADS (ROI): 13455286
Number of SQ_ADDED: 57111126
Number of SQ_ADDED (ROI): 57111126
Number of LQ_ADDED: 175282325
Number of LQ_ADDED (ROI): 175282325
Number of Instructions read from trace: 600000256

ChampSim completed all CPUs

Region of Interest Statistics

CPU 0 cumulative IPC: 0.726928 instructions: 500000001 cycles: 687826141
ITLB TOTAL     ACCESS:  136065406  HIT:  136062853  MISS:       2553
ITLB LOAD      ACCESS:  136065406  HIT:  136062853  MISS:       2553
ITLB RFO       ACCESS:          0  HIT:          0  MISS:          0
ITLB PREFETCH  ACCESS:          0  HIT:          0  MISS:          0
ITLB WRITEBACK ACCESS:          0  HIT:          0  MISS:          0
ITLB PREFETCH  REQUESTED:          0  ISSUED:          0  USEFUL:          0  USELESS:          0
ITLB TOTAL MSHR MERGED:       4388
ITLB LOAD MSHR MERGED:       4388
ITLB RFO MSHR MERGED:          0
ITLB PREFETCH MSHR MERGED:          0
ITLB WRITEBACK MSHR MERGED:          0
ITLB TOTAL ACCESSES:  136069794 HITS:  136062853 MISSES:       6941
ITLB LOAD ACCESSES:  136069794 HITS:  136062853 MISSES:       6941
ITLB RFO ACCESSES:          0 HITS:          0 MISSES:          0
ITLB PREFETCH ACCESSES:          0 HITS:          0 MISSES:          0
ITLB WRITEBACK ACCESSES:          0 HITS:          0 MISSES:          0
ITLB RQ ACCESS:  500000202
ITLB RQ TO_CACHE:  136069794
ITLB RQ MERGED:  363930408
ITLB RQ FORWARD:          0
ITLB WQ ACCESS:          0
ITLB WQ TO_CACHE:          0
ITLB WQ MERGED:          0
ITLB WQ FORWARD:          0
DTLB TOTAL     ACCESS:  111539744  HIT:  111403551  MISS:     136193
DTLB LOAD      ACCESS:   78943193  HIT:   78817569  MISS:     125624
DTLB RFO       ACCESS:   32596551  HIT:   32585982  MISS:      10569
DTLB PREFETCH  ACCESS:          0  HIT:          0  MISS:          0
DTLB WRITEBACK ACCESS:          0  HIT:          0  MISS:          0
DTLB PREFETCH  REQUESTED:          0  ISSUED:          0  USEFUL:          0  USELESS:          0
DTLB TOTAL MSHR MERGED:      63800
DTLB LOAD MSHR MERGED:      51128
DTLB RFO MSHR MERGED:      12672
DTLB PREFETCH MSHR MERGED:          0
DTLB WRITEBACK MSHR MERGED:          0
DTLB TOTAL ACCESSES:  111603544 HITS:  111403551 MISSES:     199993
DTLB LOAD ACCESSES:   78994321 HITS:   78817569 MISSES:     176752
DTLB RFO ACCESSES:   32609223 HITS:   32585982 MISSES:      23241
DTLB PREFETCH ACCESSES:          0 HITS:          0 MISSES:          0
DTLB WRITEBACK ACCESSES:          0 HITS:          0 MISSES:          0
DTLB RQ ACCESS:  157180159
DTLB RQ TO_CACHE:  111603544
DTLB RQ MERGED:   45576615
DTLB RQ FORWARD:          0
DTLB WQ ACCESS:          0
DTLB WQ TO_CACHE:          0
DTLB WQ MERGED:          0
DTLB WQ FORWARD:          0
L1D TOTAL     ACCESS:  198117120  HIT:  188276236  MISS:    9840884
L1D LOAD      ACCESS:   79932174  HIT:   75659510  MISS:    4272664
L1D RFO       ACCESS:   44488262  HIT:   43587669  MISS:     900593
L1D PREFETCH  ACCESS:   73696684  HIT:   69029057  MISS:    4667627
L1D WRITEBACK ACCESS:          0  HIT:          0  MISS:          0
L1D PREFETCH  REQUESTED:   80336472  ISSUED:   79880673  USEFUL:    1809408  USELESS:    2858128
L1D TOTAL MSHR MERGED:    2596436
L1D LOAD MSHR MERGED:     537822
L1D RFO MSHR MERGED:    1464012
L1D PREFETCH MSHR MERGED:     594602
L1D WRITEBACK MSHR MERGED:          0
L1D TOTAL ACCESSES:  200736134 HITS:  188298814 MISSES:   12437320
L1D LOAD ACCESSES:   80350456 HITS:   75673494 MISSES:    4676962
L1D RFO ACCESSES:   45949184 HITS:   43587669 MISSES:    2361515
L1D PREFETCH ACCESSES:   74436494 HITS:   69037651 MISSES:    5398843
L1D WRITEBACK ACCESSES:          0 HITS:          0 MISSES:          0
L1D RQ ACCESS:  109538189
L1D RQ TO_CACHE:   80336472
L1D RQ MERGED:   29187733
L1D RQ FORWARD:          0
L1D WQ ACCESS:   47641970
L1D WQ TO_CACHE:   45949184
L1D WQ MERGED:    1692786
L1D WQ FORWARD:      22578
L1I TOTAL     ACCESS:  161536361  HIT:  161272392  MISS:     263969
L1I LOAD      ACCESS:  161536361  HIT:  161272392  MISS:     263969
L1I RFO       ACCESS:          0  HIT:          0  MISS:          0
L1I PREFETCH  ACCESS:          0  HIT:          0  MISS:          0
L1I WRITEBACK ACCESS:          0  HIT:          0  MISS:          0
L1I PREFETCH  REQUESTED:          0  ISSUED:          0  USEFUL:          0  USELESS:          0
L1I TOTAL MSHR MERGED:     260147
L1I LOAD MSHR MERGED:     260147
L1I RFO MSHR MERGED:          0
L1I PREFETCH MSHR MERGED:          0
L1I WRITEBACK MSHR MERGED:          0
L1I TOTAL ACCESSES:  161796508 HITS:  161272392 MISSES:     524116
L1I LOAD ACCESSES:  161796508 HITS:  161272392 MISSES:     524116
L1I RFO ACCESSES:          0 HITS:          0 MISSES:          0
L1I PREFETCH ACCESSES:          0 HITS:          0 MISSES:          0
L1I WRITEBACK ACCESSES:          0 HITS:          0 MISSES:          0
L1I RQ ACCESS:  500000202
L1I RQ TO_CACHE:  161796508
L1I RQ MERGED:  338203694
L1I RQ FORWARD:          0
L1I WQ ACCESS:          0
L1I WQ TO_CACHE:          0
L1I WQ MERGED:          0
L1I WQ FORWARD:          0
L2C TOTAL     ACCESS:   11771237  HIT:   10381909  MISS:    1389328
L2C LOAD      ACCESS:    4403044  HIT:    3906077  MISS:     496967
L2C RFO       ACCESS:     897437  HIT:     536306  MISS:     361131
L2C PREFETCH  ACCESS:    5283261  HIT:    4754977  MISS:     528284
L2C WRITEBACK ACCESS:    1187495  HIT:    1184549  MISS:       2946
L2C PREFETCH  REQUESTED:     504456  ISSUED:     504456  USEFUL:     114927  USELESS:     413551
L2C TOTAL MSHR MERGED:       2344
L2C LOAD MSHR MERGED:        488
L2C RFO MSHR MERGED:          0
L2C PREFETCH MSHR MERGED:       1856
L2C WRITEBACK MSHR MERGED:          0
L2C TOTAL ACCESSES:   11776225 HITS:   10382127 MISSES:    1394098
L2C LOAD ACCESSES:    4403109 HITS:    3906142 MISSES:     496967
L2C RFO ACCESSES:     897503 HITS:     536372 MISSES:     361131
L2C PREFETCH ACCESSES:    5288118 HITS:    4755064 MISSES:     533054
L2C WRITEBACK ACCESSES:    1187495 HITS:    1184549 MISSES:       2946
L2C RQ ACCESS:    5300612
L2C RQ TO_CACHE:    5300481
L2C RQ MERGED:          0
L2C RQ FORWARD:          0
L2C WQ ACCESS:    1187495
L2C WQ TO_CACHE:    1187495
L2C WQ MERGED:          0
L2C WQ FORWARD:        218
LLC TOTAL     ACCESS:    1849389  HIT:    1111249  MISS:     738140
LLC LOAD      ACCESS:     496476  HIT:     295424  MISS:     201052
LLC RFO       ACCESS:     361128  HIT:     164015  MISS:     197113
LLC PREFETCH  ACCESS:     531076  HIT:     276678  MISS:     254398
LLC WRITEBACK ACCESS:     460709  HIT:     375132  MISS:      85577
LLC PREFETCH  REQUESTED:          0  ISSUED:          0  USEFUL:       4872  USELESS:     249782
LLC TOTAL MSHR MERGED:         97
LLC LOAD MSHR MERGED:         31
LLC RFO MSHR MERGED:          0
LLC PREFETCH MSHR MERGED:         66
LLC WRITEBACK MSHR MERGED:          0
LLC TOTAL ACCESSES:    1849514 HITS:    1111277 MISSES:     738237
LLC LOAD ACCESSES:     496479 HITS:     295427 MISSES:     201052
LLC RFO ACCESSES:     361131 HITS:     164018 MISSES:     197113
LLC PREFETCH ACCESSES:     531195 HITS:     276700 MISSES:     254495
LLC WRITEBACK ACCESSES:     460709 HITS:     375132 MISSES:      85577
LLC 0 RQ ACCESS:     857610
LLC 0 RQ TO_CACHE:     857604
LLC 0 RQ MERGED:          0
LLC 0 RQ FORWARD:          0
LLC WQ ACCESS:     460709
LLC WQ TO_CACHE:     460709
LLC WQ MERGED:          0
LLC WQ FORWARD:         28
Major fault: 0 Minor fault: 3073
CPU 0 L1D next line prefetcher final stats
CPU 0 L2C PC-based stride prefetcher final stats
All Misses: 888573
All Hits: 1287508
SD Algo Stats - Switches: 0 SRR-Repls: 240423 BRR-Repls: 0

DRAM Statistics
 CHANNEL 0
 RQ ROW_BUFFER_HIT:     371131  ROW_BUFFER_MISS:     280864
 DBUS_CONGESTED:     491319
 WQ ROW_BUFFER_HIT:      35823  ROW_BUFFER_MISS:     188198  FULL:          0

 AVG_CONGESTED_CYCLE: 13
LOADS RETIRED: 120673965
INSTR RETIRED: 500000000
