
*** ChampSim Multicore Out-of-Order Simulator ***

Warmup Instructions: 100000000
Simulation Instructions: 500000000
Number of CPUs: 1
LLC sets: 2048
LLC ways: 16
Clean RRIP Policies: 2213230222132302 Dirty RRIP Policies: 203130202031302 PSEL Width: 10 Track Set: 4294967295 PSEL Mask: 1 Demote Mask: 3040100030401000DS Algo: 0Window size: 0
Off-chip DRAM Size: 4096 MB Channels: 1 Width: 64-bit Data Rate: 1600 MT/s

CPU 0 runs /mnt/beegfs/iconst01/spec2017/cactuBSSN.trace.gz
NOT SORTED
TRACE STRING: /mnt/beegfs/iconst01/spec2017/cactuBSSN.trace.gz
SORTED
TRACE STRING: /mnt/beegfs/iconst01/spec2017/cactuBSSN.trace.gz
INITIAL
TRACE STRING: /mnt/beegfs/iconst01/spec2017/cactuBSSN.trace.gz

champsim_seed used: 838

CPU 0 L1D next line prefetcher
CPU 0 L2C IP-based stride prefetcher
Initialize DRRIP state
Assign rand_sets[0]: 454  LLC: 2048
rand_sets[0]: 454
Assign rand_sets[1]: 1662  LLC: 2048
rand_sets[1]: 1662
Assign rand_sets[2]: 1921  LLC: 2048
rand_sets[2]: 1921
Assign rand_sets[3]: 1131  LLC: 2048
rand_sets[3]: 1131
Assign rand_sets[4]: 331  LLC: 2048
rand_sets[4]: 331
Assign rand_sets[5]: 1531  LLC: 2048
rand_sets[5]: 1531
Assign rand_sets[6]: 482  LLC: 2048
rand_sets[6]: 482
Assign rand_sets[7]: 1275  LLC: 2048
rand_sets[7]: 1275
Assign rand_sets[8]: 1876  LLC: 2048
rand_sets[8]: 1876
Assign rand_sets[9]: 2038  LLC: 2048
rand_sets[9]: 2038
Assign rand_sets[10]: 701  LLC: 2048
rand_sets[10]: 701
Assign rand_sets[11]: 479  LLC: 2048
rand_sets[11]: 479
Assign rand_sets[12]: 892  LLC: 2048
rand_sets[12]: 892
Assign rand_sets[13]: 1820  LLC: 2048
rand_sets[13]: 1820
Assign rand_sets[14]: 1505  LLC: 2048
rand_sets[14]: 1505
Assign rand_sets[15]: 1159  LLC: 2048
rand_sets[15]: 1159
Assign rand_sets[16]: 513  LLC: 2048
rand_sets[16]: 513
Assign rand_sets[17]: 703  LLC: 2048
rand_sets[17]: 703
Assign rand_sets[18]: 561  LLC: 2048
rand_sets[18]: 561
Assign rand_sets[19]: 990  LLC: 2048
rand_sets[19]: 990
Assign rand_sets[20]: 342  LLC: 2048
rand_sets[20]: 342
Assign rand_sets[21]: 882  LLC: 2048
rand_sets[21]: 882
Assign rand_sets[22]: 15  LLC: 2048
rand_sets[22]: 15
Assign rand_sets[23]: 71  LLC: 2048
rand_sets[23]: 71
Assign rand_sets[24]: 1127  LLC: 2048
rand_sets[24]: 1127
Assign rand_sets[25]: 1382  LLC: 2048
rand_sets[25]: 1382
Assign rand_sets[26]: 647  LLC: 2048
rand_sets[26]: 647
Assign rand_sets[27]: 857  LLC: 2048
rand_sets[27]: 857
Assign rand_sets[28]: 1450  LLC: 2048
rand_sets[28]: 1450
Assign rand_sets[29]: 1160  LLC: 2048
rand_sets[29]: 1160
Assign rand_sets[30]: 1852  LLC: 2048
rand_sets[30]: 1852
Assign rand_sets[31]: 1881  LLC: 2048
rand_sets[31]: 1881
Assign rand_sets[32]: 1770  LLC: 2048
rand_sets[32]: 1770
Assign rand_sets[33]: 1622  LLC: 2048
rand_sets[33]: 1622
Assign rand_sets[34]: 275  LLC: 2048
rand_sets[34]: 275
Assign rand_sets[35]: 635  LLC: 2048
rand_sets[35]: 635
Assign rand_sets[36]: 466  LLC: 2048
rand_sets[36]: 466
Assign rand_sets[37]: 1413  LLC: 2048
rand_sets[37]: 1413
Assign rand_sets[38]: 417  LLC: 2048
rand_sets[38]: 417
Assign rand_sets[39]: 472  LLC: 2048
rand_sets[39]: 472
Assign rand_sets[40]: 1340  LLC: 2048
rand_sets[40]: 1340
Assign rand_sets[41]: 852  LLC: 2048
rand_sets[41]: 852
Assign rand_sets[42]: 1365  LLC: 2048
rand_sets[42]: 1365
Assign rand_sets[43]: 47  LLC: 2048
rand_sets[43]: 47
Assign rand_sets[44]: 823  LLC: 2048
rand_sets[44]: 823
Assign rand_sets[45]: 686  LLC: 2048
rand_sets[45]: 686
Assign rand_sets[46]: 1637  LLC: 2048
rand_sets[46]: 1637
Assign rand_sets[47]: 1115  LLC: 2048
rand_sets[47]: 1115
Assign rand_sets[48]: 986  LLC: 2048
rand_sets[48]: 986
Assign rand_sets[49]: 258  LLC: 2048
rand_sets[49]: 258
Assign rand_sets[50]: 633  LLC: 2048
rand_sets[50]: 633
Assign rand_sets[51]: 920  LLC: 2048
rand_sets[51]: 920
Assign rand_sets[52]: 204  LLC: 2048
rand_sets[52]: 204
Assign rand_sets[53]: 227  LLC: 2048
rand_sets[53]: 227
Assign rand_sets[54]: 1818  LLC: 2048
rand_sets[54]: 1818
Assign rand_sets[55]: 886  LLC: 2048
rand_sets[55]: 886
Assign rand_sets[56]: 1422  LLC: 2048
rand_sets[56]: 1422
Assign rand_sets[57]: 607  LLC: 2048
rand_sets[57]: 607
Assign rand_sets[58]: 217  LLC: 2048
rand_sets[58]: 217
Assign rand_sets[59]: 1945  LLC: 2048
rand_sets[59]: 1945
Assign rand_sets[60]: 143  LLC: 2048
rand_sets[60]: 143
Assign rand_sets[61]: 1311  LLC: 2048
rand_sets[61]: 1311
Assign rand_sets[62]: 319  LLC: 2048
rand_sets[62]: 319
Assign rand_sets[63]: 1846  LLC: 2048
rand_sets[63]: 1846
 CLEAN-RRIP-POLICY-1: 2-2-1-3-2-3-0-2- CLEAN-RRIP-POLICY-2: 2-2-1-3-2-3-0-2-
 DIRTY-RRIP-POLICY-1: 0-2-0-3-1-3-0-2- DIRTY-RRIP-POLICY-2: 0-2-0-3-1-3-0-2-
 PSEL width: 10
Heartbeat CPU 0 instructions: 10000000 cycles: 6588002 heartbeat IPC: 1.51791 cumulative IPC: 1.51791 (Simulation time: 0 hr 0 min 25 sec) 
Heartbeat CPU 0 instructions: 20000000 cycles: 13179589 heartbeat IPC: 1.51709 cumulative IPC: 1.5175 (Simulation time: 0 hr 0 min 49 sec) 
Heartbeat CPU 0 instructions: 30000003 cycles: 19772908 heartbeat IPC: 1.51669 cumulative IPC: 1.51723 (Simulation time: 0 hr 1 min 14 sec) 
Heartbeat CPU 0 instructions: 40000000 cycles: 26364653 heartbeat IPC: 1.51705 cumulative IPC: 1.51718 (Simulation time: 0 hr 1 min 39 sec) 
Heartbeat CPU 0 instructions: 50000001 cycles: 32957327 heartbeat IPC: 1.51684 cumulative IPC: 1.51711 (Simulation time: 0 hr 2 min 4 sec) 
Heartbeat CPU 0 instructions: 60000000 cycles: 39556154 heartbeat IPC: 1.51542 cumulative IPC: 1.51683 (Simulation time: 0 hr 2 min 29 sec) 
Heartbeat CPU 0 instructions: 70000003 cycles: 46154530 heartbeat IPC: 1.51552 cumulative IPC: 1.51664 (Simulation time: 0 hr 2 min 54 sec) 
Heartbeat CPU 0 instructions: 80000000 cycles: 52752580 heartbeat IPC: 1.5156 cumulative IPC: 1.51651 (Simulation time: 0 hr 3 min 19 sec) 
Heartbeat CPU 0 instructions: 90000002 cycles: 59348265 heartbeat IPC: 1.51614 cumulative IPC: 1.51647 (Simulation time: 0 hr 3 min 43 sec) 
Heartbeat CPU 0 instructions: 100000000 cycles: 65943327 heartbeat IPC: 1.51629 cumulative IPC: 1.51645 (Simulation time: 0 hr 4 min 8 sec) 

Warmup complete CPU 0 instructions: 100000002 cycles: 65943328 (Simulation time: 0 hr 4 min 8 sec) 

Heartbeat CPU 0 instructions: 110000000 cycles: 79186169 heartbeat IPC: 0.755125 cumulative IPC: 0.755125 (Simulation time: 0 hr 4 min 39 sec) 
Heartbeat CPU 0 instructions: 120000000 cycles: 92381893 heartbeat IPC: 0.757821 cumulative IPC: 0.756471 (Simulation time: 0 hr 5 min 10 sec) 
Heartbeat CPU 0 instructions: 130000001 cycles: 105654745 heartbeat IPC: 0.753418 cumulative IPC: 0.75545 (Simulation time: 0 hr 5 min 40 sec) 
Heartbeat CPU 0 instructions: 140000000 cycles: 118826888 heartbeat IPC: 0.759178 cumulative IPC: 0.756379 (Simulation time: 0 hr 6 min 11 sec) 
Heartbeat CPU 0 instructions: 150000001 cycles: 132007667 heartbeat IPC: 0.758681 cumulative IPC: 0.756838 (Simulation time: 0 hr 6 min 41 sec) 
Heartbeat CPU 0 instructions: 160000000 cycles: 145239291 heartbeat IPC: 0.755765 cumulative IPC: 0.756659 (Simulation time: 0 hr 7 min 12 sec) 
Heartbeat CPU 0 instructions: 170000000 cycles: 158452966 heartbeat IPC: 0.756792 cumulative IPC: 0.756678 (Simulation time: 0 hr 7 min 42 sec) 
Heartbeat CPU 0 instructions: 180000000 cycles: 171648614 heartbeat IPC: 0.757826 cumulative IPC: 0.756821 (Simulation time: 0 hr 8 min 13 sec) 
Heartbeat CPU 0 instructions: 190000000 cycles: 184806333 heartbeat IPC: 0.76001 cumulative IPC: 0.757174 (Simulation time: 0 hr 8 min 43 sec) 
Heartbeat CPU 0 instructions: 200000000 cycles: 198061662 heartbeat IPC: 0.754414 cumulative IPC: 0.756897 (Simulation time: 0 hr 9 min 14 sec) 
Heartbeat CPU 0 instructions: 210000002 cycles: 211273898 heartbeat IPC: 0.756874 cumulative IPC: 0.756895 (Simulation time: 0 hr 9 min 44 sec) 
Heartbeat CPU 0 instructions: 220000000 cycles: 224445725 heartbeat IPC: 0.759196 cumulative IPC: 0.757086 (Simulation time: 0 hr 10 min 15 sec) 
Heartbeat CPU 0 instructions: 230000003 cycles: 237691992 heartbeat IPC: 0.75493 cumulative IPC: 0.75692 (Simulation time: 0 hr 10 min 45 sec) 
Heartbeat CPU 0 instructions: 240000000 cycles: 250884112 heartbeat IPC: 0.758028 cumulative IPC: 0.756999 (Simulation time: 0 hr 11 min 16 sec) 
Heartbeat CPU 0 instructions: 250000001 cycles: 264108556 heartbeat IPC: 0.756176 cumulative IPC: 0.756944 (Simulation time: 0 hr 11 min 46 sec) 
Heartbeat CPU 0 instructions: 260000000 cycles: 277321386 heartbeat IPC: 0.75684 cumulative IPC: 0.756938 (Simulation time: 0 hr 12 min 17 sec) 
Heartbeat CPU 0 instructions: 270000003 cycles: 290567645 heartbeat IPC: 0.75493 cumulative IPC: 0.756819 (Simulation time: 0 hr 12 min 47 sec) 
Heartbeat CPU 0 instructions: 280000000 cycles: 303764585 heartbeat IPC: 0.757751 cumulative IPC: 0.756871 (Simulation time: 0 hr 13 min 17 sec) 
Heartbeat CPU 0 instructions: 290000000 cycles: 316938331 heartbeat IPC: 0.759086 cumulative IPC: 0.756987 (Simulation time: 0 hr 13 min 46 sec) 
Heartbeat CPU 0 instructions: 300000000 cycles: 330185872 heartbeat IPC: 0.754857 cumulative IPC: 0.75688 (Simulation time: 0 hr 14 min 16 sec) 
Heartbeat CPU 0 instructions: 310000001 cycles: 343361588 heartbeat IPC: 0.758972 cumulative IPC: 0.75698 (Simulation time: 0 hr 14 min 46 sec) 
Heartbeat CPU 0 instructions: 320000000 cycles: 356556010 heartbeat IPC: 0.757896 cumulative IPC: 0.757021 (Simulation time: 0 hr 15 min 16 sec) 
Heartbeat CPU 0 instructions: 330000002 cycles: 369752786 heartbeat IPC: 0.757761 cumulative IPC: 0.757053 (Simulation time: 0 hr 15 min 46 sec) 
Heartbeat CPU 0 instructions: 340000000 cycles: 382991861 heartbeat IPC: 0.75534 cumulative IPC: 0.756982 (Simulation time: 0 hr 16 min 16 sec) 
Heartbeat CPU 0 instructions: 350000000 cycles: 396246010 heartbeat IPC: 0.754481 cumulative IPC: 0.756882 (Simulation time: 0 hr 16 min 46 sec) 
Heartbeat CPU 0 instructions: 360000000 cycles: 409463456 heartbeat IPC: 0.756576 cumulative IPC: 0.75687 (Simulation time: 0 hr 17 min 15 sec) 
Heartbeat CPU 0 instructions: 370000002 cycles: 422736600 heartbeat IPC: 0.753401 cumulative IPC: 0.756741 (Simulation time: 0 hr 17 min 45 sec) 
Heartbeat CPU 0 instructions: 380000000 cycles: 435944755 heartbeat IPC: 0.757108 cumulative IPC: 0.756754 (Simulation time: 0 hr 18 min 15 sec) 
Heartbeat CPU 0 instructions: 390000000 cycles: 449125200 heartbeat IPC: 0.7587 cumulative IPC: 0.756821 (Simulation time: 0 hr 18 min 44 sec) 
Heartbeat CPU 0 instructions: 400000000 cycles: 462318647 heartbeat IPC: 0.757952 cumulative IPC: 0.756858 (Simulation time: 0 hr 19 min 14 sec) 
Heartbeat CPU 0 instructions: 410000001 cycles: 475573596 heartbeat IPC: 0.754435 cumulative IPC: 0.75678 (Simulation time: 0 hr 19 min 44 sec) 
Heartbeat CPU 0 instructions: 420000000 cycles: 488753687 heartbeat IPC: 0.75872 cumulative IPC: 0.75684 (Simulation time: 0 hr 20 min 13 sec) 
Heartbeat CPU 0 instructions: 430000001 cycles: 501944240 heartbeat IPC: 0.758118 cumulative IPC: 0.756879 (Simulation time: 0 hr 20 min 43 sec) 
Heartbeat CPU 0 instructions: 440000000 cycles: 515112091 heartbeat IPC: 0.759425 cumulative IPC: 0.756954 (Simulation time: 0 hr 21 min 13 sec) 
Heartbeat CPU 0 instructions: 450000002 cycles: 528422169 heartbeat IPC: 0.751311 cumulative IPC: 0.756791 (Simulation time: 0 hr 21 min 42 sec) 
Heartbeat CPU 0 instructions: 460000000 cycles: 541641744 heartbeat IPC: 0.756454 cumulative IPC: 0.756782 (Simulation time: 0 hr 22 min 12 sec) 
Heartbeat CPU 0 instructions: 470000003 cycles: 554840905 heartbeat IPC: 0.757624 cumulative IPC: 0.756805 (Simulation time: 0 hr 22 min 42 sec) 
Heartbeat CPU 0 instructions: 480000000 cycles: 568086505 heartbeat IPC: 0.754967 cumulative IPC: 0.756756 (Simulation time: 0 hr 23 min 11 sec) 
Heartbeat CPU 0 instructions: 490000000 cycles: 581301939 heartbeat IPC: 0.756691 cumulative IPC: 0.756755 (Simulation time: 0 hr 23 min 41 sec) 
Heartbeat CPU 0 instructions: 500000000 cycles: 594498363 heartbeat IPC: 0.757781 cumulative IPC: 0.75678 (Simulation time: 0 hr 24 min 11 sec) 
Heartbeat CPU 0 instructions: 510000001 cycles: 607669473 heartbeat IPC: 0.759238 cumulative IPC: 0.75684 (Simulation time: 0 hr 24 min 40 sec) 
Heartbeat CPU 0 instructions: 520000000 cycles: 620942900 heartbeat IPC: 0.753385 cumulative IPC: 0.756757 (Simulation time: 0 hr 25 min 10 sec) 
Heartbeat CPU 0 instructions: 530000000 cycles: 634191101 heartbeat IPC: 0.754819 cumulative IPC: 0.756712 (Simulation time: 0 hr 25 min 40 sec) 
Heartbeat CPU 0 instructions: 540000000 cycles: 647418240 heartbeat IPC: 0.756021 cumulative IPC: 0.756696 (Simulation time: 0 hr 26 min 9 sec) 
Heartbeat CPU 0 instructions: 550000002 cycles: 660674594 heartbeat IPC: 0.754355 cumulative IPC: 0.756644 (Simulation time: 0 hr 26 min 39 sec) 
Heartbeat CPU 0 instructions: 560000000 cycles: 673863758 heartbeat IPC: 0.758198 cumulative IPC: 0.756678 (Simulation time: 0 hr 27 min 9 sec) 
Heartbeat CPU 0 instructions: 570000001 cycles: 687062875 heartbeat IPC: 0.757627 cumulative IPC: 0.756698 (Simulation time: 0 hr 27 min 38 sec) 
Heartbeat CPU 0 instructions: 580000000 cycles: 700266471 heartbeat IPC: 0.757369 cumulative IPC: 0.756712 (Simulation time: 0 hr 28 min 8 sec) 
Heartbeat CPU 0 instructions: 590000003 cycles: 713505178 heartbeat IPC: 0.755361 cumulative IPC: 0.756684 (Simulation time: 0 hr 28 min 37 sec) 
Heartbeat CPU 0 instructions: 600000000 cycles: 726759351 heartbeat IPC: 0.754479 cumulative IPC: 0.75664 (Simulation time: 0 hr 29 min 6 sec) 
Finished CPU 0 instructions: 500000000 cycles: 660816033 cumulative IPC: 0.75664 (Simulation time: 0 hr 29 min 6 sec) 

CPU 0 Branch Prediction Accuracy: 99.968% MPKI: 0.002246
Number of Branches: 3513331 Number of Mispredictions: 1123
Number of LOAD Instructions: 287251172
Number of LOAD Instructions (ROI): 287251172
Number of STORE Instructions: 51060820
Number of STORE Instructions (ROI): 51060820
Total Destination Memory Operands: 51166221
Total Destination Memory Operands (ROI): 51166221
Total Source Memory Operands: 287251172
Total Source Memory Operands (ROI): 287251172
Number of DEPENDED LOADS: 9555470
Number of DEPENDED LOADS (ROI): 9555470
Number of SQ_ADDED: 51166208
Number of SQ_ADDED (ROI): 51166208
Number of LQ_ADDED: 290419970
Number of LQ_ADDED (ROI): 290419970
Number of Instructions read from trace: 600000257

ChampSim completed all CPUs

Region of Interest Statistics

CPU 0 cumulative IPC: 0.75664 instructions: 500000000 cycles: 660816033
ITLB TOTAL     ACCESS:  108949583  HIT:  108949583  MISS:          0
ITLB LOAD      ACCESS:  108949583  HIT:  108949583  MISS:          0
ITLB RFO       ACCESS:          0  HIT:          0  MISS:          0
ITLB PREFETCH  ACCESS:          0  HIT:          0  MISS:          0
ITLB WRITEBACK ACCESS:          0  HIT:          0  MISS:          0
ITLB PREFETCH  REQUESTED:          0  ISSUED:          0  USEFUL:          0  USELESS:          0
ITLB TOTAL MSHR MERGED:          0
ITLB LOAD MSHR MERGED:          0
ITLB RFO MSHR MERGED:          0
ITLB PREFETCH MSHR MERGED:          0
ITLB WRITEBACK MSHR MERGED:          0
ITLB TOTAL ACCESSES:  108949583 HITS:  108949583 MISSES:          0
ITLB LOAD ACCESSES:  108949583 HITS:  108949583 MISSES:          0
ITLB RFO ACCESSES:          0 HITS:          0 MISSES:          0
ITLB PREFETCH ACCESSES:          0 HITS:          0 MISSES:          0
ITLB WRITEBACK ACCESSES:          0 HITS:          0 MISSES:          0
ITLB RQ ACCESS:  500000001
ITLB RQ TO_CACHE:  108949583
ITLB RQ MERGED:  391050418
ITLB RQ FORWARD:          0
ITLB WQ ACCESS:          0
ITLB WQ TO_CACHE:          0
ITLB WQ MERGED:          0
ITLB WQ FORWARD:          0
DTLB TOTAL     ACCESS:  171130825  HIT:  161114533  MISS:   10016292
DTLB LOAD      ACCESS:  143471564  HIT:  135595522  MISS:    7876042
DTLB RFO       ACCESS:   27659261  HIT:   25519011  MISS:    2140250
DTLB PREFETCH  ACCESS:          0  HIT:          0  MISS:          0
DTLB WRITEBACK ACCESS:          0  HIT:          0  MISS:          0
DTLB PREFETCH  REQUESTED:          0  ISSUED:          0  USEFUL:          0  USELESS:          0
DTLB TOTAL MSHR MERGED:     360438
DTLB LOAD MSHR MERGED:     360438
DTLB RFO MSHR MERGED:          0
DTLB PREFETCH MSHR MERGED:          0
DTLB WRITEBACK MSHR MERGED:          0
DTLB TOTAL ACCESSES:  171491263 HITS:  161114533 MISSES:   10376730
DTLB LOAD ACCESSES:  143832002 HITS:  135595522 MISSES:    8236480
DTLB RFO ACCESSES:   27659261 HITS:   25519011 MISSES:    2140250
DTLB PREFETCH ACCESSES:          0 HITS:          0 MISSES:          0
DTLB WRITEBACK ACCESSES:          0 HITS:          0 MISSES:          0
DTLB RQ ACCESS:  274072347
DTLB RQ TO_CACHE:  171491263
DTLB RQ MERGED:  102581084
DTLB RQ FORWARD:          0
DTLB WQ ACCESS:          0
DTLB WQ TO_CACHE:          0
DTLB WQ MERGED:          0
DTLB WQ FORWARD:          0
L1D TOTAL     ACCESS:  350945750  HIT:  283746503  MISS:   67199247
L1D LOAD      ACCESS:  175627014  HIT:  142587799  MISS:   33039215
L1D RFO       ACCESS:   42020009  HIT:   39214456  MISS:    2805553
L1D PREFETCH  ACCESS:  133298727  HIT:  101944248  MISS:   31354479
L1D WRITEBACK ACCESS:          0  HIT:          0  MISS:          0
L1D PREFETCH  REQUESTED:  176230941  ISSUED:  175292802  USEFUL:    2180607  USELESS:   29173874
L1D TOTAL MSHR MERGED:    1482548
L1D LOAD MSHR MERGED:     703845
L1D RFO MSHR MERGED:     349094
L1D PREFETCH MSHR MERGED:     429609
L1D WRITEBACK MSHR MERGED:          0
L1D TOTAL ACCESSES:  352540749 HITS:  283858954 MISSES:   68681795
L1D LOAD ACCESSES:  176237458 HITS:  142594316 MISSES:   33643142
L1D RFO ACCESSES:   42368427 HITS:   39214456 MISSES:    3153971
L1D PREFETCH ACCESSES:  133934864 HITS:  102050182 MISSES:   31884682
L1D WRITEBACK ACCESSES:          0 HITS:          0 MISSES:          0
L1D RQ ACCESS:  231433874
L1D RQ TO_CACHE:  176230941
L1D RQ MERGED:   55196416
L1D RQ FORWARD:          0
L1D WQ ACCESS:   42638475
L1D WQ TO_CACHE:   42368427
L1D WQ MERGED:     270048
L1D WQ FORWARD:     112451
L1I TOTAL     ACCESS:  109343283  HIT:   77827579  MISS:   31515704
L1I LOAD      ACCESS:  109343283  HIT:   77827579  MISS:   31515704
L1I RFO       ACCESS:          0  HIT:          0  MISS:          0
L1I PREFETCH  ACCESS:          0  HIT:          0  MISS:          0
L1I WRITEBACK ACCESS:          0  HIT:          0  MISS:          0
L1I PREFETCH  REQUESTED:          0  ISSUED:          0  USEFUL:          0  USELESS:          0
L1I TOTAL MSHR MERGED:   30750056
L1I LOAD MSHR MERGED:   30750056
L1I RFO MSHR MERGED:          0
L1I PREFETCH MSHR MERGED:          0
L1I WRITEBACK MSHR MERGED:          0
L1I TOTAL ACCESSES:  140093341 HITS:   77827579 MISSES:   62265762
L1I LOAD ACCESSES:  140093341 HITS:   77827579 MISSES:   62265762
L1I RFO ACCESSES:          0 HITS:          0 MISSES:          0
L1I PREFETCH ACCESSES:          0 HITS:          0 MISSES:          0
L1I WRITEBACK ACCESSES:          0 HITS:          0 MISSES:          0
L1I RQ ACCESS:  500000003
L1I RQ TO_CACHE:  140093341
L1I RQ MERGED:  359906662
L1I RQ FORWARD:          0
L1I WQ ACCESS:          0
L1I WQ TO_CACHE:          0
L1I WQ MERGED:          0
L1I WQ FORWARD:          0
L2C TOTAL     ACCESS:  113696888  HIT:  110694844  MISS:    3002044
L2C LOAD      ACCESS:   64453144  HIT:   63892626  MISS:     560518
L2C RFO       ACCESS:    2802971  HIT:    2193475  MISS:     609496
L2C PREFETCH  ACCESS:   43279797  HIT:   41454031  MISS:    1825766
L2C WRITEBACK ACCESS:    3160976  HIT:    3154712  MISS:       6264
L2C PREFETCH  REQUESTED:   15134589  ISSUED:   14619943  USEFUL:    1700911  USELESS:     124868
L2C TOTAL MSHR MERGED:      12834
L2C LOAD MSHR MERGED:          0
L2C RFO MSHR MERGED:          0
L2C PREFETCH MSHR MERGED:      12834
L2C WRITEBACK MSHR MERGED:          0
L2C TOTAL ACCESSES:  113904406 HITS:  110700706 MISSES:    3203700
L2C LOAD ACCESSES:   64455002 HITS:   63894483 MISSES:     560519
L2C RFO ACCESSES:    2804877 HITS:    2195381 MISSES:     609496
L2C PREFETCH ACCESSES:   43483551 HITS:   41456130 MISSES:    2027421
L2C WRITEBACK ACCESSES:    3160976 HITS:    3154712 MISSES:       6264
L2C RQ ACCESS:   67259880
L2C RQ TO_CACHE:   67256117
L2C RQ MERGED:          0
L2C RQ FORWARD:          0
L2C WQ ACCESS:    3160976
L2C WQ TO_CACHE:    3160976
L2C WQ MERGED:          0
L2C WQ FORWARD:       5862
LLC TOTAL     ACCESS:    3715610  HIT:    1831445  MISS:    1884165
LLC LOAD      ACCESS:     560490  HIT:     496372  MISS:      64118
LLC RFO       ACCESS:     527396  HIT:     239293  MISS:     288103
LLC PREFETCH  ACCESS:    2009216  HIT:     627242  MISS:    1381974
LLC WRITEBACK ACCESS:     618508  HIT:     468538  MISS:     149970
LLC PREFETCH  REQUESTED:          0  ISSUED:          0  USEFUL:      43650  USELESS:    1332632
LLC TOTAL MSHR MERGED:       4679
LLC LOAD MSHR MERGED:          0
LLC RFO MSHR MERGED:          0
LLC PREFETCH MSHR MERGED:       4679
LLC WRITEBACK MSHR MERGED:          0
LLC TOTAL ACCESSES:    3802505 HITS:    1913661 MISSES:    1888844
LLC LOAD ACCESSES:     560518 HITS:     496400 MISSES:      64118
LLC RFO ACCESSES:     609496 HITS:     321393 MISSES:     288103
LLC PREFETCH ACCESSES:    2013983 HITS:     627330 MISSES:    1386653
LLC WRITEBACK ACCESSES:     618508 HITS:     468538 MISSES:     149970
LLC 0 RQ ACCESS:    1170015
LLC 0 RQ TO_CACHE:    1087887
LLC 0 RQ MERGED:          0
LLC 0 RQ FORWARD:          0
LLC WQ ACCESS:     618508
LLC WQ TO_CACHE:     618508
LLC WQ MERGED:          0
LLC WQ FORWARD:      82216
Major fault: 0 Minor fault: 12800
CPU 0 L1D next line prefetcher final stats
CPU 0 L2C PC-based stride prefetcher final stats
All Misses: 2285595
All Hits: 2280965
SD Algo Stats - Switches: 0 SRR-Repls: 81746 BRR-Repls: 0

DRAM Statistics
 CHANNEL 0
 RQ ROW_BUFFER_HIT:     856425  ROW_BUFFER_MISS:     877767
 DBUS_CONGESTED:     922410
 WQ ROW_BUFFER_HIT:      29978  ROW_BUFFER_MISS:     261232  FULL:          0

 AVG_CONGESTED_CYCLE: 13
LOADS RETIRED: 239375970
INSTR RETIRED: 500000000
