
*** ChampSim Multicore Out-of-Order Simulator ***

Warmup Instructions: 100000000
Simulation Instructions: 500000000
Number of CPUs: 1
LLC sets: 2048
LLC ways: 16
Clean RRIP Policies: 113202201132022 Dirty RRIP Policies: 2113101221131012 PSEL Width: 10 Track Set: 4294967295 PSEL Mask: 1 Demote Mask: 421112204211122DS Algo: 0Window size: 0
Off-chip DRAM Size: 4096 MB Channels: 1 Width: 64-bit Data Rate: 1600 MT/s

CPU 0 runs /mnt/beegfs/iconst01/spec2017/Fotonik3d.trace.gz
NOT SORTED
TRACE STRING: /mnt/beegfs/iconst01/spec2017/Fotonik3d.trace.gz
SORTED
TRACE STRING: /mnt/beegfs/iconst01/spec2017/Fotonik3d.trace.gz
INITIAL
TRACE STRING: /mnt/beegfs/iconst01/spec2017/Fotonik3d.trace.gz

champsim_seed used: 881

CPU 0 L1D next line prefetcher
CPU 0 L2C IP-based stride prefetcher
Initialize DRRIP state
Assign rand_sets[0]: 454  LLC: 2048
rand_sets[0]: 454
Assign rand_sets[1]: 1662  LLC: 2048
rand_sets[1]: 1662
Assign rand_sets[2]: 1921  LLC: 2048
rand_sets[2]: 1921
Assign rand_sets[3]: 1131  LLC: 2048
rand_sets[3]: 1131
Assign rand_sets[4]: 331  LLC: 2048
rand_sets[4]: 331
Assign rand_sets[5]: 1531  LLC: 2048
rand_sets[5]: 1531
Assign rand_sets[6]: 482  LLC: 2048
rand_sets[6]: 482
Assign rand_sets[7]: 1275  LLC: 2048
rand_sets[7]: 1275
Assign rand_sets[8]: 1876  LLC: 2048
rand_sets[8]: 1876
Assign rand_sets[9]: 2038  LLC: 2048
rand_sets[9]: 2038
Assign rand_sets[10]: 701  LLC: 2048
rand_sets[10]: 701
Assign rand_sets[11]: 479  LLC: 2048
rand_sets[11]: 479
Assign rand_sets[12]: 892  LLC: 2048
rand_sets[12]: 892
Assign rand_sets[13]: 1820  LLC: 2048
rand_sets[13]: 1820
Assign rand_sets[14]: 1505  LLC: 2048
rand_sets[14]: 1505
Assign rand_sets[15]: 1159  LLC: 2048
rand_sets[15]: 1159
Assign rand_sets[16]: 513  LLC: 2048
rand_sets[16]: 513
Assign rand_sets[17]: 703  LLC: 2048
rand_sets[17]: 703
Assign rand_sets[18]: 561  LLC: 2048
rand_sets[18]: 561
Assign rand_sets[19]: 990  LLC: 2048
rand_sets[19]: 990
Assign rand_sets[20]: 342  LLC: 2048
rand_sets[20]: 342
Assign rand_sets[21]: 882  LLC: 2048
rand_sets[21]: 882
Assign rand_sets[22]: 15  LLC: 2048
rand_sets[22]: 15
Assign rand_sets[23]: 71  LLC: 2048
rand_sets[23]: 71
Assign rand_sets[24]: 1127  LLC: 2048
rand_sets[24]: 1127
Assign rand_sets[25]: 1382  LLC: 2048
rand_sets[25]: 1382
Assign rand_sets[26]: 647  LLC: 2048
rand_sets[26]: 647
Assign rand_sets[27]: 857  LLC: 2048
rand_sets[27]: 857
Assign rand_sets[28]: 1450  LLC: 2048
rand_sets[28]: 1450
Assign rand_sets[29]: 1160  LLC: 2048
rand_sets[29]: 1160
Assign rand_sets[30]: 1852  LLC: 2048
rand_sets[30]: 1852
Assign rand_sets[31]: 1881  LLC: 2048
rand_sets[31]: 1881
Assign rand_sets[32]: 1770  LLC: 2048
rand_sets[32]: 1770
Assign rand_sets[33]: 1622  LLC: 2048
rand_sets[33]: 1622
Assign rand_sets[34]: 275  LLC: 2048
rand_sets[34]: 275
Assign rand_sets[35]: 635  LLC: 2048
rand_sets[35]: 635
Assign rand_sets[36]: 466  LLC: 2048
rand_sets[36]: 466
Assign rand_sets[37]: 1413  LLC: 2048
rand_sets[37]: 1413
Assign rand_sets[38]: 417  LLC: 2048
rand_sets[38]: 417
Assign rand_sets[39]: 472  LLC: 2048
rand_sets[39]: 472
Assign rand_sets[40]: 1340  LLC: 2048
rand_sets[40]: 1340
Assign rand_sets[41]: 852  LLC: 2048
rand_sets[41]: 852
Assign rand_sets[42]: 1365  LLC: 2048
rand_sets[42]: 1365
Assign rand_sets[43]: 47  LLC: 2048
rand_sets[43]: 47
Assign rand_sets[44]: 823  LLC: 2048
rand_sets[44]: 823
Assign rand_sets[45]: 686  LLC: 2048
rand_sets[45]: 686
Assign rand_sets[46]: 1637  LLC: 2048
rand_sets[46]: 1637
Assign rand_sets[47]: 1115  LLC: 2048
rand_sets[47]: 1115
Assign rand_sets[48]: 986  LLC: 2048
rand_sets[48]: 986
Assign rand_sets[49]: 258  LLC: 2048
rand_sets[49]: 258
Assign rand_sets[50]: 633  LLC: 2048
rand_sets[50]: 633
Assign rand_sets[51]: 920  LLC: 2048
rand_sets[51]: 920
Assign rand_sets[52]: 204  LLC: 2048
rand_sets[52]: 204
Assign rand_sets[53]: 227  LLC: 2048
rand_sets[53]: 227
Assign rand_sets[54]: 1818  LLC: 2048
rand_sets[54]: 1818
Assign rand_sets[55]: 886  LLC: 2048
rand_sets[55]: 886
Assign rand_sets[56]: 1422  LLC: 2048
rand_sets[56]: 1422
Assign rand_sets[57]: 607  LLC: 2048
rand_sets[57]: 607
Assign rand_sets[58]: 217  LLC: 2048
rand_sets[58]: 217
Assign rand_sets[59]: 1945  LLC: 2048
rand_sets[59]: 1945
Assign rand_sets[60]: 143  LLC: 2048
rand_sets[60]: 143
Assign rand_sets[61]: 1311  LLC: 2048
rand_sets[61]: 1311
Assign rand_sets[62]: 319  LLC: 2048
rand_sets[62]: 319
Assign rand_sets[63]: 1846  LLC: 2048
rand_sets[63]: 1846
 CLEAN-RRIP-POLICY-1: 0-1-1-3-2-0-2-2- CLEAN-RRIP-POLICY-2: 0-1-1-3-2-0-2-2-
 DIRTY-RRIP-POLICY-1: 2-1-1-3-1-0-1-2- DIRTY-RRIP-POLICY-2: 2-1-1-3-1-0-1-2-
 PSEL width: 10
Heartbeat CPU 0 instructions: 10000002 cycles: 7306823 heartbeat IPC: 1.36858 cumulative IPC: 1.36858 (Simulation time: 0 hr 0 min 23 sec) 
Heartbeat CPU 0 instructions: 20000000 cycles: 14613844 heartbeat IPC: 1.36855 cumulative IPC: 1.36857 (Simulation time: 0 hr 0 min 47 sec) 
Heartbeat CPU 0 instructions: 30000001 cycles: 21920768 heartbeat IPC: 1.36857 cumulative IPC: 1.36857 (Simulation time: 0 hr 1 min 10 sec) 
Heartbeat CPU 0 instructions: 40000000 cycles: 29227561 heartbeat IPC: 1.36859 cumulative IPC: 1.36857 (Simulation time: 0 hr 1 min 34 sec) 
Heartbeat CPU 0 instructions: 50000001 cycles: 36534316 heartbeat IPC: 1.3686 cumulative IPC: 1.36858 (Simulation time: 0 hr 1 min 58 sec) 
Heartbeat CPU 0 instructions: 60000000 cycles: 43841327 heartbeat IPC: 1.36855 cumulative IPC: 1.36857 (Simulation time: 0 hr 2 min 21 sec) 
Heartbeat CPU 0 instructions: 70000002 cycles: 51148151 heartbeat IPC: 1.36858 cumulative IPC: 1.36857 (Simulation time: 0 hr 2 min 45 sec) 
Heartbeat CPU 0 instructions: 80000000 cycles: 58454922 heartbeat IPC: 1.36859 cumulative IPC: 1.36858 (Simulation time: 0 hr 3 min 8 sec) 
Heartbeat CPU 0 instructions: 90000003 cycles: 65765537 heartbeat IPC: 1.36787 cumulative IPC: 1.3685 (Simulation time: 0 hr 3 min 32 sec) 
Heartbeat CPU 0 instructions: 100000000 cycles: 73076167 heartbeat IPC: 1.36787 cumulative IPC: 1.36844 (Simulation time: 0 hr 3 min 56 sec) 

Warmup complete CPU 0 instructions: 100000002 cycles: 73076179 (Simulation time: 0 hr 3 min 56 sec) 

Heartbeat CPU 0 instructions: 110000001 cycles: 85598443 heartbeat IPC: 0.798577 cumulative IPC: 0.798578 (Simulation time: 0 hr 4 min 24 sec) 
Heartbeat CPU 0 instructions: 120000000 cycles: 98063318 heartbeat IPC: 0.802254 cumulative IPC: 0.800412 (Simulation time: 0 hr 4 min 52 sec) 
Heartbeat CPU 0 instructions: 130000000 cycles: 110577654 heartbeat IPC: 0.799084 cumulative IPC: 0.799968 (Simulation time: 0 hr 5 min 20 sec) 
Heartbeat CPU 0 instructions: 140000000 cycles: 123071671 heartbeat IPC: 0.800383 cumulative IPC: 0.800072 (Simulation time: 0 hr 5 min 48 sec) 
Heartbeat CPU 0 instructions: 150000000 cycles: 135519126 heartbeat IPC: 0.803377 cumulative IPC: 0.800731 (Simulation time: 0 hr 6 min 17 sec) 
Heartbeat CPU 0 instructions: 160000000 cycles: 148021358 heartbeat IPC: 0.799857 cumulative IPC: 0.800585 (Simulation time: 0 hr 6 min 45 sec) 
Heartbeat CPU 0 instructions: 170000001 cycles: 160529134 heartbeat IPC: 0.799503 cumulative IPC: 0.80043 (Simulation time: 0 hr 7 min 13 sec) 
Heartbeat CPU 0 instructions: 180000000 cycles: 173036196 heartbeat IPC: 0.799548 cumulative IPC: 0.80032 (Simulation time: 0 hr 7 min 41 sec) 
Heartbeat CPU 0 instructions: 190000000 cycles: 185568354 heartbeat IPC: 0.797947 cumulative IPC: 0.800056 (Simulation time: 0 hr 8 min 10 sec) 
Heartbeat CPU 0 instructions: 200000000 cycles: 198060743 heartbeat IPC: 0.800487 cumulative IPC: 0.800099 (Simulation time: 0 hr 8 min 38 sec) 
Heartbeat CPU 0 instructions: 210000002 cycles: 210587375 heartbeat IPC: 0.798299 cumulative IPC: 0.799935 (Simulation time: 0 hr 9 min 6 sec) 
Heartbeat CPU 0 instructions: 220000000 cycles: 223133958 heartbeat IPC: 0.79703 cumulative IPC: 0.799692 (Simulation time: 0 hr 9 min 35 sec) 
Heartbeat CPU 0 instructions: 230000002 cycles: 235632809 heartbeat IPC: 0.800074 cumulative IPC: 0.799721 (Simulation time: 0 hr 10 min 3 sec) 
Heartbeat CPU 0 instructions: 240000000 cycles: 248853294 heartbeat IPC: 0.756402 cumulative IPC: 0.796463 (Simulation time: 0 hr 10 min 32 sec) 
Heartbeat CPU 0 instructions: 250000001 cycles: 266898952 heartbeat IPC: 0.55415 cumulative IPC: 0.773903 (Simulation time: 0 hr 11 min 3 sec) 
Heartbeat CPU 0 instructions: 260000000 cycles: 284890510 heartbeat IPC: 0.555816 cumulative IPC: 0.755379 (Simulation time: 0 hr 11 min 34 sec) 
Heartbeat CPU 0 instructions: 270000000 cycles: 302948816 heartbeat IPC: 0.553762 cumulative IPC: 0.73954 (Simulation time: 0 hr 12 min 6 sec) 
Heartbeat CPU 0 instructions: 280000000 cycles: 320943690 heartbeat IPC: 0.555714 cumulative IPC: 0.726194 (Simulation time: 0 hr 12 min 37 sec) 
Heartbeat CPU 0 instructions: 290000001 cycles: 351109843 heartbeat IPC: 0.331497 cumulative IPC: 0.68337 (Simulation time: 0 hr 13 min 16 sec) 
Heartbeat CPU 0 instructions: 300000000 cycles: 390584452 heartbeat IPC: 0.253327 cumulative IPC: 0.629905 (Simulation time: 0 hr 14 min 1 sec) 
Heartbeat CPU 0 instructions: 310000000 cycles: 407996344 heartbeat IPC: 0.57432 cumulative IPC: 0.627015 (Simulation time: 0 hr 14 min 32 sec) 
Heartbeat CPU 0 instructions: 320000000 cycles: 425369549 heartbeat IPC: 0.575599 cumulative IPC: 0.62448 (Simulation time: 0 hr 15 min 2 sec) 
Heartbeat CPU 0 instructions: 330000003 cycles: 442811650 heartbeat IPC: 0.573326 cumulative IPC: 0.622066 (Simulation time: 0 hr 15 min 33 sec) 
Heartbeat CPU 0 instructions: 340000000 cycles: 460194618 heartbeat IPC: 0.575276 cumulative IPC: 0.619965 (Simulation time: 0 hr 16 min 3 sec) 
Heartbeat CPU 0 instructions: 350000001 cycles: 475615830 heartbeat IPC: 0.648458 cumulative IPC: 0.621057 (Simulation time: 0 hr 16 min 32 sec) 
Heartbeat CPU 0 instructions: 360000000 cycles: 487449945 heartbeat IPC: 0.845015 cumulative IPC: 0.627453 (Simulation time: 0 hr 16 min 58 sec) 
Heartbeat CPU 0 instructions: 370000002 cycles: 499094840 heartbeat IPC: 0.858746 cumulative IPC: 0.633775 (Simulation time: 0 hr 17 min 24 sec) 
Heartbeat CPU 0 instructions: 380000000 cycles: 510965908 heartbeat IPC: 0.842384 cumulative IPC: 0.63943 (Simulation time: 0 hr 17 min 51 sec) 
Heartbeat CPU 0 instructions: 390000003 cycles: 524297161 heartbeat IPC: 0.750117 cumulative IPC: 0.642701 (Simulation time: 0 hr 18 min 18 sec) 
Heartbeat CPU 0 instructions: 400000000 cycles: 536597834 heartbeat IPC: 0.812963 cumulative IPC: 0.647219 (Simulation time: 0 hr 18 min 45 sec) 
Heartbeat CPU 0 instructions: 410000003 cycles: 548607917 heartbeat IPC: 0.832634 cumulative IPC: 0.651902 (Simulation time: 0 hr 19 min 12 sec) 
Heartbeat CPU 0 instructions: 420000000 cycles: 561489516 heartbeat IPC: 0.776301 cumulative IPC: 0.655183 (Simulation time: 0 hr 19 min 38 sec) 
Heartbeat CPU 0 instructions: 430000003 cycles: 580098247 heartbeat IPC: 0.537382 cumulative IPC: 0.650859 (Simulation time: 0 hr 20 min 3 sec) 
Heartbeat CPU 0 instructions: 440000000 cycles: 598761864 heartbeat IPC: 0.535802 cumulative IPC: 0.646774 (Simulation time: 0 hr 20 min 27 sec) 
Heartbeat CPU 0 instructions: 450000003 cycles: 617471631 heartbeat IPC: 0.53448 cumulative IPC: 0.642915 (Simulation time: 0 hr 20 min 51 sec) 
Heartbeat CPU 0 instructions: 460000000 cycles: 636133092 heartbeat IPC: 0.535864 cumulative IPC: 0.639367 (Simulation time: 0 hr 21 min 16 sec) 
Heartbeat CPU 0 instructions: 470000003 cycles: 654805085 heartbeat IPC: 0.535562 cumulative IPC: 0.636035 (Simulation time: 0 hr 21 min 40 sec) 
Heartbeat CPU 0 instructions: 480000000 cycles: 673494710 heartbeat IPC: 0.535056 cumulative IPC: 0.632892 (Simulation time: 0 hr 22 min 4 sec) 
Heartbeat CPU 0 instructions: 490000003 cycles: 692212292 heartbeat IPC: 0.534257 cumulative IPC: 0.62991 (Simulation time: 0 hr 22 min 29 sec) 
Heartbeat CPU 0 instructions: 500000000 cycles: 710840082 heartbeat IPC: 0.536832 cumulative IPC: 0.627191 (Simulation time: 0 hr 22 min 53 sec) 
Heartbeat CPU 0 instructions: 510000003 cycles: 729529759 heartbeat IPC: 0.535055 cumulative IPC: 0.624568 (Simulation time: 0 hr 23 min 17 sec) 
Heartbeat CPU 0 instructions: 520000000 cycles: 748193656 heartbeat IPC: 0.535794 cumulative IPC: 0.622114 (Simulation time: 0 hr 23 min 42 sec) 
Heartbeat CPU 0 instructions: 530000001 cycles: 766885397 heartbeat IPC: 0.534996 cumulative IPC: 0.619767 (Simulation time: 0 hr 24 min 6 sec) 
Heartbeat CPU 0 instructions: 540000000 cycles: 785503547 heartbeat IPC: 0.53711 cumulative IPC: 0.617607 (Simulation time: 0 hr 24 min 31 sec) 
Heartbeat CPU 0 instructions: 550000001 cycles: 804116567 heartbeat IPC: 0.537258 cumulative IPC: 0.615561 (Simulation time: 0 hr 24 min 55 sec) 
Heartbeat CPU 0 instructions: 560000000 cycles: 822734195 heartbeat IPC: 0.537125 cumulative IPC: 0.613613 (Simulation time: 0 hr 25 min 19 sec) 
Heartbeat CPU 0 instructions: 570000001 cycles: 841356544 heartbeat IPC: 0.536989 cumulative IPC: 0.611756 (Simulation time: 0 hr 25 min 44 sec) 
Heartbeat CPU 0 instructions: 580000000 cycles: 859890604 heartbeat IPC: 0.539547 cumulative IPC: 0.610055 (Simulation time: 0 hr 26 min 8 sec) 
Heartbeat CPU 0 instructions: 590000001 cycles: 878490818 heartbeat IPC: 0.537628 cumulative IPC: 0.608382 (Simulation time: 0 hr 26 min 32 sec) 
Heartbeat CPU 0 instructions: 600000000 cycles: 897115432 heartbeat IPC: 0.536924 cumulative IPC: 0.606767 (Simulation time: 0 hr 26 min 57 sec) 
Finished CPU 0 instructions: 500000002 cycles: 824039267 cumulative IPC: 0.606767 (Simulation time: 0 hr 26 min 57 sec) 

CPU 0 Branch Prediction Accuracy: 99.5931% MPKI: 0.08288
Number of Branches: 10184133 Number of Mispredictions: 41440
Number of LOAD Instructions: 261155957
Number of LOAD Instructions (ROI): 261155957
Number of STORE Instructions: 57884062
Number of STORE Instructions (ROI): 57884062
Total Destination Memory Operands: 83293336
Total Destination Memory Operands (ROI): 83293336
Total Source Memory Operands: 261155957
Total Source Memory Operands (ROI): 261155957
Number of DEPENDED LOADS: 22256434
Number of DEPENDED LOADS (ROI): 22256434
Number of SQ_ADDED: 83293300
Number of SQ_ADDED (ROI): 83293300
Number of LQ_ADDED: 1779428023
Number of LQ_ADDED (ROI): 1779428023
Number of Instructions read from trace: 600000257

ChampSim completed all CPUs

Region of Interest Statistics

CPU 0 cumulative IPC: 0.606767 instructions: 500000002 cycles: 824039267
ITLB TOTAL     ACCESS:   94888216  HIT:   94888178  MISS:         38
ITLB LOAD      ACCESS:   94888216  HIT:   94888178  MISS:         38
ITLB RFO       ACCESS:          0  HIT:          0  MISS:          0
ITLB PREFETCH  ACCESS:          0  HIT:          0  MISS:          0
ITLB WRITEBACK ACCESS:          0  HIT:          0  MISS:          0
ITLB PREFETCH  REQUESTED:          0  ISSUED:          0  USEFUL:          0  USELESS:          0
ITLB TOTAL MSHR MERGED:         93
ITLB LOAD MSHR MERGED:         93
ITLB RFO MSHR MERGED:          0
ITLB PREFETCH MSHR MERGED:          0
ITLB WRITEBACK MSHR MERGED:          0
ITLB TOTAL ACCESSES:   94888309 HITS:   94888178 MISSES:        131
ITLB LOAD ACCESSES:   94888309 HITS:   94888178 MISSES:        131
ITLB RFO ACCESSES:          0 HITS:          0 MISSES:          0
ITLB PREFETCH ACCESSES:          0 HITS:          0 MISSES:          0
ITLB WRITEBACK ACCESSES:          0 HITS:          0 MISSES:          0
ITLB RQ ACCESS:  500000001
ITLB RQ TO_CACHE:   94888310
ITLB RQ MERGED:  405111691
ITLB RQ FORWARD:          0
ITLB WQ ACCESS:          0
ITLB WQ TO_CACHE:          0
ITLB WQ MERGED:          0
ITLB WQ FORWARD:          0
DTLB TOTAL     ACCESS:  149243690  HIT:  148646729  MISS:     596961
DTLB LOAD      ACCESS:  107371046  HIT:  106774096  MISS:     596950
DTLB RFO       ACCESS:   41872644  HIT:   41872633  MISS:         11
DTLB PREFETCH  ACCESS:          0  HIT:          0  MISS:          0
DTLB WRITEBACK ACCESS:          0  HIT:          0  MISS:          0
DTLB PREFETCH  REQUESTED:          0  ISSUED:          0  USEFUL:          0  USELESS:          0
DTLB TOTAL MSHR MERGED:     133843
DTLB LOAD MSHR MERGED:     133843
DTLB RFO MSHR MERGED:          0
DTLB PREFETCH MSHR MERGED:          0
DTLB WRITEBACK MSHR MERGED:          0
DTLB TOTAL ACCESSES:  149377533 HITS:  148646729 MISSES:     730804
DTLB LOAD ACCESSES:  107504889 HITS:  106774096 MISSES:     730793
DTLB RFO ACCESSES:   41872644 HITS:   41872633 MISSES:         11
DTLB PREFETCH ACCESSES:          0 HITS:          0 MISSES:          0
DTLB WRITEBACK ACCESSES:          0 HITS:          0 MISSES:          0
DTLB RQ ACCESS:  259759461
DTLB RQ TO_CACHE:  149377533
DTLB RQ MERGED:  110381928
DTLB RQ FORWARD:          0
DTLB WQ ACCESS:          0
DTLB WQ TO_CACHE:          0
DTLB WQ MERGED:          0
DTLB WQ FORWARD:          0
L1D TOTAL     ACCESS:  261468185  HIT:  245991237  MISS:   15476948
L1D LOAD      ACCESS:  118084427  HIT:  112614014  MISS:    5470413
L1D RFO       ACCESS:   68946771  HIT:   68932364  MISS:      14407
L1D PREFETCH  ACCESS:   74436987  HIT:   64444859  MISS:    9992128
L1D WRITEBACK ACCESS:          0  HIT:          0  MISS:          0
L1D PREFETCH  REQUESTED:  120665706  ISSUED:  119392685  USEFUL:    8042184  USELESS:    1949966
L1D TOTAL MSHR MERGED:   16436628
L1D LOAD MSHR MERGED:    4983425
L1D RFO MSHR MERGED:      21802
L1D PREFETCH MSHR MERGED:   11431401
L1D WRITEBACK MSHR MERGED:          0
L1D TOTAL ACCESSES:  278015044 HITS:  246101468 MISSES:   31913576
L1D LOAD ACCESSES:  120673239 HITS:  112621547 MISSES:    8051692
L1D RFO ACCESSES:   68968572 HITS:   68932364 MISSES:      36208
L1D PREFETCH ACCESSES:   88373233 HITS:   64547557 MISSES:   23825676
L1D WRITEBACK ACCESSES:          0 HITS:          0 MISSES:          0
L1D RQ ACCESS:  190685145
L1D RQ TO_CACHE:  120665706
L1D RQ MERGED:   70011906
L1D RQ FORWARD:          0
L1D WQ ACCESS:   69074336
L1D WQ TO_CACHE:   68968574
L1D WQ MERGED:     105762
L1D WQ FORWARD:     110231
L1I TOTAL     ACCESS:  121770513  HIT:  121769440  MISS:       1073
L1I LOAD      ACCESS:  121770513  HIT:  121769440  MISS:       1073
L1I RFO       ACCESS:          0  HIT:          0  MISS:          0
L1I PREFETCH  ACCESS:          0  HIT:          0  MISS:          0
L1I WRITEBACK ACCESS:          0  HIT:          0  MISS:          0
L1I PREFETCH  REQUESTED:          0  ISSUED:          0  USEFUL:          0  USELESS:          0
L1I TOTAL MSHR MERGED:       1088
L1I LOAD MSHR MERGED:       1088
L1I RFO MSHR MERGED:          0
L1I PREFETCH MSHR MERGED:          0
L1I WRITEBACK MSHR MERGED:          0
L1I TOTAL ACCESSES:  121771601 HITS:  121769440 MISSES:       2161
L1I LOAD ACCESSES:  121771601 HITS:  121769440 MISSES:       2161
L1I RFO ACCESSES:          0 HITS:          0 MISSES:          0
L1I PREFETCH ACCESSES:          0 HITS:          0 MISSES:          0
L1I WRITEBACK ACCESSES:          0 HITS:          0 MISSES:          0
L1I RQ ACCESS:  500000000
L1I RQ TO_CACHE:  121771601
L1I RQ MERGED:  378228399
L1I RQ FORWARD:          0
L1I WQ ACCESS:          0
L1I WQ TO_CACHE:          0
L1I WQ MERGED:          0
L1I WQ FORWARD:          0
L2C TOTAL     ACCESS:   22514317  HIT:    9117874  MISS:   13396443
L2C LOAD      ACCESS:    3069309  HIT:     392598  MISS:    2676711
L2C RFO       ACCESS:      14406  HIT:      13992  MISS:        414
L2C PREFETCH  ACCESS:   12800679  HIT:    2083155  MISS:   10717524
L2C WRITEBACK ACCESS:    6629923  HIT:    6628129  MISS:       1794
L2C PREFETCH  REQUESTED:     635428  ISSUED:     635428  USEFUL:     170507  USELESS:   10547812
L2C TOTAL MSHR MERGED:      59385
L2C LOAD MSHR MERGED:      19582
L2C RFO MSHR MERGED:          0
L2C PREFETCH MSHR MERGED:      39803
L2C WRITEBACK MSHR MERGED:          0
L2C TOTAL ACCESSES:   22707402 HITS:    9117920 MISSES:   13589482
L2C LOAD ACCESSES:    3069340 HITS:     392629 MISSES:    2676711
L2C RFO ACCESSES:      14406 HITS:      13992 MISSES:        414
L2C PREFETCH ACCESSES:   12993733 HITS:    2083170 MISSES:   10910563
L2C WRITEBACK ACCESSES:    6629923 HITS:    6628129 MISSES:       1794
L2C RQ ACCESS:    3083746
L2C RQ TO_CACHE:    3083715
L2C RQ MERGED:          0
L2C RQ FORWARD:          0
L2C WQ ACCESS:    6629923
L2C WQ TO_CACHE:    6629923
L2C WQ MERGED:          0
L2C WQ FORWARD:         46
LLC TOTAL     ACCESS:   20099176  HIT:     895168  MISS:   19204008
LLC LOAD      ACCESS:    2657128  HIT:     172193  MISS:    2484935
LLC RFO       ACCESS:        414  HIT:         11  MISS:        403
LLC PREFETCH  ACCESS:   10850364  HIT:      92682  MISS:   10757682
LLC WRITEBACK ACCESS:    6591270  HIT:     630282  MISS:    5960988
LLC PREFETCH  REQUESTED:          0  ISSUED:          0  USEFUL:      49645  USELESS:   10709334
LLC TOTAL MSHR MERGED:      19080
LLC LOAD MSHR MERGED:       9598
LLC RFO MSHR MERGED:          0
LLC PREFETCH MSHR MERGED:       9482
LLC WRITEBACK MSHR MERGED:          0
LLC TOTAL ACCESSES:   20118259 HITS:     895170 MISSES:   19223089
LLC LOAD ACCESSES:    2657129 HITS:     172194 MISSES:    2484935
LLC RFO ACCESSES:        414 HITS:         11 MISSES:        403
LLC PREFETCH ACCESSES:   10869446 HITS:      92683 MISSES:   10776763
LLC WRITEBACK ACCESSES:    6591270 HITS:     630282 MISSES:    5960988
LLC 0 RQ ACCESS:    2657543
LLC 0 RQ TO_CACHE:    2657542
LLC 0 RQ MERGED:          0
LLC 0 RQ FORWARD:          0
LLC WQ ACCESS:    6591271
LLC WQ TO_CACHE:    6591271
LLC WQ MERGED:          0
LLC WQ FORWARD:          2
Major fault: 0 Minor fault: 183991
CPU 0 L1D next line prefetcher final stats
CPU 0 L2C PC-based stride prefetcher final stats
All Misses: 22109742
All Hits: 920480
SD Algo Stats - Switches: 298 SRR-Repls: 2356780 BRR-Repls: 185164

DRAM Statistics
 CHANNEL 0
 RQ ROW_BUFFER_HIT:    7386642  ROW_BUFFER_MISS:    5856379
 DBUS_CONGESTED:   11386474
 WQ ROW_BUFFER_HIT:     843068  ROW_BUFFER_MISS:    5745062  FULL:          0

 AVG_CONGESTED_CYCLE: 13
LOADS RETIRED: 204440772
INSTR RETIRED: 500000000
