
*** ChampSim Multicore Out-of-Order Simulator ***

Warmup Instructions: 100000000
Simulation Instructions: 500000000
Number of CPUs: 1
LLC sets: 2048
LLC ways: 16
Clean RRIP Policies: 113202201132022 Dirty RRIP Policies: 2113101221131012 PSEL Width: 10 Track Set: 4294967295 PSEL Mask: 1 Demote Mask: 421112204211122DS Algo: 0Window size: 0
Off-chip DRAM Size: 4096 MB Channels: 1 Width: 64-bit Data Rate: 1600 MT/s

CPU 0 runs /mnt/beegfs/iconst01/spec2017/Roms.trace.gz
NOT SORTED
TRACE STRING: /mnt/beegfs/iconst01/spec2017/Roms.trace.gz
SORTED
TRACE STRING: /mnt/beegfs/iconst01/spec2017/Roms.trace.gz
INITIAL
TRACE STRING: /mnt/beegfs/iconst01/spec2017/Roms.trace.gz

champsim_seed used: 417

CPU 0 L1D next line prefetcher
CPU 0 L2C IP-based stride prefetcher
Initialize DRRIP state
Assign rand_sets[0]: 454  LLC: 2048
rand_sets[0]: 454
Assign rand_sets[1]: 1662  LLC: 2048
rand_sets[1]: 1662
Assign rand_sets[2]: 1921  LLC: 2048
rand_sets[2]: 1921
Assign rand_sets[3]: 1131  LLC: 2048
rand_sets[3]: 1131
Assign rand_sets[4]: 331  LLC: 2048
rand_sets[4]: 331
Assign rand_sets[5]: 1531  LLC: 2048
rand_sets[5]: 1531
Assign rand_sets[6]: 482  LLC: 2048
rand_sets[6]: 482
Assign rand_sets[7]: 1275  LLC: 2048
rand_sets[7]: 1275
Assign rand_sets[8]: 1876  LLC: 2048
rand_sets[8]: 1876
Assign rand_sets[9]: 2038  LLC: 2048
rand_sets[9]: 2038
Assign rand_sets[10]: 701  LLC: 2048
rand_sets[10]: 701
Assign rand_sets[11]: 479  LLC: 2048
rand_sets[11]: 479
Assign rand_sets[12]: 892  LLC: 2048
rand_sets[12]: 892
Assign rand_sets[13]: 1820  LLC: 2048
rand_sets[13]: 1820
Assign rand_sets[14]: 1505  LLC: 2048
rand_sets[14]: 1505
Assign rand_sets[15]: 1159  LLC: 2048
rand_sets[15]: 1159
Assign rand_sets[16]: 513  LLC: 2048
rand_sets[16]: 513
Assign rand_sets[17]: 703  LLC: 2048
rand_sets[17]: 703
Assign rand_sets[18]: 561  LLC: 2048
rand_sets[18]: 561
Assign rand_sets[19]: 990  LLC: 2048
rand_sets[19]: 990
Assign rand_sets[20]: 342  LLC: 2048
rand_sets[20]: 342
Assign rand_sets[21]: 882  LLC: 2048
rand_sets[21]: 882
Assign rand_sets[22]: 15  LLC: 2048
rand_sets[22]: 15
Assign rand_sets[23]: 71  LLC: 2048
rand_sets[23]: 71
Assign rand_sets[24]: 1127  LLC: 2048
rand_sets[24]: 1127
Assign rand_sets[25]: 1382  LLC: 2048
rand_sets[25]: 1382
Assign rand_sets[26]: 647  LLC: 2048
rand_sets[26]: 647
Assign rand_sets[27]: 857  LLC: 2048
rand_sets[27]: 857
Assign rand_sets[28]: 1450  LLC: 2048
rand_sets[28]: 1450
Assign rand_sets[29]: 1160  LLC: 2048
rand_sets[29]: 1160
Assign rand_sets[30]: 1852  LLC: 2048
rand_sets[30]: 1852
Assign rand_sets[31]: 1881  LLC: 2048
rand_sets[31]: 1881
Assign rand_sets[32]: 1770  LLC: 2048
rand_sets[32]: 1770
Assign rand_sets[33]: 1622  LLC: 2048
rand_sets[33]: 1622
Assign rand_sets[34]: 275  LLC: 2048
rand_sets[34]: 275
Assign rand_sets[35]: 635  LLC: 2048
rand_sets[35]: 635
Assign rand_sets[36]: 466  LLC: 2048
rand_sets[36]: 466
Assign rand_sets[37]: 1413  LLC: 2048
rand_sets[37]: 1413
Assign rand_sets[38]: 417  LLC: 2048
rand_sets[38]: 417
Assign rand_sets[39]: 472  LLC: 2048
rand_sets[39]: 472
Assign rand_sets[40]: 1340  LLC: 2048
rand_sets[40]: 1340
Assign rand_sets[41]: 852  LLC: 2048
rand_sets[41]: 852
Assign rand_sets[42]: 1365  LLC: 2048
rand_sets[42]: 1365
Assign rand_sets[43]: 47  LLC: 2048
rand_sets[43]: 47
Assign rand_sets[44]: 823  LLC: 2048
rand_sets[44]: 823
Assign rand_sets[45]: 686  LLC: 2048
rand_sets[45]: 686
Assign rand_sets[46]: 1637  LLC: 2048
rand_sets[46]: 1637
Assign rand_sets[47]: 1115  LLC: 2048
rand_sets[47]: 1115
Assign rand_sets[48]: 986  LLC: 2048
rand_sets[48]: 986
Assign rand_sets[49]: 258  LLC: 2048
rand_sets[49]: 258
Assign rand_sets[50]: 633  LLC: 2048
rand_sets[50]: 633
Assign rand_sets[51]: 920  LLC: 2048
rand_sets[51]: 920
Assign rand_sets[52]: 204  LLC: 2048
rand_sets[52]: 204
Assign rand_sets[53]: 227  LLC: 2048
rand_sets[53]: 227
Assign rand_sets[54]: 1818  LLC: 2048
rand_sets[54]: 1818
Assign rand_sets[55]: 886  LLC: 2048
rand_sets[55]: 886
Assign rand_sets[56]: 1422  LLC: 2048
rand_sets[56]: 1422
Assign rand_sets[57]: 607  LLC: 2048
rand_sets[57]: 607
Assign rand_sets[58]: 217  LLC: 2048
rand_sets[58]: 217
Assign rand_sets[59]: 1945  LLC: 2048
rand_sets[59]: 1945
Assign rand_sets[60]: 143  LLC: 2048
rand_sets[60]: 143
Assign rand_sets[61]: 1311  LLC: 2048
rand_sets[61]: 1311
Assign rand_sets[62]: 319  LLC: 2048
rand_sets[62]: 319
Assign rand_sets[63]: 1846  LLC: 2048
rand_sets[63]: 1846
 CLEAN-RRIP-POLICY-1: 0-1-1-3-2-0-2-2- CLEAN-RRIP-POLICY-2: 0-1-1-3-2-0-2-2-
 DIRTY-RRIP-POLICY-1: 2-1-1-3-1-0-1-2- DIRTY-RRIP-POLICY-2: 2-1-1-3-1-0-1-2-
 PSEL width: 10
Heartbeat CPU 0 instructions: 10000000 cycles: 4688066 heartbeat IPC: 2.13308 cumulative IPC: 2.13308 (Simulation time: 0 hr 0 min 16 sec) 
Heartbeat CPU 0 instructions: 20000000 cycles: 9325333 heartbeat IPC: 2.15644 cumulative IPC: 2.1447 (Simulation time: 0 hr 0 min 33 sec) 
Heartbeat CPU 0 instructions: 30000003 cycles: 14019736 heartbeat IPC: 2.1302 cumulative IPC: 2.13984 (Simulation time: 0 hr 0 min 50 sec) 
Heartbeat CPU 0 instructions: 40000000 cycles: 18670166 heartbeat IPC: 2.15034 cumulative IPC: 2.14246 (Simulation time: 0 hr 1 min 6 sec) 
Heartbeat CPU 0 instructions: 50000003 cycles: 23323609 heartbeat IPC: 2.14895 cumulative IPC: 2.14375 (Simulation time: 0 hr 1 min 23 sec) 
Heartbeat CPU 0 instructions: 60000000 cycles: 27976439 heartbeat IPC: 2.14923 cumulative IPC: 2.14466 (Simulation time: 0 hr 1 min 39 sec) 
Heartbeat CPU 0 instructions: 70000002 cycles: 32367863 heartbeat IPC: 2.27717 cumulative IPC: 2.16264 (Simulation time: 0 hr 1 min 53 sec) 
Heartbeat CPU 0 instructions: 80000000 cycles: 36304879 heartbeat IPC: 2.53999 cumulative IPC: 2.20356 (Simulation time: 0 hr 2 min 5 sec) 
Heartbeat CPU 0 instructions: 90000000 cycles: 40250416 heartbeat IPC: 2.53451 cumulative IPC: 2.236 (Simulation time: 0 hr 2 min 16 sec) 
Heartbeat CPU 0 instructions: 100000000 cycles: 44213177 heartbeat IPC: 2.52349 cumulative IPC: 2.26177 (Simulation time: 0 hr 2 min 28 sec) 

Warmup complete CPU 0 instructions: 100000002 cycles: 44213178 (Simulation time: 0 hr 2 min 28 sec) 

Heartbeat CPU 0 instructions: 110000000 cycles: 53374062 heartbeat IPC: 1.0916 cumulative IPC: 1.0916 (Simulation time: 0 hr 2 min 46 sec) 
Heartbeat CPU 0 instructions: 120000000 cycles: 62562157 heartbeat IPC: 1.08836 cumulative IPC: 1.08998 (Simulation time: 0 hr 3 min 5 sec) 
Heartbeat CPU 0 instructions: 130000002 cycles: 71763425 heartbeat IPC: 1.08681 cumulative IPC: 1.08892 (Simulation time: 0 hr 3 min 23 sec) 
Heartbeat CPU 0 instructions: 140000000 cycles: 80829141 heartbeat IPC: 1.10306 cumulative IPC: 1.09242 (Simulation time: 0 hr 3 min 41 sec) 
Heartbeat CPU 0 instructions: 150000003 cycles: 90092860 heartbeat IPC: 1.07948 cumulative IPC: 1.08981 (Simulation time: 0 hr 4 min 0 sec) 
Heartbeat CPU 0 instructions: 160000000 cycles: 100807034 heartbeat IPC: 0.933343 cumulative IPC: 1.06019 (Simulation time: 0 hr 4 min 20 sec) 
Heartbeat CPU 0 instructions: 170000000 cycles: 113512116 heartbeat IPC: 0.787087 cumulative IPC: 1.01012 (Simulation time: 0 hr 4 min 43 sec) 
Heartbeat CPU 0 instructions: 180000000 cycles: 126198560 heartbeat IPC: 0.788243 cumulative IPC: 0.975784 (Simulation time: 0 hr 5 min 6 sec) 
Heartbeat CPU 0 instructions: 190000000 cycles: 139133822 heartbeat IPC: 0.773081 cumulative IPC: 0.94816 (Simulation time: 0 hr 5 min 29 sec) 
Heartbeat CPU 0 instructions: 200000000 cycles: 153081463 heartbeat IPC: 0.716967 cumulative IPC: 0.918541 (Simulation time: 0 hr 5 min 51 sec) 
Heartbeat CPU 0 instructions: 210000001 cycles: 167154505 heartbeat IPC: 0.710579 cumulative IPC: 0.894736 (Simulation time: 0 hr 6 min 14 sec) 
Heartbeat CPU 0 instructions: 220000000 cycles: 181155453 heartbeat IPC: 0.714237 cumulative IPC: 0.876282 (Simulation time: 0 hr 6 min 37 sec) 
Heartbeat CPU 0 instructions: 230000000 cycles: 195113577 heartbeat IPC: 0.716429 cumulative IPC: 0.861495 (Simulation time: 0 hr 7 min 1 sec) 
Heartbeat CPU 0 instructions: 240000000 cycles: 209124302 heartbeat IPC: 0.713739 cumulative IPC: 0.848942 (Simulation time: 0 hr 7 min 25 sec) 
Heartbeat CPU 0 instructions: 250000003 cycles: 220511631 heartbeat IPC: 0.878169 cumulative IPC: 0.85083 (Simulation time: 0 hr 7 min 47 sec) 
Heartbeat CPU 0 instructions: 260000000 cycles: 228547837 heartbeat IPC: 1.24437 cumulative IPC: 0.867987 (Simulation time: 0 hr 8 min 6 sec) 
Heartbeat CPU 0 instructions: 270000003 cycles: 237073621 heartbeat IPC: 1.17291 cumulative IPC: 0.881466 (Simulation time: 0 hr 8 min 26 sec) 
Heartbeat CPU 0 instructions: 280000000 cycles: 245940515 heartbeat IPC: 1.12779 cumulative IPC: 0.892294 (Simulation time: 0 hr 8 min 45 sec) 
Heartbeat CPU 0 instructions: 290000000 cycles: 254929871 heartbeat IPC: 1.11243 cumulative IPC: 0.901685 (Simulation time: 0 hr 9 min 6 sec) 
Heartbeat CPU 0 instructions: 300000000 cycles: 263889062 heartbeat IPC: 1.11617 cumulative IPC: 0.910432 (Simulation time: 0 hr 9 min 26 sec) 
Heartbeat CPU 0 instructions: 310000000 cycles: 272929851 heartbeat IPC: 1.1061 cumulative IPC: 0.918167 (Simulation time: 0 hr 9 min 47 sec) 
Heartbeat CPU 0 instructions: 320000000 cycles: 282042509 heartbeat IPC: 1.09737 cumulative IPC: 0.925033 (Simulation time: 0 hr 10 min 8 sec) 
Heartbeat CPU 0 instructions: 330000002 cycles: 291069499 heartbeat IPC: 1.10779 cumulative IPC: 0.931716 (Simulation time: 0 hr 10 min 29 sec) 
Heartbeat CPU 0 instructions: 340000000 cycles: 301573322 heartbeat IPC: 0.952034 cumulative IPC: 0.932545 (Simulation time: 0 hr 10 min 51 sec) 
Heartbeat CPU 0 instructions: 350000001 cycles: 310377749 heartbeat IPC: 1.13579 cumulative IPC: 0.939269 (Simulation time: 0 hr 11 min 11 sec) 
Heartbeat CPU 0 instructions: 360000000 cycles: 319171623 heartbeat IPC: 1.13716 cumulative IPC: 0.945597 (Simulation time: 0 hr 11 min 31 sec) 
Heartbeat CPU 0 instructions: 370000001 cycles: 327965239 heartbeat IPC: 1.13719 cumulative IPC: 0.951535 (Simulation time: 0 hr 11 min 52 sec) 
Heartbeat CPU 0 instructions: 380000000 cycles: 336717318 heartbeat IPC: 1.14259 cumulative IPC: 0.957251 (Simulation time: 0 hr 12 min 12 sec) 
Heartbeat CPU 0 instructions: 390000001 cycles: 345276190 heartbeat IPC: 1.16838 cumulative IPC: 0.963253 (Simulation time: 0 hr 12 min 31 sec) 
Heartbeat CPU 0 instructions: 400000000 cycles: 353916950 heartbeat IPC: 1.15731 cumulative IPC: 0.968668 (Simulation time: 0 hr 12 min 51 sec) 
Heartbeat CPU 0 instructions: 410000003 cycles: 362490655 heartbeat IPC: 1.16636 cumulative IPC: 0.973993 (Simulation time: 0 hr 13 min 11 sec) 
Heartbeat CPU 0 instructions: 420000000 cycles: 371156592 heartbeat IPC: 1.15394 cumulative IPC: 0.978763 (Simulation time: 0 hr 13 min 31 sec) 
Heartbeat CPU 0 instructions: 430000001 cycles: 379715953 heartbeat IPC: 1.16831 cumulative IPC: 0.983598 (Simulation time: 0 hr 13 min 51 sec) 
Heartbeat CPU 0 instructions: 440000000 cycles: 388250124 heartbeat IPC: 1.17176 cumulative IPC: 0.988266 (Simulation time: 0 hr 14 min 11 sec) 
Heartbeat CPU 0 instructions: 450000001 cycles: 398151971 heartbeat IPC: 1.00991 cumulative IPC: 0.988872 (Simulation time: 0 hr 14 min 32 sec) 
Heartbeat CPU 0 instructions: 460000000 cycles: 406719707 heartbeat IPC: 1.16717 cumulative IPC: 0.993086 (Simulation time: 0 hr 14 min 52 sec) 
Heartbeat CPU 0 instructions: 470000003 cycles: 415171743 heartbeat IPC: 1.18315 cumulative IPC: 0.997416 (Simulation time: 0 hr 15 min 12 sec) 
Heartbeat CPU 0 instructions: 480000000 cycles: 423667777 heartbeat IPC: 1.17702 cumulative IPC: 1.00144 (Simulation time: 0 hr 15 min 32 sec) 
Heartbeat CPU 0 instructions: 490000000 cycles: 432128778 heartbeat IPC: 1.18189 cumulative IPC: 1.00537 (Simulation time: 0 hr 15 min 52 sec) 
Heartbeat CPU 0 instructions: 500000000 cycles: 440604569 heartbeat IPC: 1.17983 cumulative IPC: 1.0091 (Simulation time: 0 hr 16 min 11 sec) 
Heartbeat CPU 0 instructions: 510000001 cycles: 449050498 heartbeat IPC: 1.184 cumulative IPC: 1.01275 (Simulation time: 0 hr 16 min 31 sec) 
Heartbeat CPU 0 instructions: 520000000 cycles: 457514193 heartbeat IPC: 1.18152 cumulative IPC: 1.01621 (Simulation time: 0 hr 16 min 51 sec) 
Heartbeat CPU 0 instructions: 530000001 cycles: 465979956 heartbeat IPC: 1.18123 cumulative IPC: 1.01952 (Simulation time: 0 hr 17 min 11 sec) 
Heartbeat CPU 0 instructions: 540000000 cycles: 474644695 heartbeat IPC: 1.1541 cumulative IPC: 1.02223 (Simulation time: 0 hr 17 min 31 sec) 
Heartbeat CPU 0 instructions: 550000000 cycles: 483346713 heartbeat IPC: 1.14916 cumulative IPC: 1.02475 (Simulation time: 0 hr 17 min 51 sec) 
Heartbeat CPU 0 instructions: 560000000 cycles: 491820944 heartbeat IPC: 1.18005 cumulative IPC: 1.02769 (Simulation time: 0 hr 18 min 10 sec) 
Heartbeat CPU 0 instructions: 570000001 cycles: 503486237 heartbeat IPC: 0.857244 cumulative IPC: 1.02336 (Simulation time: 0 hr 18 min 32 sec) 
Heartbeat CPU 0 instructions: 580000000 cycles: 514872911 heartbeat IPC: 0.878219 cumulative IPC: 1.01985 (Simulation time: 0 hr 18 min 53 sec) 
Heartbeat CPU 0 instructions: 590000001 cycles: 526513975 heartbeat IPC: 0.859028 cumulative IPC: 1.01596 (Simulation time: 0 hr 19 min 15 sec) 
Heartbeat CPU 0 instructions: 600000000 cycles: 537976453 heartbeat IPC: 0.872412 cumulative IPC: 1.01263 (Simulation time: 0 hr 19 min 36 sec) 
Finished CPU 0 instructions: 500000001 cycles: 493763288 cumulative IPC: 1.01263 (Simulation time: 0 hr 19 min 36 sec) 

CPU 0 Branch Prediction Accuracy: 99.7422% MPKI: 0.173296
Number of Branches: 33608403 Number of Mispredictions: 86648
Number of LOAD Instructions: 180215231
Number of LOAD Instructions (ROI): 180215231
Number of STORE Instructions: 36067263
Number of STORE Instructions (ROI): 36067263
Total Destination Memory Operands: 38428915
Total Destination Memory Operands (ROI): 38428915
Total Source Memory Operands: 180215231
Total Source Memory Operands (ROI): 180215231
Number of DEPENDED LOADS: 3041446
Number of DEPENDED LOADS (ROI): 3041446
Number of SQ_ADDED: 38428892
Number of SQ_ADDED (ROI): 38428892
Number of LQ_ADDED: 208201371
Number of LQ_ADDED (ROI): 208201371
Number of Instructions read from trace: 600000257

ChampSim completed all CPUs

Region of Interest Statistics

CPU 0 cumulative IPC: 1.01263 instructions: 500000001 cycles: 493763288
ITLB TOTAL     ACCESS:   91890181  HIT:   91890162  MISS:         19
ITLB LOAD      ACCESS:   91890181  HIT:   91890162  MISS:         19
ITLB RFO       ACCESS:          0  HIT:          0  MISS:          0
ITLB PREFETCH  ACCESS:          0  HIT:          0  MISS:          0
ITLB WRITEBACK ACCESS:          0  HIT:          0  MISS:          0
ITLB PREFETCH  REQUESTED:          0  ISSUED:          0  USEFUL:          0  USELESS:          0
ITLB TOTAL MSHR MERGED:         40
ITLB LOAD MSHR MERGED:         40
ITLB RFO MSHR MERGED:          0
ITLB PREFETCH MSHR MERGED:          0
ITLB WRITEBACK MSHR MERGED:          0
ITLB TOTAL ACCESSES:   91890221 HITS:   91890162 MISSES:         59
ITLB LOAD ACCESSES:   91890221 HITS:   91890162 MISSES:         59
ITLB RFO ACCESSES:          0 HITS:          0 MISSES:          0
ITLB PREFETCH ACCESSES:          0 HITS:          0 MISSES:          0
ITLB WRITEBACK ACCESSES:          0 HITS:          0 MISSES:          0
ITLB RQ ACCESS:  500000003
ITLB RQ TO_CACHE:   91890221
ITLB RQ MERGED:  408109782
ITLB RQ FORWARD:          0
ITLB WQ ACCESS:          0
ITLB WQ TO_CACHE:          0
ITLB WQ MERGED:          0
ITLB WQ FORWARD:          0
DTLB TOTAL     ACCESS:  142012638  HIT:  141646171  MISS:     366467
DTLB LOAD      ACCESS:  119368643  HIT:  119055052  MISS:     313591
DTLB RFO       ACCESS:   22643995  HIT:   22591119  MISS:      52876
DTLB PREFETCH  ACCESS:          0  HIT:          0  MISS:          0
DTLB WRITEBACK ACCESS:          0  HIT:          0  MISS:          0
DTLB PREFETCH  REQUESTED:          0  ISSUED:          0  USEFUL:          0  USELESS:          0
DTLB TOTAL MSHR MERGED:     283274
DTLB LOAD MSHR MERGED:     236462
DTLB RFO MSHR MERGED:      46812
DTLB PREFETCH MSHR MERGED:          0
DTLB WRITEBACK MSHR MERGED:          0
DTLB TOTAL ACCESSES:  142295912 HITS:  141646171 MISSES:     649741
DTLB LOAD ACCESSES:  119605105 HITS:  119055052 MISSES:     550053
DTLB RFO ACCESSES:   22690807 HITS:   22591119 MISSES:      99688
DTLB PREFETCH ACCESSES:          0 HITS:          0 MISSES:          0
DTLB WRITEBACK ACCESSES:          0 HITS:          0 MISSES:          0
DTLB RQ ACCESS:  184791532
DTLB RQ TO_CACHE:  142295912
DTLB RQ MERGED:   42495620
DTLB RQ FORWARD:          0
DTLB WQ ACCESS:          0
DTLB WQ TO_CACHE:          0
DTLB WQ MERGED:          0
DTLB WQ FORWARD:          0
L1D TOTAL     ACCESS:  189051732  HIT:  175602008  MISS:   13449724
L1D LOAD      ACCESS:  111839389  HIT:  108532950  MISS:    3306439
L1D RFO       ACCESS:   18247976  HIT:   15466244  MISS:    2781732
L1D PREFETCH  ACCESS:   58964367  HIT:   51602814  MISS:    7361553
L1D WRITEBACK ACCESS:          0  HIT:          0  MISS:          0
L1D PREFETCH  REQUESTED:  116482014  ISSUED:  115127675  USEFUL:    7151982  USELESS:     209571
L1D TOTAL MSHR MERGED:   32671303
L1D LOAD MSHR MERGED:    7391542
L1D RFO MSHR MERGED:   10004701
L1D PREFETCH MSHR MERGED:   15275060
L1D WRITEBACK MSHR MERGED:          0
L1D TOTAL ACCESSES:  221723395 HITS:  175602367 MISSES:   46121028
L1D LOAD ACCESSES:  116482042 HITS:  108532978 MISSES:    7949064
L1D RFO ACCESSES:   28252629 HITS:   15466244 MISSES:   12786385
L1D PREFETCH ACCESSES:   76988724 HITS:   51603145 MISSES:   25385579
L1D WRITEBACK ACCESSES:          0 HITS:          0 MISSES:          0
L1D RQ ACCESS:  156535466
L1D RQ TO_CACHE:  116482017
L1D RQ MERGED:   40053421
L1D RQ FORWARD:          0
L1D WQ ACCESS:   28256066
L1D WQ TO_CACHE:   28252629
L1D WQ MERGED:       3437
L1D WQ FORWARD:        359
L1I TOTAL     ACCESS:  115884641  HIT:  115883693  MISS:        948
L1I LOAD      ACCESS:  115884641  HIT:  115883693  MISS:        948
L1I RFO       ACCESS:          0  HIT:          0  MISS:          0
L1I PREFETCH  ACCESS:          0  HIT:          0  MISS:          0
L1I WRITEBACK ACCESS:          0  HIT:          0  MISS:          0
L1I PREFETCH  REQUESTED:          0  ISSUED:          0  USEFUL:          0  USELESS:          0
L1I TOTAL MSHR MERGED:       1594
L1I LOAD MSHR MERGED:       1594
L1I RFO MSHR MERGED:          0
L1I PREFETCH MSHR MERGED:          0
L1I WRITEBACK MSHR MERGED:          0
L1I TOTAL ACCESSES:  115886235 HITS:  115883693 MISSES:       2542
L1I LOAD ACCESSES:  115886235 HITS:  115883693 MISSES:       2542
L1I RFO ACCESSES:          0 HITS:          0 MISSES:          0
L1I PREFETCH ACCESSES:          0 HITS:          0 MISSES:          0
L1I WRITEBACK ACCESSES:          0 HITS:          0 MISSES:          0
L1I RQ ACCESS:  500000007
L1I RQ TO_CACHE:  115886235
L1I RQ MERGED:  384113772
L1I RQ FORWARD:          0
L1I WQ ACCESS:          0
L1I WQ TO_CACHE:          0
L1I WQ MERGED:          0
L1I WQ FORWARD:          0
L2C TOTAL     ACCESS:   16695618  HIT:    4851053  MISS:   11844565
L2C LOAD      ACCESS:     558447  HIT:      95202  MISS:     463245
L2C RFO       ACCESS:    2781684  HIT:     266534  MISS:    2515150
L2C PREFETCH  ACCESS:   10134829  HIT:    1270949  MISS:    8863880
L2C WRITEBACK ACCESS:    3220658  HIT:    3218368  MISS:       2290
L2C PREFETCH  REQUESTED:      26173  ISSUED:      26173  USEFUL:      92754  USELESS:    8769217
L2C TOTAL MSHR MERGED:        322
L2C LOAD MSHR MERGED:          2
L2C RFO MSHR MERGED:          0
L2C PREFETCH MSHR MERGED:        320
L2C WRITEBACK MSHR MERGED:          0
L2C TOTAL ACCESSES:   16696091 HITS:    4851096 MISSES:   11844995
L2C LOAD ACCESSES:     558470 HITS:      95225 MISSES:     463245
L2C RFO ACCESSES:    2781684 HITS:     266534 MISSES:    2515150
L2C PREFETCH ACCESSES:   10135279 HITS:    1270969 MISSES:    8864310
L2C WRITEBACK ACCESSES:    3220658 HITS:    3218368 MISSES:       2290
L2C RQ ACCESS:    3340154
L2C RQ TO_CACHE:    3340131
L2C RQ MERGED:          0
L2C RQ FORWARD:          0
L2C WQ ACCESS:    3220658
L2C WQ TO_CACHE:    3220658
L2C WQ MERGED:          0
L2C WQ FORWARD:         43
LLC TOTAL     ACCESS:   14742716  HIT:    7499572  MISS:    7243144
LLC LOAD      ACCESS:     463240  HIT:     112843  MISS:     350397
LLC RFO       ACCESS:    2515132  HIT:    1629936  MISS:     885196
LLC PREFETCH  ACCESS:    8863936  HIT:    3068239  MISS:    5795697
LLC WRITEBACK ACCESS:    2900408  HIT:    2688554  MISS:     211854
LLC PREFETCH  REQUESTED:          0  ISSUED:          0  USEFUL:       6629  USELESS:    5788362
LLC TOTAL MSHR MERGED:          2
LLC LOAD MSHR MERGED:          0
LLC RFO MSHR MERGED:          0
LLC PREFETCH MSHR MERGED:          2
LLC WRITEBACK MSHR MERGED:          0
LLC TOTAL ACCESSES:   14742782 HITS:    7499635 MISSES:    7243147
LLC LOAD ACCESSES:     463243 HITS:     112846 MISSES:     350397
LLC RFO ACCESSES:    2515150 HITS:    1629954 MISSES:     885196
LLC PREFETCH ACCESSES:    8863981 HITS:    3068281 MISSES:    5795700
LLC WRITEBACK ACCESSES:    2900408 HITS:    2688554 MISSES:     211854
LLC 0 RQ ACCESS:    2978393
LLC 0 RQ TO_CACHE:    2978372
LLC 0 RQ MERGED:          0
LLC 0 RQ FORWARD:          0
LLC WQ ACCESS:    2900408
LLC WQ TO_CACHE:    2900408
LLC WQ MERGED:          0
LLC WQ FORWARD:         63
Major fault: 0 Minor fault: 57518
CPU 0 L1D next line prefetcher final stats
CPU 0 L2C PC-based stride prefetcher final stats
All Misses: 7866214
All Hits: 8372676
SD Algo Stats - Switches: 0 SRR-Repls: 362756 BRR-Repls: 0

DRAM Statistics
 CHANNEL 0
 RQ ROW_BUFFER_HIT:    3794119  ROW_BUFFER_MISS:    3231079
 DBUS_CONGESTED:    3448663
 WQ ROW_BUFFER_HIT:     104445  ROW_BUFFER_MISS:    1051085  FULL:          0

 AVG_CONGESTED_CYCLE: 12
LOADS RETIRED: 157818985
INSTR RETIRED: 500000000
