
*** ChampSim Multicore Out-of-Order Simulator ***

Warmup Instructions: 100000000
Simulation Instructions: 500000000
Number of CPUs: 1
LLC sets: 2048
LLC ways: 16
Clean RRIP Policies: 2213230222132302 Dirty RRIP Policies: 1203130212031302 PSEL Width: 10 Track Set: 4294967295 PSEL Mask: 1 Demote Mask: 1040100010401000DS Algo: 0Window size: 0
Off-chip DRAM Size: 4096 MB Channels: 1 Width: 64-bit Data Rate: 1600 MT/s

CPU 0 runs /mnt/beegfs/iconst01/spec2017/Exchange.trace.gz
NOT SORTED
TRACE STRING: /mnt/beegfs/iconst01/spec2017/Exchange.trace.gz
SORTED
TRACE STRING: /mnt/beegfs/iconst01/spec2017/Exchange.trace.gz
INITIAL
TRACE STRING: /mnt/beegfs/iconst01/spec2017/Exchange.trace.gz

champsim_seed used: 803

CPU 0 L1D next line prefetcher
CPU 0 L2C IP-based stride prefetcher
Initialize DRRIP state
Assign rand_sets[0]: 454  LLC: 2048
rand_sets[0]: 454
Assign rand_sets[1]: 1662  LLC: 2048
rand_sets[1]: 1662
Assign rand_sets[2]: 1921  LLC: 2048
rand_sets[2]: 1921
Assign rand_sets[3]: 1131  LLC: 2048
rand_sets[3]: 1131
Assign rand_sets[4]: 331  LLC: 2048
rand_sets[4]: 331
Assign rand_sets[5]: 1531  LLC: 2048
rand_sets[5]: 1531
Assign rand_sets[6]: 482  LLC: 2048
rand_sets[6]: 482
Assign rand_sets[7]: 1275  LLC: 2048
rand_sets[7]: 1275
Assign rand_sets[8]: 1876  LLC: 2048
rand_sets[8]: 1876
Assign rand_sets[9]: 2038  LLC: 2048
rand_sets[9]: 2038
Assign rand_sets[10]: 701  LLC: 2048
rand_sets[10]: 701
Assign rand_sets[11]: 479  LLC: 2048
rand_sets[11]: 479
Assign rand_sets[12]: 892  LLC: 2048
rand_sets[12]: 892
Assign rand_sets[13]: 1820  LLC: 2048
rand_sets[13]: 1820
Assign rand_sets[14]: 1505  LLC: 2048
rand_sets[14]: 1505
Assign rand_sets[15]: 1159  LLC: 2048
rand_sets[15]: 1159
Assign rand_sets[16]: 513  LLC: 2048
rand_sets[16]: 513
Assign rand_sets[17]: 703  LLC: 2048
rand_sets[17]: 703
Assign rand_sets[18]: 561  LLC: 2048
rand_sets[18]: 561
Assign rand_sets[19]: 990  LLC: 2048
rand_sets[19]: 990
Assign rand_sets[20]: 342  LLC: 2048
rand_sets[20]: 342
Assign rand_sets[21]: 882  LLC: 2048
rand_sets[21]: 882
Assign rand_sets[22]: 15  LLC: 2048
rand_sets[22]: 15
Assign rand_sets[23]: 71  LLC: 2048
rand_sets[23]: 71
Assign rand_sets[24]: 1127  LLC: 2048
rand_sets[24]: 1127
Assign rand_sets[25]: 1382  LLC: 2048
rand_sets[25]: 1382
Assign rand_sets[26]: 647  LLC: 2048
rand_sets[26]: 647
Assign rand_sets[27]: 857  LLC: 2048
rand_sets[27]: 857
Assign rand_sets[28]: 1450  LLC: 2048
rand_sets[28]: 1450
Assign rand_sets[29]: 1160  LLC: 2048
rand_sets[29]: 1160
Assign rand_sets[30]: 1852  LLC: 2048
rand_sets[30]: 1852
Assign rand_sets[31]: 1881  LLC: 2048
rand_sets[31]: 1881
Assign rand_sets[32]: 1770  LLC: 2048
rand_sets[32]: 1770
Assign rand_sets[33]: 1622  LLC: 2048
rand_sets[33]: 1622
Assign rand_sets[34]: 275  LLC: 2048
rand_sets[34]: 275
Assign rand_sets[35]: 635  LLC: 2048
rand_sets[35]: 635
Assign rand_sets[36]: 466  LLC: 2048
rand_sets[36]: 466
Assign rand_sets[37]: 1413  LLC: 2048
rand_sets[37]: 1413
Assign rand_sets[38]: 417  LLC: 2048
rand_sets[38]: 417
Assign rand_sets[39]: 472  LLC: 2048
rand_sets[39]: 472
Assign rand_sets[40]: 1340  LLC: 2048
rand_sets[40]: 1340
Assign rand_sets[41]: 852  LLC: 2048
rand_sets[41]: 852
Assign rand_sets[42]: 1365  LLC: 2048
rand_sets[42]: 1365
Assign rand_sets[43]: 47  LLC: 2048
rand_sets[43]: 47
Assign rand_sets[44]: 823  LLC: 2048
rand_sets[44]: 823
Assign rand_sets[45]: 686  LLC: 2048
rand_sets[45]: 686
Assign rand_sets[46]: 1637  LLC: 2048
rand_sets[46]: 1637
Assign rand_sets[47]: 1115  LLC: 2048
rand_sets[47]: 1115
Assign rand_sets[48]: 986  LLC: 2048
rand_sets[48]: 986
Assign rand_sets[49]: 258  LLC: 2048
rand_sets[49]: 258
Assign rand_sets[50]: 633  LLC: 2048
rand_sets[50]: 633
Assign rand_sets[51]: 920  LLC: 2048
rand_sets[51]: 920
Assign rand_sets[52]: 204  LLC: 2048
rand_sets[52]: 204
Assign rand_sets[53]: 227  LLC: 2048
rand_sets[53]: 227
Assign rand_sets[54]: 1818  LLC: 2048
rand_sets[54]: 1818
Assign rand_sets[55]: 886  LLC: 2048
rand_sets[55]: 886
Assign rand_sets[56]: 1422  LLC: 2048
rand_sets[56]: 1422
Assign rand_sets[57]: 607  LLC: 2048
rand_sets[57]: 607
Assign rand_sets[58]: 217  LLC: 2048
rand_sets[58]: 217
Assign rand_sets[59]: 1945  LLC: 2048
rand_sets[59]: 1945
Assign rand_sets[60]: 143  LLC: 2048
rand_sets[60]: 143
Assign rand_sets[61]: 1311  LLC: 2048
rand_sets[61]: 1311
Assign rand_sets[62]: 319  LLC: 2048
rand_sets[62]: 319
Assign rand_sets[63]: 1846  LLC: 2048
rand_sets[63]: 1846
 CLEAN-RRIP-POLICY-1: 2-2-1-3-2-3-0-2- CLEAN-RRIP-POLICY-2: 2-2-1-3-2-3-0-2-
 DIRTY-RRIP-POLICY-1: 1-2-0-3-1-3-0-2- DIRTY-RRIP-POLICY-2: 1-2-0-3-1-3-0-2-
 PSEL width: 10
Heartbeat CPU 0 instructions: 10000002 cycles: 5882374 heartbeat IPC: 1.69999 cumulative IPC: 1.69999 (Simulation time: 0 hr 0 min 16 sec) 
Heartbeat CPU 0 instructions: 20000000 cycles: 11839207 heartbeat IPC: 1.67874 cumulative IPC: 1.6893 (Simulation time: 0 hr 0 min 33 sec) 
Heartbeat CPU 0 instructions: 30000000 cycles: 17662714 heartbeat IPC: 1.71718 cumulative IPC: 1.69849 (Simulation time: 0 hr 0 min 50 sec) 
Heartbeat CPU 0 instructions: 40000000 cycles: 23429005 heartbeat IPC: 1.73422 cumulative IPC: 1.70729 (Simulation time: 0 hr 1 min 6 sec) 
Heartbeat CPU 0 instructions: 50000001 cycles: 29272956 heartbeat IPC: 1.71117 cumulative IPC: 1.70806 (Simulation time: 0 hr 1 min 23 sec) 
Heartbeat CPU 0 instructions: 60000000 cycles: 35073779 heartbeat IPC: 1.72389 cumulative IPC: 1.71068 (Simulation time: 0 hr 1 min 41 sec) 
Heartbeat CPU 0 instructions: 70000000 cycles: 40754401 heartbeat IPC: 1.76037 cumulative IPC: 1.71761 (Simulation time: 0 hr 1 min 57 sec) 
Heartbeat CPU 0 instructions: 80000000 cycles: 46593525 heartbeat IPC: 1.71259 cumulative IPC: 1.71698 (Simulation time: 0 hr 2 min 14 sec) 
Heartbeat CPU 0 instructions: 90000003 cycles: 52417446 heartbeat IPC: 1.71706 cumulative IPC: 1.71699 (Simulation time: 0 hr 2 min 31 sec) 
Heartbeat CPU 0 instructions: 100000000 cycles: 58163768 heartbeat IPC: 1.74024 cumulative IPC: 1.71928 (Simulation time: 0 hr 2 min 48 sec) 

Warmup complete CPU 0 instructions: 100000002 cycles: 58163769 (Simulation time: 0 hr 2 min 48 sec) 

Heartbeat CPU 0 instructions: 110000003 cycles: 67083446 heartbeat IPC: 1.12112 cumulative IPC: 1.12112 (Simulation time: 0 hr 3 min 9 sec) 
Heartbeat CPU 0 instructions: 120000000 cycles: 75813019 heartbeat IPC: 1.14553 cumulative IPC: 1.13319 (Simulation time: 0 hr 3 min 30 sec) 
Heartbeat CPU 0 instructions: 130000003 cycles: 84650090 heartbeat IPC: 1.1316 cumulative IPC: 1.13266 (Simulation time: 0 hr 3 min 51 sec) 
Heartbeat CPU 0 instructions: 140000000 cycles: 93492473 heartbeat IPC: 1.13092 cumulative IPC: 1.13222 (Simulation time: 0 hr 4 min 11 sec) 
Heartbeat CPU 0 instructions: 150000001 cycles: 102398982 heartbeat IPC: 1.12277 cumulative IPC: 1.13032 (Simulation time: 0 hr 4 min 32 sec) 
Heartbeat CPU 0 instructions: 160000000 cycles: 111367726 heartbeat IPC: 1.11498 cumulative IPC: 1.12774 (Simulation time: 0 hr 4 min 53 sec) 
Heartbeat CPU 0 instructions: 170000001 cycles: 120354895 heartbeat IPC: 1.1127 cumulative IPC: 1.12556 (Simulation time: 0 hr 5 min 15 sec) 
Heartbeat CPU 0 instructions: 180000000 cycles: 129385388 heartbeat IPC: 1.10736 cumulative IPC: 1.12325 (Simulation time: 0 hr 5 min 36 sec) 
Heartbeat CPU 0 instructions: 190000002 cycles: 138319612 heartbeat IPC: 1.11929 cumulative IPC: 1.12281 (Simulation time: 0 hr 5 min 57 sec) 
Heartbeat CPU 0 instructions: 200000000 cycles: 147203581 heartbeat IPC: 1.12562 cumulative IPC: 1.12309 (Simulation time: 0 hr 6 min 18 sec) 
Heartbeat CPU 0 instructions: 210000000 cycles: 156040195 heartbeat IPC: 1.13166 cumulative IPC: 1.12387 (Simulation time: 0 hr 6 min 39 sec) 
Heartbeat CPU 0 instructions: 220000000 cycles: 164839401 heartbeat IPC: 1.13647 cumulative IPC: 1.12491 (Simulation time: 0 hr 7 min 0 sec) 
Heartbeat CPU 0 instructions: 230000000 cycles: 173742383 heartbeat IPC: 1.12322 cumulative IPC: 1.12478 (Simulation time: 0 hr 7 min 22 sec) 
Heartbeat CPU 0 instructions: 240000000 cycles: 182735077 heartbeat IPC: 1.11201 cumulative IPC: 1.12385 (Simulation time: 0 hr 7 min 43 sec) 
Heartbeat CPU 0 instructions: 250000001 cycles: 191755004 heartbeat IPC: 1.10866 cumulative IPC: 1.12283 (Simulation time: 0 hr 8 min 4 sec) 
Heartbeat CPU 0 instructions: 260000000 cycles: 200493402 heartbeat IPC: 1.14437 cumulative IPC: 1.12415 (Simulation time: 0 hr 8 min 25 sec) 
Heartbeat CPU 0 instructions: 270000003 cycles: 209420680 heartbeat IPC: 1.12016 cumulative IPC: 1.12392 (Simulation time: 0 hr 8 min 45 sec) 
Heartbeat CPU 0 instructions: 280000000 cycles: 217951734 heartbeat IPC: 1.17219 cumulative IPC: 1.12649 (Simulation time: 0 hr 9 min 6 sec) 
Heartbeat CPU 0 instructions: 290000000 cycles: 226532730 heartbeat IPC: 1.16537 cumulative IPC: 1.12847 (Simulation time: 0 hr 9 min 26 sec) 
Heartbeat CPU 0 instructions: 300000000 cycles: 235552362 heartbeat IPC: 1.10869 cumulative IPC: 1.12747 (Simulation time: 0 hr 9 min 46 sec) 
Heartbeat CPU 0 instructions: 310000001 cycles: 244463055 heartbeat IPC: 1.12225 cumulative IPC: 1.12722 (Simulation time: 0 hr 10 min 7 sec) 
Heartbeat CPU 0 instructions: 320000000 cycles: 253386724 heartbeat IPC: 1.12062 cumulative IPC: 1.12692 (Simulation time: 0 hr 10 min 28 sec) 
Heartbeat CPU 0 instructions: 330000000 cycles: 262342146 heartbeat IPC: 1.11664 cumulative IPC: 1.12647 (Simulation time: 0 hr 10 min 48 sec) 
Heartbeat CPU 0 instructions: 340000000 cycles: 271233945 heartbeat IPC: 1.12463 cumulative IPC: 1.12639 (Simulation time: 0 hr 11 min 9 sec) 
Heartbeat CPU 0 instructions: 350000002 cycles: 279987933 heartbeat IPC: 1.14234 cumulative IPC: 1.12702 (Simulation time: 0 hr 11 min 29 sec) 
Heartbeat CPU 0 instructions: 360000000 cycles: 288834941 heartbeat IPC: 1.13033 cumulative IPC: 1.12715 (Simulation time: 0 hr 11 min 50 sec) 
Heartbeat CPU 0 instructions: 370000002 cycles: 297694056 heartbeat IPC: 1.12878 cumulative IPC: 1.12721 (Simulation time: 0 hr 12 min 11 sec) 
Heartbeat CPU 0 instructions: 380000000 cycles: 306477286 heartbeat IPC: 1.13853 cumulative IPC: 1.12761 (Simulation time: 0 hr 12 min 31 sec) 
Heartbeat CPU 0 instructions: 390000000 cycles: 315365123 heartbeat IPC: 1.12513 cumulative IPC: 1.12752 (Simulation time: 0 hr 12 min 52 sec) 
Heartbeat CPU 0 instructions: 400000000 cycles: 324250010 heartbeat IPC: 1.12551 cumulative IPC: 1.12745 (Simulation time: 0 hr 13 min 11 sec) 
Heartbeat CPU 0 instructions: 410000002 cycles: 332624182 heartbeat IPC: 1.19415 cumulative IPC: 1.12949 (Simulation time: 0 hr 13 min 31 sec) 
Heartbeat CPU 0 instructions: 420000000 cycles: 341136599 heartbeat IPC: 1.17475 cumulative IPC: 1.13085 (Simulation time: 0 hr 13 min 50 sec) 
Heartbeat CPU 0 instructions: 430000001 cycles: 350155533 heartbeat IPC: 1.10878 cumulative IPC: 1.13017 (Simulation time: 0 hr 14 min 10 sec) 
Heartbeat CPU 0 instructions: 440000000 cycles: 359161586 heartbeat IPC: 1.11036 cumulative IPC: 1.12958 (Simulation time: 0 hr 14 min 31 sec) 
Heartbeat CPU 0 instructions: 450000003 cycles: 368188617 heartbeat IPC: 1.10778 cumulative IPC: 1.12894 (Simulation time: 0 hr 14 min 51 sec) 
Heartbeat CPU 0 instructions: 460000000 cycles: 377020986 heartbeat IPC: 1.1322 cumulative IPC: 1.12903 (Simulation time: 0 hr 15 min 12 sec) 
Heartbeat CPU 0 instructions: 470000002 cycles: 385885209 heartbeat IPC: 1.12813 cumulative IPC: 1.12901 (Simulation time: 0 hr 15 min 32 sec) 
Heartbeat CPU 0 instructions: 480000000 cycles: 394778735 heartbeat IPC: 1.12441 cumulative IPC: 1.12889 (Simulation time: 0 hr 15 min 52 sec) 
Heartbeat CPU 0 instructions: 490000002 cycles: 403760811 heartbeat IPC: 1.11333 cumulative IPC: 1.12848 (Simulation time: 0 hr 16 min 13 sec) 
Heartbeat CPU 0 instructions: 500000000 cycles: 412636865 heartbeat IPC: 1.12663 cumulative IPC: 1.12844 (Simulation time: 0 hr 16 min 33 sec) 
Heartbeat CPU 0 instructions: 510000001 cycles: 421501349 heartbeat IPC: 1.1281 cumulative IPC: 1.12843 (Simulation time: 0 hr 16 min 54 sec) 
Heartbeat CPU 0 instructions: 520000000 cycles: 430377269 heartbeat IPC: 1.12664 cumulative IPC: 1.12838 (Simulation time: 0 hr 17 min 14 sec) 
Heartbeat CPU 0 instructions: 530000000 cycles: 439134901 heartbeat IPC: 1.14186 cumulative IPC: 1.12869 (Simulation time: 0 hr 17 min 34 sec) 
Heartbeat CPU 0 instructions: 540000000 cycles: 447912354 heartbeat IPC: 1.13928 cumulative IPC: 1.12893 (Simulation time: 0 hr 17 min 55 sec) 
Heartbeat CPU 0 instructions: 550000003 cycles: 456652554 heartbeat IPC: 1.14414 cumulative IPC: 1.12927 (Simulation time: 0 hr 18 min 15 sec) 
Heartbeat CPU 0 instructions: 560000000 cycles: 465699784 heartbeat IPC: 1.10531 cumulative IPC: 1.12873 (Simulation time: 0 hr 18 min 35 sec) 
Heartbeat CPU 0 instructions: 570000002 cycles: 474774075 heartbeat IPC: 1.10201 cumulative IPC: 1.12815 (Simulation time: 0 hr 18 min 55 sec) 
Heartbeat CPU 0 instructions: 580000000 cycles: 483799314 heartbeat IPC: 1.108 cumulative IPC: 1.12773 (Simulation time: 0 hr 19 min 15 sec) 
Heartbeat CPU 0 instructions: 590000002 cycles: 492771090 heartbeat IPC: 1.11461 cumulative IPC: 1.12745 (Simulation time: 0 hr 19 min 35 sec) 
Heartbeat CPU 0 instructions: 600000000 cycles: 501696924 heartbeat IPC: 1.12034 cumulative IPC: 1.12731 (Simulation time: 0 hr 19 min 56 sec) 
Finished CPU 0 instructions: 500000000 cycles: 443533178 cumulative IPC: 1.12731 (Simulation time: 0 hr 19 min 56 sec) 

CPU 0 Branch Prediction Accuracy: 97.291% MPKI: 3.0254
Number of Branches: 55840611 Number of Mispredictions: 1512698
Number of LOAD Instructions: 224059730
Number of LOAD Instructions (ROI): 224059730
Number of STORE Instructions: 53526941
Number of STORE Instructions (ROI): 53526941
Total Destination Memory Operands: 152760160
Total Destination Memory Operands (ROI): 152760160
Total Source Memory Operands: 224059730
Total Source Memory Operands (ROI): 224059730
Number of DEPENDED LOADS: 92797145
Number of DEPENDED LOADS (ROI): 92797145
Number of SQ_ADDED: 152760119
Number of SQ_ADDED (ROI): 152760119
Number of LQ_ADDED: 3452030160
Number of LQ_ADDED (ROI): 3452030160
Number of Instructions read from trace: 600000180

ChampSim completed all CPUs

Region of Interest Statistics

CPU 0 cumulative IPC: 1.12731 instructions: 500000000 cycles: 443533178
ITLB TOTAL     ACCESS:   90694857  HIT:   90694828  MISS:         29
ITLB LOAD      ACCESS:   90694857  HIT:   90694828  MISS:         29
ITLB RFO       ACCESS:          0  HIT:          0  MISS:          0
ITLB PREFETCH  ACCESS:          0  HIT:          0  MISS:          0
ITLB WRITEBACK ACCESS:          0  HIT:          0  MISS:          0
ITLB PREFETCH  REQUESTED:          0  ISSUED:          0  USEFUL:          0  USELESS:          0
ITLB TOTAL MSHR MERGED:         45
ITLB LOAD MSHR MERGED:         45
ITLB RFO MSHR MERGED:          0
ITLB PREFETCH MSHR MERGED:          0
ITLB WRITEBACK MSHR MERGED:          0
ITLB TOTAL ACCESSES:   90694902 HITS:   90694828 MISSES:         74
ITLB LOAD ACCESSES:   90694902 HITS:   90694828 MISSES:         74
ITLB RFO ACCESSES:          0 HITS:          0 MISSES:          0
ITLB PREFETCH ACCESSES:          0 HITS:          0 MISSES:          0
ITLB WRITEBACK ACCESSES:          0 HITS:          0 MISSES:          0
ITLB RQ ACCESS:  500000062
ITLB RQ TO_CACHE:   90694902
ITLB RQ MERGED:  409305160
ITLB RQ FORWARD:          0
ITLB WQ ACCESS:          0
ITLB WQ TO_CACHE:          0
ITLB WQ MERGED:          0
ITLB WQ FORWARD:          0
DTLB TOTAL     ACCESS:  112385456  HIT:  112385449  MISS:          7
DTLB LOAD      ACCESS:   39497260  HIT:   39497253  MISS:          7
DTLB RFO       ACCESS:   72888196  HIT:   72888196  MISS:          0
DTLB PREFETCH  ACCESS:          0  HIT:          0  MISS:          0
DTLB WRITEBACK ACCESS:          0  HIT:          0  MISS:          0
DTLB PREFETCH  REQUESTED:          0  ISSUED:          0  USEFUL:          0  USELESS:          0
DTLB TOTAL MSHR MERGED:          0
DTLB LOAD MSHR MERGED:          0
DTLB RFO MSHR MERGED:          0
DTLB PREFETCH MSHR MERGED:          0
DTLB WRITEBACK MSHR MERGED:          0
DTLB TOTAL ACCESSES:  112385456 HITS:  112385449 MISSES:          7
DTLB LOAD ACCESSES:   39497260 HITS:   39497253 MISSES:          7
DTLB RFO ACCESSES:   72888196 HITS:   72888196 MISSES:          0
DTLB PREFETCH ACCESSES:          0 HITS:          0 MISSES:          0
DTLB WRITEBACK ACCESSES:          0 HITS:          0 MISSES:          0
DTLB RQ ACCESS:  236847326
DTLB RQ TO_CACHE:  112385456
DTLB RQ MERGED:  124461870
DTLB RQ FORWARD:          0
DTLB WQ ACCESS:          0
DTLB WQ TO_CACHE:          0
DTLB WQ MERGED:          0
DTLB WQ FORWARD:          0
L1D TOTAL     ACCESS:  251714510  HIT:  251714410  MISS:        100
L1D LOAD      ACCESS:   74115947  HIT:   74115921  MISS:         26
L1D RFO       ACCESS:  115354729  HIT:  115354689  MISS:         40
L1D PREFETCH  ACCESS:   62243834  HIT:   62243800  MISS:         34
L1D WRITEBACK ACCESS:          0  HIT:          0  MISS:          0
L1D PREFETCH  REQUESTED:   74115957  ISSUED:   73705838  USEFUL:         24  USELESS:          0
L1D TOTAL MSHR MERGED:        268
L1D LOAD MSHR MERGED:         12
L1D RFO MSHR MERGED:        226
L1D PREFETCH MSHR MERGED:         30
L1D WRITEBACK MSHR MERGED:          0
L1D TOTAL ACCESSES:  251950161 HITS:  251949793 MISSES:        368
L1D LOAD ACCESSES:   74115957 HITS:   74115921 MISSES:         36
L1D RFO ACCESSES:  115354955 HITS:  115354689 MISSES:        266
L1D PREFETCH ACCESSES:   62479249 HITS:   62479183 MISSES:         66
L1D WRITEBACK ACCESSES:          0 HITS:          0 MISSES:          0
L1D RQ ACCESS:  109294471
L1D RQ TO_CACHE:   74115961
L1D RQ MERGED:   35178510
L1D RQ FORWARD:          0
L1D WQ ACCESS:  127552842
L1D WQ TO_CACHE:  115354957
L1D WQ MERGED:   12197885
L1D WQ FORWARD:     235383
L1I TOTAL     ACCESS:  124393433  HIT:  124386610  MISS:       6823
L1I LOAD      ACCESS:  124393433  HIT:  124386610  MISS:       6823
L1I RFO       ACCESS:          0  HIT:          0  MISS:          0
L1I PREFETCH  ACCESS:          0  HIT:          0  MISS:          0
L1I WRITEBACK ACCESS:          0  HIT:          0  MISS:          0
L1I PREFETCH  REQUESTED:          0  ISSUED:          0  USEFUL:          0  USELESS:          0
L1I TOTAL MSHR MERGED:       6051
L1I LOAD MSHR MERGED:       6051
L1I RFO MSHR MERGED:          0
L1I PREFETCH MSHR MERGED:          0
L1I WRITEBACK MSHR MERGED:          0
L1I TOTAL ACCESSES:  124399484 HITS:  124386610 MISSES:      12874
L1I LOAD ACCESSES:  124399484 HITS:  124386610 MISSES:      12874
L1I RFO ACCESSES:          0 HITS:          0 MISSES:          0
L1I PREFETCH ACCESSES:          0 HITS:          0 MISSES:          0
L1I WRITEBACK ACCESSES:          0 HITS:          0 MISSES:          0
L1I RQ ACCESS:  500000062
L1I RQ TO_CACHE:  124399484
L1I RQ MERGED:  375600578
L1I RQ FORWARD:          0
L1I WQ ACCESS:          0
L1I WQ TO_CACHE:          0
L1I WQ MERGED:          0
L1I WQ FORWARD:          0
L2C TOTAL     ACCESS:       6924  HIT:       5749  MISS:       1175
L2C LOAD      ACCESS:       6847  HIT:       5749  MISS:       1098
L2C RFO       ACCESS:         40  HIT:          0  MISS:         40
L2C PREFETCH  ACCESS:         37  HIT:          0  MISS:         37
L2C WRITEBACK ACCESS:          0  HIT:          0  MISS:          0
L2C PREFETCH  REQUESTED:          1  ISSUED:          1  USEFUL:          0  USELESS:          0
L2C TOTAL MSHR MERGED:          0
L2C LOAD MSHR MERGED:          0
L2C RFO MSHR MERGED:          0
L2C PREFETCH MSHR MERGED:          0
L2C WRITEBACK MSHR MERGED:          0
L2C TOTAL ACCESSES:       6924 HITS:       5749 MISSES:       1175
L2C LOAD ACCESSES:       6847 HITS:       5749 MISSES:       1098
L2C RFO ACCESSES:         40 HITS:          0 MISSES:         40
L2C PREFETCH ACCESSES:         37 HITS:          0 MISSES:         37
L2C WRITEBACK ACCESSES:          0 HITS:          0 MISSES:          0
L2C RQ ACCESS:       6887
L2C RQ TO_CACHE:       6887
L2C RQ MERGED:          0
L2C RQ FORWARD:          0
L2C WQ ACCESS:          0
L2C WQ TO_CACHE:          0
L2C WQ MERGED:          0
L2C WQ FORWARD:          0
LLC TOTAL     ACCESS:       1175  HIT:          0  MISS:       1175
LLC LOAD      ACCESS:       1098  HIT:          0  MISS:       1098
LLC RFO       ACCESS:         40  HIT:          0  MISS:         40
LLC PREFETCH  ACCESS:         37  HIT:          0  MISS:         37
LLC WRITEBACK ACCESS:          0  HIT:          0  MISS:          0
LLC PREFETCH  REQUESTED:          0  ISSUED:          0  USEFUL:          0  USELESS:         68
LLC TOTAL MSHR MERGED:          0
LLC LOAD MSHR MERGED:          0
LLC RFO MSHR MERGED:          0
LLC PREFETCH MSHR MERGED:          0
LLC WRITEBACK MSHR MERGED:          0
LLC TOTAL ACCESSES:       1175 HITS:          0 MISSES:       1175
LLC LOAD ACCESSES:       1098 HITS:          0 MISSES:       1098
LLC RFO ACCESSES:         40 HITS:          0 MISSES:         40
LLC PREFETCH ACCESSES:         37 HITS:          0 MISSES:         37
LLC WRITEBACK ACCESSES:          0 HITS:          0 MISSES:          0
LLC 0 RQ ACCESS:       1138
LLC 0 RQ TO_CACHE:       1138
LLC 0 RQ MERGED:          0
LLC 0 RQ FORWARD:          0
LLC WQ ACCESS:          0
LLC WQ TO_CACHE:          0
LLC WQ MERGED:          0
LLC WQ FORWARD:          0
Major fault: 0 Minor fault: 54
CPU 0 L1D next line prefetcher final stats
CPU 0 L2C PC-based stride prefetcher final stats
All Misses: 1721
All Hits: 0
SD Algo Stats - Switches: 0 SRR-Repls: 1432 BRR-Repls: 0

DRAM Statistics
 CHANNEL 0
 RQ ROW_BUFFER_HIT:       1037  ROW_BUFFER_MISS:        138
 DBUS_CONGESTED:        600
 WQ ROW_BUFFER_HIT:          0  ROW_BUFFER_MISS:          0  FULL:          0

 AVG_CONGESTED_CYCLE: 14
LOADS RETIRED: 187190224
INSTR RETIRED: 500000000
