
*** ChampSim Multicore Out-of-Order Simulator ***

Warmup Instructions: 100000000
Simulation Instructions: 500000000
Number of CPUs: 1
LLC sets: 2048
LLC ways: 16
Clean RRIP Policies: 2212230222122302 Dirty RRIP Policies: 1202130212021302 PSEL Width: 10 Track Set: 4294967295 PSEL Mask: 1 Demote Mask: 1044100010441000DS Algo: 0Window size: 0
Off-chip DRAM Size: 4096 MB Channels: 1 Width: 64-bit Data Rate: 1600 MT/s

CPU 0 runs /mnt/beegfs/iconst01/spec2017/Xalancbmk.trace.gz
NOT SORTED
TRACE STRING: /mnt/beegfs/iconst01/spec2017/Xalancbmk.trace.gz
SORTED
TRACE STRING: /mnt/beegfs/iconst01/spec2017/Xalancbmk.trace.gz
INITIAL
TRACE STRING: /mnt/beegfs/iconst01/spec2017/Xalancbmk.trace.gz

champsim_seed used: 913

CPU 0 L1D next line prefetcher
CPU 0 L2C IP-based stride prefetcher
Initialize DRRIP state
Assign rand_sets[0]: 454  LLC: 2048
rand_sets[0]: 454
Assign rand_sets[1]: 1662  LLC: 2048
rand_sets[1]: 1662
Assign rand_sets[2]: 1921  LLC: 2048
rand_sets[2]: 1921
Assign rand_sets[3]: 1131  LLC: 2048
rand_sets[3]: 1131
Assign rand_sets[4]: 331  LLC: 2048
rand_sets[4]: 331
Assign rand_sets[5]: 1531  LLC: 2048
rand_sets[5]: 1531
Assign rand_sets[6]: 482  LLC: 2048
rand_sets[6]: 482
Assign rand_sets[7]: 1275  LLC: 2048
rand_sets[7]: 1275
Assign rand_sets[8]: 1876  LLC: 2048
rand_sets[8]: 1876
Assign rand_sets[9]: 2038  LLC: 2048
rand_sets[9]: 2038
Assign rand_sets[10]: 701  LLC: 2048
rand_sets[10]: 701
Assign rand_sets[11]: 479  LLC: 2048
rand_sets[11]: 479
Assign rand_sets[12]: 892  LLC: 2048
rand_sets[12]: 892
Assign rand_sets[13]: 1820  LLC: 2048
rand_sets[13]: 1820
Assign rand_sets[14]: 1505  LLC: 2048
rand_sets[14]: 1505
Assign rand_sets[15]: 1159  LLC: 2048
rand_sets[15]: 1159
Assign rand_sets[16]: 513  LLC: 2048
rand_sets[16]: 513
Assign rand_sets[17]: 703  LLC: 2048
rand_sets[17]: 703
Assign rand_sets[18]: 561  LLC: 2048
rand_sets[18]: 561
Assign rand_sets[19]: 990  LLC: 2048
rand_sets[19]: 990
Assign rand_sets[20]: 342  LLC: 2048
rand_sets[20]: 342
Assign rand_sets[21]: 882  LLC: 2048
rand_sets[21]: 882
Assign rand_sets[22]: 15  LLC: 2048
rand_sets[22]: 15
Assign rand_sets[23]: 71  LLC: 2048
rand_sets[23]: 71
Assign rand_sets[24]: 1127  LLC: 2048
rand_sets[24]: 1127
Assign rand_sets[25]: 1382  LLC: 2048
rand_sets[25]: 1382
Assign rand_sets[26]: 647  LLC: 2048
rand_sets[26]: 647
Assign rand_sets[27]: 857  LLC: 2048
rand_sets[27]: 857
Assign rand_sets[28]: 1450  LLC: 2048
rand_sets[28]: 1450
Assign rand_sets[29]: 1160  LLC: 2048
rand_sets[29]: 1160
Assign rand_sets[30]: 1852  LLC: 2048
rand_sets[30]: 1852
Assign rand_sets[31]: 1881  LLC: 2048
rand_sets[31]: 1881
Assign rand_sets[32]: 1770  LLC: 2048
rand_sets[32]: 1770
Assign rand_sets[33]: 1622  LLC: 2048
rand_sets[33]: 1622
Assign rand_sets[34]: 275  LLC: 2048
rand_sets[34]: 275
Assign rand_sets[35]: 635  LLC: 2048
rand_sets[35]: 635
Assign rand_sets[36]: 466  LLC: 2048
rand_sets[36]: 466
Assign rand_sets[37]: 1413  LLC: 2048
rand_sets[37]: 1413
Assign rand_sets[38]: 417  LLC: 2048
rand_sets[38]: 417
Assign rand_sets[39]: 472  LLC: 2048
rand_sets[39]: 472
Assign rand_sets[40]: 1340  LLC: 2048
rand_sets[40]: 1340
Assign rand_sets[41]: 852  LLC: 2048
rand_sets[41]: 852
Assign rand_sets[42]: 1365  LLC: 2048
rand_sets[42]: 1365
Assign rand_sets[43]: 47  LLC: 2048
rand_sets[43]: 47
Assign rand_sets[44]: 823  LLC: 2048
rand_sets[44]: 823
Assign rand_sets[45]: 686  LLC: 2048
rand_sets[45]: 686
Assign rand_sets[46]: 1637  LLC: 2048
rand_sets[46]: 1637
Assign rand_sets[47]: 1115  LLC: 2048
rand_sets[47]: 1115
Assign rand_sets[48]: 986  LLC: 2048
rand_sets[48]: 986
Assign rand_sets[49]: 258  LLC: 2048
rand_sets[49]: 258
Assign rand_sets[50]: 633  LLC: 2048
rand_sets[50]: 633
Assign rand_sets[51]: 920  LLC: 2048
rand_sets[51]: 920
Assign rand_sets[52]: 204  LLC: 2048
rand_sets[52]: 204
Assign rand_sets[53]: 227  LLC: 2048
rand_sets[53]: 227
Assign rand_sets[54]: 1818  LLC: 2048
rand_sets[54]: 1818
Assign rand_sets[55]: 886  LLC: 2048
rand_sets[55]: 886
Assign rand_sets[56]: 1422  LLC: 2048
rand_sets[56]: 1422
Assign rand_sets[57]: 607  LLC: 2048
rand_sets[57]: 607
Assign rand_sets[58]: 217  LLC: 2048
rand_sets[58]: 217
Assign rand_sets[59]: 1945  LLC: 2048
rand_sets[59]: 1945
Assign rand_sets[60]: 143  LLC: 2048
rand_sets[60]: 143
Assign rand_sets[61]: 1311  LLC: 2048
rand_sets[61]: 1311
Assign rand_sets[62]: 319  LLC: 2048
rand_sets[62]: 319
Assign rand_sets[63]: 1846  LLC: 2048
rand_sets[63]: 1846
 CLEAN-RRIP-POLICY-1: 2-2-1-2-2-3-0-2- CLEAN-RRIP-POLICY-2: 2-2-1-2-2-3-0-2-
 DIRTY-RRIP-POLICY-1: 1-2-0-2-1-3-0-2- DIRTY-RRIP-POLICY-2: 1-2-0-2-1-3-0-2-
 PSEL width: 10
Heartbeat CPU 0 instructions: 10000003 cycles: 4615342 heartbeat IPC: 2.16669 cumulative IPC: 2.16669 (Simulation time: 0 hr 0 min 15 sec) 
Heartbeat CPU 0 instructions: 20000000 cycles: 9044141 heartbeat IPC: 2.25795 cumulative IPC: 2.21138 (Simulation time: 0 hr 0 min 29 sec) 
Heartbeat CPU 0 instructions: 30000000 cycles: 13493653 heartbeat IPC: 2.24744 cumulative IPC: 2.22327 (Simulation time: 0 hr 0 min 43 sec) 
Heartbeat CPU 0 instructions: 40000000 cycles: 18145613 heartbeat IPC: 2.14963 cumulative IPC: 2.20439 (Simulation time: 0 hr 0 min 59 sec) 
Heartbeat CPU 0 instructions: 50000002 cycles: 22594789 heartbeat IPC: 2.24761 cumulative IPC: 2.2129 (Simulation time: 0 hr 1 min 13 sec) 
Heartbeat CPU 0 instructions: 60000000 cycles: 27274950 heartbeat IPC: 2.13668 cumulative IPC: 2.19982 (Simulation time: 0 hr 1 min 29 sec) 
Heartbeat CPU 0 instructions: 70000003 cycles: 31708310 heartbeat IPC: 2.25563 cumulative IPC: 2.20762 (Simulation time: 0 hr 1 min 43 sec) 
Heartbeat CPU 0 instructions: 80000000 cycles: 36168232 heartbeat IPC: 2.24219 cumulative IPC: 2.21189 (Simulation time: 0 hr 1 min 58 sec) 
Heartbeat CPU 0 instructions: 90000002 cycles: 40668571 heartbeat IPC: 2.22206 cumulative IPC: 2.21301 (Simulation time: 0 hr 2 min 12 sec) 
Heartbeat CPU 0 instructions: 100000000 cycles: 45176260 heartbeat IPC: 2.21843 cumulative IPC: 2.21355 (Simulation time: 0 hr 2 min 27 sec) 

Warmup complete CPU 0 instructions: 100000003 cycles: 45176261 (Simulation time: 0 hr 2 min 27 sec) 

Heartbeat CPU 0 instructions: 110000000 cycles: 74900423 heartbeat IPC: 0.336427 cumulative IPC: 0.336427 (Simulation time: 0 hr 3 min 0 sec) 
Heartbeat CPU 0 instructions: 120000000 cycles: 109559454 heartbeat IPC: 0.288525 cumulative IPC: 0.31064 (Simulation time: 0 hr 3 min 37 sec) 
Heartbeat CPU 0 instructions: 130000000 cycles: 134701946 heartbeat IPC: 0.397733 cumulative IPC: 0.335099 (Simulation time: 0 hr 4 min 7 sec) 
Heartbeat CPU 0 instructions: 140000000 cycles: 158947296 heartbeat IPC: 0.41245 cumulative IPC: 0.351583 (Simulation time: 0 hr 4 min 36 sec) 
Heartbeat CPU 0 instructions: 150000000 cycles: 184862069 heartbeat IPC: 0.38588 cumulative IPC: 0.357946 (Simulation time: 0 hr 5 min 7 sec) 
Heartbeat CPU 0 instructions: 160000000 cycles: 211483487 heartbeat IPC: 0.375637 cumulative IPC: 0.360778 (Simulation time: 0 hr 5 min 38 sec) 
Heartbeat CPU 0 instructions: 170000002 cycles: 233968848 heartbeat IPC: 0.444734 cumulative IPC: 0.370777 (Simulation time: 0 hr 6 min 6 sec) 
Heartbeat CPU 0 instructions: 180000000 cycles: 257448401 heartbeat IPC: 0.425902 cumulative IPC: 0.376875 (Simulation time: 0 hr 6 min 35 sec) 
Heartbeat CPU 0 instructions: 190000000 cycles: 278224614 heartbeat IPC: 0.48132 cumulative IPC: 0.386186 (Simulation time: 0 hr 7 min 2 sec) 
Heartbeat CPU 0 instructions: 200000000 cycles: 299216246 heartbeat IPC: 0.47638 cumulative IPC: 0.393639 (Simulation time: 0 hr 7 min 29 sec) 
Heartbeat CPU 0 instructions: 210000001 cycles: 327555122 heartbeat IPC: 0.352872 cumulative IPC: 0.389548 (Simulation time: 0 hr 8 min 2 sec) 
Heartbeat CPU 0 instructions: 220000000 cycles: 355782345 heartbeat IPC: 0.354268 cumulative IPC: 0.386341 (Simulation time: 0 hr 8 min 34 sec) 
Heartbeat CPU 0 instructions: 230000000 cycles: 379706159 heartbeat IPC: 0.417994 cumulative IPC: 0.388605 (Simulation time: 0 hr 9 min 3 sec) 
Heartbeat CPU 0 instructions: 240000000 cycles: 406459749 heartbeat IPC: 0.373782 cumulative IPC: 0.387507 (Simulation time: 0 hr 9 min 34 sec) 
Heartbeat CPU 0 instructions: 250000001 cycles: 433677689 heartbeat IPC: 0.367405 cumulative IPC: 0.386099 (Simulation time: 0 hr 10 min 6 sec) 
Heartbeat CPU 0 instructions: 260000000 cycles: 455539090 heartbeat IPC: 0.457427 cumulative IPC: 0.389899 (Simulation time: 0 hr 10 min 34 sec) 
Heartbeat CPU 0 instructions: 270000000 cycles: 478108613 heartbeat IPC: 0.443075 cumulative IPC: 0.392671 (Simulation time: 0 hr 11 min 2 sec) 
Heartbeat CPU 0 instructions: 280000000 cycles: 509647933 heartbeat IPC: 0.317065 cumulative IPC: 0.387537 (Simulation time: 0 hr 11 min 36 sec) 
Heartbeat CPU 0 instructions: 290000000 cycles: 532196141 heartbeat IPC: 0.443494 cumulative IPC: 0.390128 (Simulation time: 0 hr 12 min 5 sec) 
Heartbeat CPU 0 instructions: 300000000 cycles: 553159570 heartbeat IPC: 0.477021 cumulative IPC: 0.393714 (Simulation time: 0 hr 12 min 31 sec) 
Heartbeat CPU 0 instructions: 310000000 cycles: 574212670 heartbeat IPC: 0.474989 cumulative IPC: 0.396948 (Simulation time: 0 hr 12 min 58 sec) 
Heartbeat CPU 0 instructions: 320000000 cycles: 607291478 heartbeat IPC: 0.302308 cumulative IPC: 0.391379 (Simulation time: 0 hr 13 min 33 sec) 
Heartbeat CPU 0 instructions: 330000001 cycles: 627214356 heartbeat IPC: 0.501936 cumulative IPC: 0.395163 (Simulation time: 0 hr 13 min 59 sec) 
Heartbeat CPU 0 instructions: 340000000 cycles: 647478417 heartbeat IPC: 0.493484 cumulative IPC: 0.398471 (Simulation time: 0 hr 14 min 25 sec) 
Heartbeat CPU 0 instructions: 350000000 cycles: 674859696 heartbeat IPC: 0.365213 cumulative IPC: 0.397025 (Simulation time: 0 hr 14 min 56 sec) 
Heartbeat CPU 0 instructions: 360000000 cycles: 697776644 heartbeat IPC: 0.436358 cumulative IPC: 0.398406 (Simulation time: 0 hr 15 min 24 sec) 
Heartbeat CPU 0 instructions: 370000001 cycles: 723784650 heartbeat IPC: 0.384497 cumulative IPC: 0.397873 (Simulation time: 0 hr 15 min 55 sec) 
Heartbeat CPU 0 instructions: 380000000 cycles: 747948264 heartbeat IPC: 0.413845 cumulative IPC: 0.398422 (Simulation time: 0 hr 16 min 23 sec) 
Heartbeat CPU 0 instructions: 390000000 cycles: 766674927 heartbeat IPC: 0.533998 cumulative IPC: 0.401941 (Simulation time: 0 hr 16 min 48 sec) 
Heartbeat CPU 0 instructions: 400000000 cycles: 788127246 heartbeat IPC: 0.46615 cumulative IPC: 0.403795 (Simulation time: 0 hr 17 min 15 sec) 
Heartbeat CPU 0 instructions: 410000001 cycles: 816116945 heartbeat IPC: 0.357274 cumulative IPC: 0.402106 (Simulation time: 0 hr 17 min 46 sec) 
Heartbeat CPU 0 instructions: 420000000 cycles: 842511080 heartbeat IPC: 0.378872 cumulative IPC: 0.401337 (Simulation time: 0 hr 18 min 16 sec) 
Heartbeat CPU 0 instructions: 430000002 cycles: 865169235 heartbeat IPC: 0.441342 cumulative IPC: 0.402442 (Simulation time: 0 hr 18 min 43 sec) 
Heartbeat CPU 0 instructions: 440000000 cycles: 885958624 heartbeat IPC: 0.481015 cumulative IPC: 0.404385 (Simulation time: 0 hr 19 min 10 sec) 
Heartbeat CPU 0 instructions: 450000002 cycles: 914988844 heartbeat IPC: 0.344469 cumulative IPC: 0.402386 (Simulation time: 0 hr 19 min 41 sec) 
Heartbeat CPU 0 instructions: 460000000 cycles: 944285142 heartbeat IPC: 0.34134 cumulative IPC: 0.400396 (Simulation time: 0 hr 20 min 13 sec) 
Heartbeat CPU 0 instructions: 470000002 cycles: 972163727 heartbeat IPC: 0.358698 cumulative IPC: 0.399142 (Simulation time: 0 hr 20 min 44 sec) 
Heartbeat CPU 0 instructions: 480000000 cycles: 997595040 heartbeat IPC: 0.393216 cumulative IPC: 0.398984 (Simulation time: 0 hr 21 min 14 sec) 
Heartbeat CPU 0 instructions: 490000000 cycles: 1019229386 heartbeat IPC: 0.462228 cumulative IPC: 0.400389 (Simulation time: 0 hr 21 min 40 sec) 
Heartbeat CPU 0 instructions: 500000000 cycles: 1045633966 heartbeat IPC: 0.378722 cumulative IPC: 0.399817 (Simulation time: 0 hr 22 min 10 sec) 
Heartbeat CPU 0 instructions: 510000000 cycles: 1072448127 heartbeat IPC: 0.372937 cumulative IPC: 0.399115 (Simulation time: 0 hr 22 min 40 sec) 
Heartbeat CPU 0 instructions: 520000000 cycles: 1094200068 heartbeat IPC: 0.459729 cumulative IPC: 0.400372 (Simulation time: 0 hr 23 min 7 sec) 
Heartbeat CPU 0 instructions: 530000003 cycles: 1121305106 heartbeat IPC: 0.368935 cumulative IPC: 0.39958 (Simulation time: 0 hr 23 min 38 sec) 
Heartbeat CPU 0 instructions: 540000000 cycles: 1145592195 heartbeat IPC: 0.411741 cumulative IPC: 0.399849 (Simulation time: 0 hr 24 min 6 sec) 
Heartbeat CPU 0 instructions: 550000000 cycles: 1172603438 heartbeat IPC: 0.370216 cumulative IPC: 0.399139 (Simulation time: 0 hr 24 min 37 sec) 
Heartbeat CPU 0 instructions: 560000000 cycles: 1196717062 heartbeat IPC: 0.414703 cumulative IPC: 0.399465 (Simulation time: 0 hr 25 min 5 sec) 
Heartbeat CPU 0 instructions: 570000002 cycles: 1221585457 heartbeat IPC: 0.402117 cumulative IPC: 0.399521 (Simulation time: 0 hr 25 min 34 sec) 
Heartbeat CPU 0 instructions: 580000000 cycles: 1243350335 heartbeat IPC: 0.459456 cumulative IPC: 0.40061 (Simulation time: 0 hr 26 min 1 sec) 
Heartbeat CPU 0 instructions: 590000001 cycles: 1268233631 heartbeat IPC: 0.401876 cumulative IPC: 0.400635 (Simulation time: 0 hr 26 min 30 sec) 
Heartbeat CPU 0 instructions: 600000000 cycles: 1287823291 heartbeat IPC: 0.510473 cumulative IPC: 0.402367 (Simulation time: 0 hr 26 min 55 sec) 
Finished CPU 0 instructions: 500000000 cycles: 1242647051 cumulative IPC: 0.402367 (Simulation time: 0 hr 26 min 55 sec) 

CPU 0 Branch Prediction Accuracy: 99.5434% MPKI: 1.33026
Number of Branches: 145676990 Number of Mispredictions: 665128
Number of LOAD Instructions: 188863207
Number of LOAD Instructions (ROI): 188863207
Number of STORE Instructions: 7332002
Number of STORE Instructions (ROI): 7332002
Total Destination Memory Operands: 10029285
Total Destination Memory Operands (ROI): 10029285
Total Source Memory Operands: 188863207
Total Source Memory Operands (ROI): 188863207
Number of DEPENDED LOADS: 291689
Number of DEPENDED LOADS (ROI): 291689
Number of SQ_ADDED: 10029285
Number of SQ_ADDED (ROI): 10029285
Number of LQ_ADDED: 200599388
Number of LQ_ADDED (ROI): 200599388
Number of Instructions read from trace: 600000010

ChampSim completed all CPUs

Region of Interest Statistics

CPU 0 cumulative IPC: 0.402367 instructions: 500000000 cycles: 1242647051
ITLB TOTAL     ACCESS:  145723832  HIT:  145684304  MISS:      39528
ITLB LOAD      ACCESS:  145723832  HIT:  145684304  MISS:      39528
ITLB RFO       ACCESS:          0  HIT:          0  MISS:          0
ITLB PREFETCH  ACCESS:          0  HIT:          0  MISS:          0
ITLB WRITEBACK ACCESS:          0  HIT:          0  MISS:          0
ITLB PREFETCH  REQUESTED:          0  ISSUED:          0  USEFUL:          0  USELESS:          0
ITLB TOTAL MSHR MERGED:      57389
ITLB LOAD MSHR MERGED:      57389
ITLB RFO MSHR MERGED:          0
ITLB PREFETCH MSHR MERGED:          0
ITLB WRITEBACK MSHR MERGED:          0
ITLB TOTAL ACCESSES:  145781221 HITS:  145684304 MISSES:      96917
ITLB LOAD ACCESSES:  145781221 HITS:  145684304 MISSES:      96917
ITLB RFO ACCESSES:          0 HITS:          0 MISSES:          0
ITLB PREFETCH ACCESSES:          0 HITS:          0 MISSES:          0
ITLB WRITEBACK ACCESSES:          0 HITS:          0 MISSES:          0
ITLB RQ ACCESS:  499999754
ITLB RQ TO_CACHE:  145781221
ITLB RQ MERGED:  354218533
ITLB RQ FORWARD:          0
ITLB WQ ACCESS:          0
ITLB WQ TO_CACHE:          0
ITLB WQ MERGED:          0
ITLB WQ FORWARD:          0
DTLB TOTAL     ACCESS:  135326363  HIT:  134158006  MISS:    1168357
DTLB LOAD      ACCESS:  127285196  HIT:  126125943  MISS:    1159253
DTLB RFO       ACCESS:    8041167  HIT:    8032063  MISS:       9104
DTLB PREFETCH  ACCESS:          0  HIT:          0  MISS:          0
DTLB WRITEBACK ACCESS:          0  HIT:          0  MISS:          0
DTLB PREFETCH  REQUESTED:          0  ISSUED:          0  USEFUL:          0  USELESS:          0
DTLB TOTAL MSHR MERGED:     565438
DTLB LOAD MSHR MERGED:     561084
DTLB RFO MSHR MERGED:       4354
DTLB PREFETCH MSHR MERGED:          0
DTLB WRITEBACK MSHR MERGED:          0
DTLB TOTAL ACCESSES:  135891801 HITS:  134158006 MISSES:    1733795
DTLB LOAD ACCESSES:  127846280 HITS:  126125943 MISSES:    1720337
DTLB RFO ACCESSES:    8045521 HITS:    8032063 MISSES:      13458
DTLB PREFETCH ACCESSES:          0 HITS:          0 MISSES:          0
DTLB WRITEBACK ACCESSES:          0 HITS:          0 MISSES:          0
DTLB RQ ACCESS:  165762696
DTLB RQ TO_CACHE:  135891801
DTLB RQ MERGED:   29870895
DTLB RQ FORWARD:          0
DTLB WQ ACCESS:          0
DTLB WQ TO_CACHE:          0
DTLB WQ MERGED:          0
DTLB WQ FORWARD:          0
L1D TOTAL     ACCESS:  157904818  HIT:  140589136  MISS:   17315682
L1D LOAD      ACCESS:   90149026  HIT:   79191934  MISS:   10957092
L1D RFO       ACCESS:    8501527  HIT:    8414508  MISS:      87019
L1D PREFETCH  ACCESS:   59254265  HIT:   52982694  MISS:    6271571
L1D WRITEBACK ACCESS:          0  HIT:          0  MISS:          0
L1D PREFETCH  REQUESTED:   93740896  ISSUED:   92872148  USEFUL:    2190111  USELESS:    4081534
L1D TOTAL MSHR MERGED:   14135273
L1D LOAD MSHR MERGED:    6831296
L1D RFO MSHR MERGED:     122810
L1D PREFETCH MSHR MERGED:    7181167
L1D WRITEBACK MSHR MERGED:          0
L1D TOTAL ACCESSES:  172040255 HITS:  140589299 MISSES:   31450956
L1D LOAD ACCESSES:   93740897 HITS:   79191935 MISSES:   14548962
L1D RFO ACCESSES:    8622646 HITS:    8414508 MISSES:     208138
L1D PREFETCH ACCESSES:   69676712 HITS:   52982856 MISSES:   16693856
L1D WRITEBACK ACCESSES:          0 HITS:          0 MISSES:          0
L1D RQ ACCESS:  157123490
L1D RQ TO_CACHE:   93740896
L1D RQ MERGED:   63382593
L1D RQ FORWARD:          0
L1D WQ ACCESS:    8639208
L1D WQ TO_CACHE:    8622646
L1D WQ MERGED:      16562
L1D WQ FORWARD:        163
L1I TOTAL     ACCESS:  178715089  HIT:  178051539  MISS:     663550
L1I LOAD      ACCESS:  178715089  HIT:  178051539  MISS:     663550
L1I RFO       ACCESS:          0  HIT:          0  MISS:          0
L1I PREFETCH  ACCESS:          0  HIT:          0  MISS:          0
L1I WRITEBACK ACCESS:          0  HIT:          0  MISS:          0
L1I PREFETCH  REQUESTED:          0  ISSUED:          0  USEFUL:          0  USELESS:          0
L1I TOTAL MSHR MERGED:     607752
L1I LOAD MSHR MERGED:     607752
L1I RFO MSHR MERGED:          0
L1I PREFETCH MSHR MERGED:          0
L1I WRITEBACK MSHR MERGED:          0
L1I TOTAL ACCESSES:  179322841 HITS:  178051539 MISSES:    1271302
L1I LOAD ACCESSES:  179322841 HITS:  178051539 MISSES:    1271302
L1I RFO ACCESSES:          0 HITS:          0 MISSES:          0
L1I PREFETCH ACCESSES:          0 HITS:          0 MISSES:          0
L1I WRITEBACK ACCESSES:          0 HITS:          0 MISSES:          0
L1I RQ ACCESS:  499999757
L1I RQ TO_CACHE:  179322841
L1I RQ MERGED:  320676916
L1I RQ FORWARD:          0
L1I WQ ACCESS:          0
L1I WQ TO_CACHE:          0
L1I WQ MERGED:          0
L1I WQ FORWARD:          0
L2C TOTAL     ACCESS:   19271417  HIT:    2053485  MISS:   17217932
L2C LOAD      ACCESS:    8381116  HIT:     949816  MISS:    7431300
L2C RFO       ACCESS:      85304  HIT:      53737  MISS:      31567
L2C PREFETCH  ACCESS:   10520010  HIT:     767755  MISS:    9752255
L2C WRITEBACK ACCESS:     284987  HIT:     282177  MISS:       2810
L2C PREFETCH  REQUESTED:    1009874  ISSUED:    1009874  USEFUL:     273636  USELESS:    9477704
L2C TOTAL MSHR MERGED:        805
L2C LOAD MSHR MERGED:        178
L2C RFO MSHR MERGED:          1
L2C PREFETCH MSHR MERGED:        626
L2C WRITEBACK MSHR MERGED:          0
L2C TOTAL ACCESSES:   19272836 HITS:    2053671 MISSES:   17219165
L2C LOAD ACCESSES:    8381216 HITS:     949916 MISSES:    7431300
L2C RFO ACCESSES:      85328 HITS:      53761 MISSES:      31567
L2C PREFETCH ACCESSES:   10521305 HITS:     767817 MISSES:    9753488
L2C WRITEBACK ACCESSES:     284987 HITS:     282177 MISSES:       2810
L2C RQ ACCESS:    8466544
L2C RQ TO_CACHE:    8466420
L2C RQ MERGED:          0
L2C RQ FORWARD:          0
L2C WQ ACCESS:     284987
L2C WQ TO_CACHE:     284987
L2C WQ MERGED:          0
L2C WQ FORWARD:        186
LLC TOTAL     ACCESS:   17321600  HIT:    2615401  MISS:   14706199
LLC LOAD      ACCESS:    7431122  HIT:    1246679  MISS:    6184443
LLC RFO       ACCESS:      31566  HIT:      19891  MISS:      11675
LLC PREFETCH  ACCESS:    9752855  HIT:    1252222  MISS:    8500633
LLC WRITEBACK ACCESS:     106057  HIT:      96609  MISS:       9448
LLC PREFETCH  REQUESTED:          0  ISSUED:          0  USEFUL:      59437  USELESS:    8440296
LLC TOTAL MSHR MERGED:          5
LLC LOAD MSHR MERGED:          0
LLC RFO MSHR MERGED:          0
LLC PREFETCH MSHR MERGED:          5
LLC WRITEBACK MSHR MERGED:          0
LLC TOTAL ACCESSES:   17321606 HITS:    2615401 MISSES:   14706205
LLC LOAD ACCESSES:    7431122 HITS:    1246679 MISSES:    6184443
LLC RFO ACCESSES:      31566 HITS:      19891 MISSES:      11675
LLC PREFETCH ACCESSES:    9752861 HITS:    1252222 MISSES:    8500639
LLC WRITEBACK ACCESSES:     106057 HITS:      96609 MISSES:       9448
LLC 0 RQ ACCESS:    7462688
LLC 0 RQ TO_CACHE:    7462688
LLC 0 RQ MERGED:          0
LLC 0 RQ FORWARD:          0
LLC WQ ACCESS:     106057
LLC WQ TO_CACHE:     106057
LLC WQ MERGED:          0
LLC WQ FORWARD:          0
Major fault: 0 Minor fault: 6432
CPU 0 L1D next line prefetcher final stats
CPU 0 L2C PC-based stride prefetcher final stats
All Misses: 17314048
All Hits: 3226257
SD Algo Stats - Switches: 0 SRR-Repls: 6811363 BRR-Repls: 0

DRAM Statistics
 CHANNEL 0
 RQ ROW_BUFFER_HIT:   11632245  ROW_BUFFER_MISS:    3060015
 DBUS_CONGESTED:    7999976
 WQ ROW_BUFFER_HIT:       1414  ROW_BUFFER_MISS:      29907  FULL:          0

 AVG_CONGESTED_CYCLE: 13
LOADS RETIRED: 157382665
INSTR RETIRED: 500000000
