
*** ChampSim Multicore Out-of-Order Simulator ***

Warmup Instructions: 100000000
Simulation Instructions: 500000000
Number of CPUs: 1
LLC sets: 2048
LLC ways: 16
Clean RRIP Policies: 2321000323210003 Dirty RRIP Policies: 2301200323012003 PSEL Width: 10 Track Set: 4294967295 PSEL Mask: 1 Demote Mask: 2333133323331333DS Algo: 0Window size: 0
Off-chip DRAM Size: 4096 MB Channels: 1 Width: 64-bit Data Rate: 1600 MT/s

CPU 0 runs /mnt/beegfs/iconst01/spec2017/Gcc.trace.gz
NOT SORTED
TRACE STRING: /mnt/beegfs/iconst01/spec2017/Gcc.trace.gz
SORTED
TRACE STRING: /mnt/beegfs/iconst01/spec2017/Gcc.trace.gz
INITIAL
TRACE STRING: /mnt/beegfs/iconst01/spec2017/Gcc.trace.gz

champsim_seed used: 269

CPU 0 L1D next line prefetcher
CPU 0 L2C IP-based stride prefetcher
Initialize DRRIP state
Assign rand_sets[0]: 454  LLC: 2048
rand_sets[0]: 454
Assign rand_sets[1]: 1662  LLC: 2048
rand_sets[1]: 1662
Assign rand_sets[2]: 1921  LLC: 2048
rand_sets[2]: 1921
Assign rand_sets[3]: 1131  LLC: 2048
rand_sets[3]: 1131
Assign rand_sets[4]: 331  LLC: 2048
rand_sets[4]: 331
Assign rand_sets[5]: 1531  LLC: 2048
rand_sets[5]: 1531
Assign rand_sets[6]: 482  LLC: 2048
rand_sets[6]: 482
Assign rand_sets[7]: 1275  LLC: 2048
rand_sets[7]: 1275
Assign rand_sets[8]: 1876  LLC: 2048
rand_sets[8]: 1876
Assign rand_sets[9]: 2038  LLC: 2048
rand_sets[9]: 2038
Assign rand_sets[10]: 701  LLC: 2048
rand_sets[10]: 701
Assign rand_sets[11]: 479  LLC: 2048
rand_sets[11]: 479
Assign rand_sets[12]: 892  LLC: 2048
rand_sets[12]: 892
Assign rand_sets[13]: 1820  LLC: 2048
rand_sets[13]: 1820
Assign rand_sets[14]: 1505  LLC: 2048
rand_sets[14]: 1505
Assign rand_sets[15]: 1159  LLC: 2048
rand_sets[15]: 1159
Assign rand_sets[16]: 513  LLC: 2048
rand_sets[16]: 513
Assign rand_sets[17]: 703  LLC: 2048
rand_sets[17]: 703
Assign rand_sets[18]: 561  LLC: 2048
rand_sets[18]: 561
Assign rand_sets[19]: 990  LLC: 2048
rand_sets[19]: 990
Assign rand_sets[20]: 342  LLC: 2048
rand_sets[20]: 342
Assign rand_sets[21]: 882  LLC: 2048
rand_sets[21]: 882
Assign rand_sets[22]: 15  LLC: 2048
rand_sets[22]: 15
Assign rand_sets[23]: 71  LLC: 2048
rand_sets[23]: 71
Assign rand_sets[24]: 1127  LLC: 2048
rand_sets[24]: 1127
Assign rand_sets[25]: 1382  LLC: 2048
rand_sets[25]: 1382
Assign rand_sets[26]: 647  LLC: 2048
rand_sets[26]: 647
Assign rand_sets[27]: 857  LLC: 2048
rand_sets[27]: 857
Assign rand_sets[28]: 1450  LLC: 2048
rand_sets[28]: 1450
Assign rand_sets[29]: 1160  LLC: 2048
rand_sets[29]: 1160
Assign rand_sets[30]: 1852  LLC: 2048
rand_sets[30]: 1852
Assign rand_sets[31]: 1881  LLC: 2048
rand_sets[31]: 1881
Assign rand_sets[32]: 1770  LLC: 2048
rand_sets[32]: 1770
Assign rand_sets[33]: 1622  LLC: 2048
rand_sets[33]: 1622
Assign rand_sets[34]: 275  LLC: 2048
rand_sets[34]: 275
Assign rand_sets[35]: 635  LLC: 2048
rand_sets[35]: 635
Assign rand_sets[36]: 466  LLC: 2048
rand_sets[36]: 466
Assign rand_sets[37]: 1413  LLC: 2048
rand_sets[37]: 1413
Assign rand_sets[38]: 417  LLC: 2048
rand_sets[38]: 417
Assign rand_sets[39]: 472  LLC: 2048
rand_sets[39]: 472
Assign rand_sets[40]: 1340  LLC: 2048
rand_sets[40]: 1340
Assign rand_sets[41]: 852  LLC: 2048
rand_sets[41]: 852
Assign rand_sets[42]: 1365  LLC: 2048
rand_sets[42]: 1365
Assign rand_sets[43]: 47  LLC: 2048
rand_sets[43]: 47
Assign rand_sets[44]: 823  LLC: 2048
rand_sets[44]: 823
Assign rand_sets[45]: 686  LLC: 2048
rand_sets[45]: 686
Assign rand_sets[46]: 1637  LLC: 2048
rand_sets[46]: 1637
Assign rand_sets[47]: 1115  LLC: 2048
rand_sets[47]: 1115
Assign rand_sets[48]: 986  LLC: 2048
rand_sets[48]: 986
Assign rand_sets[49]: 258  LLC: 2048
rand_sets[49]: 258
Assign rand_sets[50]: 633  LLC: 2048
rand_sets[50]: 633
Assign rand_sets[51]: 920  LLC: 2048
rand_sets[51]: 920
Assign rand_sets[52]: 204  LLC: 2048
rand_sets[52]: 204
Assign rand_sets[53]: 227  LLC: 2048
rand_sets[53]: 227
Assign rand_sets[54]: 1818  LLC: 2048
rand_sets[54]: 1818
Assign rand_sets[55]: 886  LLC: 2048
rand_sets[55]: 886
Assign rand_sets[56]: 1422  LLC: 2048
rand_sets[56]: 1422
Assign rand_sets[57]: 607  LLC: 2048
rand_sets[57]: 607
Assign rand_sets[58]: 217  LLC: 2048
rand_sets[58]: 217
Assign rand_sets[59]: 1945  LLC: 2048
rand_sets[59]: 1945
Assign rand_sets[60]: 143  LLC: 2048
rand_sets[60]: 143
Assign rand_sets[61]: 1311  LLC: 2048
rand_sets[61]: 1311
Assign rand_sets[62]: 319  LLC: 2048
rand_sets[62]: 319
Assign rand_sets[63]: 1846  LLC: 2048
rand_sets[63]: 1846
 CLEAN-RRIP-POLICY-1: 2-3-2-1-0-0-0-3- CLEAN-RRIP-POLICY-2: 2-3-2-1-0-0-0-3-
 DIRTY-RRIP-POLICY-1: 2-3-0-1-2-0-0-3- DIRTY-RRIP-POLICY-2: 2-3-0-1-2-0-0-3-
 PSEL width: 10
Heartbeat CPU 0 instructions: 10000001 cycles: 7320972 heartbeat IPC: 1.36594 cumulative IPC: 1.36594 (Simulation time: 0 hr 0 min 15 sec) 
Heartbeat CPU 0 instructions: 20000000 cycles: 14325622 heartbeat IPC: 1.42762 cumulative IPC: 1.3961 (Simulation time: 0 hr 0 min 30 sec) 
Heartbeat CPU 0 instructions: 30000001 cycles: 21042106 heartbeat IPC: 1.48887 cumulative IPC: 1.42571 (Simulation time: 0 hr 0 min 46 sec) 
Heartbeat CPU 0 instructions: 40000000 cycles: 27504031 heartbeat IPC: 1.54753 cumulative IPC: 1.45433 (Simulation time: 0 hr 1 min 3 sec) 
Heartbeat CPU 0 instructions: 50000001 cycles: 33606904 heartbeat IPC: 1.63857 cumulative IPC: 1.48779 (Simulation time: 0 hr 1 min 19 sec) 
Heartbeat CPU 0 instructions: 60000000 cycles: 40089200 heartbeat IPC: 1.54266 cumulative IPC: 1.49666 (Simulation time: 0 hr 1 min 35 sec) 
Heartbeat CPU 0 instructions: 70000000 cycles: 47132340 heartbeat IPC: 1.41982 cumulative IPC: 1.48518 (Simulation time: 0 hr 1 min 51 sec) 
Heartbeat CPU 0 instructions: 80000000 cycles: 54227950 heartbeat IPC: 1.40932 cumulative IPC: 1.47525 (Simulation time: 0 hr 2 min 6 sec) 
Heartbeat CPU 0 instructions: 90000003 cycles: 61238601 heartbeat IPC: 1.4264 cumulative IPC: 1.46966 (Simulation time: 0 hr 2 min 21 sec) 
Heartbeat CPU 0 instructions: 100000000 cycles: 68412238 heartbeat IPC: 1.39399 cumulative IPC: 1.46173 (Simulation time: 0 hr 2 min 36 sec) 

Warmup complete CPU 0 instructions: 100000004 cycles: 68412239 (Simulation time: 0 hr 2 min 36 sec) 

Heartbeat CPU 0 instructions: 110000003 cycles: 97066846 heartbeat IPC: 0.348984 cumulative IPC: 0.348984 (Simulation time: 0 hr 3 min 6 sec) 
Heartbeat CPU 0 instructions: 120000000 cycles: 124904001 heartbeat IPC: 0.359232 cumulative IPC: 0.354034 (Simulation time: 0 hr 3 min 36 sec) 
Heartbeat CPU 0 instructions: 130000000 cycles: 150230205 heartbeat IPC: 0.394848 cumulative IPC: 0.366668 (Simulation time: 0 hr 4 min 5 sec) 
Heartbeat CPU 0 instructions: 140000000 cycles: 181643906 heartbeat IPC: 0.318332 cumulative IPC: 0.353258 (Simulation time: 0 hr 4 min 36 sec) 
Heartbeat CPU 0 instructions: 150000000 cycles: 212766748 heartbeat IPC: 0.321307 cumulative IPC: 0.346369 (Simulation time: 0 hr 5 min 6 sec) 
Heartbeat CPU 0 instructions: 160000000 cycles: 240622130 heartbeat IPC: 0.358997 cumulative IPC: 0.348412 (Simulation time: 0 hr 5 min 35 sec) 
Heartbeat CPU 0 instructions: 170000001 cycles: 269176984 heartbeat IPC: 0.350203 cumulative IPC: 0.348667 (Simulation time: 0 hr 6 min 6 sec) 
Heartbeat CPU 0 instructions: 180000000 cycles: 298258661 heartbeat IPC: 0.343859 cumulative IPC: 0.348058 (Simulation time: 0 hr 6 min 36 sec) 
Heartbeat CPU 0 instructions: 190000002 cycles: 326964214 heartbeat IPC: 0.348365 cumulative IPC: 0.348092 (Simulation time: 0 hr 7 min 7 sec) 
Heartbeat CPU 0 instructions: 200000000 cycles: 356019417 heartbeat IPC: 0.344172 cumulative IPC: 0.347696 (Simulation time: 0 hr 7 min 37 sec) 
Heartbeat CPU 0 instructions: 210000002 cycles: 384530732 heartbeat IPC: 0.350738 cumulative IPC: 0.347971 (Simulation time: 0 hr 8 min 7 sec) 
Heartbeat CPU 0 instructions: 220000000 cycles: 415374187 heartbeat IPC: 0.324218 cumulative IPC: 0.345859 (Simulation time: 0 hr 8 min 37 sec) 
Heartbeat CPU 0 instructions: 230000000 cycles: 443770279 heartbeat IPC: 0.352161 cumulative IPC: 0.346336 (Simulation time: 0 hr 9 min 6 sec) 
Heartbeat CPU 0 instructions: 240000000 cycles: 470310384 heartbeat IPC: 0.376788 cumulative IPC: 0.348347 (Simulation time: 0 hr 9 min 34 sec) 
Heartbeat CPU 0 instructions: 250000000 cycles: 500906128 heartbeat IPC: 0.326843 cumulative IPC: 0.346826 (Simulation time: 0 hr 10 min 6 sec) 
Heartbeat CPU 0 instructions: 260000000 cycles: 528289492 heartbeat IPC: 0.365185 cumulative IPC: 0.347919 (Simulation time: 0 hr 10 min 35 sec) 
Heartbeat CPU 0 instructions: 270000003 cycles: 557221102 heartbeat IPC: 0.345643 cumulative IPC: 0.347784 (Simulation time: 0 hr 11 min 6 sec) 
Heartbeat CPU 0 instructions: 280000000 cycles: 585992227 heartbeat IPC: 0.347571 cumulative IPC: 0.347772 (Simulation time: 0 hr 11 min 37 sec) 
Heartbeat CPU 0 instructions: 290000000 cycles: 615364834 heartbeat IPC: 0.340453 cumulative IPC: 0.347379 (Simulation time: 0 hr 12 min 9 sec) 
Heartbeat CPU 0 instructions: 300000000 cycles: 646674470 heartbeat IPC: 0.31939 cumulative IPC: 0.345864 (Simulation time: 0 hr 12 min 38 sec) 
Heartbeat CPU 0 instructions: 310000001 cycles: 677080898 heartbeat IPC: 0.328878 cumulative IPC: 0.345015 (Simulation time: 0 hr 13 min 8 sec) 
Heartbeat CPU 0 instructions: 320000000 cycles: 706434806 heartbeat IPC: 0.34067 cumulative IPC: 0.344815 (Simulation time: 0 hr 13 min 38 sec) 
Heartbeat CPU 0 instructions: 330000000 cycles: 735887555 heartbeat IPC: 0.339527 cumulative IPC: 0.344582 (Simulation time: 0 hr 14 min 8 sec) 
Heartbeat CPU 0 instructions: 340000000 cycles: 766135618 heartbeat IPC: 0.3306 cumulative IPC: 0.343976 (Simulation time: 0 hr 14 min 38 sec) 
Heartbeat CPU 0 instructions: 350000003 cycles: 793730438 heartbeat IPC: 0.362387 cumulative IPC: 0.344676 (Simulation time: 0 hr 15 min 7 sec) 
Heartbeat CPU 0 instructions: 360000000 cycles: 824609829 heartbeat IPC: 0.32384 cumulative IPC: 0.343825 (Simulation time: 0 hr 15 min 37 sec) 
Heartbeat CPU 0 instructions: 370000000 cycles: 855614836 heartbeat IPC: 0.322529 cumulative IPC: 0.342987 (Simulation time: 0 hr 16 min 6 sec) 
Heartbeat CPU 0 instructions: 380000000 cycles: 887035233 heartbeat IPC: 0.318265 cumulative IPC: 0.342038 (Simulation time: 0 hr 16 min 36 sec) 
Heartbeat CPU 0 instructions: 390000001 cycles: 917452733 heartbeat IPC: 0.328758 cumulative IPC: 0.341562 (Simulation time: 0 hr 17 min 5 sec) 
Heartbeat CPU 0 instructions: 400000000 cycles: 948842106 heartbeat IPC: 0.318579 cumulative IPC: 0.340743 (Simulation time: 0 hr 17 min 35 sec) 
Heartbeat CPU 0 instructions: 410000001 cycles: 979022596 heartbeat IPC: 0.33134 cumulative IPC: 0.340431 (Simulation time: 0 hr 18 min 4 sec) 
Heartbeat CPU 0 instructions: 420000000 cycles: 1009197449 heartbeat IPC: 0.331402 cumulative IPC: 0.340141 (Simulation time: 0 hr 18 min 33 sec) 
Heartbeat CPU 0 instructions: 430000002 cycles: 1039812613 heartbeat IPC: 0.326636 cumulative IPC: 0.339716 (Simulation time: 0 hr 19 min 3 sec) 
Heartbeat CPU 0 instructions: 440000000 cycles: 1071702095 heartbeat IPC: 0.313583 cumulative IPC: 0.338885 (Simulation time: 0 hr 19 min 31 sec) 
Heartbeat CPU 0 instructions: 450000002 cycles: 1103425835 heartbeat IPC: 0.315221 cumulative IPC: 0.33816 (Simulation time: 0 hr 20 min 0 sec) 
Heartbeat CPU 0 instructions: 460000000 cycles: 1133935367 heartbeat IPC: 0.327766 cumulative IPC: 0.337862 (Simulation time: 0 hr 20 min 28 sec) 
Heartbeat CPU 0 instructions: 470000000 cycles: 1163982360 heartbeat IPC: 0.332812 cumulative IPC: 0.337724 (Simulation time: 0 hr 20 min 56 sec) 
Heartbeat CPU 0 instructions: 480000000 cycles: 1194322364 heartbeat IPC: 0.329598 cumulative IPC: 0.337505 (Simulation time: 0 hr 21 min 24 sec) 
Heartbeat CPU 0 instructions: 490000000 cycles: 1224406219 heartbeat IPC: 0.332404 cumulative IPC: 0.337372 (Simulation time: 0 hr 21 min 52 sec) 
Heartbeat CPU 0 instructions: 500000000 cycles: 1254922896 heartbeat IPC: 0.32769 cumulative IPC: 0.337123 (Simulation time: 0 hr 22 min 20 sec) 
Heartbeat CPU 0 instructions: 510000000 cycles: 1290690411 heartbeat IPC: 0.279583 cumulative IPC: 0.335439 (Simulation time: 0 hr 22 min 51 sec) 
Heartbeat CPU 0 instructions: 520000000 cycles: 1318950593 heartbeat IPC: 0.353855 cumulative IPC: 0.335855 (Simulation time: 0 hr 23 min 19 sec) 
Heartbeat CPU 0 instructions: 530000001 cycles: 1349707737 heartbeat IPC: 0.325128 cumulative IPC: 0.335598 (Simulation time: 0 hr 23 min 47 sec) 
Heartbeat CPU 0 instructions: 540000000 cycles: 1378851774 heartbeat IPC: 0.343123 cumulative IPC: 0.335765 (Simulation time: 0 hr 24 min 16 sec) 
Heartbeat CPU 0 instructions: 550000001 cycles: 1408418212 heartbeat IPC: 0.338221 cumulative IPC: 0.335819 (Simulation time: 0 hr 24 min 46 sec) 
Heartbeat CPU 0 instructions: 560000000 cycles: 1434125253 heartbeat IPC: 0.388998 cumulative IPC: 0.33682 (Simulation time: 0 hr 25 min 13 sec) 
Heartbeat CPU 0 instructions: 570000000 cycles: 1464710688 heartbeat IPC: 0.326953 cumulative IPC: 0.336604 (Simulation time: 0 hr 25 min 42 sec) 
Heartbeat CPU 0 instructions: 580000000 cycles: 1493553808 heartbeat IPC: 0.346703 cumulative IPC: 0.336809 (Simulation time: 0 hr 26 min 11 sec) 
Heartbeat CPU 0 instructions: 590000001 cycles: 1518803179 heartbeat IPC: 0.396049 cumulative IPC: 0.33784 (Simulation time: 0 hr 26 min 38 sec) 
Heartbeat CPU 0 instructions: 600000000 cycles: 1545932027 heartbeat IPC: 0.368611 cumulative IPC: 0.338405 (Simulation time: 0 hr 27 min 5 sec) 
Finished CPU 0 instructions: 500000000 cycles: 1477519810 cumulative IPC: 0.338405 (Simulation time: 0 hr 27 min 5 sec) 

CPU 0 Branch Prediction Accuracy: 86.4311% MPKI: 26.2662
Number of Branches: 96788573 Number of Mispredictions: 13133102
Number of LOAD Instructions: 164682285
Number of LOAD Instructions (ROI): 164682285
Number of STORE Instructions: 78194750
Number of STORE Instructions (ROI): 78194750
Total Destination Memory Operands: 83268534
Total Destination Memory Operands (ROI): 83268534
Total Source Memory Operands: 164712438
Total Source Memory Operands (ROI): 164712438
Number of DEPENDED LOADS: 7057814
Number of DEPENDED LOADS (ROI): 7057814
Number of SQ_ADDED: 83268522
Number of SQ_ADDED (ROI): 83268522
Number of LQ_ADDED: 236463802
Number of LQ_ADDED (ROI): 236463802
Number of Instructions read from trace: 600000066

ChampSim completed all CPUs

Region of Interest Statistics

CPU 0 cumulative IPC: 0.338405 instructions: 500000000 cycles: 1477519810
ITLB TOTAL     ACCESS:  100525251  HIT:  100320805  MISS:     204446
ITLB LOAD      ACCESS:  100525251  HIT:  100320805  MISS:     204446
ITLB RFO       ACCESS:          0  HIT:          0  MISS:          0
ITLB PREFETCH  ACCESS:          0  HIT:          0  MISS:          0
ITLB WRITEBACK ACCESS:          0  HIT:          0  MISS:          0
ITLB PREFETCH  REQUESTED:          0  ISSUED:          0  USEFUL:          0  USELESS:          0
ITLB TOTAL MSHR MERGED:     172423
ITLB LOAD MSHR MERGED:     172423
ITLB RFO MSHR MERGED:          0
ITLB PREFETCH MSHR MERGED:          0
ITLB WRITEBACK MSHR MERGED:          0
ITLB TOTAL ACCESSES:  100697674 HITS:  100320805 MISSES:     376869
ITLB LOAD ACCESSES:  100697674 HITS:  100320805 MISSES:     376869
ITLB RFO ACCESSES:          0 HITS:          0 MISSES:          0
ITLB PREFETCH ACCESSES:          0 HITS:          0 MISSES:          0
ITLB WRITEBACK ACCESSES:          0 HITS:          0 MISSES:          0
ITLB RQ ACCESS:  500000057
ITLB RQ TO_CACHE:  100697674
ITLB RQ MERGED:  399302383
ITLB RQ FORWARD:          0
ITLB WQ ACCESS:          0
ITLB WQ TO_CACHE:          0
ITLB WQ MERGED:          0
ITLB WQ FORWARD:          0
DTLB TOTAL     ACCESS:  165352666  HIT:  164718318  MISS:     634348
DTLB LOAD      ACCESS:  106303088  HIT:  105733040  MISS:     570048
DTLB RFO       ACCESS:   59049578  HIT:   58985278  MISS:      64300
DTLB PREFETCH  ACCESS:          0  HIT:          0  MISS:          0
DTLB WRITEBACK ACCESS:          0  HIT:          0  MISS:          0
DTLB PREFETCH  REQUESTED:          0  ISSUED:          0  USEFUL:          0  USELESS:          0
DTLB TOTAL MSHR MERGED:      99573
DTLB LOAD MSHR MERGED:      59208
DTLB RFO MSHR MERGED:      40365
DTLB PREFETCH MSHR MERGED:          0
DTLB WRITEBACK MSHR MERGED:          0
DTLB TOTAL ACCESSES:  165452239 HITS:  164718318 MISSES:     733921
DTLB LOAD ACCESSES:  106362296 HITS:  105733040 MISSES:     629256
DTLB RFO ACCESSES:   59089943 HITS:   58985278 MISSES:     104665
DTLB PREFETCH ACCESSES:          0 HITS:          0 MISSES:          0
DTLB WRITEBACK ACCESSES:          0 HITS:          0 MISSES:          0
DTLB RQ ACCESS:  200313086
DTLB RQ TO_CACHE:  165452239
DTLB RQ MERGED:   34860847
DTLB RQ FORWARD:          0
DTLB WQ ACCESS:          0
DTLB WQ TO_CACHE:          0
DTLB WQ MERGED:          0
DTLB WQ FORWARD:          0
L1D TOTAL     ACCESS:  281884493  HIT:  273975051  MISS:    7909442
L1D LOAD      ACCESS:  110439234  HIT:  107163193  MISS:    3276041
L1D RFO       ACCESS:   67119255  HIT:   66228369  MISS:     890886
L1D PREFETCH  ACCESS:  104326004  HIT:  100583489  MISS:    3742515
L1D WRITEBACK ACCESS:          0  HIT:          0  MISS:          0
L1D PREFETCH  REQUESTED:  110831038  ISSUED:  109131464  USEFUL:    1663104  USELESS:    2079375
L1D TOTAL MSHR MERGED:    2854166
L1D LOAD MSHR MERGED:     487609
L1D RFO MSHR MERGED:    1866599
L1D PREFETCH MSHR MERGED:     499958
L1D WRITEBACK MSHR MERGED:          0
L1D TOTAL ACCESSES:  284766243 HITS:  274002635 MISSES:   10763608
L1D LOAD ACCESSES:  110832596 HITS:  107164751 MISSES:    3667845
L1D RFO ACCESSES:   68973693 HITS:   66228369 MISSES:    2745324
L1D PREFETCH ACCESSES:  104959954 HITS:  100609515 MISSES:    4350439
L1D WRITEBACK ACCESSES:          0 HITS:          0 MISSES:          0
L1D RQ ACCESS:  130760483
L1D RQ TO_CACHE:  110831041
L1D RQ MERGED:   19927884
L1D RQ FORWARD:          0
L1D WQ ACCESS:   69552603
L1D WQ TO_CACHE:   68973694
L1D WQ MERGED:     578909
L1D WQ FORWARD:      27584
L1I TOTAL     ACCESS:  126568634  HIT:  122330108  MISS:    4238526
L1I LOAD      ACCESS:  126568634  HIT:  122330108  MISS:    4238526
L1I RFO       ACCESS:          0  HIT:          0  MISS:          0
L1I PREFETCH  ACCESS:          0  HIT:          0  MISS:          0
L1I WRITEBACK ACCESS:          0  HIT:          0  MISS:          0
L1I PREFETCH  REQUESTED:          0  ISSUED:          0  USEFUL:          0  USELESS:          0
L1I TOTAL MSHR MERGED:    1839165
L1I LOAD MSHR MERGED:    1839165
L1I RFO MSHR MERGED:          0
L1I PREFETCH MSHR MERGED:          0
L1I WRITEBACK MSHR MERGED:          0
L1I TOTAL ACCESSES:  128407802 HITS:  122330108 MISSES:    6077694
L1I LOAD ACCESSES:  128407802 HITS:  122330108 MISSES:    6077694
L1I RFO ACCESSES:          0 HITS:          0 MISSES:          0
L1I PREFETCH ACCESSES:          0 HITS:          0 MISSES:          0
L1I WRITEBACK ACCESSES:          0 HITS:          0 MISSES:          0
L1I RQ ACCESS:  500000057
L1I RQ TO_CACHE:  128407802
L1I RQ MERGED:  371592255
L1I RQ FORWARD:          0
L1I WQ ACCESS:          0
L1I WQ TO_CACHE:          0
L1I WQ MERGED:          0
L1I WQ FORWARD:          0
L2C TOTAL     ACCESS:   14905251  HIT:   11158783  MISS:    3746468
L2C LOAD      ACCESS:    7418559  HIT:    5098594  MISS:    2319965
L2C RFO       ACCESS:     878632  HIT:     409950  MISS:     468682
L2C PREFETCH  ACCESS:    4568813  HIT:    3628254  MISS:     940559
L2C WRITEBACK ACCESS:    2039247  HIT:    2021985  MISS:      17262
L2C PREFETCH  REQUESTED:     842835  ISSUED:     842835  USEFUL:     203364  USELESS:     736903
L2C TOTAL MSHR MERGED:       7108
L2C LOAD MSHR MERGED:        867
L2C RFO MSHR MERGED:          0
L2C PREFETCH MSHR MERGED:       6241
L2C WRITEBACK MSHR MERGED:          0
L2C TOTAL ACCESSES:   14913294 HITS:   11159223 MISSES:    3754071
L2C LOAD ACCESSES:    7418762 HITS:    5098797 MISSES:    2319965
L2C RFO ACCESSES:     878725 HITS:     410043 MISSES:     468682
L2C PREFETCH ACCESSES:    4576560 HITS:    3628398 MISSES:     948162
L2C WRITEBACK ACCESSES:    2039247 HITS:    2021985 MISSES:      17262
L2C RQ ACCESS:    8297490
L2C RQ TO_CACHE:    8297194
L2C RQ MERGED:          0
L2C RQ FORWARD:          0
L2C WQ ACCESS:    2039247
L2C WQ TO_CACHE:    2039247
L2C WQ MERGED:          0
L2C WQ FORWARD:        440
LLC TOTAL     ACCESS:    4609837  HIT:    3236661  MISS:    1373176
LLC LOAD      ACCESS:    2319086  HIT:    1387254  MISS:     931832
LLC RFO       ACCESS:     468673  HIT:     382880  MISS:      85793
LLC PREFETCH  ACCESS:     941785  HIT:     655914  MISS:     285871
LLC WRITEBACK ACCESS:     880293  HIT:     810613  MISS:      69680
LLC PREFETCH  REQUESTED:          0  ISSUED:          0  USEFUL:      27308  USELESS:     260018
LLC TOTAL MSHR MERGED:        119
LLC LOAD MSHR MERGED:         42
LLC RFO MSHR MERGED:          0
LLC PREFETCH MSHR MERGED:         77
LLC WRITEBACK MSHR MERGED:          0
LLC TOTAL ACCESSES:    4609990 HITS:    3236695 MISSES:    1373295
LLC LOAD ACCESSES:    2319098 HITS:    1387266 MISSES:     931832
LLC RFO ACCESSES:     468682 HITS:     382889 MISSES:      85793
LLC PREFETCH ACCESSES:     941917 HITS:     655927 MISSES:     285990
LLC WRITEBACK ACCESSES:     880293 HITS:     810613 MISSES:      69680
LLC 0 RQ ACCESS:    2787780
LLC 0 RQ TO_CACHE:    2787759
LLC 0 RQ MERGED:          0
LLC 0 RQ FORWARD:          0
LLC WQ ACCESS:     880293
LLC WQ TO_CACHE:     880293
LLC WQ MERGED:          0
LLC WQ FORWARD:         34
Major fault: 0 Minor fault: 12862
CPU 0 L1D next line prefetcher final stats
CPU 0 L2C PC-based stride prefetcher final stats
All Misses: 1591085
All Hits: 3835751
SD Algo Stats - Switches: 0 SRR-Repls: 1060247 BRR-Repls: 0

DRAM Statistics
 CHANNEL 0
 RQ ROW_BUFFER_HIT:     396466  ROW_BUFFER_MISS:     902762
 DBUS_CONGESTED:     525924
 WQ ROW_BUFFER_HIT:      17225  ROW_BUFFER_MISS:     221756  FULL:          0

 AVG_CONGESTED_CYCLE: 13
LOADS RETIRED: 136549171
INSTR RETIRED: 500000000
