
*** ChampSim Multicore Out-of-Order Simulator ***

Warmup Instructions: 100000000
Simulation Instructions: 500000000
Number of CPUs: 1
LLC sets: 2048
LLC ways: 16
Clean RRIP Policies: 1213230212132302 Dirty RRIP Policies: 2203130222031302 PSEL Width: 10 Track Set: 4294967295 PSEL Mask: 1 Demote Mask: 3040300030403000DS Algo: 0Window size: 0
Off-chip DRAM Size: 4096 MB Channels: 1 Width: 64-bit Data Rate: 1600 MT/s

CPU 0 runs /mnt/beegfs/iconst01/spec2017/Lbm.trace.gz
NOT SORTED
TRACE STRING: /mnt/beegfs/iconst01/spec2017/Lbm.trace.gz
SORTED
TRACE STRING: /mnt/beegfs/iconst01/spec2017/Lbm.trace.gz
INITIAL
TRACE STRING: /mnt/beegfs/iconst01/spec2017/Lbm.trace.gz

champsim_seed used: 283

CPU 0 L1D next line prefetcher
CPU 0 L2C IP-based stride prefetcher
Initialize DRRIP state
Assign rand_sets[0]: 454  LLC: 2048
rand_sets[0]: 454
Assign rand_sets[1]: 1662  LLC: 2048
rand_sets[1]: 1662
Assign rand_sets[2]: 1921  LLC: 2048
rand_sets[2]: 1921
Assign rand_sets[3]: 1131  LLC: 2048
rand_sets[3]: 1131
Assign rand_sets[4]: 331  LLC: 2048
rand_sets[4]: 331
Assign rand_sets[5]: 1531  LLC: 2048
rand_sets[5]: 1531
Assign rand_sets[6]: 482  LLC: 2048
rand_sets[6]: 482
Assign rand_sets[7]: 1275  LLC: 2048
rand_sets[7]: 1275
Assign rand_sets[8]: 1876  LLC: 2048
rand_sets[8]: 1876
Assign rand_sets[9]: 2038  LLC: 2048
rand_sets[9]: 2038
Assign rand_sets[10]: 701  LLC: 2048
rand_sets[10]: 701
Assign rand_sets[11]: 479  LLC: 2048
rand_sets[11]: 479
Assign rand_sets[12]: 892  LLC: 2048
rand_sets[12]: 892
Assign rand_sets[13]: 1820  LLC: 2048
rand_sets[13]: 1820
Assign rand_sets[14]: 1505  LLC: 2048
rand_sets[14]: 1505
Assign rand_sets[15]: 1159  LLC: 2048
rand_sets[15]: 1159
Assign rand_sets[16]: 513  LLC: 2048
rand_sets[16]: 513
Assign rand_sets[17]: 703  LLC: 2048
rand_sets[17]: 703
Assign rand_sets[18]: 561  LLC: 2048
rand_sets[18]: 561
Assign rand_sets[19]: 990  LLC: 2048
rand_sets[19]: 990
Assign rand_sets[20]: 342  LLC: 2048
rand_sets[20]: 342
Assign rand_sets[21]: 882  LLC: 2048
rand_sets[21]: 882
Assign rand_sets[22]: 15  LLC: 2048
rand_sets[22]: 15
Assign rand_sets[23]: 71  LLC: 2048
rand_sets[23]: 71
Assign rand_sets[24]: 1127  LLC: 2048
rand_sets[24]: 1127
Assign rand_sets[25]: 1382  LLC: 2048
rand_sets[25]: 1382
Assign rand_sets[26]: 647  LLC: 2048
rand_sets[26]: 647
Assign rand_sets[27]: 857  LLC: 2048
rand_sets[27]: 857
Assign rand_sets[28]: 1450  LLC: 2048
rand_sets[28]: 1450
Assign rand_sets[29]: 1160  LLC: 2048
rand_sets[29]: 1160
Assign rand_sets[30]: 1852  LLC: 2048
rand_sets[30]: 1852
Assign rand_sets[31]: 1881  LLC: 2048
rand_sets[31]: 1881
Assign rand_sets[32]: 1770  LLC: 2048
rand_sets[32]: 1770
Assign rand_sets[33]: 1622  LLC: 2048
rand_sets[33]: 1622
Assign rand_sets[34]: 275  LLC: 2048
rand_sets[34]: 275
Assign rand_sets[35]: 635  LLC: 2048
rand_sets[35]: 635
Assign rand_sets[36]: 466  LLC: 2048
rand_sets[36]: 466
Assign rand_sets[37]: 1413  LLC: 2048
rand_sets[37]: 1413
Assign rand_sets[38]: 417  LLC: 2048
rand_sets[38]: 417
Assign rand_sets[39]: 472  LLC: 2048
rand_sets[39]: 472
Assign rand_sets[40]: 1340  LLC: 2048
rand_sets[40]: 1340
Assign rand_sets[41]: 852  LLC: 2048
rand_sets[41]: 852
Assign rand_sets[42]: 1365  LLC: 2048
rand_sets[42]: 1365
Assign rand_sets[43]: 47  LLC: 2048
rand_sets[43]: 47
Assign rand_sets[44]: 823  LLC: 2048
rand_sets[44]: 823
Assign rand_sets[45]: 686  LLC: 2048
rand_sets[45]: 686
Assign rand_sets[46]: 1637  LLC: 2048
rand_sets[46]: 1637
Assign rand_sets[47]: 1115  LLC: 2048
rand_sets[47]: 1115
Assign rand_sets[48]: 986  LLC: 2048
rand_sets[48]: 986
Assign rand_sets[49]: 258  LLC: 2048
rand_sets[49]: 258
Assign rand_sets[50]: 633  LLC: 2048
rand_sets[50]: 633
Assign rand_sets[51]: 920  LLC: 2048
rand_sets[51]: 920
Assign rand_sets[52]: 204  LLC: 2048
rand_sets[52]: 204
Assign rand_sets[53]: 227  LLC: 2048
rand_sets[53]: 227
Assign rand_sets[54]: 1818  LLC: 2048
rand_sets[54]: 1818
Assign rand_sets[55]: 886  LLC: 2048
rand_sets[55]: 886
Assign rand_sets[56]: 1422  LLC: 2048
rand_sets[56]: 1422
Assign rand_sets[57]: 607  LLC: 2048
rand_sets[57]: 607
Assign rand_sets[58]: 217  LLC: 2048
rand_sets[58]: 217
Assign rand_sets[59]: 1945  LLC: 2048
rand_sets[59]: 1945
Assign rand_sets[60]: 143  LLC: 2048
rand_sets[60]: 143
Assign rand_sets[61]: 1311  LLC: 2048
rand_sets[61]: 1311
Assign rand_sets[62]: 319  LLC: 2048
rand_sets[62]: 319
Assign rand_sets[63]: 1846  LLC: 2048
rand_sets[63]: 1846
 CLEAN-RRIP-POLICY-1: 1-2-1-3-2-3-0-2- CLEAN-RRIP-POLICY-2: 1-2-1-3-2-3-0-2-
 DIRTY-RRIP-POLICY-1: 2-2-0-3-1-3-0-2- DIRTY-RRIP-POLICY-2: 2-2-0-3-1-3-0-2-
 PSEL width: 10
Heartbeat CPU 0 instructions: 10000000 cycles: 4321584 heartbeat IPC: 2.31397 cumulative IPC: 2.31397 (Simulation time: 0 hr 0 min 17 sec) 
Heartbeat CPU 0 instructions: 20000000 cycles: 8643662 heartbeat IPC: 2.3137 cumulative IPC: 2.31383 (Simulation time: 0 hr 0 min 34 sec) 
Heartbeat CPU 0 instructions: 30000000 cycles: 12965455 heartbeat IPC: 2.31385 cumulative IPC: 2.31384 (Simulation time: 0 hr 0 min 52 sec) 
Heartbeat CPU 0 instructions: 40000000 cycles: 17291276 heartbeat IPC: 2.3117 cumulative IPC: 2.31331 (Simulation time: 0 hr 1 min 9 sec) 
Heartbeat CPU 0 instructions: 50000000 cycles: 21613136 heartbeat IPC: 2.31382 cumulative IPC: 2.31341 (Simulation time: 0 hr 1 min 27 sec) 
Heartbeat CPU 0 instructions: 60000000 cycles: 25935025 heartbeat IPC: 2.3138 cumulative IPC: 2.31347 (Simulation time: 0 hr 1 min 44 sec) 
Heartbeat CPU 0 instructions: 70000000 cycles: 30256541 heartbeat IPC: 2.314 cumulative IPC: 2.31355 (Simulation time: 0 hr 2 min 2 sec) 
Heartbeat CPU 0 instructions: 80000000 cycles: 34582768 heartbeat IPC: 2.31148 cumulative IPC: 2.31329 (Simulation time: 0 hr 2 min 20 sec) 
Heartbeat CPU 0 instructions: 90000003 cycles: 38904877 heartbeat IPC: 2.31369 cumulative IPC: 2.31333 (Simulation time: 0 hr 2 min 37 sec) 
Heartbeat CPU 0 instructions: 100000000 cycles: 43226364 heartbeat IPC: 2.31402 cumulative IPC: 2.3134 (Simulation time: 0 hr 2 min 55 sec) 

Warmup complete CPU 0 instructions: 100000001 cycles: 43226365 (Simulation time: 0 hr 2 min 55 sec) 

Heartbeat CPU 0 instructions: 110000000 cycles: 57588468 heartbeat IPC: 0.696277 cumulative IPC: 0.696277 (Simulation time: 0 hr 3 min 20 sec) 
Heartbeat CPU 0 instructions: 120000000 cycles: 71924477 heartbeat IPC: 0.697544 cumulative IPC: 0.69691 (Simulation time: 0 hr 3 min 45 sec) 
Heartbeat CPU 0 instructions: 130000000 cycles: 86065152 heartbeat IPC: 0.70718 cumulative IPC: 0.7003 (Simulation time: 0 hr 4 min 10 sec) 
Heartbeat CPU 0 instructions: 140000000 cycles: 100150738 heartbeat IPC: 0.709946 cumulative IPC: 0.702687 (Simulation time: 0 hr 4 min 35 sec) 
Heartbeat CPU 0 instructions: 150000003 cycles: 113923183 heartbeat IPC: 0.726088 cumulative IPC: 0.707245 (Simulation time: 0 hr 4 min 59 sec) 
Heartbeat CPU 0 instructions: 160000000 cycles: 127891259 heartbeat IPC: 0.715918 cumulative IPC: 0.708676 (Simulation time: 0 hr 5 min 24 sec) 
Heartbeat CPU 0 instructions: 170000002 cycles: 142302993 heartbeat IPC: 0.693879 cumulative IPC: 0.706524 (Simulation time: 0 hr 5 min 49 sec) 
Heartbeat CPU 0 instructions: 180000000 cycles: 156333548 heartbeat IPC: 0.71273 cumulative IPC: 0.707294 (Simulation time: 0 hr 6 min 14 sec) 
Heartbeat CPU 0 instructions: 190000003 cycles: 173103132 heartbeat IPC: 0.596318 cumulative IPC: 0.692965 (Simulation time: 0 hr 6 min 41 sec) 
Heartbeat CPU 0 instructions: 200000000 cycles: 193574832 heartbeat IPC: 0.488479 cumulative IPC: 0.665121 (Simulation time: 0 hr 7 min 12 sec) 
Heartbeat CPU 0 instructions: 210000001 cycles: 207831802 heartbeat IPC: 0.701411 cumulative IPC: 0.668265 (Simulation time: 0 hr 7 min 37 sec) 
Heartbeat CPU 0 instructions: 220000000 cycles: 221656837 heartbeat IPC: 0.723325 cumulative IPC: 0.672531 (Simulation time: 0 hr 8 min 1 sec) 
Heartbeat CPU 0 instructions: 230000001 cycles: 235777685 heartbeat IPC: 0.708173 cumulative IPC: 0.675145 (Simulation time: 0 hr 8 min 26 sec) 
Heartbeat CPU 0 instructions: 240000000 cycles: 250078452 heartbeat IPC: 0.699263 cumulative IPC: 0.676812 (Simulation time: 0 hr 8 min 51 sec) 
Heartbeat CPU 0 instructions: 250000000 cycles: 264645205 heartbeat IPC: 0.686495 cumulative IPC: 0.677449 (Simulation time: 0 hr 9 min 16 sec) 
Heartbeat CPU 0 instructions: 260000000 cycles: 279490970 heartbeat IPC: 0.673593 cumulative IPC: 0.677207 (Simulation time: 0 hr 9 min 42 sec) 
Heartbeat CPU 0 instructions: 270000002 cycles: 294503942 heartbeat IPC: 0.666091 cumulative IPC: 0.676543 (Simulation time: 0 hr 10 min 7 sec) 
Heartbeat CPU 0 instructions: 280000000 cycles: 309413637 heartbeat IPC: 0.670704 cumulative IPC: 0.676216 (Simulation time: 0 hr 10 min 33 sec) 
Heartbeat CPU 0 instructions: 290000003 cycles: 325199559 heartbeat IPC: 0.633476 cumulative IPC: 0.673823 (Simulation time: 0 hr 10 min 59 sec) 
Heartbeat CPU 0 instructions: 300000000 cycles: 340437638 heartbeat IPC: 0.65625 cumulative IPC: 0.672922 (Simulation time: 0 hr 11 min 25 sec) 
Heartbeat CPU 0 instructions: 310000000 cycles: 356333317 heartbeat IPC: 0.629102 cumulative IPC: 0.670697 (Simulation time: 0 hr 11 min 51 sec) 
Heartbeat CPU 0 instructions: 320000000 cycles: 372092917 heartbeat IPC: 0.634534 cumulative IPC: 0.668964 (Simulation time: 0 hr 12 min 17 sec) 
Heartbeat CPU 0 instructions: 330000002 cycles: 387059094 heartbeat IPC: 0.668173 cumulative IPC: 0.66893 (Simulation time: 0 hr 12 min 42 sec) 
Heartbeat CPU 0 instructions: 340000000 cycles: 403126513 heartbeat IPC: 0.622377 cumulative IPC: 0.666852 (Simulation time: 0 hr 13 min 8 sec) 
Heartbeat CPU 0 instructions: 350000001 cycles: 417699313 heartbeat IPC: 0.68621 cumulative IPC: 0.667605 (Simulation time: 0 hr 13 min 33 sec) 
Heartbeat CPU 0 instructions: 360000000 cycles: 433224155 heartbeat IPC: 0.644129 cumulative IPC: 0.66667 (Simulation time: 0 hr 13 min 59 sec) 
Heartbeat CPU 0 instructions: 370000000 cycles: 448002792 heartbeat IPC: 0.676652 cumulative IPC: 0.667035 (Simulation time: 0 hr 14 min 24 sec) 
Heartbeat CPU 0 instructions: 380000000 cycles: 463171753 heartbeat IPC: 0.659241 cumulative IPC: 0.666753 (Simulation time: 0 hr 14 min 49 sec) 
Heartbeat CPU 0 instructions: 390000000 cycles: 477580065 heartbeat IPC: 0.694044 cumulative IPC: 0.667659 (Simulation time: 0 hr 15 min 14 sec) 
Heartbeat CPU 0 instructions: 400000000 cycles: 491825746 heartbeat IPC: 0.701967 cumulative IPC: 0.668748 (Simulation time: 0 hr 15 min 38 sec) 
Heartbeat CPU 0 instructions: 410000000 cycles: 505634199 heartbeat IPC: 0.724194 cumulative IPC: 0.670404 (Simulation time: 0 hr 16 min 2 sec) 
Heartbeat CPU 0 instructions: 420000000 cycles: 519860553 heartbeat IPC: 0.702921 cumulative IPC: 0.671374 (Simulation time: 0 hr 16 min 27 sec) 
Heartbeat CPU 0 instructions: 430000002 cycles: 533593952 heartbeat IPC: 0.728152 cumulative IPC: 0.672965 (Simulation time: 0 hr 16 min 51 sec) 
Heartbeat CPU 0 instructions: 440000000 cycles: 547346511 heartbeat IPC: 0.727137 cumulative IPC: 0.674442 (Simulation time: 0 hr 17 min 15 sec) 
Heartbeat CPU 0 instructions: 450000000 cycles: 561096298 heartbeat IPC: 0.727284 cumulative IPC: 0.675845 (Simulation time: 0 hr 17 min 39 sec) 
Heartbeat CPU 0 instructions: 460000000 cycles: 575766412 heartbeat IPC: 0.681658 cumulative IPC: 0.676005 (Simulation time: 0 hr 18 min 4 sec) 
Heartbeat CPU 0 instructions: 470000000 cycles: 589943842 heartbeat IPC: 0.705346 cumulative IPC: 0.676766 (Simulation time: 0 hr 18 min 28 sec) 
Heartbeat CPU 0 instructions: 480000000 cycles: 603991696 heartbeat IPC: 0.711852 cumulative IPC: 0.677645 (Simulation time: 0 hr 18 min 53 sec) 
Heartbeat CPU 0 instructions: 490000001 cycles: 618467199 heartbeat IPC: 0.690822 cumulative IPC: 0.677977 (Simulation time: 0 hr 19 min 17 sec) 
Heartbeat CPU 0 instructions: 500000000 cycles: 632871651 heartbeat IPC: 0.69423 cumulative IPC: 0.678374 (Simulation time: 0 hr 19 min 42 sec) 
Heartbeat CPU 0 instructions: 510000002 cycles: 646882341 heartbeat IPC: 0.713741 cumulative IPC: 0.679195 (Simulation time: 0 hr 20 min 6 sec) 
Heartbeat CPU 0 instructions: 520000000 cycles: 660679932 heartbeat IPC: 0.724764 cumulative IPC: 0.680213 (Simulation time: 0 hr 20 min 30 sec) 
Heartbeat CPU 0 instructions: 530000001 cycles: 674581032 heartbeat IPC: 0.719368 cumulative IPC: 0.681075 (Simulation time: 0 hr 20 min 54 sec) 
Heartbeat CPU 0 instructions: 540000000 cycles: 688992641 heartbeat IPC: 0.693885 cumulative IPC: 0.681361 (Simulation time: 0 hr 21 min 19 sec) 
Heartbeat CPU 0 instructions: 550000003 cycles: 702859691 heartbeat IPC: 0.721134 cumulative IPC: 0.682197 (Simulation time: 0 hr 21 min 43 sec) 
Heartbeat CPU 0 instructions: 560000000 cycles: 717373239 heartbeat IPC: 0.689011 cumulative IPC: 0.682344 (Simulation time: 0 hr 22 min 8 sec) 
Heartbeat CPU 0 instructions: 570000001 cycles: 731586630 heartbeat IPC: 0.703562 cumulative IPC: 0.682782 (Simulation time: 0 hr 22 min 32 sec) 
Heartbeat CPU 0 instructions: 580000000 cycles: 745358520 heartbeat IPC: 0.726117 cumulative IPC: 0.683632 (Simulation time: 0 hr 22 min 56 sec) 
Heartbeat CPU 0 instructions: 590000003 cycles: 758676441 heartbeat IPC: 0.750868 cumulative IPC: 0.684884 (Simulation time: 0 hr 23 min 20 sec) 
Heartbeat CPU 0 instructions: 600000000 cycles: 772552209 heartbeat IPC: 0.720681 cumulative IPC: 0.685565 (Simulation time: 0 hr 23 min 44 sec) 
Finished CPU 0 instructions: 500000000 cycles: 729325852 cumulative IPC: 0.685565 (Simulation time: 0 hr 23 min 44 sec) 

CPU 0 Branch Prediction Accuracy: 99.5915% MPKI: 0.037126
Number of Branches: 4544106 Number of Mispredictions: 18563
Number of LOAD Instructions: 149787067
Number of LOAD Instructions (ROI): 149787067
Number of STORE Instructions: 77239062
Number of STORE Instructions (ROI): 77239062
Total Destination Memory Operands: 77239062
Total Destination Memory Operands (ROI): 77239062
Total Source Memory Operands: 149787067
Total Source Memory Operands (ROI): 149787067
Number of DEPENDED LOADS: 19247776
Number of DEPENDED LOADS (ROI): 19247776
Number of SQ_ADDED: 77239036
Number of SQ_ADDED (ROI): 77239036
Number of LQ_ADDED: 149787020
Number of LQ_ADDED (ROI): 149787020
Number of Instructions read from trace: 600000256

ChampSim completed all CPUs

Region of Interest Statistics

CPU 0 cumulative IPC: 0.685565 instructions: 500000000 cycles: 729325852
ITLB TOTAL     ACCESS:   86454347  HIT:   86454346  MISS:          1
ITLB LOAD      ACCESS:   86454347  HIT:   86454346  MISS:          1
ITLB RFO       ACCESS:          0  HIT:          0  MISS:          0
ITLB PREFETCH  ACCESS:          0  HIT:          0  MISS:          0
ITLB WRITEBACK ACCESS:          0  HIT:          0  MISS:          0
ITLB PREFETCH  REQUESTED:          0  ISSUED:          0  USEFUL:          0  USELESS:          0
ITLB TOTAL MSHR MERGED:          1
ITLB LOAD MSHR MERGED:          1
ITLB RFO MSHR MERGED:          0
ITLB PREFETCH MSHR MERGED:          0
ITLB WRITEBACK MSHR MERGED:          0
ITLB TOTAL ACCESSES:   86454348 HITS:   86454346 MISSES:          2
ITLB LOAD ACCESSES:   86454348 HITS:   86454346 MISSES:          2
ITLB RFO ACCESSES:          0 HITS:          0 MISSES:          0
ITLB PREFETCH ACCESSES:          0 HITS:          0 MISSES:          0
ITLB WRITEBACK ACCESSES:          0 HITS:          0 MISSES:          0
ITLB RQ ACCESS:  500000002
ITLB RQ TO_CACHE:   86454348
ITLB RQ MERGED:  413545654
ITLB RQ FORWARD:          0
ITLB WQ ACCESS:          0
ITLB WQ TO_CACHE:          0
ITLB WQ MERGED:          0
ITLB WQ FORWARD:          0
DTLB TOTAL     ACCESS:   98107574  HIT:   97922313  MISS:     185261
DTLB LOAD      ACCESS:   55040747  HIT:   54994436  MISS:      46311
DTLB RFO       ACCESS:   43066827  HIT:   42927877  MISS:     138950
DTLB PREFETCH  ACCESS:          0  HIT:          0  MISS:          0
DTLB WRITEBACK ACCESS:          0  HIT:          0  MISS:          0
DTLB PREFETCH  REQUESTED:          0  ISSUED:          0  USEFUL:          0  USELESS:          0
DTLB TOTAL MSHR MERGED:      83555
DTLB LOAD MSHR MERGED:      83549
DTLB RFO MSHR MERGED:          6
DTLB PREFETCH MSHR MERGED:          0
DTLB WRITEBACK MSHR MERGED:          0
DTLB TOTAL ACCESSES:   98191129 HITS:   97922313 MISSES:     268816
DTLB LOAD ACCESSES:   55124296 HITS:   54994436 MISSES:     129860
DTLB RFO ACCESSES:   43066833 HITS:   42927877 MISSES:     138956
DTLB PREFETCH ACCESSES:          0 HITS:          0 MISSES:          0
DTLB WRITEBACK ACCESSES:          0 HITS:          0 MISSES:          0
DTLB RQ ACCESS:  173634751
DTLB RQ TO_CACHE:   98191129
DTLB RQ MERGED:   75443622
DTLB RQ FORWARD:          0
DTLB WQ ACCESS:          0
DTLB WQ TO_CACHE:          0
DTLB WQ MERGED:          0
DTLB WQ FORWARD:          0
L1D TOTAL     ACCESS:  164580620  HIT:  145008060  MISS:   19572560
L1D LOAD      ACCESS:   60547428  HIT:   58695755  MISS:    1851673
L1D RFO       ACCESS:   64513891  HIT:   47911761  MISS:   16602130
L1D PREFETCH  ACCESS:   39519301  HIT:   38400544  MISS:    1118757
L1D WRITEBACK ACCESS:          0  HIT:          0  MISS:          0
L1D PREFETCH  REQUESTED:   61734025  ISSUED:   61441631  USEFUL:    1116837  USELESS:       1921
L1D TOTAL MSHR MERGED:    3531645
L1D LOAD MSHR MERGED:    1258039
L1D RFO MSHR MERGED:      11504
L1D PREFETCH MSHR MERGED:    2262102
L1D WRITEBACK MSHR MERGED:          0
L1D TOTAL ACCESSES:  168675796 HITS:  145571591 MISSES:   23104205
L1D LOAD ACCESSES:   61990470 HITS:   58952200 MISSES:    3038270
L1D RFO ACCESSES:   64525360 HITS:   47911761 MISSES:   16613599
L1D PREFETCH ACCESSES:   42159966 HITS:   38707630 MISSES:    3452336
L1D WRITEBACK ACCESSES:          0 HITS:          0 MISSES:          0
L1D RQ ACCESS:  109093436
L1D RQ TO_CACHE:   61734025
L1D RQ MERGED:   47102966
L1D RQ FORWARD:          0
L1D WQ ACCESS:   64541313
L1D WQ TO_CACHE:   64525361
L1D WQ MERGED:      15952
L1D WQ FORWARD:     563531
L1I TOTAL     ACCESS:  107763328  HIT:  107763320  MISS:          8
L1I LOAD      ACCESS:  107763328  HIT:  107763320  MISS:          8
L1I RFO       ACCESS:          0  HIT:          0  MISS:          0
L1I PREFETCH  ACCESS:          0  HIT:          0  MISS:          0
L1I WRITEBACK ACCESS:          0  HIT:          0  MISS:          0
L1I PREFETCH  REQUESTED:          0  ISSUED:          0  USEFUL:          0  USELESS:          0
L1I TOTAL MSHR MERGED:          3
L1I LOAD MSHR MERGED:          3
L1I RFO MSHR MERGED:          0
L1I PREFETCH MSHR MERGED:          0
L1I WRITEBACK MSHR MERGED:          0
L1I TOTAL ACCESSES:  107763331 HITS:  107763320 MISSES:         11
L1I LOAD ACCESSES:  107763331 HITS:  107763320 MISSES:         11
L1I RFO ACCESSES:          0 HITS:          0 MISSES:          0
L1I PREFETCH ACCESSES:          0 HITS:          0 MISSES:          0
L1I WRITEBACK ACCESSES:          0 HITS:          0 MISSES:          0
L1I RQ ACCESS:  500000007
L1I RQ TO_CACHE:  107763331
L1I RQ MERGED:  392236676
L1I RQ FORWARD:          0
L1I WQ ACCESS:          0
L1I WQ TO_CACHE:          0
L1I WQ MERGED:          0
L1I WQ FORWARD:          0
L2C TOTAL     ACCESS:   36807952  HIT:   24850361  MISS:   11957591
L2C LOAD      ACCESS:    1780239  HIT:     255384  MISS:    1524855
L2C RFO       ACCESS:   16602096  HIT:    7610720  MISS:    8991376
L2C PREFETCH  ACCESS:    1823439  HIT:     383306  MISS:    1440133
L2C WRITEBACK ACCESS:   16602178  HIT:   16600951  MISS:       1227
L2C PREFETCH  REQUESTED:     814827  ISSUED:     814827  USEFUL:     253071  USELESS:    1187343
L2C TOTAL MSHR MERGED:       2671
L2C LOAD MSHR MERGED:        605
L2C RFO MSHR MERGED:          0
L2C PREFETCH MSHR MERGED:       2066
L2C WRITEBACK MSHR MERGED:          0
L2C TOTAL ACCESSES:   36989499 HITS:   24850361 MISSES:   12139138
L2C LOAD ACCESSES:    1780239 HITS:     255384 MISSES:    1524855
L2C RFO ACCESSES:   16602095 HITS:    7610720 MISSES:    8991375
L2C PREFETCH ACCESSES:    2004987 HITS:     383306 MISSES:    1621681
L2C WRITEBACK ACCESSES:   16602178 HITS:   16600951 MISSES:       1227
L2C RQ ACCESS:   18382334
L2C RQ TO_CACHE:   18382334
L2C RQ MERGED:          0
L2C RQ FORWARD:          0
L2C WQ ACCESS:   16602178
L2C WQ TO_CACHE:   16602178
L2C WQ MERGED:          0
L2C WQ FORWARD:          0
LLC TOTAL     ACCESS:   21124366  HIT:    1762812  MISS:   19361554
LLC LOAD      ACCESS:    1524250  HIT:      64601  MISS:    1459649
LLC RFO       ACCESS:    8991364  HIT:     710933  MISS:    8280431
LLC PREFETCH  ACCESS:    1616551  HIT:     110848  MISS:    1505703
LLC WRITEBACK ACCESS:    8992201  HIT:     876430  MISS:    8115771
LLC PREFETCH  REQUESTED:          0  ISSUED:          0  USEFUL:      64458  USELESS:    1441101
LLC TOTAL MSHR MERGED:       2701
LLC LOAD MSHR MERGED:        218
LLC RFO MSHR MERGED:          0
LLC PREFETCH MSHR MERGED:       2483
LLC WRITEBACK MSHR MERGED:          0
LLC TOTAL ACCESSES:   21127078 HITS:    1762824 MISSES:   19364254
LLC LOAD ACCESSES:    1524250 HITS:      64601 MISSES:    1459649
LLC RFO ACCESSES:    8991375 HITS:     710945 MISSES:    8280430
LLC PREFETCH ACCESSES:    1619252 HITS:     110848 MISSES:    1508404
LLC WRITEBACK ACCESSES:    8992201 HITS:     876430 MISSES:    8115771
LLC 0 RQ ACCESS:   10515625
LLC 0 RQ TO_CACHE:   10515613
LLC 0 RQ MERGED:          0
LLC 0 RQ FORWARD:          0
LLC WQ ACCESS:    8992201
LLC WQ TO_CACHE:    8992201
LLC WQ MERGED:          0
LLC WQ FORWARD:         12
Major fault: 0 Minor fault: 102360
CPU 0 L1D next line prefetcher final stats
CPU 0 L2C PC-based stride prefetcher final stats
All Misses: 23056471
All Hits: 2043406
SD Algo Stats - Switches: 0 SRR-Repls: 1638229 BRR-Repls: 0

DRAM Statistics
 CHANNEL 0
 RQ ROW_BUFFER_HIT:    3736949  ROW_BUFFER_MISS:    7507083
 DBUS_CONGESTED:   13394077
 WQ ROW_BUFFER_HIT:    1278750  ROW_BUFFER_MISS:    7028515  FULL:          0

 AVG_CONGESTED_CYCLE: 13
LOADS RETIRED: 124982196
INSTR RETIRED: 500000000
