
*** ChampSim Multicore Out-of-Order Simulator ***

Warmup Instructions: 100000000
Simulation Instructions: 500000000
Number of CPUs: 1
LLC sets: 2048
LLC ways: 16
Clean RRIP Policies: 1013030010130300 Dirty RRIP Policies: 2013030020130300 PSEL Width: 10 Track Set: 4294967295 PSEL Mask: 1 Demote Mask: 4340021443400214DS Algo: 0Window size: 0
Off-chip DRAM Size: 4096 MB Channels: 1 Width: 64-bit Data Rate: 1600 MT/s

CPU 0 runs /mnt/beegfs/iconst01/spec2017/Lbm.trace.gz
NOT SORTED
TRACE STRING: /mnt/beegfs/iconst01/spec2017/Lbm.trace.gz
SORTED
TRACE STRING: /mnt/beegfs/iconst01/spec2017/Lbm.trace.gz
INITIAL
TRACE STRING: /mnt/beegfs/iconst01/spec2017/Lbm.trace.gz

champsim_seed used: 283

CPU 0 L1D next line prefetcher
CPU 0 L2C IP-based stride prefetcher
Initialize DRRIP state
Assign rand_sets[0]: 454  LLC: 2048
rand_sets[0]: 454
Assign rand_sets[1]: 1662  LLC: 2048
rand_sets[1]: 1662
Assign rand_sets[2]: 1921  LLC: 2048
rand_sets[2]: 1921
Assign rand_sets[3]: 1131  LLC: 2048
rand_sets[3]: 1131
Assign rand_sets[4]: 331  LLC: 2048
rand_sets[4]: 331
Assign rand_sets[5]: 1531  LLC: 2048
rand_sets[5]: 1531
Assign rand_sets[6]: 482  LLC: 2048
rand_sets[6]: 482
Assign rand_sets[7]: 1275  LLC: 2048
rand_sets[7]: 1275
Assign rand_sets[8]: 1876  LLC: 2048
rand_sets[8]: 1876
Assign rand_sets[9]: 2038  LLC: 2048
rand_sets[9]: 2038
Assign rand_sets[10]: 701  LLC: 2048
rand_sets[10]: 701
Assign rand_sets[11]: 479  LLC: 2048
rand_sets[11]: 479
Assign rand_sets[12]: 892  LLC: 2048
rand_sets[12]: 892
Assign rand_sets[13]: 1820  LLC: 2048
rand_sets[13]: 1820
Assign rand_sets[14]: 1505  LLC: 2048
rand_sets[14]: 1505
Assign rand_sets[15]: 1159  LLC: 2048
rand_sets[15]: 1159
Assign rand_sets[16]: 513  LLC: 2048
rand_sets[16]: 513
Assign rand_sets[17]: 703  LLC: 2048
rand_sets[17]: 703
Assign rand_sets[18]: 561  LLC: 2048
rand_sets[18]: 561
Assign rand_sets[19]: 990  LLC: 2048
rand_sets[19]: 990
Assign rand_sets[20]: 342  LLC: 2048
rand_sets[20]: 342
Assign rand_sets[21]: 882  LLC: 2048
rand_sets[21]: 882
Assign rand_sets[22]: 15  LLC: 2048
rand_sets[22]: 15
Assign rand_sets[23]: 71  LLC: 2048
rand_sets[23]: 71
Assign rand_sets[24]: 1127  LLC: 2048
rand_sets[24]: 1127
Assign rand_sets[25]: 1382  LLC: 2048
rand_sets[25]: 1382
Assign rand_sets[26]: 647  LLC: 2048
rand_sets[26]: 647
Assign rand_sets[27]: 857  LLC: 2048
rand_sets[27]: 857
Assign rand_sets[28]: 1450  LLC: 2048
rand_sets[28]: 1450
Assign rand_sets[29]: 1160  LLC: 2048
rand_sets[29]: 1160
Assign rand_sets[30]: 1852  LLC: 2048
rand_sets[30]: 1852
Assign rand_sets[31]: 1881  LLC: 2048
rand_sets[31]: 1881
Assign rand_sets[32]: 1770  LLC: 2048
rand_sets[32]: 1770
Assign rand_sets[33]: 1622  LLC: 2048
rand_sets[33]: 1622
Assign rand_sets[34]: 275  LLC: 2048
rand_sets[34]: 275
Assign rand_sets[35]: 635  LLC: 2048
rand_sets[35]: 635
Assign rand_sets[36]: 466  LLC: 2048
rand_sets[36]: 466
Assign rand_sets[37]: 1413  LLC: 2048
rand_sets[37]: 1413
Assign rand_sets[38]: 417  LLC: 2048
rand_sets[38]: 417
Assign rand_sets[39]: 472  LLC: 2048
rand_sets[39]: 472
Assign rand_sets[40]: 1340  LLC: 2048
rand_sets[40]: 1340
Assign rand_sets[41]: 852  LLC: 2048
rand_sets[41]: 852
Assign rand_sets[42]: 1365  LLC: 2048
rand_sets[42]: 1365
Assign rand_sets[43]: 47  LLC: 2048
rand_sets[43]: 47
Assign rand_sets[44]: 823  LLC: 2048
rand_sets[44]: 823
Assign rand_sets[45]: 686  LLC: 2048
rand_sets[45]: 686
Assign rand_sets[46]: 1637  LLC: 2048
rand_sets[46]: 1637
Assign rand_sets[47]: 1115  LLC: 2048
rand_sets[47]: 1115
Assign rand_sets[48]: 986  LLC: 2048
rand_sets[48]: 986
Assign rand_sets[49]: 258  LLC: 2048
rand_sets[49]: 258
Assign rand_sets[50]: 633  LLC: 2048
rand_sets[50]: 633
Assign rand_sets[51]: 920  LLC: 2048
rand_sets[51]: 920
Assign rand_sets[52]: 204  LLC: 2048
rand_sets[52]: 204
Assign rand_sets[53]: 227  LLC: 2048
rand_sets[53]: 227
Assign rand_sets[54]: 1818  LLC: 2048
rand_sets[54]: 1818
Assign rand_sets[55]: 886  LLC: 2048
rand_sets[55]: 886
Assign rand_sets[56]: 1422  LLC: 2048
rand_sets[56]: 1422
Assign rand_sets[57]: 607  LLC: 2048
rand_sets[57]: 607
Assign rand_sets[58]: 217  LLC: 2048
rand_sets[58]: 217
Assign rand_sets[59]: 1945  LLC: 2048
rand_sets[59]: 1945
Assign rand_sets[60]: 143  LLC: 2048
rand_sets[60]: 143
Assign rand_sets[61]: 1311  LLC: 2048
rand_sets[61]: 1311
Assign rand_sets[62]: 319  LLC: 2048
rand_sets[62]: 319
Assign rand_sets[63]: 1846  LLC: 2048
rand_sets[63]: 1846
 CLEAN-RRIP-POLICY-1: 1-0-1-3-0-3-0-0- CLEAN-RRIP-POLICY-2: 1-0-1-3-0-3-0-0-
 DIRTY-RRIP-POLICY-1: 2-0-1-3-0-3-0-0- DIRTY-RRIP-POLICY-2: 2-0-1-3-0-3-0-0-
 PSEL width: 10
Heartbeat CPU 0 instructions: 10000000 cycles: 4321562 heartbeat IPC: 2.31398 cumulative IPC: 2.31398 (Simulation time: 0 hr 0 min 18 sec) 
Heartbeat CPU 0 instructions: 20000000 cycles: 8643621 heartbeat IPC: 2.31371 cumulative IPC: 2.31385 (Simulation time: 0 hr 0 min 36 sec) 
Heartbeat CPU 0 instructions: 30000000 cycles: 12965484 heartbeat IPC: 2.31382 cumulative IPC: 2.31384 (Simulation time: 0 hr 0 min 53 sec) 
Heartbeat CPU 0 instructions: 40000000 cycles: 17291352 heartbeat IPC: 2.31167 cumulative IPC: 2.3133 (Simulation time: 0 hr 1 min 11 sec) 
Heartbeat CPU 0 instructions: 50000000 cycles: 21613285 heartbeat IPC: 2.31378 cumulative IPC: 2.31339 (Simulation time: 0 hr 1 min 29 sec) 
Heartbeat CPU 0 instructions: 60000000 cycles: 25935218 heartbeat IPC: 2.31378 cumulative IPC: 2.31346 (Simulation time: 0 hr 1 min 47 sec) 
Heartbeat CPU 0 instructions: 70000000 cycles: 30256772 heartbeat IPC: 2.31398 cumulative IPC: 2.31353 (Simulation time: 0 hr 2 min 6 sec) 
Heartbeat CPU 0 instructions: 80000000 cycles: 34583038 heartbeat IPC: 2.31146 cumulative IPC: 2.31327 (Simulation time: 0 hr 2 min 24 sec) 
Heartbeat CPU 0 instructions: 90000003 cycles: 38905160 heartbeat IPC: 2.31368 cumulative IPC: 2.31332 (Simulation time: 0 hr 2 min 42 sec) 
Heartbeat CPU 0 instructions: 100000000 cycles: 43226745 heartbeat IPC: 2.31397 cumulative IPC: 2.31338 (Simulation time: 0 hr 3 min 0 sec) 

Warmup complete CPU 0 instructions: 100000001 cycles: 43226746 (Simulation time: 0 hr 3 min 0 sec) 

Heartbeat CPU 0 instructions: 110000000 cycles: 57814025 heartbeat IPC: 0.685529 cumulative IPC: 0.685529 (Simulation time: 0 hr 3 min 26 sec) 
Heartbeat CPU 0 instructions: 120000000 cycles: 72670398 heartbeat IPC: 0.673112 cumulative IPC: 0.679264 (Simulation time: 0 hr 3 min 52 sec) 
Heartbeat CPU 0 instructions: 130000000 cycles: 87384219 heartbeat IPC: 0.679633 cumulative IPC: 0.679387 (Simulation time: 0 hr 4 min 18 sec) 
Heartbeat CPU 0 instructions: 140000000 cycles: 102039542 heartbeat IPC: 0.682346 cumulative IPC: 0.680124 (Simulation time: 0 hr 4 min 44 sec) 
Heartbeat CPU 0 instructions: 150000003 cycles: 116221108 heartbeat IPC: 0.705141 cumulative IPC: 0.684984 (Simulation time: 0 hr 5 min 10 sec) 
Heartbeat CPU 0 instructions: 160000000 cycles: 130251969 heartbeat IPC: 0.712714 cumulative IPC: 0.689455 (Simulation time: 0 hr 5 min 35 sec) 
Heartbeat CPU 0 instructions: 170000002 cycles: 144995343 heartbeat IPC: 0.678271 cumulative IPC: 0.687835 (Simulation time: 0 hr 6 min 1 sec) 
Heartbeat CPU 0 instructions: 180000000 cycles: 159501672 heartbeat IPC: 0.689354 cumulative IPC: 0.688025 (Simulation time: 0 hr 6 min 27 sec) 
Heartbeat CPU 0 instructions: 190000003 cycles: 177043170 heartbeat IPC: 0.570077 cumulative IPC: 0.672563 (Simulation time: 0 hr 6 min 56 sec) 
Heartbeat CPU 0 instructions: 200000000 cycles: 198193114 heartbeat IPC: 0.472814 cumulative IPC: 0.645301 (Simulation time: 0 hr 7 min 28 sec) 
Heartbeat CPU 0 instructions: 210000001 cycles: 212580263 heartbeat IPC: 0.695065 cumulative IPC: 0.649529 (Simulation time: 0 hr 7 min 54 sec) 
Heartbeat CPU 0 instructions: 220000000 cycles: 226899347 heartbeat IPC: 0.698369 cumulative IPC: 0.653336 (Simulation time: 0 hr 8 min 20 sec) 
Heartbeat CPU 0 instructions: 230000001 cycles: 241735272 heartbeat IPC: 0.67404 cumulative IPC: 0.654884 (Simulation time: 0 hr 8 min 46 sec) 
Heartbeat CPU 0 instructions: 240000000 cycles: 256373372 heartbeat IPC: 0.683149 cumulative IPC: 0.656825 (Simulation time: 0 hr 9 min 12 sec) 
Heartbeat CPU 0 instructions: 250000000 cycles: 271379658 heartbeat IPC: 0.666387 cumulative IPC: 0.657454 (Simulation time: 0 hr 9 min 39 sec) 
Heartbeat CPU 0 instructions: 260000000 cycles: 286442830 heartbeat IPC: 0.663871 cumulative IPC: 0.657851 (Simulation time: 0 hr 10 min 5 sec) 
Heartbeat CPU 0 instructions: 270000002 cycles: 301830902 heartbeat IPC: 0.649854 cumulative IPC: 0.657375 (Simulation time: 0 hr 10 min 32 sec) 
Heartbeat CPU 0 instructions: 280000000 cycles: 317492008 heartbeat IPC: 0.638524 cumulative IPC: 0.656299 (Simulation time: 0 hr 10 min 59 sec) 
Heartbeat CPU 0 instructions: 290000003 cycles: 333610210 heartbeat IPC: 0.620417 cumulative IPC: 0.654307 (Simulation time: 0 hr 11 min 26 sec) 
Heartbeat CPU 0 instructions: 300000000 cycles: 348885594 heartbeat IPC: 0.654648 cumulative IPC: 0.654324 (Simulation time: 0 hr 11 min 53 sec) 
Heartbeat CPU 0 instructions: 310000000 cycles: 365455143 heartbeat IPC: 0.603517 cumulative IPC: 0.651712 (Simulation time: 0 hr 12 min 20 sec) 
Heartbeat CPU 0 instructions: 320000000 cycles: 381664976 heartbeat IPC: 0.61691 cumulative IPC: 0.650045 (Simulation time: 0 hr 12 min 47 sec) 
Heartbeat CPU 0 instructions: 330000002 cycles: 397182823 heartbeat IPC: 0.644419 cumulative IPC: 0.649798 (Simulation time: 0 hr 13 min 13 sec) 
Heartbeat CPU 0 instructions: 340000000 cycles: 413756148 heartbeat IPC: 0.603379 cumulative IPC: 0.647722 (Simulation time: 0 hr 13 min 40 sec) 
Heartbeat CPU 0 instructions: 350000001 cycles: 429233706 heartbeat IPC: 0.646097 cumulative IPC: 0.647657 (Simulation time: 0 hr 14 min 6 sec) 
Heartbeat CPU 0 instructions: 360000000 cycles: 445120065 heartbeat IPC: 0.629471 cumulative IPC: 0.646938 (Simulation time: 0 hr 14 min 33 sec) 
Heartbeat CPU 0 instructions: 370000000 cycles: 460360690 heartbeat IPC: 0.656141 cumulative IPC: 0.647274 (Simulation time: 0 hr 14 min 59 sec) 
Heartbeat CPU 0 instructions: 380000000 cycles: 475822683 heartbeat IPC: 0.646747 cumulative IPC: 0.647255 (Simulation time: 0 hr 15 min 25 sec) 
Heartbeat CPU 0 instructions: 390000000 cycles: 490743202 heartbeat IPC: 0.670218 cumulative IPC: 0.648021 (Simulation time: 0 hr 15 min 51 sec) 
Heartbeat CPU 0 instructions: 400000000 cycles: 505767971 heartbeat IPC: 0.665568 cumulative IPC: 0.648591 (Simulation time: 0 hr 16 min 16 sec) 
Heartbeat CPU 0 instructions: 410000000 cycles: 520504988 heartbeat IPC: 0.678563 cumulative IPC: 0.649516 (Simulation time: 0 hr 16 min 41 sec) 
Heartbeat CPU 0 instructions: 420000000 cycles: 535056823 heartbeat IPC: 0.687199 cumulative IPC: 0.650631 (Simulation time: 0 hr 17 min 6 sec) 
Heartbeat CPU 0 instructions: 430000002 cycles: 549348379 heartbeat IPC: 0.699714 cumulative IPC: 0.652017 (Simulation time: 0 hr 17 min 30 sec) 
Heartbeat CPU 0 instructions: 440000000 cycles: 563554468 heartbeat IPC: 0.703923 cumulative IPC: 0.653434 (Simulation time: 0 hr 17 min 55 sec) 
Heartbeat CPU 0 instructions: 450000000 cycles: 578345038 heartbeat IPC: 0.676106 cumulative IPC: 0.654061 (Simulation time: 0 hr 18 min 20 sec) 
Heartbeat CPU 0 instructions: 460000000 cycles: 593343191 heartbeat IPC: 0.666749 cumulative IPC: 0.654407 (Simulation time: 0 hr 18 min 45 sec) 
Heartbeat CPU 0 instructions: 470000000 cycles: 607932517 heartbeat IPC: 0.685433 cumulative IPC: 0.655208 (Simulation time: 0 hr 19 min 10 sec) 
Heartbeat CPU 0 instructions: 480000000 cycles: 622268043 heartbeat IPC: 0.697568 cumulative IPC: 0.656257 (Simulation time: 0 hr 19 min 34 sec) 
Heartbeat CPU 0 instructions: 490000001 cycles: 637151108 heartbeat IPC: 0.671905 cumulative IPC: 0.656649 (Simulation time: 0 hr 19 min 59 sec) 
Heartbeat CPU 0 instructions: 500000000 cycles: 651727610 heartbeat IPC: 0.686036 cumulative IPC: 0.657353 (Simulation time: 0 hr 20 min 24 sec) 
Heartbeat CPU 0 instructions: 510000002 cycles: 666141724 heartbeat IPC: 0.693765 cumulative IPC: 0.658196 (Simulation time: 0 hr 20 min 48 sec) 
Heartbeat CPU 0 instructions: 520000000 cycles: 680110685 heartbeat IPC: 0.715873 cumulative IPC: 0.659461 (Simulation time: 0 hr 21 min 13 sec) 
Heartbeat CPU 0 instructions: 530000001 cycles: 694738687 heartbeat IPC: 0.68362 cumulative IPC: 0.660003 (Simulation time: 0 hr 21 min 38 sec) 
Heartbeat CPU 0 instructions: 540000000 cycles: 709280478 heartbeat IPC: 0.687673 cumulative IPC: 0.660607 (Simulation time: 0 hr 22 min 2 sec) 
Heartbeat CPU 0 instructions: 550000003 cycles: 723677210 heartbeat IPC: 0.694602 cumulative IPC: 0.661327 (Simulation time: 0 hr 22 min 27 sec) 
Heartbeat CPU 0 instructions: 560000000 cycles: 738656065 heartbeat IPC: 0.667608 cumulative IPC: 0.661462 (Simulation time: 0 hr 22 min 52 sec) 
Heartbeat CPU 0 instructions: 570000001 cycles: 753228735 heartbeat IPC: 0.686216 cumulative IPC: 0.66197 (Simulation time: 0 hr 23 min 17 sec) 
Heartbeat CPU 0 instructions: 580000000 cycles: 767545418 heartbeat IPC: 0.698486 cumulative IPC: 0.662692 (Simulation time: 0 hr 23 min 41 sec) 
Heartbeat CPU 0 instructions: 590000003 cycles: 781139098 heartbeat IPC: 0.735636 cumulative IPC: 0.664035 (Simulation time: 0 hr 24 min 5 sec) 
Heartbeat CPU 0 instructions: 600000000 cycles: 795522289 heartbeat IPC: 0.695256 cumulative IPC: 0.664632 (Simulation time: 0 hr 24 min 30 sec) 
Finished CPU 0 instructions: 500000000 cycles: 752295551 cumulative IPC: 0.664632 (Simulation time: 0 hr 24 min 30 sec) 

CPU 0 Branch Prediction Accuracy: 99.5915% MPKI: 0.037126
Number of Branches: 4544106 Number of Mispredictions: 18563
Number of LOAD Instructions: 149787067
Number of LOAD Instructions (ROI): 149787067
Number of STORE Instructions: 77239062
Number of STORE Instructions (ROI): 77239062
Total Destination Memory Operands: 77239062
Total Destination Memory Operands (ROI): 77239062
Total Source Memory Operands: 149787067
Total Source Memory Operands (ROI): 149787067
Number of DEPENDED LOADS: 19251881
Number of DEPENDED LOADS (ROI): 19251881
Number of SQ_ADDED: 77239036
Number of SQ_ADDED (ROI): 77239036
Number of LQ_ADDED: 149787020
Number of LQ_ADDED (ROI): 149787020
Number of Instructions read from trace: 600000256

ChampSim completed all CPUs

Region of Interest Statistics

CPU 0 cumulative IPC: 0.664632 instructions: 500000000 cycles: 752295551
ITLB TOTAL     ACCESS:   86444453  HIT:   86444452  MISS:          1
ITLB LOAD      ACCESS:   86444453  HIT:   86444452  MISS:          1
ITLB RFO       ACCESS:          0  HIT:          0  MISS:          0
ITLB PREFETCH  ACCESS:          0  HIT:          0  MISS:          0
ITLB WRITEBACK ACCESS:          0  HIT:          0  MISS:          0
ITLB PREFETCH  REQUESTED:          0  ISSUED:          0  USEFUL:          0  USELESS:          0
ITLB TOTAL MSHR MERGED:          1
ITLB LOAD MSHR MERGED:          1
ITLB RFO MSHR MERGED:          0
ITLB PREFETCH MSHR MERGED:          0
ITLB WRITEBACK MSHR MERGED:          0
ITLB TOTAL ACCESSES:   86444454 HITS:   86444452 MISSES:          2
ITLB LOAD ACCESSES:   86444454 HITS:   86444452 MISSES:          2
ITLB RFO ACCESSES:          0 HITS:          0 MISSES:          0
ITLB PREFETCH ACCESSES:          0 HITS:          0 MISSES:          0
ITLB WRITEBACK ACCESSES:          0 HITS:          0 MISSES:          0
ITLB RQ ACCESS:  500000002
ITLB RQ TO_CACHE:   86444454
ITLB RQ MERGED:  413555548
ITLB RQ FORWARD:          0
ITLB WQ ACCESS:          0
ITLB WQ TO_CACHE:          0
ITLB WQ MERGED:          0
ITLB WQ FORWARD:          0
DTLB TOTAL     ACCESS:   98097999  HIT:   97912738  MISS:     185261
DTLB LOAD      ACCESS:   55037905  HIT:   54991594  MISS:      46311
DTLB RFO       ACCESS:   43060094  HIT:   42921144  MISS:     138950
DTLB PREFETCH  ACCESS:          0  HIT:          0  MISS:          0
DTLB WRITEBACK ACCESS:          0  HIT:          0  MISS:          0
DTLB PREFETCH  REQUESTED:          0  ISSUED:          0  USEFUL:          0  USELESS:          0
DTLB TOTAL MSHR MERGED:      83648
DTLB LOAD MSHR MERGED:      83640
DTLB RFO MSHR MERGED:          8
DTLB PREFETCH MSHR MERGED:          0
DTLB WRITEBACK MSHR MERGED:          0
DTLB TOTAL ACCESSES:   98181647 HITS:   97912738 MISSES:     268909
DTLB LOAD ACCESSES:   55121545 HITS:   54991594 MISSES:     129951
DTLB RFO ACCESSES:   43060102 HITS:   42921144 MISSES:     138958
DTLB PREFETCH ACCESSES:          0 HITS:          0 MISSES:          0
DTLB WRITEBACK ACCESSES:          0 HITS:          0 MISSES:          0
DTLB RQ ACCESS:  173630646
DTLB RQ TO_CACHE:   98181647
DTLB RQ MERGED:   75448999
DTLB RQ FORWARD:          0
DTLB WQ ACCESS:          0
DTLB WQ TO_CACHE:          0
DTLB WQ MERGED:          0
DTLB WQ FORWARD:          0
L1D TOTAL     ACCESS:  164467887  HIT:  144895331  MISS:   19572556
L1D LOAD      ACCESS:   60454857  HIT:   58603248  MISS:    1851609
L1D RFO       ACCESS:   64512832  HIT:   47910704  MISS:   16602128
L1D PREFETCH  ACCESS:   39500198  HIT:   38381379  MISS:    1118819
L1D WRITEBACK ACCESS:          0  HIT:          0  MISS:          0
L1D PREFETCH  REQUESTED:   61589282  ISSUED:   61298012  USEFUL:    1116903  USELESS:       1916
L1D TOTAL MSHR MERGED:    3467157
L1D LOAD MSHR MERGED:    1204616
L1D RFO MSHR MERGED:      11024
L1D PREFETCH MSHR MERGED:    2251517
L1D WRITEBACK MSHR MERGED:          0
L1D TOTAL ACCESSES:  168526244 HITS:  145486532 MISSES:   23039712
L1D LOAD ACCESSES:   61874024 HITS:   58887990 MISSES:    2986034
L1D RFO ACCESSES:   64523822 HITS:   47910704 MISSES:   16613118
L1D PREFETCH ACCESSES:   42128398 HITS:   38687838 MISSES:    3440560
L1D WRITEBACK ACCESSES:          0 HITS:          0 MISSES:          0
L1D RQ ACCESS:  109089331
L1D RQ TO_CACHE:   61589282
L1D RQ MERGED:   47215307
L1D RQ FORWARD:          0
L1D WQ ACCESS:   64541313
L1D WQ TO_CACHE:   64523823
L1D WQ MERGED:      17490
L1D WQ FORWARD:     591201
L1I TOTAL     ACCESS:  107753577  HIT:  107753569  MISS:          8
L1I LOAD      ACCESS:  107753577  HIT:  107753569  MISS:          8
L1I RFO       ACCESS:          0  HIT:          0  MISS:          0
L1I PREFETCH  ACCESS:          0  HIT:          0  MISS:          0
L1I WRITEBACK ACCESS:          0  HIT:          0  MISS:          0
L1I PREFETCH  REQUESTED:          0  ISSUED:          0  USEFUL:          0  USELESS:          0
L1I TOTAL MSHR MERGED:          3
L1I LOAD MSHR MERGED:          3
L1I RFO MSHR MERGED:          0
L1I PREFETCH MSHR MERGED:          0
L1I WRITEBACK MSHR MERGED:          0
L1I TOTAL ACCESSES:  107753580 HITS:  107753569 MISSES:         11
L1I LOAD ACCESSES:  107753580 HITS:  107753569 MISSES:         11
L1I RFO ACCESSES:          0 HITS:          0 MISSES:          0
L1I PREFETCH ACCESSES:          0 HITS:          0 MISSES:          0
L1I WRITEBACK ACCESSES:          0 HITS:          0 MISSES:          0
L1I RQ ACCESS:  500000007
L1I RQ TO_CACHE:  107753580
L1I RQ MERGED:  392246427
L1I RQ FORWARD:          0
L1I WQ ACCESS:          0
L1I WQ TO_CACHE:          0
L1I WQ MERGED:          0
L1I WQ FORWARD:          0
L2C TOTAL     ACCESS:   36778419  HIT:   24820814  MISS:   11957605
L2C LOAD      ACCESS:    1781426  HIT:     244824  MISS:    1536602
L2C RFO       ACCESS:   16602091  HIT:    7610700  MISS:    8991391
L2C PREFETCH  ACCESS:    1792715  HIT:     364331  MISS:    1428384
L2C WRITEBACK ACCESS:   16602187  HIT:   16600959  MISS:       1228
L2C PREFETCH  REQUESTED:     814950  ISSUED:     814950  USEFUL:     242476  USELESS:    1186189
L2C TOTAL MSHR MERGED:       2467
L2C LOAD MSHR MERGED:        574
L2C RFO MSHR MERGED:          0
L2C PREFETCH MSHR MERGED:       1893
L2C WRITEBACK MSHR MERGED:          0
L2C TOTAL ACCESSES:   36989635 HITS:   24820818 MISSES:   12168817
L2C LOAD ACCESSES:    1781426 HITS:     244824 MISSES:    1536602
L2C RFO ACCESSES:   16602094 HITS:    7610704 MISSES:    8991390
L2C PREFETCH ACCESSES:    2003928 HITS:     364331 MISSES:    1639597
L2C WRITEBACK ACCESSES:   16602187 HITS:   16600959 MISSES:       1228
L2C RQ ACCESS:   18383520
L2C RQ TO_CACHE:   18383516
L2C RQ MERGED:          0
L2C RQ FORWARD:          0
L2C WQ ACCESS:   16602187
L2C WQ TO_CACHE:   16602187
L2C WQ MERGED:          0
L2C WQ FORWARD:          4
LLC TOTAL     ACCESS:   21153917  HIT:     609345  MISS:   20544572
LLC LOAD      ACCESS:    1536028  HIT:      75345  MISS:    1460683
LLC RFO       ACCESS:    8991384  HIT:     137254  MISS:    8854130
LLC PREFETCH  ACCESS:    1634293  HIT:     129559  MISS:    1504734
LLC WRITEBACK ACCESS:    8992212  HIT:     267187  MISS:    8725025
LLC PREFETCH  REQUESTED:          0  ISSUED:          0  USEFUL:      75188  USELESS:    1429441
LLC TOTAL MSHR MERGED:       3015
LLC LOAD MSHR MERGED:        254
LLC RFO MSHR MERGED:          0
LLC PREFETCH MSHR MERGED:       2761
LLC WRITEBACK MSHR MERGED:          0
LLC TOTAL ACCESSES:   21156938 HITS:     609352 MISSES:   20547586
LLC LOAD ACCESSES:    1536028 HITS:      75345 MISSES:    1460683
LLC RFO ACCESSES:    8991390 HITS:     137261 MISSES:    8854129
LLC PREFETCH ACCESSES:    1637308 HITS:     129559 MISSES:    1507749
LLC WRITEBACK ACCESSES:    8992212 HITS:     267187 MISSES:    8725025
LLC 0 RQ ACCESS:   10527418
LLC 0 RQ TO_CACHE:   10527411
LLC 0 RQ MERGED:          0
LLC 0 RQ FORWARD:          0
LLC WQ ACCESS:    8992212
LLC WQ TO_CACHE:    8992212
LLC WQ MERGED:          0
LLC WQ FORWARD:          7
Major fault: 0 Minor fault: 102360
CPU 0 L1D next line prefetcher final stats
CPU 0 L2C PC-based stride prefetcher final stats
All Misses: 24408026
All Hits: 721402
SD Algo Stats - Switches: 0 SRR-Repls: 1639258 BRR-Repls: 0

DRAM Statistics
 CHANNEL 0
 RQ ROW_BUFFER_HIT:    3740463  ROW_BUFFER_MISS:    8078860
 DBUS_CONGESTED:   14268192
 WQ ROW_BUFFER_HIT:    1230969  ROW_BUFFER_MISS:    7622387  FULL:          0

 AVG_CONGESTED_CYCLE: 13
LOADS RETIRED: 124982196
INSTR RETIRED: 500000000
