
*** ChampSim Multicore Out-of-Order Simulator ***

Warmup Instructions: 100000000
Simulation Instructions: 500000000
Number of CPUs: 1
LLC sets: 2048
LLC ways: 16
Clean RRIP Policies: 1013101210131012 Dirty RRIP Policies: 2013200220132002 PSEL Width: 10 Track Set: 4294967295 PSEL Mask: 1 Demote Mask: 4340404443404044DS Algo: 0Window size: 0
Off-chip DRAM Size: 4096 MB Channels: 1 Width: 64-bit Data Rate: 1600 MT/s

CPU 0 runs /mnt/beegfs/iconst01/spec2017/Xz.trace.gz
NOT SORTED
TRACE STRING: /mnt/beegfs/iconst01/spec2017/Xz.trace.gz
SORTED
TRACE STRING: /mnt/beegfs/iconst01/spec2017/Xz.trace.gz
INITIAL
TRACE STRING: /mnt/beegfs/iconst01/spec2017/Xz.trace.gz

champsim_seed used: 210

CPU 0 L1D next line prefetcher
CPU 0 L2C IP-based stride prefetcher
Initialize DRRIP state
Assign rand_sets[0]: 454  LLC: 2048
rand_sets[0]: 454
Assign rand_sets[1]: 1662  LLC: 2048
rand_sets[1]: 1662
Assign rand_sets[2]: 1921  LLC: 2048
rand_sets[2]: 1921
Assign rand_sets[3]: 1131  LLC: 2048
rand_sets[3]: 1131
Assign rand_sets[4]: 331  LLC: 2048
rand_sets[4]: 331
Assign rand_sets[5]: 1531  LLC: 2048
rand_sets[5]: 1531
Assign rand_sets[6]: 482  LLC: 2048
rand_sets[6]: 482
Assign rand_sets[7]: 1275  LLC: 2048
rand_sets[7]: 1275
Assign rand_sets[8]: 1876  LLC: 2048
rand_sets[8]: 1876
Assign rand_sets[9]: 2038  LLC: 2048
rand_sets[9]: 2038
Assign rand_sets[10]: 701  LLC: 2048
rand_sets[10]: 701
Assign rand_sets[11]: 479  LLC: 2048
rand_sets[11]: 479
Assign rand_sets[12]: 892  LLC: 2048
rand_sets[12]: 892
Assign rand_sets[13]: 1820  LLC: 2048
rand_sets[13]: 1820
Assign rand_sets[14]: 1505  LLC: 2048
rand_sets[14]: 1505
Assign rand_sets[15]: 1159  LLC: 2048
rand_sets[15]: 1159
Assign rand_sets[16]: 513  LLC: 2048
rand_sets[16]: 513
Assign rand_sets[17]: 703  LLC: 2048
rand_sets[17]: 703
Assign rand_sets[18]: 561  LLC: 2048
rand_sets[18]: 561
Assign rand_sets[19]: 990  LLC: 2048
rand_sets[19]: 990
Assign rand_sets[20]: 342  LLC: 2048
rand_sets[20]: 342
Assign rand_sets[21]: 882  LLC: 2048
rand_sets[21]: 882
Assign rand_sets[22]: 15  LLC: 2048
rand_sets[22]: 15
Assign rand_sets[23]: 71  LLC: 2048
rand_sets[23]: 71
Assign rand_sets[24]: 1127  LLC: 2048
rand_sets[24]: 1127
Assign rand_sets[25]: 1382  LLC: 2048
rand_sets[25]: 1382
Assign rand_sets[26]: 647  LLC: 2048
rand_sets[26]: 647
Assign rand_sets[27]: 857  LLC: 2048
rand_sets[27]: 857
Assign rand_sets[28]: 1450  LLC: 2048
rand_sets[28]: 1450
Assign rand_sets[29]: 1160  LLC: 2048
rand_sets[29]: 1160
Assign rand_sets[30]: 1852  LLC: 2048
rand_sets[30]: 1852
Assign rand_sets[31]: 1881  LLC: 2048
rand_sets[31]: 1881
Assign rand_sets[32]: 1770  LLC: 2048
rand_sets[32]: 1770
Assign rand_sets[33]: 1622  LLC: 2048
rand_sets[33]: 1622
Assign rand_sets[34]: 275  LLC: 2048
rand_sets[34]: 275
Assign rand_sets[35]: 635  LLC: 2048
rand_sets[35]: 635
Assign rand_sets[36]: 466  LLC: 2048
rand_sets[36]: 466
Assign rand_sets[37]: 1413  LLC: 2048
rand_sets[37]: 1413
Assign rand_sets[38]: 417  LLC: 2048
rand_sets[38]: 417
Assign rand_sets[39]: 472  LLC: 2048
rand_sets[39]: 472
Assign rand_sets[40]: 1340  LLC: 2048
rand_sets[40]: 1340
Assign rand_sets[41]: 852  LLC: 2048
rand_sets[41]: 852
Assign rand_sets[42]: 1365  LLC: 2048
rand_sets[42]: 1365
Assign rand_sets[43]: 47  LLC: 2048
rand_sets[43]: 47
Assign rand_sets[44]: 823  LLC: 2048
rand_sets[44]: 823
Assign rand_sets[45]: 686  LLC: 2048
rand_sets[45]: 686
Assign rand_sets[46]: 1637  LLC: 2048
rand_sets[46]: 1637
Assign rand_sets[47]: 1115  LLC: 2048
rand_sets[47]: 1115
Assign rand_sets[48]: 986  LLC: 2048
rand_sets[48]: 986
Assign rand_sets[49]: 258  LLC: 2048
rand_sets[49]: 258
Assign rand_sets[50]: 633  LLC: 2048
rand_sets[50]: 633
Assign rand_sets[51]: 920  LLC: 2048
rand_sets[51]: 920
Assign rand_sets[52]: 204  LLC: 2048
rand_sets[52]: 204
Assign rand_sets[53]: 227  LLC: 2048
rand_sets[53]: 227
Assign rand_sets[54]: 1818  LLC: 2048
rand_sets[54]: 1818
Assign rand_sets[55]: 886  LLC: 2048
rand_sets[55]: 886
Assign rand_sets[56]: 1422  LLC: 2048
rand_sets[56]: 1422
Assign rand_sets[57]: 607  LLC: 2048
rand_sets[57]: 607
Assign rand_sets[58]: 217  LLC: 2048
rand_sets[58]: 217
Assign rand_sets[59]: 1945  LLC: 2048
rand_sets[59]: 1945
Assign rand_sets[60]: 143  LLC: 2048
rand_sets[60]: 143
Assign rand_sets[61]: 1311  LLC: 2048
rand_sets[61]: 1311
Assign rand_sets[62]: 319  LLC: 2048
rand_sets[62]: 319
Assign rand_sets[63]: 1846  LLC: 2048
rand_sets[63]: 1846
 CLEAN-RRIP-POLICY-1: 1-0-1-3-1-0-1-2- CLEAN-RRIP-POLICY-2: 1-0-1-3-1-0-1-2-
 DIRTY-RRIP-POLICY-1: 2-0-1-3-2-0-0-2- DIRTY-RRIP-POLICY-2: 2-0-1-3-2-0-0-2-
 PSEL width: 10
Heartbeat CPU 0 instructions: 10000000 cycles: 4305270 heartbeat IPC: 2.32273 cumulative IPC: 2.32273 (Simulation time: 0 hr 0 min 12 sec) 
Heartbeat CPU 0 instructions: 20000000 cycles: 8617100 heartbeat IPC: 2.3192 cumulative IPC: 2.32097 (Simulation time: 0 hr 0 min 24 sec) 
Heartbeat CPU 0 instructions: 30000003 cycles: 13160975 heartbeat IPC: 2.20077 cumulative IPC: 2.27947 (Simulation time: 0 hr 0 min 37 sec) 
Heartbeat CPU 0 instructions: 40000000 cycles: 17515458 heartbeat IPC: 2.29648 cumulative IPC: 2.2837 (Simulation time: 0 hr 0 min 49 sec) 
Heartbeat CPU 0 instructions: 50000001 cycles: 21878281 heartbeat IPC: 2.29209 cumulative IPC: 2.28537 (Simulation time: 0 hr 1 min 1 sec) 
Heartbeat CPU 0 instructions: 60000000 cycles: 26178522 heartbeat IPC: 2.32545 cumulative IPC: 2.29196 (Simulation time: 0 hr 1 min 13 sec) 
Heartbeat CPU 0 instructions: 70000001 cycles: 30244427 heartbeat IPC: 2.45948 cumulative IPC: 2.31448 (Simulation time: 0 hr 1 min 24 sec) 
Heartbeat CPU 0 instructions: 80000000 cycles: 34523245 heartbeat IPC: 2.33709 cumulative IPC: 2.31728 (Simulation time: 0 hr 1 min 36 sec) 
Heartbeat CPU 0 instructions: 90000001 cycles: 38739908 heartbeat IPC: 2.37154 cumulative IPC: 2.32319 (Simulation time: 0 hr 1 min 47 sec) 
Heartbeat CPU 0 instructions: 100000000 cycles: 42980345 heartbeat IPC: 2.35825 cumulative IPC: 2.32664 (Simulation time: 0 hr 1 min 59 sec) 

Warmup complete CPU 0 instructions: 100000001 cycles: 42980346 (Simulation time: 0 hr 1 min 59 sec) 

Heartbeat CPU 0 instructions: 110000000 cycles: 53139097 heartbeat IPC: 0.984373 cumulative IPC: 0.984373 (Simulation time: 0 hr 2 min 17 sec) 
Heartbeat CPU 0 instructions: 120000000 cycles: 63799081 heartbeat IPC: 0.938088 cumulative IPC: 0.960673 (Simulation time: 0 hr 2 min 35 sec) 
Heartbeat CPU 0 instructions: 130000001 cycles: 74433443 heartbeat IPC: 0.940348 cumulative IPC: 0.953801 (Simulation time: 0 hr 2 min 53 sec) 
Heartbeat CPU 0 instructions: 140000000 cycles: 84134662 heartbeat IPC: 1.0308 cumulative IPC: 0.971951 (Simulation time: 0 hr 3 min 10 sec) 
Heartbeat CPU 0 instructions: 150000001 cycles: 94470331 heartbeat IPC: 0.967523 cumulative IPC: 0.971063 (Simulation time: 0 hr 3 min 28 sec) 
Heartbeat CPU 0 instructions: 160000000 cycles: 104549380 heartbeat IPC: 0.992157 cumulative IPC: 0.974516 (Simulation time: 0 hr 3 min 46 sec) 
Heartbeat CPU 0 instructions: 170000000 cycles: 114247618 heartbeat IPC: 1.03112 cumulative IPC: 0.982218 (Simulation time: 0 hr 4 min 3 sec) 
Heartbeat CPU 0 instructions: 180000000 cycles: 124821343 heartbeat IPC: 0.945741 cumulative IPC: 0.977505 (Simulation time: 0 hr 4 min 21 sec) 
Heartbeat CPU 0 instructions: 190000001 cycles: 135105086 heartbeat IPC: 0.972409 cumulative IPC: 0.976936 (Simulation time: 0 hr 4 min 39 sec) 
Heartbeat CPU 0 instructions: 200000000 cycles: 145697988 heartbeat IPC: 0.944028 cumulative IPC: 0.973543 (Simulation time: 0 hr 4 min 57 sec) 
Heartbeat CPU 0 instructions: 210000002 cycles: 158190526 heartbeat IPC: 0.800478 cumulative IPC: 0.954777 (Simulation time: 0 hr 5 min 16 sec) 
Heartbeat CPU 0 instructions: 220000000 cycles: 170758613 heartbeat IPC: 0.795666 cumulative IPC: 0.939127 (Simulation time: 0 hr 5 min 36 sec) 
Heartbeat CPU 0 instructions: 230000000 cycles: 182964317 heartbeat IPC: 0.819289 cumulative IPC: 0.928678 (Simulation time: 0 hr 5 min 55 sec) 
Heartbeat CPU 0 instructions: 240000000 cycles: 195139269 heartbeat IPC: 0.821359 cumulative IPC: 0.920091 (Simulation time: 0 hr 6 min 14 sec) 
Heartbeat CPU 0 instructions: 250000000 cycles: 207147914 heartbeat IPC: 0.832733 cumulative IPC: 0.913701 (Simulation time: 0 hr 6 min 33 sec) 
Heartbeat CPU 0 instructions: 260000000 cycles: 218745352 heartbeat IPC: 0.862259 cumulative IPC: 0.910306 (Simulation time: 0 hr 6 min 52 sec) 
Heartbeat CPU 0 instructions: 270000003 cycles: 230665468 heartbeat IPC: 0.838918 cumulative IPC: 0.905772 (Simulation time: 0 hr 7 min 11 sec) 
Heartbeat CPU 0 instructions: 280000000 cycles: 242252671 heartbeat IPC: 0.863021 cumulative IPC: 0.903287 (Simulation time: 0 hr 7 min 30 sec) 
Heartbeat CPU 0 instructions: 290000002 cycles: 253827530 heartbeat IPC: 0.863942 cumulative IPC: 0.901127 (Simulation time: 0 hr 7 min 49 sec) 
Heartbeat CPU 0 instructions: 300000000 cycles: 266334263 heartbeat IPC: 0.799569 cumulative IPC: 0.89544 (Simulation time: 0 hr 8 min 8 sec) 
Heartbeat CPU 0 instructions: 310000000 cycles: 278547257 heartbeat IPC: 0.8188 cumulative IPC: 0.891466 (Simulation time: 0 hr 8 min 27 sec) 
Heartbeat CPU 0 instructions: 320000000 cycles: 291275501 heartbeat IPC: 0.785654 cumulative IPC: 0.886042 (Simulation time: 0 hr 8 min 47 sec) 
Heartbeat CPU 0 instructions: 330000003 cycles: 303292133 heartbeat IPC: 0.83218 cumulative IPC: 0.883556 (Simulation time: 0 hr 9 min 6 sec) 
Heartbeat CPU 0 instructions: 340000000 cycles: 315480615 heartbeat IPC: 0.820446 cumulative IPC: 0.880733 (Simulation time: 0 hr 9 min 25 sec) 
Heartbeat CPU 0 instructions: 350000001 cycles: 326504095 heartbeat IPC: 0.907155 cumulative IPC: 0.88176 (Simulation time: 0 hr 9 min 43 sec) 
Heartbeat CPU 0 instructions: 360000000 cycles: 338352776 heartbeat IPC: 0.843976 cumulative IPC: 0.880245 (Simulation time: 0 hr 10 min 2 sec) 
Heartbeat CPU 0 instructions: 370000001 cycles: 349809865 heartbeat IPC: 0.872822 cumulative IPC: 0.879968 (Simulation time: 0 hr 10 min 21 sec) 
Heartbeat CPU 0 instructions: 380000000 cycles: 360852667 heartbeat IPC: 0.905567 cumulative IPC: 0.880857 (Simulation time: 0 hr 10 min 39 sec) 
Heartbeat CPU 0 instructions: 390000003 cycles: 371506662 heartbeat IPC: 0.938615 cumulative IPC: 0.88273 (Simulation time: 0 hr 10 min 58 sec) 
Heartbeat CPU 0 instructions: 400000000 cycles: 381753481 heartbeat IPC: 0.975912 cumulative IPC: 0.885548 (Simulation time: 0 hr 11 min 16 sec) 
Heartbeat CPU 0 instructions: 410000000 cycles: 392309831 heartbeat IPC: 0.947297 cumulative IPC: 0.887414 (Simulation time: 0 hr 11 min 34 sec) 
Heartbeat CPU 0 instructions: 420000000 cycles: 401713681 heartbeat IPC: 1.06339 cumulative IPC: 0.892027 (Simulation time: 0 hr 11 min 52 sec) 
Heartbeat CPU 0 instructions: 430000002 cycles: 410810234 heartbeat IPC: 1.09932 cumulative IPC: 0.897154 (Simulation time: 0 hr 12 min 10 sec) 
Heartbeat CPU 0 instructions: 440000000 cycles: 421102653 heartbeat IPC: 0.971589 cumulative IPC: 0.89918 (Simulation time: 0 hr 12 min 28 sec) 
Heartbeat CPU 0 instructions: 450000002 cycles: 432234089 heartbeat IPC: 0.898357 cumulative IPC: 0.899156 (Simulation time: 0 hr 12 min 46 sec) 
Heartbeat CPU 0 instructions: 460000000 cycles: 443811053 heartbeat IPC: 0.863784 cumulative IPC: 0.898135 (Simulation time: 0 hr 13 min 5 sec) 
Heartbeat CPU 0 instructions: 470000003 cycles: 454032173 heartbeat IPC: 0.978367 cumulative IPC: 0.90013 (Simulation time: 0 hr 13 min 22 sec) 
Heartbeat CPU 0 instructions: 480000000 cycles: 464597923 heartbeat IPC: 0.946454 cumulative IPC: 0.901291 (Simulation time: 0 hr 13 min 40 sec) 
Heartbeat CPU 0 instructions: 490000000 cycles: 474577639 heartbeat IPC: 1.00203 cumulative IPC: 0.90362 (Simulation time: 0 hr 13 min 58 sec) 
Heartbeat CPU 0 instructions: 500000000 cycles: 486400668 heartbeat IPC: 0.845807 cumulative IPC: 0.902079 (Simulation time: 0 hr 14 min 16 sec) 
Heartbeat CPU 0 instructions: 510000002 cycles: 498837657 heartbeat IPC: 0.804053 cumulative IPC: 0.899404 (Simulation time: 0 hr 14 min 35 sec) 
Heartbeat CPU 0 instructions: 520000000 cycles: 510730343 heartbeat IPC: 0.840853 cumulative IPC: 0.897916 (Simulation time: 0 hr 14 min 54 sec) 
Heartbeat CPU 0 instructions: 530000001 cycles: 522611058 heartbeat IPC: 0.8417 cumulative IPC: 0.896523 (Simulation time: 0 hr 15 min 13 sec) 
Heartbeat CPU 0 instructions: 540000000 cycles: 534238799 heartbeat IPC: 0.860012 cumulative IPC: 0.895659 (Simulation time: 0 hr 15 min 31 sec) 
Heartbeat CPU 0 instructions: 550000001 cycles: 545656054 heartbeat IPC: 0.875867 cumulative IPC: 0.895209 (Simulation time: 0 hr 15 min 49 sec) 
Heartbeat CPU 0 instructions: 560000000 cycles: 557248150 heartbeat IPC: 0.862657 cumulative IPC: 0.894476 (Simulation time: 0 hr 16 min 8 sec) 
Heartbeat CPU 0 instructions: 570000000 cycles: 568672072 heartbeat IPC: 0.875356 cumulative IPC: 0.89406 (Simulation time: 0 hr 16 min 26 sec) 
Heartbeat CPU 0 instructions: 580000000 cycles: 579452810 heartbeat IPC: 0.92758 cumulative IPC: 0.894734 (Simulation time: 0 hr 16 min 43 sec) 
Heartbeat CPU 0 instructions: 590000003 cycles: 590900875 heartbeat IPC: 0.87351 cumulative IPC: 0.89429 (Simulation time: 0 hr 17 min 1 sec) 
Heartbeat CPU 0 instructions: 600000000 cycles: 601504874 heartbeat IPC: 0.94304 cumulative IPC: 0.895216 (Simulation time: 0 hr 17 min 19 sec) 
Finished CPU 0 instructions: 500000001 cycles: 558524536 cumulative IPC: 0.895216 (Simulation time: 0 hr 17 min 19 sec) 

CPU 0 Branch Prediction Accuracy: 93.0095% MPKI: 10.0046
Number of Branches: 71558147 Number of Mispredictions: 5002285
Number of LOAD Instructions: 145708893
Number of LOAD Instructions (ROI): 145708893
Number of STORE Instructions: 40463820
Number of STORE Instructions (ROI): 40463820
Total Destination Memory Operands: 45240498
Total Destination Memory Operands (ROI): 45240498
Total Source Memory Operands: 145708893
Total Source Memory Operands (ROI): 145708893
Number of DEPENDED LOADS: 10666263
Number of DEPENDED LOADS (ROI): 10666263
Number of SQ_ADDED: 45240498
Number of SQ_ADDED (ROI): 45240498
Number of LQ_ADDED: 193322653
Number of LQ_ADDED (ROI): 193322653
Number of Instructions read from trace: 600000002

ChampSim completed all CPUs

Region of Interest Statistics

CPU 0 cumulative IPC: 0.895216 instructions: 500000001 cycles: 558524536
ITLB TOTAL     ACCESS:   77992537  HIT:   77992536  MISS:          1
ITLB LOAD      ACCESS:   77992537  HIT:   77992536  MISS:          1
ITLB RFO       ACCESS:          0  HIT:          0  MISS:          0
ITLB PREFETCH  ACCESS:          0  HIT:          0  MISS:          0
ITLB WRITEBACK ACCESS:          0  HIT:          0  MISS:          0
ITLB PREFETCH  REQUESTED:          0  ISSUED:          0  USEFUL:          0  USELESS:          0
ITLB TOTAL MSHR MERGED:          0
ITLB LOAD MSHR MERGED:          0
ITLB RFO MSHR MERGED:          0
ITLB PREFETCH MSHR MERGED:          0
ITLB WRITEBACK MSHR MERGED:          0
ITLB TOTAL ACCESSES:   77992537 HITS:   77992536 MISSES:          1
ITLB LOAD ACCESSES:   77992537 HITS:   77992536 MISSES:          1
ITLB RFO ACCESSES:          0 HITS:          0 MISSES:          0
ITLB PREFETCH ACCESSES:          0 HITS:          0 MISSES:          0
ITLB WRITEBACK ACCESSES:          0 HITS:          0 MISSES:          0
ITLB RQ ACCESS:  499999995
ITLB RQ TO_CACHE:   77992537
ITLB RQ MERGED:  422007458
ITLB RQ FORWARD:          0
ITLB WQ ACCESS:          0
ITLB WQ TO_CACHE:          0
ITLB WQ MERGED:          0
ITLB WQ FORWARD:          0
DTLB TOTAL     ACCESS:   98672863  HIT:   97791526  MISS:     881337
DTLB LOAD      ACCESS:   70893463  HIT:   70031929  MISS:     861534
DTLB RFO       ACCESS:   27779400  HIT:   27759597  MISS:      19803
DTLB PREFETCH  ACCESS:          0  HIT:          0  MISS:          0
DTLB WRITEBACK ACCESS:          0  HIT:          0  MISS:          0
DTLB PREFETCH  REQUESTED:          0  ISSUED:          0  USEFUL:          0  USELESS:          0
DTLB TOTAL MSHR MERGED:      87315
DTLB LOAD MSHR MERGED:      65573
DTLB RFO MSHR MERGED:      21742
DTLB PREFETCH MSHR MERGED:          0
DTLB WRITEBACK MSHR MERGED:          0
DTLB TOTAL ACCESSES:   98760178 HITS:   97791526 MISSES:     968652
DTLB LOAD ACCESSES:   70959036 HITS:   70031929 MISSES:     927107
DTLB RFO ACCESSES:   27801142 HITS:   27759597 MISSES:      41545
DTLB PREFETCH ACCESSES:          0 HITS:          0 MISSES:          0
DTLB WRITEBACK ACCESSES:          0 HITS:          0 MISSES:          0
DTLB RQ ACCESS:  150278790
DTLB RQ TO_CACHE:   98760178
DTLB RQ MERGED:   51518612
DTLB RQ FORWARD:          0
DTLB WQ ACCESS:          0
DTLB WQ TO_CACHE:          0
DTLB WQ MERGED:          0
DTLB WQ FORWARD:          0
L1D TOTAL     ACCESS:  173340370  HIT:  169171719  MISS:    4168651
L1D LOAD      ACCESS:   75287421  HIT:   73406053  MISS:    1881368
L1D RFO       ACCESS:   36778377  HIT:   36571753  MISS:     206624
L1D PREFETCH  ACCESS:   61274572  HIT:   59193913  MISS:    2080659
L1D WRITEBACK ACCESS:          0  HIT:          0  MISS:          0
L1D PREFETCH  REQUESTED:   75391284  ISSUED:   74827091  USEFUL:     415085  USELESS:    1665563
L1D TOTAL MSHR MERGED:     375034
L1D LOAD MSHR MERGED:     112665
L1D RFO MSHR MERGED:     133040
L1D PREFETCH MSHR MERGED:     129329
L1D WRITEBACK MSHR MERGED:          0
L1D TOTAL ACCESSES:  173866804 HITS:  169323119 MISSES:    4543685
L1D LOAD ACCESSES:   75394054 HITS:   73408823 MISSES:    1985231
L1D RFO ACCESSES:   36910003 HITS:   36571753 MISSES:     338250
L1D PREFETCH ACCESSES:   61562747 HITS:   59342543 MISSES:    2220204
L1D WRITEBACK ACCESSES:          0 HITS:          0 MISSES:          0
L1D RQ ACCESS:  112616387
L1D RQ TO_CACHE:   75391284
L1D RQ MERGED:   37222333
L1D RQ FORWARD:          0
L1D WQ ACCESS:   37662403
L1D WQ TO_CACHE:   36910003
L1D WQ MERGED:     752400
L1D WQ FORWARD:     151400
L1I TOTAL     ACCESS:  100700538  HIT:  100700513  MISS:         25
L1I LOAD      ACCESS:  100700538  HIT:  100700513  MISS:         25
L1I RFO       ACCESS:          0  HIT:          0  MISS:          0
L1I PREFETCH  ACCESS:          0  HIT:          0  MISS:          0
L1I WRITEBACK ACCESS:          0  HIT:          0  MISS:          0
L1I PREFETCH  REQUESTED:          0  ISSUED:          0  USEFUL:          0  USELESS:          0
L1I TOTAL MSHR MERGED:         10
L1I LOAD MSHR MERGED:         10
L1I RFO MSHR MERGED:          0
L1I PREFETCH MSHR MERGED:          0
L1I WRITEBACK MSHR MERGED:          0
L1I TOTAL ACCESSES:  100700548 HITS:  100700513 MISSES:         35
L1I LOAD ACCESSES:  100700548 HITS:  100700513 MISSES:         35
L1I RFO ACCESSES:          0 HITS:          0 MISSES:          0
L1I PREFETCH ACCESSES:          0 HITS:          0 MISSES:          0
L1I WRITEBACK ACCESSES:          0 HITS:          0 MISSES:          0
L1I RQ ACCESS:  499999995
L1I RQ TO_CACHE:  100700548
L1I RQ MERGED:  399299447
L1I RQ FORWARD:          0
L1I WQ ACCESS:          0
L1I WQ TO_CACHE:          0
L1I WQ MERGED:          0
L1I WQ FORWARD:          0
L2C TOTAL     ACCESS:    5852591  HIT:    4009428  MISS:    1843163
L2C LOAD      ACCESS:    1872466  HIT:    1061504  MISS:     810962
L2C RFO       ACCESS:     205202  HIT:     100565  MISS:     104637
L2C PREFETCH  ACCESS:    2169287  HIT:    1246143  MISS:     923144
L2C WRITEBACK ACCESS:    1605636  HIT:    1601216  MISS:       4420
L2C PREFETCH  REQUESTED:      91709  ISSUED:      91709  USEFUL:      86440  USELESS:     836727
L2C TOTAL MSHR MERGED:       1031
L2C LOAD MSHR MERGED:        268
L2C RFO MSHR MERGED:          0
L2C PREFETCH MSHR MERGED:        763
L2C WRITEBACK MSHR MERGED:          0
L2C TOTAL ACCESSES:    5853960 HITS:    4009598 MISSES:    1844362
L2C LOAD ACCESSES:    1872591 HITS:    1061629 MISSES:     810962
L2C RFO ACCESSES:     205210 HITS:     100573 MISSES:     104637
L2C PREFETCH ACCESSES:    2170523 HITS:    1246180 MISSES:     924343
L2C WRITEBACK ACCESSES:    1605636 HITS:    1601216 MISSES:       4420
L2C RQ ACCESS:    2077801
L2C RQ TO_CACHE:    2077668
L2C RQ MERGED:          0
L2C RQ FORWARD:          0
L2C WQ ACCESS:    1605636
L2C WQ TO_CACHE:    1605636
L2C WQ MERGED:          0
L2C WQ FORWARD:        170
LLC TOTAL     ACCESS:    2673551  HIT:    2162651  MISS:     510900
LLC LOAD      ACCESS:     810685  HIT:     624025  MISS:     186660
LLC RFO       ACCESS:     104637  HIT:      59794  MISS:      44843
LLC PREFETCH  ACCESS:     923560  HIT:     659046  MISS:     264514
LLC WRITEBACK ACCESS:     834669  HIT:     819786  MISS:      14883
LLC PREFETCH  REQUESTED:          0  ISSUED:          0  USEFUL:       9923  USELESS:     254629
LLC TOTAL MSHR MERGED:          6
LLC LOAD MSHR MERGED:          1
LLC RFO MSHR MERGED:          0
LLC PREFETCH MSHR MERGED:          5
LLC WRITEBACK MSHR MERGED:          0
LLC TOTAL ACCESSES:    2673568 HITS:    2162662 MISSES:     510906
LLC LOAD ACCESSES:     810694 HITS:     624034 MISSES:     186660
LLC RFO ACCESSES:     104637 HITS:      59794 MISSES:      44843
LLC PREFETCH ACCESSES:     923568 HITS:     659048 MISSES:     264520
LLC WRITEBACK ACCESSES:     834669 HITS:     819786 MISSES:      14883
LLC 0 RQ ACCESS:     915331
LLC 0 RQ TO_CACHE:     915322
LLC 0 RQ MERGED:          0
LLC 0 RQ FORWARD:          0
LLC WQ ACCESS:     834669
LLC WQ TO_CACHE:     834669
LLC WQ MERGED:          0
LLC WQ FORWARD:         11
Major fault: 0 Minor fault: 11278
CPU 0 L1D next line prefetcher final stats
CPU 0 L2C PC-based stride prefetcher final stats
All Misses: 622782
All Hits: 2431788
SD Algo Stats - Switches: 0 SRR-Repls: 220673 BRR-Repls: 0

DRAM Statistics
 CHANNEL 0
 RQ ROW_BUFFER_HIT:      29771  ROW_BUFFER_MISS:     465726
 DBUS_CONGESTED:     373920
 WQ ROW_BUFFER_HIT:      15200  ROW_BUFFER_MISS:     217034  FULL:          0

 AVG_CONGESTED_CYCLE: 13
LOADS RETIRED: 121769268
INSTR RETIRED: 500000000
