
*** ChampSim Multicore Out-of-Order Simulator ***

Warmup Instructions: 100000000
Simulation Instructions: 500000000
Number of CPUs: 1
LLC sets: 2048
LLC ways: 16
Clean RRIP Policies: 1213031012130310 Dirty RRIP Policies: 2213130022131300 PSEL Width: 10 Track Set: 4294967295 PSEL Mask: 1 Demote Mask: 3040201030402010DS Algo: 0Window size: 0
Off-chip DRAM Size: 4096 MB Channels: 1 Width: 64-bit Data Rate: 1600 MT/s

CPU 0 runs /mnt/beegfs/iconst01/spec2017/Omnetpp.trace.gz
NOT SORTED
TRACE STRING: /mnt/beegfs/iconst01/spec2017/Omnetpp.trace.gz
SORTED
TRACE STRING: /mnt/beegfs/iconst01/spec2017/Omnetpp.trace.gz
INITIAL
TRACE STRING: /mnt/beegfs/iconst01/spec2017/Omnetpp.trace.gz

champsim_seed used: 739

CPU 0 L1D next line prefetcher
CPU 0 L2C IP-based stride prefetcher
Initialize DRRIP state
Assign rand_sets[0]: 454  LLC: 2048
rand_sets[0]: 454
Assign rand_sets[1]: 1662  LLC: 2048
rand_sets[1]: 1662
Assign rand_sets[2]: 1921  LLC: 2048
rand_sets[2]: 1921
Assign rand_sets[3]: 1131  LLC: 2048
rand_sets[3]: 1131
Assign rand_sets[4]: 331  LLC: 2048
rand_sets[4]: 331
Assign rand_sets[5]: 1531  LLC: 2048
rand_sets[5]: 1531
Assign rand_sets[6]: 482  LLC: 2048
rand_sets[6]: 482
Assign rand_sets[7]: 1275  LLC: 2048
rand_sets[7]: 1275
Assign rand_sets[8]: 1876  LLC: 2048
rand_sets[8]: 1876
Assign rand_sets[9]: 2038  LLC: 2048
rand_sets[9]: 2038
Assign rand_sets[10]: 701  LLC: 2048
rand_sets[10]: 701
Assign rand_sets[11]: 479  LLC: 2048
rand_sets[11]: 479
Assign rand_sets[12]: 892  LLC: 2048
rand_sets[12]: 892
Assign rand_sets[13]: 1820  LLC: 2048
rand_sets[13]: 1820
Assign rand_sets[14]: 1505  LLC: 2048
rand_sets[14]: 1505
Assign rand_sets[15]: 1159  LLC: 2048
rand_sets[15]: 1159
Assign rand_sets[16]: 513  LLC: 2048
rand_sets[16]: 513
Assign rand_sets[17]: 703  LLC: 2048
rand_sets[17]: 703
Assign rand_sets[18]: 561  LLC: 2048
rand_sets[18]: 561
Assign rand_sets[19]: 990  LLC: 2048
rand_sets[19]: 990
Assign rand_sets[20]: 342  LLC: 2048
rand_sets[20]: 342
Assign rand_sets[21]: 882  LLC: 2048
rand_sets[21]: 882
Assign rand_sets[22]: 15  LLC: 2048
rand_sets[22]: 15
Assign rand_sets[23]: 71  LLC: 2048
rand_sets[23]: 71
Assign rand_sets[24]: 1127  LLC: 2048
rand_sets[24]: 1127
Assign rand_sets[25]: 1382  LLC: 2048
rand_sets[25]: 1382
Assign rand_sets[26]: 647  LLC: 2048
rand_sets[26]: 647
Assign rand_sets[27]: 857  LLC: 2048
rand_sets[27]: 857
Assign rand_sets[28]: 1450  LLC: 2048
rand_sets[28]: 1450
Assign rand_sets[29]: 1160  LLC: 2048
rand_sets[29]: 1160
Assign rand_sets[30]: 1852  LLC: 2048
rand_sets[30]: 1852
Assign rand_sets[31]: 1881  LLC: 2048
rand_sets[31]: 1881
Assign rand_sets[32]: 1770  LLC: 2048
rand_sets[32]: 1770
Assign rand_sets[33]: 1622  LLC: 2048
rand_sets[33]: 1622
Assign rand_sets[34]: 275  LLC: 2048
rand_sets[34]: 275
Assign rand_sets[35]: 635  LLC: 2048
rand_sets[35]: 635
Assign rand_sets[36]: 466  LLC: 2048
rand_sets[36]: 466
Assign rand_sets[37]: 1413  LLC: 2048
rand_sets[37]: 1413
Assign rand_sets[38]: 417  LLC: 2048
rand_sets[38]: 417
Assign rand_sets[39]: 472  LLC: 2048
rand_sets[39]: 472
Assign rand_sets[40]: 1340  LLC: 2048
rand_sets[40]: 1340
Assign rand_sets[41]: 852  LLC: 2048
rand_sets[41]: 852
Assign rand_sets[42]: 1365  LLC: 2048
rand_sets[42]: 1365
Assign rand_sets[43]: 47  LLC: 2048
rand_sets[43]: 47
Assign rand_sets[44]: 823  LLC: 2048
rand_sets[44]: 823
Assign rand_sets[45]: 686  LLC: 2048
rand_sets[45]: 686
Assign rand_sets[46]: 1637  LLC: 2048
rand_sets[46]: 1637
Assign rand_sets[47]: 1115  LLC: 2048
rand_sets[47]: 1115
Assign rand_sets[48]: 986  LLC: 2048
rand_sets[48]: 986
Assign rand_sets[49]: 258  LLC: 2048
rand_sets[49]: 258
Assign rand_sets[50]: 633  LLC: 2048
rand_sets[50]: 633
Assign rand_sets[51]: 920  LLC: 2048
rand_sets[51]: 920
Assign rand_sets[52]: 204  LLC: 2048
rand_sets[52]: 204
Assign rand_sets[53]: 227  LLC: 2048
rand_sets[53]: 227
Assign rand_sets[54]: 1818  LLC: 2048
rand_sets[54]: 1818
Assign rand_sets[55]: 886  LLC: 2048
rand_sets[55]: 886
Assign rand_sets[56]: 1422  LLC: 2048
rand_sets[56]: 1422
Assign rand_sets[57]: 607  LLC: 2048
rand_sets[57]: 607
Assign rand_sets[58]: 217  LLC: 2048
rand_sets[58]: 217
Assign rand_sets[59]: 1945  LLC: 2048
rand_sets[59]: 1945
Assign rand_sets[60]: 143  LLC: 2048
rand_sets[60]: 143
Assign rand_sets[61]: 1311  LLC: 2048
rand_sets[61]: 1311
Assign rand_sets[62]: 319  LLC: 2048
rand_sets[62]: 319
Assign rand_sets[63]: 1846  LLC: 2048
rand_sets[63]: 1846
 CLEAN-RRIP-POLICY-1: 1-2-1-3-0-3-1-0- CLEAN-RRIP-POLICY-2: 1-2-1-3-0-3-1-0-
 DIRTY-RRIP-POLICY-1: 2-2-1-3-1-3-0-0- DIRTY-RRIP-POLICY-2: 2-2-1-3-1-3-0-0-
 PSEL width: 10
Heartbeat CPU 0 instructions: 10000000 cycles: 7320037 heartbeat IPC: 1.36611 cumulative IPC: 1.36611 (Simulation time: 0 hr 0 min 20 sec) 
Heartbeat CPU 0 instructions: 20000000 cycles: 14623806 heartbeat IPC: 1.36916 cumulative IPC: 1.36763 (Simulation time: 0 hr 0 min 40 sec) 
Heartbeat CPU 0 instructions: 30000003 cycles: 21925158 heartbeat IPC: 1.36961 cumulative IPC: 1.36829 (Simulation time: 0 hr 1 min 0 sec) 
Heartbeat CPU 0 instructions: 40000000 cycles: 29213600 heartbeat IPC: 1.37203 cumulative IPC: 1.36923 (Simulation time: 0 hr 1 min 20 sec) 
Heartbeat CPU 0 instructions: 50000000 cycles: 36490183 heartbeat IPC: 1.37427 cumulative IPC: 1.37023 (Simulation time: 0 hr 1 min 40 sec) 
Heartbeat CPU 0 instructions: 60000000 cycles: 43770330 heartbeat IPC: 1.3736 cumulative IPC: 1.37079 (Simulation time: 0 hr 2 min 0 sec) 
Heartbeat CPU 0 instructions: 70000001 cycles: 51055821 heartbeat IPC: 1.37259 cumulative IPC: 1.37105 (Simulation time: 0 hr 2 min 21 sec) 
Heartbeat CPU 0 instructions: 80000000 cycles: 58331009 heartbeat IPC: 1.37453 cumulative IPC: 1.37148 (Simulation time: 0 hr 2 min 41 sec) 
Heartbeat CPU 0 instructions: 90000000 cycles: 65637495 heartbeat IPC: 1.36865 cumulative IPC: 1.37117 (Simulation time: 0 hr 3 min 1 sec) 
Heartbeat CPU 0 instructions: 100000000 cycles: 72929794 heartbeat IPC: 1.37131 cumulative IPC: 1.37118 (Simulation time: 0 hr 3 min 21 sec) 

Warmup complete CPU 0 instructions: 100000002 cycles: 72929795 (Simulation time: 0 hr 3 min 21 sec) 

Heartbeat CPU 0 instructions: 110000002 cycles: 113520091 heartbeat IPC: 0.246364 cumulative IPC: 0.246364 (Simulation time: 0 hr 4 min 2 sec) 
Heartbeat CPU 0 instructions: 120000000 cycles: 153800796 heartbeat IPC: 0.248258 cumulative IPC: 0.247307 (Simulation time: 0 hr 4 min 42 sec) 
Heartbeat CPU 0 instructions: 130000002 cycles: 194301568 heartbeat IPC: 0.246909 cumulative IPC: 0.247174 (Simulation time: 0 hr 5 min 23 sec) 
Heartbeat CPU 0 instructions: 140000000 cycles: 234932673 heartbeat IPC: 0.246117 cumulative IPC: 0.246909 (Simulation time: 0 hr 6 min 4 sec) 
Heartbeat CPU 0 instructions: 150000002 cycles: 275122863 heartbeat IPC: 0.248817 cumulative IPC: 0.247288 (Simulation time: 0 hr 6 min 44 sec) 
Heartbeat CPU 0 instructions: 160000000 cycles: 315334450 heartbeat IPC: 0.248684 cumulative IPC: 0.24752 (Simulation time: 0 hr 7 min 25 sec) 
Heartbeat CPU 0 instructions: 170000001 cycles: 354801918 heartbeat IPC: 0.253373 cumulative IPC: 0.24834 (Simulation time: 0 hr 8 min 5 sec) 
Heartbeat CPU 0 instructions: 180000000 cycles: 395029354 heartbeat IPC: 0.248587 cumulative IPC: 0.24837 (Simulation time: 0 hr 8 min 46 sec) 
Heartbeat CPU 0 instructions: 190000002 cycles: 435253236 heartbeat IPC: 0.248609 cumulative IPC: 0.248397 (Simulation time: 0 hr 9 min 26 sec) 
Heartbeat CPU 0 instructions: 200000000 cycles: 476586234 heartbeat IPC: 0.241937 cumulative IPC: 0.247735 (Simulation time: 0 hr 10 min 7 sec) 
Heartbeat CPU 0 instructions: 210000003 cycles: 516809660 heartbeat IPC: 0.248611 cumulative IPC: 0.247815 (Simulation time: 0 hr 10 min 48 sec) 
Heartbeat CPU 0 instructions: 220000000 cycles: 557256633 heartbeat IPC: 0.247237 cumulative IPC: 0.247767 (Simulation time: 0 hr 11 min 28 sec) 
Heartbeat CPU 0 instructions: 230000000 cycles: 597685207 heartbeat IPC: 0.24735 cumulative IPC: 0.247734 (Simulation time: 0 hr 12 min 9 sec) 
Heartbeat CPU 0 instructions: 240000000 cycles: 637858437 heartbeat IPC: 0.248922 cumulative IPC: 0.247819 (Simulation time: 0 hr 12 min 49 sec) 
Heartbeat CPU 0 instructions: 250000000 cycles: 678061515 heartbeat IPC: 0.248737 cumulative IPC: 0.24788 (Simulation time: 0 hr 13 min 29 sec) 
Heartbeat CPU 0 instructions: 260000000 cycles: 718380466 heartbeat IPC: 0.248022 cumulative IPC: 0.247889 (Simulation time: 0 hr 14 min 9 sec) 
Heartbeat CPU 0 instructions: 270000000 cycles: 758774712 heartbeat IPC: 0.24756 cumulative IPC: 0.247869 (Simulation time: 0 hr 14 min 49 sec) 
Heartbeat CPU 0 instructions: 280000000 cycles: 799500497 heartbeat IPC: 0.245545 cumulative IPC: 0.247739 (Simulation time: 0 hr 15 min 29 sec) 
Heartbeat CPU 0 instructions: 290000001 cycles: 839446607 heartbeat IPC: 0.250337 cumulative IPC: 0.247875 (Simulation time: 0 hr 16 min 9 sec) 
Heartbeat CPU 0 instructions: 300000000 cycles: 880045128 heartbeat IPC: 0.246314 cumulative IPC: 0.247796 (Simulation time: 0 hr 16 min 48 sec) 
Heartbeat CPU 0 instructions: 310000000 cycles: 920597260 heartbeat IPC: 0.246596 cumulative IPC: 0.247739 (Simulation time: 0 hr 17 min 28 sec) 
Heartbeat CPU 0 instructions: 320000000 cycles: 960868773 heartbeat IPC: 0.248314 cumulative IPC: 0.247765 (Simulation time: 0 hr 18 min 7 sec) 
Heartbeat CPU 0 instructions: 330000000 cycles: 1001122367 heartbeat IPC: 0.248425 cumulative IPC: 0.247793 (Simulation time: 0 hr 18 min 47 sec) 
Heartbeat CPU 0 instructions: 340000000 cycles: 1041989807 heartbeat IPC: 0.244694 cumulative IPC: 0.247663 (Simulation time: 0 hr 19 min 26 sec) 
Heartbeat CPU 0 instructions: 350000001 cycles: 1082346014 heartbeat IPC: 0.247793 cumulative IPC: 0.247668 (Simulation time: 0 hr 20 min 5 sec) 
Heartbeat CPU 0 instructions: 360000000 cycles: 1122982334 heartbeat IPC: 0.246085 cumulative IPC: 0.247607 (Simulation time: 0 hr 20 min 45 sec) 
Heartbeat CPU 0 instructions: 370000000 cycles: 1162681476 heartbeat IPC: 0.251895 cumulative IPC: 0.247763 (Simulation time: 0 hr 21 min 23 sec) 
Heartbeat CPU 0 instructions: 380000000 cycles: 1203301718 heartbeat IPC: 0.246183 cumulative IPC: 0.247706 (Simulation time: 0 hr 22 min 3 sec) 
Heartbeat CPU 0 instructions: 390000001 cycles: 1243450516 heartbeat IPC: 0.249073 cumulative IPC: 0.247753 (Simulation time: 0 hr 22 min 42 sec) 
Heartbeat CPU 0 instructions: 400000000 cycles: 1283706344 heartbeat IPC: 0.248411 cumulative IPC: 0.247775 (Simulation time: 0 hr 23 min 21 sec) 
Heartbeat CPU 0 instructions: 410000000 cycles: 1323807147 heartbeat IPC: 0.249372 cumulative IPC: 0.247826 (Simulation time: 0 hr 24 min 0 sec) 
Heartbeat CPU 0 instructions: 420000000 cycles: 1363945556 heartbeat IPC: 0.249138 cumulative IPC: 0.247867 (Simulation time: 0 hr 24 min 39 sec) 
Heartbeat CPU 0 instructions: 430000000 cycles: 1404154792 heartbeat IPC: 0.248699 cumulative IPC: 0.247892 (Simulation time: 0 hr 25 min 18 sec) 
Heartbeat CPU 0 instructions: 440000000 cycles: 1444408844 heartbeat IPC: 0.248422 cumulative IPC: 0.247908 (Simulation time: 0 hr 25 min 57 sec) 
Heartbeat CPU 0 instructions: 450000002 cycles: 1484517895 heartbeat IPC: 0.24932 cumulative IPC: 0.247948 (Simulation time: 0 hr 26 min 36 sec) 
Heartbeat CPU 0 instructions: 460000000 cycles: 1524062327 heartbeat IPC: 0.25288 cumulative IPC: 0.248082 (Simulation time: 0 hr 27 min 15 sec) 
Heartbeat CPU 0 instructions: 470000000 cycles: 1564472558 heartbeat IPC: 0.247462 cumulative IPC: 0.248065 (Simulation time: 0 hr 27 min 54 sec) 
Heartbeat CPU 0 instructions: 480000000 cycles: 1604482906 heartbeat IPC: 0.249935 cumulative IPC: 0.248114 (Simulation time: 0 hr 28 min 33 sec) 
Heartbeat CPU 0 instructions: 490000001 cycles: 1644664379 heartbeat IPC: 0.248871 cumulative IPC: 0.248133 (Simulation time: 0 hr 29 min 13 sec) 
Heartbeat CPU 0 instructions: 500000000 cycles: 1685066709 heartbeat IPC: 0.24751 cumulative IPC: 0.248118 (Simulation time: 0 hr 29 min 52 sec) 
Heartbeat CPU 0 instructions: 510000000 cycles: 1724923081 heartbeat IPC: 0.250901 cumulative IPC: 0.248185 (Simulation time: 0 hr 30 min 31 sec) 
Heartbeat CPU 0 instructions: 520000000 cycles: 1765528816 heartbeat IPC: 0.246271 cumulative IPC: 0.248139 (Simulation time: 0 hr 31 min 10 sec) 
Heartbeat CPU 0 instructions: 530000000 cycles: 1805584522 heartbeat IPC: 0.249652 cumulative IPC: 0.248174 (Simulation time: 0 hr 31 min 50 sec) 
Heartbeat CPU 0 instructions: 540000000 cycles: 1845391616 heartbeat IPC: 0.251211 cumulative IPC: 0.248242 (Simulation time: 0 hr 32 min 29 sec) 
Heartbeat CPU 0 instructions: 550000001 cycles: 1885938886 heartbeat IPC: 0.246626 cumulative IPC: 0.248206 (Simulation time: 0 hr 33 min 8 sec) 
Heartbeat CPU 0 instructions: 560000000 cycles: 1926553170 heartbeat IPC: 0.246219 cumulative IPC: 0.248163 (Simulation time: 0 hr 33 min 48 sec) 
Heartbeat CPU 0 instructions: 570000003 cycles: 1967155951 heartbeat IPC: 0.246289 cumulative IPC: 0.248122 (Simulation time: 0 hr 34 min 27 sec) 
Heartbeat CPU 0 instructions: 580000000 cycles: 2007572461 heartbeat IPC: 0.247424 cumulative IPC: 0.248108 (Simulation time: 0 hr 35 min 6 sec) 
Heartbeat CPU 0 instructions: 590000001 cycles: 2048426388 heartbeat IPC: 0.244775 cumulative IPC: 0.248039 (Simulation time: 0 hr 35 min 46 sec) 
Heartbeat CPU 0 instructions: 600000000 cycles: 2089054892 heartbeat IPC: 0.246133 cumulative IPC: 0.248 (Simulation time: 0 hr 36 min 26 sec) 
Finished CPU 0 instructions: 500000000 cycles: 2016125105 cumulative IPC: 0.248 (Simulation time: 0 hr 36 min 26 sec) 

CPU 0 Branch Prediction Accuracy: 96.2429% MPKI: 5.85335
Number of Branches: 77897976 Number of Mispredictions: 2926674
Number of LOAD Instructions: 193081861
Number of LOAD Instructions (ROI): 193081861
Number of STORE Instructions: 97310749
Number of STORE Instructions (ROI): 97310749
Total Destination Memory Operands: 106368027
Total Destination Memory Operands (ROI): 106368027
Total Source Memory Operands: 193081861
Total Source Memory Operands (ROI): 193081861
Number of DEPENDED LOADS: 6459942
Number of DEPENDED LOADS (ROI): 6459942
Number of SQ_ADDED: 106367982
Number of SQ_ADDED (ROI): 106367982
Number of LQ_ADDED: 428295712
Number of LQ_ADDED (ROI): 428295712
Number of Instructions read from trace: 600000256

ChampSim completed all CPUs

Region of Interest Statistics

CPU 0 cumulative IPC: 0.248 instructions: 500000000 cycles: 2016125105
ITLB TOTAL     ACCESS:  151141560  HIT:  151125729  MISS:      15831
ITLB LOAD      ACCESS:  151141560  HIT:  151125729  MISS:      15831
ITLB RFO       ACCESS:          0  HIT:          0  MISS:          0
ITLB PREFETCH  ACCESS:          0  HIT:          0  MISS:          0
ITLB WRITEBACK ACCESS:          0  HIT:          0  MISS:          0
ITLB PREFETCH  REQUESTED:          0  ISSUED:          0  USEFUL:          0  USELESS:          0
ITLB TOTAL MSHR MERGED:      17855
ITLB LOAD MSHR MERGED:      17855
ITLB RFO MSHR MERGED:          0
ITLB PREFETCH MSHR MERGED:          0
ITLB WRITEBACK MSHR MERGED:          0
ITLB TOTAL ACCESSES:  151159415 HITS:  151125729 MISSES:      33686
ITLB LOAD ACCESSES:  151159415 HITS:  151125729 MISSES:      33686
ITLB RFO ACCESSES:          0 HITS:          0 MISSES:          0
ITLB PREFETCH ACCESSES:          0 HITS:          0 MISSES:          0
ITLB WRITEBACK ACCESSES:          0 HITS:          0 MISSES:          0
ITLB RQ ACCESS:  500000242
ITLB RQ TO_CACHE:  151159415
ITLB RQ MERGED:  348840827
ITLB RQ FORWARD:          0
ITLB WQ ACCESS:          0
ITLB WQ TO_CACHE:          0
ITLB WQ MERGED:          0
ITLB WQ FORWARD:          0
DTLB TOTAL     ACCESS:  199545662  HIT:  194166693  MISS:    5378969
DTLB LOAD      ACCESS:  123116158  HIT:  118097691  MISS:    5018467
DTLB RFO       ACCESS:   76429504  HIT:   76069002  MISS:     360502
DTLB PREFETCH  ACCESS:          0  HIT:          0  MISS:          0
DTLB WRITEBACK ACCESS:          0  HIT:          0  MISS:          0
DTLB PREFETCH  REQUESTED:          0  ISSUED:          0  USEFUL:          0  USELESS:          0
DTLB TOTAL MSHR MERGED:     916322
DTLB LOAD MSHR MERGED:     806974
DTLB RFO MSHR MERGED:     109348
DTLB PREFETCH MSHR MERGED:          0
DTLB WRITEBACK MSHR MERGED:          0
DTLB TOTAL ACCESSES:  200461984 HITS:  194166693 MISSES:    6295291
DTLB LOAD ACCESSES:  123923132 HITS:  118097691 MISSES:    5825441
DTLB RFO ACCESSES:   76538852 HITS:   76069002 MISSES:     469850
DTLB PREFETCH ACCESSES:          0 HITS:          0 MISSES:          0
DTLB WRITEBACK ACCESSES:          0 HITS:          0 MISSES:          0
DTLB RQ ACCESS:  243865963
DTLB RQ TO_CACHE:  200461984
DTLB RQ MERGED:   43403979
DTLB RQ FORWARD:          0
DTLB WQ ACCESS:          0
DTLB WQ TO_CACHE:          0
DTLB WQ MERGED:          0
DTLB WQ FORWARD:          0
L1D TOTAL     ACCESS:  335525140  HIT:  317429075  MISS:   18096065
L1D LOAD      ACCESS:  127667257  HIT:  118720607  MISS:    8946650
L1D RFO       ACCESS:   87071973  HIT:   86278807  MISS:     793166
L1D PREFETCH  ACCESS:  120785910  HIT:  112429661  MISS:    8356249
L1D WRITEBACK ACCESS:          0  HIT:          0  MISS:          0
L1D PREFETCH  REQUESTED:  128458641  ISSUED:  126860633  USEFUL:    1737438  USELESS:    6618823
L1D TOTAL MSHR MERGED:    3896066
L1D LOAD MSHR MERGED:     959087
L1D RFO MSHR MERGED:    1084522
L1D PREFETCH MSHR MERGED:    1852457
L1D WRITEBACK MSHR MERGED:          0
L1D TOTAL ACCESSES:  339506242 HITS:  317514111 MISSES:   21992131
L1D LOAD ACCESSES:  128459071 HITS:  118721037 MISSES:    9738034
L1D RFO ACCESSES:   88084063 HITS:   86278807 MISSES:    1805256
L1D PREFETCH ACCESSES:  122963108 HITS:  112514267 MISSES:   10448841
L1D WRITEBACK ACCESSES:          0 HITS:          0 MISSES:          0
L1D RQ ACCESS:  155234578
L1D RQ TO_CACHE:  128458641
L1D RQ MERGED:   26775507
L1D RQ FORWARD:          0
L1D WQ ACCESS:   88631385
L1D WQ TO_CACHE:   88084062
L1D WQ MERGED:     547323
L1D WQ FORWARD:      85036
L1I TOTAL     ACCESS:  175456467  HIT:  175190017  MISS:     266450
L1I LOAD      ACCESS:  175456467  HIT:  175190017  MISS:     266450
L1I RFO       ACCESS:          0  HIT:          0  MISS:          0
L1I PREFETCH  ACCESS:          0  HIT:          0  MISS:          0
L1I WRITEBACK ACCESS:          0  HIT:          0  MISS:          0
L1I PREFETCH  REQUESTED:          0  ISSUED:          0  USEFUL:          0  USELESS:          0
L1I TOTAL MSHR MERGED:     213742
L1I LOAD MSHR MERGED:     213742
L1I RFO MSHR MERGED:          0
L1I PREFETCH MSHR MERGED:          0
L1I WRITEBACK MSHR MERGED:          0
L1I TOTAL ACCESSES:  175670209 HITS:  175190017 MISSES:     480192
L1I LOAD ACCESSES:  175670209 HITS:  175190017 MISSES:     480192
L1I RFO ACCESSES:          0 HITS:          0 MISSES:          0
L1I PREFETCH ACCESSES:          0 HITS:          0 MISSES:          0
L1I WRITEBACK ACCESSES:          0 HITS:          0 MISSES:          0
L1I RQ ACCESS:  500000242
L1I RQ TO_CACHE:  175670209
L1I RQ MERGED:  324330033
L1I RQ FORWARD:          0
L1I WQ ACCESS:          0
L1I WQ TO_CACHE:          0
L1I WQ MERGED:          0
L1I WQ FORWARD:          0
L2C TOTAL     ACCESS:   23738613  HIT:   12112878  MISS:   11625735
L2C LOAD      ACCESS:    9044217  HIT:    3564716  MISS:    5479501
L2C RFO       ACCESS:     720679  HIT:     130397  MISS:     590282
L2C PREFETCH  ACCESS:    8613373  HIT:    3086120  MISS:    5527253
L2C WRITEBACK ACCESS:    5360344  HIT:    5331645  MISS:      28699
L2C PREFETCH  REQUESTED:      18038  ISSUED:      18038  USEFUL:     323052  USELESS:    5204376
L2C TOTAL MSHR MERGED:         27
L2C LOAD MSHR MERGED:          3
L2C RFO MSHR MERGED:          0
L2C PREFETCH MSHR MERGED:         24
L2C WRITEBACK MSHR MERGED:          0
L2C TOTAL ACCESSES:   23740439 HITS:   12114671 MISSES:   11625768
L2C LOAD ACCESSES:    9045397 HITS:    3565896 MISSES:    5479501
L2C RFO ACCESSES:     720734 HITS:     130452 MISSES:     590282
L2C PREFETCH ACCESSES:    8613964 HITS:    3086678 MISSES:    5527286
L2C WRITEBACK ACCESSES:    5360344 HITS:    5331645 MISSES:      28699
L2C RQ ACCESS:    9766131
L2C RQ TO_CACHE:    9764896
L2C RQ MERGED:          0
L2C RQ FORWARD:          0
L2C WQ ACCESS:    5360344
L2C WQ TO_CACHE:    5360344
L2C WQ MERGED:          0
L2C WQ FORWARD:       1793
LLC TOTAL     ACCESS:   15448685  HIT:    6237102  MISS:    9211583
LLC LOAD      ACCESS:    5479471  HIT:    2005992  MISS:    3473479
LLC RFO       ACCESS:     590280  HIT:     259934  MISS:     330346
LLC PREFETCH  ACCESS:    5527245  HIT:     944716  MISS:    4582529
LLC WRITEBACK ACCESS:    3851689  HIT:    3026460  MISS:     825229
LLC PREFETCH  REQUESTED:          0  ISSUED:          0  USEFUL:      24332  USELESS:    4558721
LLC TOTAL MSHR MERGED:          0
LLC LOAD MSHR MERGED:          0
LLC RFO MSHR MERGED:          0
LLC PREFETCH MSHR MERGED:          0
LLC WRITEBACK MSHR MERGED:          0
LLC TOTAL ACCESSES:   15448731 HITS:    6237148 MISSES:    9211583
LLC LOAD ACCESSES:    5479498 HITS:    2006019 MISSES:    3473479
LLC RFO ACCESSES:     590282 HITS:     259936 MISSES:     330346
LLC PREFETCH ACCESSES:    5527262 HITS:     944733 MISSES:    4582529
LLC WRITEBACK ACCESSES:    3851689 HITS:    3026460 MISSES:     825229
LLC 0 RQ ACCESS:    6069780
LLC 0 RQ TO_CACHE:    6069751
LLC 0 RQ MERGED:          0
LLC 0 RQ FORWARD:          0
LLC WQ ACCESS:    3851689
LLC WQ TO_CACHE:    3851689
LLC WQ MERGED:          0
LLC WQ FORWARD:         46
Major fault: 0 Minor fault: 44814
CPU 0 L1D next line prefetcher final stats
CPU 0 L2C PC-based stride prefetcher final stats
All Misses: 11139728
All Hits: 7481446
SD Algo Stats - Switches: 0 SRR-Repls: 3964854 BRR-Repls: 0

DRAM Statistics
 CHANNEL 0
 RQ ROW_BUFFER_HIT:    1447554  ROW_BUFFER_MISS:    6936734
 DBUS_CONGESTED:    5669968
 WQ ROW_BUFFER_HIT:     188804  ROW_BUFFER_MISS:    2179493  FULL:          0

 AVG_CONGESTED_CYCLE: 13
LOADS RETIRED: 160808997
INSTR RETIRED: 500000000
