
*** ChampSim Multicore Out-of-Order Simulator ***

Warmup Instructions: 100000000
Simulation Instructions: 500000000
Number of CPUs: 1
LLC sets: 2048
LLC ways: 16
Clean RRIP Policies: 1220102112201021 Dirty RRIP Policies: 2210201122102011 PSEL Width: 10 Track Set: 4294967295 PSEL Mask: 1 Demote Mask: 3330133333301333DS Algo: 0Window size: 0
Off-chip DRAM Size: 4096 MB Channels: 1 Width: 64-bit Data Rate: 1600 MT/s

CPU 0 runs /mnt/beegfs/iconst01/spec2017/Gcc.trace.gz
NOT SORTED
TRACE STRING: /mnt/beegfs/iconst01/spec2017/Gcc.trace.gz
SORTED
TRACE STRING: /mnt/beegfs/iconst01/spec2017/Gcc.trace.gz
INITIAL
TRACE STRING: /mnt/beegfs/iconst01/spec2017/Gcc.trace.gz

champsim_seed used: 269

CPU 0 L1D next line prefetcher
CPU 0 L2C IP-based stride prefetcher
Initialize DRRIP state
Assign rand_sets[0]: 454  LLC: 2048
rand_sets[0]: 454
Assign rand_sets[1]: 1662  LLC: 2048
rand_sets[1]: 1662
Assign rand_sets[2]: 1921  LLC: 2048
rand_sets[2]: 1921
Assign rand_sets[3]: 1131  LLC: 2048
rand_sets[3]: 1131
Assign rand_sets[4]: 331  LLC: 2048
rand_sets[4]: 331
Assign rand_sets[5]: 1531  LLC: 2048
rand_sets[5]: 1531
Assign rand_sets[6]: 482  LLC: 2048
rand_sets[6]: 482
Assign rand_sets[7]: 1275  LLC: 2048
rand_sets[7]: 1275
Assign rand_sets[8]: 1876  LLC: 2048
rand_sets[8]: 1876
Assign rand_sets[9]: 2038  LLC: 2048
rand_sets[9]: 2038
Assign rand_sets[10]: 701  LLC: 2048
rand_sets[10]: 701
Assign rand_sets[11]: 479  LLC: 2048
rand_sets[11]: 479
Assign rand_sets[12]: 892  LLC: 2048
rand_sets[12]: 892
Assign rand_sets[13]: 1820  LLC: 2048
rand_sets[13]: 1820
Assign rand_sets[14]: 1505  LLC: 2048
rand_sets[14]: 1505
Assign rand_sets[15]: 1159  LLC: 2048
rand_sets[15]: 1159
Assign rand_sets[16]: 513  LLC: 2048
rand_sets[16]: 513
Assign rand_sets[17]: 703  LLC: 2048
rand_sets[17]: 703
Assign rand_sets[18]: 561  LLC: 2048
rand_sets[18]: 561
Assign rand_sets[19]: 990  LLC: 2048
rand_sets[19]: 990
Assign rand_sets[20]: 342  LLC: 2048
rand_sets[20]: 342
Assign rand_sets[21]: 882  LLC: 2048
rand_sets[21]: 882
Assign rand_sets[22]: 15  LLC: 2048
rand_sets[22]: 15
Assign rand_sets[23]: 71  LLC: 2048
rand_sets[23]: 71
Assign rand_sets[24]: 1127  LLC: 2048
rand_sets[24]: 1127
Assign rand_sets[25]: 1382  LLC: 2048
rand_sets[25]: 1382
Assign rand_sets[26]: 647  LLC: 2048
rand_sets[26]: 647
Assign rand_sets[27]: 857  LLC: 2048
rand_sets[27]: 857
Assign rand_sets[28]: 1450  LLC: 2048
rand_sets[28]: 1450
Assign rand_sets[29]: 1160  LLC: 2048
rand_sets[29]: 1160
Assign rand_sets[30]: 1852  LLC: 2048
rand_sets[30]: 1852
Assign rand_sets[31]: 1881  LLC: 2048
rand_sets[31]: 1881
Assign rand_sets[32]: 1770  LLC: 2048
rand_sets[32]: 1770
Assign rand_sets[33]: 1622  LLC: 2048
rand_sets[33]: 1622
Assign rand_sets[34]: 275  LLC: 2048
rand_sets[34]: 275
Assign rand_sets[35]: 635  LLC: 2048
rand_sets[35]: 635
Assign rand_sets[36]: 466  LLC: 2048
rand_sets[36]: 466
Assign rand_sets[37]: 1413  LLC: 2048
rand_sets[37]: 1413
Assign rand_sets[38]: 417  LLC: 2048
rand_sets[38]: 417
Assign rand_sets[39]: 472  LLC: 2048
rand_sets[39]: 472
Assign rand_sets[40]: 1340  LLC: 2048
rand_sets[40]: 1340
Assign rand_sets[41]: 852  LLC: 2048
rand_sets[41]: 852
Assign rand_sets[42]: 1365  LLC: 2048
rand_sets[42]: 1365
Assign rand_sets[43]: 47  LLC: 2048
rand_sets[43]: 47
Assign rand_sets[44]: 823  LLC: 2048
rand_sets[44]: 823
Assign rand_sets[45]: 686  LLC: 2048
rand_sets[45]: 686
Assign rand_sets[46]: 1637  LLC: 2048
rand_sets[46]: 1637
Assign rand_sets[47]: 1115  LLC: 2048
rand_sets[47]: 1115
Assign rand_sets[48]: 986  LLC: 2048
rand_sets[48]: 986
Assign rand_sets[49]: 258  LLC: 2048
rand_sets[49]: 258
Assign rand_sets[50]: 633  LLC: 2048
rand_sets[50]: 633
Assign rand_sets[51]: 920  LLC: 2048
rand_sets[51]: 920
Assign rand_sets[52]: 204  LLC: 2048
rand_sets[52]: 204
Assign rand_sets[53]: 227  LLC: 2048
rand_sets[53]: 227
Assign rand_sets[54]: 1818  LLC: 2048
rand_sets[54]: 1818
Assign rand_sets[55]: 886  LLC: 2048
rand_sets[55]: 886
Assign rand_sets[56]: 1422  LLC: 2048
rand_sets[56]: 1422
Assign rand_sets[57]: 607  LLC: 2048
rand_sets[57]: 607
Assign rand_sets[58]: 217  LLC: 2048
rand_sets[58]: 217
Assign rand_sets[59]: 1945  LLC: 2048
rand_sets[59]: 1945
Assign rand_sets[60]: 143  LLC: 2048
rand_sets[60]: 143
Assign rand_sets[61]: 1311  LLC: 2048
rand_sets[61]: 1311
Assign rand_sets[62]: 319  LLC: 2048
rand_sets[62]: 319
Assign rand_sets[63]: 1846  LLC: 2048
rand_sets[63]: 1846
 CLEAN-RRIP-POLICY-1: 1-2-2-0-1-0-2-1- CLEAN-RRIP-POLICY-2: 1-2-2-0-1-0-2-1-
 DIRTY-RRIP-POLICY-1: 2-2-1-0-2-0-1-1- DIRTY-RRIP-POLICY-2: 2-2-1-0-2-0-1-1-
 PSEL width: 10
Heartbeat CPU 0 instructions: 10000001 cycles: 7315925 heartbeat IPC: 1.36688 cumulative IPC: 1.36688 (Simulation time: 0 hr 0 min 17 sec) 
Heartbeat CPU 0 instructions: 20000000 cycles: 14308446 heartbeat IPC: 1.4301 cumulative IPC: 1.39778 (Simulation time: 0 hr 0 min 33 sec) 
Heartbeat CPU 0 instructions: 30000001 cycles: 21022203 heartbeat IPC: 1.48948 cumulative IPC: 1.42706 (Simulation time: 0 hr 0 min 51 sec) 
Heartbeat CPU 0 instructions: 40000000 cycles: 27483440 heartbeat IPC: 1.54769 cumulative IPC: 1.45542 (Simulation time: 0 hr 1 min 9 sec) 
Heartbeat CPU 0 instructions: 50000001 cycles: 33585282 heartbeat IPC: 1.63885 cumulative IPC: 1.48875 (Simulation time: 0 hr 1 min 27 sec) 
Heartbeat CPU 0 instructions: 60000000 cycles: 40066575 heartbeat IPC: 1.5429 cumulative IPC: 1.49751 (Simulation time: 0 hr 1 min 45 sec) 
Heartbeat CPU 0 instructions: 70000000 cycles: 47104760 heartbeat IPC: 1.42082 cumulative IPC: 1.48605 (Simulation time: 0 hr 2 min 1 sec) 
Heartbeat CPU 0 instructions: 80000000 cycles: 54195332 heartbeat IPC: 1.41032 cumulative IPC: 1.47614 (Simulation time: 0 hr 2 min 18 sec) 
Heartbeat CPU 0 instructions: 90000003 cycles: 61200594 heartbeat IPC: 1.4275 cumulative IPC: 1.47057 (Simulation time: 0 hr 2 min 34 sec) 
Heartbeat CPU 0 instructions: 100000000 cycles: 68368912 heartbeat IPC: 1.39503 cumulative IPC: 1.46265 (Simulation time: 0 hr 2 min 51 sec) 

Warmup complete CPU 0 instructions: 100000004 cycles: 68368913 (Simulation time: 0 hr 2 min 51 sec) 

Heartbeat CPU 0 instructions: 110000003 cycles: 96461375 heartbeat IPC: 0.355967 cumulative IPC: 0.355967 (Simulation time: 0 hr 3 min 23 sec) 
Heartbeat CPU 0 instructions: 120000000 cycles: 124016048 heartbeat IPC: 0.362915 cumulative IPC: 0.359407 (Simulation time: 0 hr 3 min 56 sec) 
Heartbeat CPU 0 instructions: 130000000 cycles: 149076268 heartbeat IPC: 0.399039 cumulative IPC: 0.371713 (Simulation time: 0 hr 4 min 28 sec) 
Heartbeat CPU 0 instructions: 140000000 cycles: 178925452 heartbeat IPC: 0.335018 cumulative IPC: 0.361806 (Simulation time: 0 hr 5 min 0 sec) 
Heartbeat CPU 0 instructions: 150000000 cycles: 209271814 heartbeat IPC: 0.329529 cumulative IPC: 0.354854 (Simulation time: 0 hr 5 min 33 sec) 
Heartbeat CPU 0 instructions: 160000000 cycles: 236748271 heartbeat IPC: 0.363948 cumulative IPC: 0.356338 (Simulation time: 0 hr 6 min 4 sec) 
Heartbeat CPU 0 instructions: 170000001 cycles: 264987191 heartbeat IPC: 0.354121 cumulative IPC: 0.35602 (Simulation time: 0 hr 6 min 38 sec) 
Heartbeat CPU 0 instructions: 180000000 cycles: 293656818 heartbeat IPC: 0.348801 cumulative IPC: 0.355101 (Simulation time: 0 hr 7 min 11 sec) 
Heartbeat CPU 0 instructions: 190000002 cycles: 321903004 heartbeat IPC: 0.35403 cumulative IPC: 0.354982 (Simulation time: 0 hr 7 min 43 sec) 
Heartbeat CPU 0 instructions: 200000000 cycles: 350570960 heartbeat IPC: 0.348821 cumulative IPC: 0.354356 (Simulation time: 0 hr 8 min 16 sec) 
Heartbeat CPU 0 instructions: 210000002 cycles: 378584097 heartbeat IPC: 0.356975 cumulative IPC: 0.354593 (Simulation time: 0 hr 8 min 49 sec) 
Heartbeat CPU 0 instructions: 220000000 cycles: 408060687 heartbeat IPC: 0.339252 cumulative IPC: 0.353261 (Simulation time: 0 hr 9 min 20 sec) 
Heartbeat CPU 0 instructions: 230000000 cycles: 436104641 heartbeat IPC: 0.356583 cumulative IPC: 0.353515 (Simulation time: 0 hr 9 min 52 sec) 
Heartbeat CPU 0 instructions: 240000000 cycles: 462799757 heartbeat IPC: 0.3746 cumulative IPC: 0.354942 (Simulation time: 0 hr 10 min 23 sec) 
Heartbeat CPU 0 instructions: 250000000 cycles: 493086345 heartbeat IPC: 0.330179 cumulative IPC: 0.353176 (Simulation time: 0 hr 10 min 57 sec) 
Heartbeat CPU 0 instructions: 260000000 cycles: 520340072 heartbeat IPC: 0.366922 cumulative IPC: 0.354005 (Simulation time: 0 hr 11 min 29 sec) 
Heartbeat CPU 0 instructions: 270000003 cycles: 548924557 heartbeat IPC: 0.34984 cumulative IPC: 0.353757 (Simulation time: 0 hr 12 min 3 sec) 
Heartbeat CPU 0 instructions: 280000000 cycles: 577391709 heartbeat IPC: 0.351282 cumulative IPC: 0.353619 (Simulation time: 0 hr 12 min 36 sec) 
Heartbeat CPU 0 instructions: 290000000 cycles: 606294907 heartbeat IPC: 0.345982 cumulative IPC: 0.353208 (Simulation time: 0 hr 13 min 10 sec) 
Heartbeat CPU 0 instructions: 300000000 cycles: 636530733 heartbeat IPC: 0.330733 cumulative IPC: 0.352012 (Simulation time: 0 hr 13 min 42 sec) 
Heartbeat CPU 0 instructions: 310000001 cycles: 666338010 heartbeat IPC: 0.335489 cumulative IPC: 0.351189 (Simulation time: 0 hr 14 min 14 sec) 
Heartbeat CPU 0 instructions: 320000000 cycles: 694986617 heartbeat IPC: 0.349057 cumulative IPC: 0.351091 (Simulation time: 0 hr 14 min 46 sec) 
Heartbeat CPU 0 instructions: 330000000 cycles: 723776095 heartbeat IPC: 0.347349 cumulative IPC: 0.350927 (Simulation time: 0 hr 15 min 18 sec) 
Heartbeat CPU 0 instructions: 340000000 cycles: 753565053 heartbeat IPC: 0.335695 cumulative IPC: 0.350265 (Simulation time: 0 hr 15 min 51 sec) 
Heartbeat CPU 0 instructions: 350000003 cycles: 780706002 heartbeat IPC: 0.368447 cumulative IPC: 0.350957 (Simulation time: 0 hr 16 min 23 sec) 
Heartbeat CPU 0 instructions: 360000000 cycles: 809485876 heartbeat IPC: 0.347465 cumulative IPC: 0.350822 (Simulation time: 0 hr 16 min 54 sec) 
Heartbeat CPU 0 instructions: 370000000 cycles: 838397747 heartbeat IPC: 0.345879 cumulative IPC: 0.350636 (Simulation time: 0 hr 17 min 25 sec) 
Heartbeat CPU 0 instructions: 380000000 cycles: 867677020 heartbeat IPC: 0.341539 cumulative IPC: 0.350303 (Simulation time: 0 hr 17 min 57 sec) 
Heartbeat CPU 0 instructions: 390000001 cycles: 895999606 heartbeat IPC: 0.353075 cumulative IPC: 0.350398 (Simulation time: 0 hr 18 min 28 sec) 
Heartbeat CPU 0 instructions: 400000000 cycles: 925328346 heartbeat IPC: 0.340962 cumulative IPC: 0.350075 (Simulation time: 0 hr 18 min 59 sec) 
Heartbeat CPU 0 instructions: 410000001 cycles: 953336425 heartbeat IPC: 0.35704 cumulative IPC: 0.350295 (Simulation time: 0 hr 19 min 30 sec) 
Heartbeat CPU 0 instructions: 420000000 cycles: 981269595 heartbeat IPC: 0.357997 cumulative IPC: 0.350531 (Simulation time: 0 hr 20 min 1 sec) 
Heartbeat CPU 0 instructions: 430000002 cycles: 1009672412 heartbeat IPC: 0.352078 cumulative IPC: 0.350578 (Simulation time: 0 hr 20 min 32 sec) 
Heartbeat CPU 0 instructions: 440000000 cycles: 1039736022 heartbeat IPC: 0.332628 cumulative IPC: 0.350022 (Simulation time: 0 hr 21 min 3 sec) 
Heartbeat CPU 0 instructions: 450000002 cycles: 1069739941 heartbeat IPC: 0.33329 cumulative IPC: 0.349521 (Simulation time: 0 hr 21 min 35 sec) 
Heartbeat CPU 0 instructions: 460000000 cycles: 1098059723 heartbeat IPC: 0.35311 cumulative IPC: 0.34962 (Simulation time: 0 hr 22 min 4 sec) 
Heartbeat CPU 0 instructions: 470000000 cycles: 1126327385 heartbeat IPC: 0.353761 cumulative IPC: 0.34973 (Simulation time: 0 hr 22 min 34 sec) 
Heartbeat CPU 0 instructions: 480000000 cycles: 1154750651 heartbeat IPC: 0.351824 cumulative IPC: 0.349785 (Simulation time: 0 hr 23 min 3 sec) 
Heartbeat CPU 0 instructions: 490000000 cycles: 1182957800 heartbeat IPC: 0.35452 cumulative IPC: 0.349905 (Simulation time: 0 hr 23 min 32 sec) 
Heartbeat CPU 0 instructions: 500000000 cycles: 1211753584 heartbeat IPC: 0.347273 cumulative IPC: 0.349839 (Simulation time: 0 hr 24 min 2 sec) 
Heartbeat CPU 0 instructions: 510000000 cycles: 1247167864 heartbeat IPC: 0.282372 cumulative IPC: 0.347812 (Simulation time: 0 hr 24 min 35 sec) 
Heartbeat CPU 0 instructions: 520000000 cycles: 1274872450 heartbeat IPC: 0.360951 cumulative IPC: 0.348113 (Simulation time: 0 hr 25 min 5 sec) 
Heartbeat CPU 0 instructions: 530000001 cycles: 1304556833 heartbeat IPC: 0.336877 cumulative IPC: 0.347844 (Simulation time: 0 hr 25 min 36 sec) 
Heartbeat CPU 0 instructions: 540000000 cycles: 1333270257 heartbeat IPC: 0.348269 cumulative IPC: 0.347853 (Simulation time: 0 hr 26 min 6 sec) 
Heartbeat CPU 0 instructions: 550000001 cycles: 1362692053 heartbeat IPC: 0.339884 cumulative IPC: 0.347672 (Simulation time: 0 hr 26 min 38 sec) 
Heartbeat CPU 0 instructions: 560000000 cycles: 1388252487 heartbeat IPC: 0.39123 cumulative IPC: 0.348516 (Simulation time: 0 hr 27 min 8 sec) 
Heartbeat CPU 0 instructions: 570000000 cycles: 1418127796 heartbeat IPC: 0.334725 cumulative IPC: 0.34821 (Simulation time: 0 hr 27 min 39 sec) 
Heartbeat CPU 0 instructions: 580000000 cycles: 1446664447 heartbeat IPC: 0.350427 cumulative IPC: 0.348256 (Simulation time: 0 hr 28 min 10 sec) 
Heartbeat CPU 0 instructions: 590000001 cycles: 1472193941 heartbeat IPC: 0.391704 cumulative IPC: 0.349046 (Simulation time: 0 hr 28 min 39 sec) 
Heartbeat CPU 0 instructions: 600000000 cycles: 1499789719 heartbeat IPC: 0.362374 cumulative IPC: 0.349303 (Simulation time: 0 hr 29 min 9 sec) 
Finished CPU 0 instructions: 500000000 cycles: 1431420828 cumulative IPC: 0.349303 (Simulation time: 0 hr 29 min 9 sec) 

CPU 0 Branch Prediction Accuracy: 86.4311% MPKI: 26.2662
Number of Branches: 96788573 Number of Mispredictions: 13133102
Number of LOAD Instructions: 164682285
Number of LOAD Instructions (ROI): 164682285
Number of STORE Instructions: 78194750
Number of STORE Instructions (ROI): 78194750
Total Destination Memory Operands: 83268534
Total Destination Memory Operands (ROI): 83268534
Total Source Memory Operands: 164712438
Total Source Memory Operands (ROI): 164712438
Number of DEPENDED LOADS: 7074295
Number of DEPENDED LOADS (ROI): 7074295
Number of SQ_ADDED: 83268522
Number of SQ_ADDED (ROI): 83268522
Number of LQ_ADDED: 236721799
Number of LQ_ADDED (ROI): 236721799
Number of Instructions read from trace: 600000066

ChampSim completed all CPUs

Region of Interest Statistics

CPU 0 cumulative IPC: 0.349303 instructions: 500000000 cycles: 1431420828
ITLB TOTAL     ACCESS:  100499135  HIT:  100294689  MISS:     204446
ITLB LOAD      ACCESS:  100499135  HIT:  100294689  MISS:     204446
ITLB RFO       ACCESS:          0  HIT:          0  MISS:          0
ITLB PREFETCH  ACCESS:          0  HIT:          0  MISS:          0
ITLB WRITEBACK ACCESS:          0  HIT:          0  MISS:          0
ITLB PREFETCH  REQUESTED:          0  ISSUED:          0  USEFUL:          0  USELESS:          0
ITLB TOTAL MSHR MERGED:     172424
ITLB LOAD MSHR MERGED:     172424
ITLB RFO MSHR MERGED:          0
ITLB PREFETCH MSHR MERGED:          0
ITLB WRITEBACK MSHR MERGED:          0
ITLB TOTAL ACCESSES:  100671559 HITS:  100294689 MISSES:     376870
ITLB LOAD ACCESSES:  100671559 HITS:  100294689 MISSES:     376870
ITLB RFO ACCESSES:          0 HITS:          0 MISSES:          0
ITLB PREFETCH ACCESSES:          0 HITS:          0 MISSES:          0
ITLB WRITEBACK ACCESSES:          0 HITS:          0 MISSES:          0
ITLB RQ ACCESS:  500000057
ITLB RQ TO_CACHE:  100671559
ITLB RQ MERGED:  399328498
ITLB RQ FORWARD:          0
ITLB WQ ACCESS:          0
ITLB WQ TO_CACHE:          0
ITLB WQ MERGED:          0
ITLB WQ FORWARD:          0
DTLB TOTAL     ACCESS:  165323750  HIT:  164689407  MISS:     634343
DTLB LOAD      ACCESS:  106282626  HIT:  105712648  MISS:     569978
DTLB RFO       ACCESS:   59041124  HIT:   58976759  MISS:      64365
DTLB PREFETCH  ACCESS:          0  HIT:          0  MISS:          0
DTLB WRITEBACK ACCESS:          0  HIT:          0  MISS:          0
DTLB PREFETCH  REQUESTED:          0  ISSUED:          0  USEFUL:          0  USELESS:          0
DTLB TOTAL MSHR MERGED:      99681
DTLB LOAD MSHR MERGED:      59327
DTLB RFO MSHR MERGED:      40354
DTLB PREFETCH MSHR MERGED:          0
DTLB WRITEBACK MSHR MERGED:          0
DTLB TOTAL ACCESSES:  165423431 HITS:  164689407 MISSES:     734024
DTLB LOAD ACCESSES:  106341953 HITS:  105712648 MISSES:     629305
DTLB RFO ACCESSES:   59081478 HITS:   58976759 MISSES:     104719
DTLB PREFETCH ACCESSES:          0 HITS:          0 MISSES:          0
DTLB WRITEBACK ACCESSES:          0 HITS:          0 MISSES:          0
DTLB RQ ACCESS:  200296694
DTLB RQ TO_CACHE:  165423431
DTLB RQ MERGED:   34873263
DTLB RQ FORWARD:          0
DTLB WQ ACCESS:          0
DTLB WQ TO_CACHE:          0
DTLB WQ MERGED:          0
DTLB WQ FORWARD:          0
L1D TOTAL     ACCESS:  281745743  HIT:  273836493  MISS:    7909250
L1D LOAD      ACCESS:  110409688  HIT:  107132726  MISS:    3276962
L1D RFO       ACCESS:   67054847  HIT:   66161460  MISS:     893387
L1D PREFETCH  ACCESS:  104281208  HIT:  100542307  MISS:    3738901
L1D WRITEBACK ACCESS:          0  HIT:          0  MISS:          0
L1D PREFETCH  REQUESTED:  110806820  ISSUED:  109107640  USEFUL:    1659945  USELESS:    2078920
L1D TOTAL MSHR MERGED:    2938987
L1D LOAD MSHR MERGED:     493857
L1D RFO MSHR MERGED:    1932785
L1D PREFETCH MSHR MERGED:     512345
L1D WRITEBACK MSHR MERGED:          0
L1D TOTAL ACCESSES:  284712961 HITS:  273864724 MISSES:   10848237
L1D LOAD ACCESSES:  110809038 HITS:  107134944 MISSES:    3674094
L1D RFO ACCESSES:   68973101 HITS:   66161460 MISSES:    2811641
L1D PREFETCH ACCESSES:  104930822 HITS:  100568320 MISSES:    4362502
L1D WRITEBACK ACCESSES:          0 HITS:          0 MISSES:          0
L1D RQ ACCESS:  130744091
L1D RQ TO_CACHE:  110806823
L1D RQ MERGED:   19935050
L1D RQ FORWARD:          0
L1D WQ ACCESS:   69552603
L1D WQ TO_CACHE:   68973102
L1D WQ MERGED:     579501
L1D WQ FORWARD:      28231
L1I TOTAL     ACCESS:  126547083  HIT:  122308534  MISS:    4238549
L1I LOAD      ACCESS:  126547083  HIT:  122308534  MISS:    4238549
L1I RFO       ACCESS:          0  HIT:          0  MISS:          0
L1I PREFETCH  ACCESS:          0  HIT:          0  MISS:          0
L1I WRITEBACK ACCESS:          0  HIT:          0  MISS:          0
L1I PREFETCH  REQUESTED:          0  ISSUED:          0  USEFUL:          0  USELESS:          0
L1I TOTAL MSHR MERGED:    1834598
L1I LOAD MSHR MERGED:    1834598
L1I RFO MSHR MERGED:          0
L1I PREFETCH MSHR MERGED:          0
L1I WRITEBACK MSHR MERGED:          0
L1I TOTAL ACCESSES:  128381684 HITS:  122308534 MISSES:    6073150
L1I LOAD ACCESSES:  128381684 HITS:  122308534 MISSES:    6073150
L1I RFO ACCESSES:          0 HITS:          0 MISSES:          0
L1I PREFETCH ACCESSES:          0 HITS:          0 MISSES:          0
L1I WRITEBACK ACCESSES:          0 HITS:          0 MISSES:          0
L1I RQ ACCESS:  500000057
L1I RQ TO_CACHE:  128381684
L1I RQ MERGED:  371618373
L1I RQ FORWARD:          0
L1I WQ ACCESS:          0
L1I WQ TO_CACHE:          0
L1I WQ MERGED:          0
L1I WQ FORWARD:          0
L2C TOTAL     ACCESS:   14902067  HIT:   11155634  MISS:    3746433
L2C LOAD      ACCESS:    7418581  HIT:    5097823  MISS:    2320758
L2C RFO       ACCESS:     878754  HIT:     409935  MISS:     468819
L2C PREFETCH  ACCESS:    4565510  HIT:    3625918  MISS:     939592
L2C WRITEBACK ACCESS:    2039222  HIT:    2021958  MISS:      17264
L2C PREFETCH  REQUESTED:     842150  ISSUED:     842150  USEFUL:     202498  USELESS:     736799
L2C TOTAL MSHR MERGED:       9624
L2C LOAD MSHR MERGED:       1567
L2C RFO MSHR MERGED:          0
L2C PREFETCH MSHR MERGED:       8057
L2C WRITEBACK MSHR MERGED:          0
L2C TOTAL ACCESSES:   14912713 HITS:   11156085 MISSES:    3756628
L2C LOAD ACCESSES:    7418786 HITS:    5098028 MISSES:    2320758
L2C RFO ACCESSES:     878856 HITS:     410037 MISSES:     468819
L2C PREFETCH ACCESSES:    4575849 HITS:    3626062 MISSES:     949787
L2C WRITEBACK ACCESSES:    2039222 HITS:    2021958 MISSES:      17264
L2C RQ ACCESS:    8297645
L2C RQ TO_CACHE:    8297338
L2C RQ MERGED:          0
L2C RQ FORWARD:          0
L2C WQ ACCESS:    2039222
L2C WQ TO_CACHE:    2039222
L2C WQ MERGED:          0
L2C WQ FORWARD:        451
LLC TOTAL     ACCESS:    4609849  HIT:    3623886  MISS:     985963
LLC LOAD      ACCESS:    2319179  HIT:    1936811  MISS:     382368
LLC RFO       ACCESS:     468810  HIT:     278727  MISS:     190083
LLC PREFETCH  ACCESS:     941571  HIT:     629650  MISS:     311921
LLC WRITEBACK ACCESS:     880289  HIT:     778698  MISS:     101591
LLC PREFETCH  REQUESTED:          0  ISSUED:          0  USEFUL:      39405  USELESS:     272479
LLC TOTAL MSHR MERGED:        142
LLC LOAD MSHR MERGED:         44
LLC RFO MSHR MERGED:          0
LLC PREFETCH MSHR MERGED:         98
LLC WRITEBACK MSHR MERGED:          0
LLC TOTAL ACCESSES:    4610021 HITS:    3623916 MISSES:     986105
LLC LOAD ACCESSES:    2319191 HITS:    1936823 MISSES:     382368
LLC RFO ACCESSES:     468819 HITS:     278736 MISSES:     190083
LLC PREFETCH ACCESSES:     941722 HITS:     629659 MISSES:     312063
LLC WRITEBACK ACCESSES:     880289 HITS:     778698 MISSES:     101591
LLC 0 RQ ACCESS:    2788010
LLC 0 RQ TO_CACHE:    2787989
LLC 0 RQ MERGED:          0
LLC 0 RQ FORWARD:          0
LLC WQ ACCESS:     880289
LLC WQ TO_CACHE:     880289
LLC WQ MERGED:          0
LLC WQ FORWARD:         30
Major fault: 0 Minor fault: 12862
CPU 0 L1D next line prefetcher final stats
CPU 0 L2C PC-based stride prefetcher final stats
All Misses: 1123449
All Hits: 4303404
SD Algo Stats - Switches: 3 SRR-Repls: 229543 BRR-Repls: 200404

DRAM Statistics
 CHANNEL 0
 RQ ROW_BUFFER_HIT:     192529  ROW_BUFFER_MISS:     687121
 DBUS_CONGESTED:     669809
 WQ ROW_BUFFER_HIT:      58205  ROW_BUFFER_MISS:     393191  FULL:          0

 AVG_CONGESTED_CYCLE: 14
LOADS RETIRED: 136549171
INSTR RETIRED: 500000000
