
*** ChampSim Multicore Out-of-Order Simulator ***

Warmup Instructions: 100000000
Simulation Instructions: 500000000
Number of CPUs: 1
LLC sets: 2048
LLC ways: 16
Clean RRIP Policies: 1213230112132301 Dirty RRIP Policies: 2213031122130311 PSEL Width: 10 Track Set: 4294967295 PSEL Mask: 1 Demote Mask: 1340011013400110DS Algo: 0Window size: 0
Off-chip DRAM Size: 4096 MB Channels: 1 Width: 64-bit Data Rate: 1600 MT/s

CPU 0 runs /mnt/beegfs/iconst01/spec2017/Parest.trace.gz
NOT SORTED
TRACE STRING: /mnt/beegfs/iconst01/spec2017/Parest.trace.gz
SORTED
TRACE STRING: /mnt/beegfs/iconst01/spec2017/Parest.trace.gz
INITIAL
TRACE STRING: /mnt/beegfs/iconst01/spec2017/Parest.trace.gz

champsim_seed used: 623

CPU 0 L1D next line prefetcher
CPU 0 L2C IP-based stride prefetcher
Initialize DRRIP state
Assign rand_sets[0]: 454  LLC: 2048
rand_sets[0]: 454
Assign rand_sets[1]: 1662  LLC: 2048
rand_sets[1]: 1662
Assign rand_sets[2]: 1921  LLC: 2048
rand_sets[2]: 1921
Assign rand_sets[3]: 1131  LLC: 2048
rand_sets[3]: 1131
Assign rand_sets[4]: 331  LLC: 2048
rand_sets[4]: 331
Assign rand_sets[5]: 1531  LLC: 2048
rand_sets[5]: 1531
Assign rand_sets[6]: 482  LLC: 2048
rand_sets[6]: 482
Assign rand_sets[7]: 1275  LLC: 2048
rand_sets[7]: 1275
Assign rand_sets[8]: 1876  LLC: 2048
rand_sets[8]: 1876
Assign rand_sets[9]: 2038  LLC: 2048
rand_sets[9]: 2038
Assign rand_sets[10]: 701  LLC: 2048
rand_sets[10]: 701
Assign rand_sets[11]: 479  LLC: 2048
rand_sets[11]: 479
Assign rand_sets[12]: 892  LLC: 2048
rand_sets[12]: 892
Assign rand_sets[13]: 1820  LLC: 2048
rand_sets[13]: 1820
Assign rand_sets[14]: 1505  LLC: 2048
rand_sets[14]: 1505
Assign rand_sets[15]: 1159  LLC: 2048
rand_sets[15]: 1159
Assign rand_sets[16]: 513  LLC: 2048
rand_sets[16]: 513
Assign rand_sets[17]: 703  LLC: 2048
rand_sets[17]: 703
Assign rand_sets[18]: 561  LLC: 2048
rand_sets[18]: 561
Assign rand_sets[19]: 990  LLC: 2048
rand_sets[19]: 990
Assign rand_sets[20]: 342  LLC: 2048
rand_sets[20]: 342
Assign rand_sets[21]: 882  LLC: 2048
rand_sets[21]: 882
Assign rand_sets[22]: 15  LLC: 2048
rand_sets[22]: 15
Assign rand_sets[23]: 71  LLC: 2048
rand_sets[23]: 71
Assign rand_sets[24]: 1127  LLC: 2048
rand_sets[24]: 1127
Assign rand_sets[25]: 1382  LLC: 2048
rand_sets[25]: 1382
Assign rand_sets[26]: 647  LLC: 2048
rand_sets[26]: 647
Assign rand_sets[27]: 857  LLC: 2048
rand_sets[27]: 857
Assign rand_sets[28]: 1450  LLC: 2048
rand_sets[28]: 1450
Assign rand_sets[29]: 1160  LLC: 2048
rand_sets[29]: 1160
Assign rand_sets[30]: 1852  LLC: 2048
rand_sets[30]: 1852
Assign rand_sets[31]: 1881  LLC: 2048
rand_sets[31]: 1881
Assign rand_sets[32]: 1770  LLC: 2048
rand_sets[32]: 1770
Assign rand_sets[33]: 1622  LLC: 2048
rand_sets[33]: 1622
Assign rand_sets[34]: 275  LLC: 2048
rand_sets[34]: 275
Assign rand_sets[35]: 635  LLC: 2048
rand_sets[35]: 635
Assign rand_sets[36]: 466  LLC: 2048
rand_sets[36]: 466
Assign rand_sets[37]: 1413  LLC: 2048
rand_sets[37]: 1413
Assign rand_sets[38]: 417  LLC: 2048
rand_sets[38]: 417
Assign rand_sets[39]: 472  LLC: 2048
rand_sets[39]: 472
Assign rand_sets[40]: 1340  LLC: 2048
rand_sets[40]: 1340
Assign rand_sets[41]: 852  LLC: 2048
rand_sets[41]: 852
Assign rand_sets[42]: 1365  LLC: 2048
rand_sets[42]: 1365
Assign rand_sets[43]: 47  LLC: 2048
rand_sets[43]: 47
Assign rand_sets[44]: 823  LLC: 2048
rand_sets[44]: 823
Assign rand_sets[45]: 686  LLC: 2048
rand_sets[45]: 686
Assign rand_sets[46]: 1637  LLC: 2048
rand_sets[46]: 1637
Assign rand_sets[47]: 1115  LLC: 2048
rand_sets[47]: 1115
Assign rand_sets[48]: 986  LLC: 2048
rand_sets[48]: 986
Assign rand_sets[49]: 258  LLC: 2048
rand_sets[49]: 258
Assign rand_sets[50]: 633  LLC: 2048
rand_sets[50]: 633
Assign rand_sets[51]: 920  LLC: 2048
rand_sets[51]: 920
Assign rand_sets[52]: 204  LLC: 2048
rand_sets[52]: 204
Assign rand_sets[53]: 227  LLC: 2048
rand_sets[53]: 227
Assign rand_sets[54]: 1818  LLC: 2048
rand_sets[54]: 1818
Assign rand_sets[55]: 886  LLC: 2048
rand_sets[55]: 886
Assign rand_sets[56]: 1422  LLC: 2048
rand_sets[56]: 1422
Assign rand_sets[57]: 607  LLC: 2048
rand_sets[57]: 607
Assign rand_sets[58]: 217  LLC: 2048
rand_sets[58]: 217
Assign rand_sets[59]: 1945  LLC: 2048
rand_sets[59]: 1945
Assign rand_sets[60]: 143  LLC: 2048
rand_sets[60]: 143
Assign rand_sets[61]: 1311  LLC: 2048
rand_sets[61]: 1311
Assign rand_sets[62]: 319  LLC: 2048
rand_sets[62]: 319
Assign rand_sets[63]: 1846  LLC: 2048
rand_sets[63]: 1846
 CLEAN-RRIP-POLICY-1: 1-2-1-3-2-3-0-1- CLEAN-RRIP-POLICY-2: 1-2-1-3-2-3-0-1-
 DIRTY-RRIP-POLICY-1: 2-2-1-3-0-3-1-1- DIRTY-RRIP-POLICY-2: 2-2-1-3-0-3-1-1-
 PSEL width: 10
Heartbeat CPU 0 instructions: 10000001 cycles: 4387119 heartbeat IPC: 2.2794 cumulative IPC: 2.2794 (Simulation time: 0 hr 0 min 15 sec) 
Heartbeat CPU 0 instructions: 20000000 cycles: 8781246 heartbeat IPC: 2.27576 cumulative IPC: 2.27758 (Simulation time: 0 hr 0 min 29 sec) 
Heartbeat CPU 0 instructions: 30000003 cycles: 13213195 heartbeat IPC: 2.25634 cumulative IPC: 2.27046 (Simulation time: 0 hr 0 min 44 sec) 
Heartbeat CPU 0 instructions: 40000000 cycles: 17643825 heartbeat IPC: 2.25701 cumulative IPC: 2.26708 (Simulation time: 0 hr 0 min 58 sec) 
Heartbeat CPU 0 instructions: 50000000 cycles: 22052020 heartbeat IPC: 2.2685 cumulative IPC: 2.26737 (Simulation time: 0 hr 1 min 12 sec) 
Heartbeat CPU 0 instructions: 60000000 cycles: 26457710 heartbeat IPC: 2.26979 cumulative IPC: 2.26777 (Simulation time: 0 hr 1 min 27 sec) 
Heartbeat CPU 0 instructions: 70000000 cycles: 30858543 heartbeat IPC: 2.2723 cumulative IPC: 2.26842 (Simulation time: 0 hr 1 min 41 sec) 
Heartbeat CPU 0 instructions: 80000000 cycles: 35254128 heartbeat IPC: 2.27501 cumulative IPC: 2.26924 (Simulation time: 0 hr 1 min 55 sec) 
Heartbeat CPU 0 instructions: 90000000 cycles: 39648414 heartbeat IPC: 2.27568 cumulative IPC: 2.26995 (Simulation time: 0 hr 2 min 10 sec) 
Heartbeat CPU 0 instructions: 100000000 cycles: 44045733 heartbeat IPC: 2.27411 cumulative IPC: 2.27037 (Simulation time: 0 hr 2 min 25 sec) 

Warmup complete CPU 0 instructions: 100000002 cycles: 44045743 (Simulation time: 0 hr 2 min 25 sec) 

Heartbeat CPU 0 instructions: 110000000 cycles: 54549900 heartbeat IPC: 0.952003 cumulative IPC: 0.952004 (Simulation time: 0 hr 2 min 44 sec) 
Heartbeat CPU 0 instructions: 120000000 cycles: 64201736 heartbeat IPC: 1.03607 cumulative IPC: 0.992261 (Simulation time: 0 hr 3 min 3 sec) 
Heartbeat CPU 0 instructions: 130000000 cycles: 73782326 heartbeat IPC: 1.04378 cumulative IPC: 1.00886 (Simulation time: 0 hr 3 min 21 sec) 
Heartbeat CPU 0 instructions: 140000000 cycles: 83582985 heartbeat IPC: 1.02034 cumulative IPC: 1.0117 (Simulation time: 0 hr 3 min 40 sec) 
Heartbeat CPU 0 instructions: 150000000 cycles: 94506266 heartbeat IPC: 0.915476 cumulative IPC: 0.990874 (Simulation time: 0 hr 3 min 59 sec) 
Heartbeat CPU 0 instructions: 160000000 cycles: 104575231 heartbeat IPC: 0.993151 cumulative IPC: 0.991252 (Simulation time: 0 hr 4 min 17 sec) 
Heartbeat CPU 0 instructions: 170000003 cycles: 114571336 heartbeat IPC: 1.00039 cumulative IPC: 0.992548 (Simulation time: 0 hr 4 min 36 sec) 
Heartbeat CPU 0 instructions: 180000000 cycles: 124579485 heartbeat IPC: 0.999185 cumulative IPC: 0.993372 (Simulation time: 0 hr 4 min 54 sec) 
Heartbeat CPU 0 instructions: 190000002 cycles: 134720461 heartbeat IPC: 0.986099 cumulative IPC: 0.992559 (Simulation time: 0 hr 5 min 13 sec) 
Heartbeat CPU 0 instructions: 200000000 cycles: 144467385 heartbeat IPC: 1.02596 cumulative IPC: 0.995801 (Simulation time: 0 hr 5 min 31 sec) 
Heartbeat CPU 0 instructions: 210000000 cycles: 154499876 heartbeat IPC: 0.996761 cumulative IPC: 0.995888 (Simulation time: 0 hr 5 min 50 sec) 
Heartbeat CPU 0 instructions: 220000000 cycles: 164075999 heartbeat IPC: 1.04426 cumulative IPC: 0.999748 (Simulation time: 0 hr 6 min 9 sec) 
Heartbeat CPU 0 instructions: 230000001 cycles: 176403170 heartbeat IPC: 0.811216 cumulative IPC: 0.982189 (Simulation time: 0 hr 6 min 29 sec) 
Heartbeat CPU 0 instructions: 240000000 cycles: 186950725 heartbeat IPC: 0.948087 cumulative IPC: 0.979672 (Simulation time: 0 hr 6 min 48 sec) 
Heartbeat CPU 0 instructions: 250000002 cycles: 196963360 heartbeat IPC: 0.998738 cumulative IPC: 0.98092 (Simulation time: 0 hr 7 min 6 sec) 
Heartbeat CPU 0 instructions: 260000000 cycles: 206814996 heartbeat IPC: 1.01506 cumulative IPC: 0.982987 (Simulation time: 0 hr 7 min 25 sec) 
Heartbeat CPU 0 instructions: 270000001 cycles: 216624992 heartbeat IPC: 1.01937 cumulative IPC: 0.985055 (Simulation time: 0 hr 7 min 43 sec) 
Heartbeat CPU 0 instructions: 280000000 cycles: 226674548 heartbeat IPC: 0.995069 cumulative IPC: 0.985606 (Simulation time: 0 hr 8 min 2 sec) 
Heartbeat CPU 0 instructions: 290000002 cycles: 236261539 heartbeat IPC: 1.04308 cumulative IPC: 0.988472 (Simulation time: 0 hr 8 min 20 sec) 
Heartbeat CPU 0 instructions: 300000000 cycles: 246174196 heartbeat IPC: 1.00881 cumulative IPC: 0.98947 (Simulation time: 0 hr 8 min 39 sec) 
Heartbeat CPU 0 instructions: 310000000 cycles: 255696594 heartbeat IPC: 1.05016 cumulative IPC: 0.9922 (Simulation time: 0 hr 8 min 58 sec) 
Heartbeat CPU 0 instructions: 320000000 cycles: 265255328 heartbeat IPC: 1.04616 cumulative IPC: 0.994532 (Simulation time: 0 hr 9 min 16 sec) 
Heartbeat CPU 0 instructions: 330000002 cycles: 274907669 heartbeat IPC: 1.03602 cumulative IPC: 0.996266 (Simulation time: 0 hr 9 min 35 sec) 
Heartbeat CPU 0 instructions: 340000000 cycles: 285027576 heartbeat IPC: 0.988151 cumulative IPC: 0.995926 (Simulation time: 0 hr 9 min 54 sec) 
Heartbeat CPU 0 instructions: 350000000 cycles: 295228073 heartbeat IPC: 0.980344 cumulative IPC: 0.995293 (Simulation time: 0 hr 10 min 12 sec) 
Heartbeat CPU 0 instructions: 360000000 cycles: 305091087 heartbeat IPC: 1.01389 cumulative IPC: 0.995996 (Simulation time: 0 hr 10 min 30 sec) 
Heartbeat CPU 0 instructions: 370000002 cycles: 314844938 heartbeat IPC: 1.02524 cumulative IPC: 0.997049 (Simulation time: 0 hr 10 min 49 sec) 
Heartbeat CPU 0 instructions: 380000000 cycles: 324610922 heartbeat IPC: 1.02396 cumulative IPC: 0.997986 (Simulation time: 0 hr 11 min 7 sec) 
Heartbeat CPU 0 instructions: 390000002 cycles: 334205867 heartbeat IPC: 1.04222 cumulative IPC: 0.999448 (Simulation time: 0 hr 11 min 26 sec) 
Heartbeat CPU 0 instructions: 400000000 cycles: 344087480 heartbeat IPC: 1.01198 cumulative IPC: 0.999861 (Simulation time: 0 hr 11 min 44 sec) 
Heartbeat CPU 0 instructions: 410000000 cycles: 353570587 heartbeat IPC: 1.05451 cumulative IPC: 1.00154 (Simulation time: 0 hr 12 min 3 sec) 
Heartbeat CPU 0 instructions: 420000000 cycles: 364755320 heartbeat IPC: 0.894076 cumulative IPC: 0.997787 (Simulation time: 0 hr 12 min 22 sec) 
Heartbeat CPU 0 instructions: 430000000 cycles: 375602003 heartbeat IPC: 0.921941 cumulative IPC: 0.995306 (Simulation time: 0 hr 12 min 41 sec) 
Heartbeat CPU 0 instructions: 440000000 cycles: 385665724 heartbeat IPC: 0.993668 cumulative IPC: 0.995258 (Simulation time: 0 hr 12 min 59 sec) 
Heartbeat CPU 0 instructions: 450000000 cycles: 395706930 heartbeat IPC: 0.995896 cumulative IPC: 0.995276 (Simulation time: 0 hr 13 min 17 sec) 
Heartbeat CPU 0 instructions: 460000000 cycles: 405771885 heartbeat IPC: 0.993546 cumulative IPC: 0.995228 (Simulation time: 0 hr 13 min 35 sec) 
Heartbeat CPU 0 instructions: 470000001 cycles: 415910613 heartbeat IPC: 0.986317 cumulative IPC: 0.994985 (Simulation time: 0 hr 13 min 54 sec) 
Heartbeat CPU 0 instructions: 480000000 cycles: 425626283 heartbeat IPC: 1.02927 cumulative IPC: 0.995858 (Simulation time: 0 hr 14 min 12 sec) 
Heartbeat CPU 0 instructions: 490000002 cycles: 435684028 heartbeat IPC: 0.994259 cumulative IPC: 0.995817 (Simulation time: 0 hr 14 min 30 sec) 
Heartbeat CPU 0 instructions: 500000000 cycles: 445453296 heartbeat IPC: 1.02362 cumulative IPC: 0.996493 (Simulation time: 0 hr 14 min 49 sec) 
Heartbeat CPU 0 instructions: 510000000 cycles: 455043364 heartbeat IPC: 1.04275 cumulative IPC: 0.997573 (Simulation time: 0 hr 15 min 7 sec) 
Heartbeat CPU 0 instructions: 520000000 cycles: 464797772 heartbeat IPC: 1.02518 cumulative IPC: 0.998213 (Simulation time: 0 hr 15 min 26 sec) 
Heartbeat CPU 0 instructions: 530000001 cycles: 475172794 heartbeat IPC: 0.963853 cumulative IPC: 0.997386 (Simulation time: 0 hr 15 min 44 sec) 
Heartbeat CPU 0 instructions: 540000000 cycles: 485530485 heartbeat IPC: 0.965466 cumulative IPC: 0.996637 (Simulation time: 0 hr 16 min 2 sec) 
Heartbeat CPU 0 instructions: 550000003 cycles: 495597089 heartbeat IPC: 0.993384 cumulative IPC: 0.996564 (Simulation time: 0 hr 16 min 20 sec) 
Heartbeat CPU 0 instructions: 560000000 cycles: 505523871 heartbeat IPC: 1.00738 cumulative IPC: 0.996797 (Simulation time: 0 hr 16 min 38 sec) 
Heartbeat CPU 0 instructions: 570000002 cycles: 515443456 heartbeat IPC: 1.00811 cumulative IPC: 0.997035 (Simulation time: 0 hr 16 min 57 sec) 
Heartbeat CPU 0 instructions: 580000000 cycles: 525228637 heartbeat IPC: 1.02195 cumulative IPC: 0.997542 (Simulation time: 0 hr 17 min 15 sec) 
Heartbeat CPU 0 instructions: 590000001 cycles: 535249758 heartbeat IPC: 0.997892 cumulative IPC: 0.997549 (Simulation time: 0 hr 17 min 33 sec) 
Heartbeat CPU 0 instructions: 600000000 cycles: 544956490 heartbeat IPC: 1.03021 cumulative IPC: 0.998182 (Simulation time: 0 hr 17 min 51 sec) 
Finished CPU 0 instructions: 500000000 cycles: 500910761 cumulative IPC: 0.998182 (Simulation time: 0 hr 17 min 51 sec) 

CPU 0 Branch Prediction Accuracy: 97.8526% MPKI: 2.66709
Number of Branches: 62099103 Number of Mispredictions: 1333545
Number of LOAD Instructions: 210576465
Number of LOAD Instructions (ROI): 210576465
Number of STORE Instructions: 16915507
Number of STORE Instructions (ROI): 16915507
Total Destination Memory Operands: 16918869
Total Destination Memory Operands (ROI): 16918869
Total Source Memory Operands: 210576465
Total Source Memory Operands (ROI): 210576465
Number of DEPENDED LOADS: 344900
Number of DEPENDED LOADS (ROI): 344900
Number of SQ_ADDED: 16918826
Number of SQ_ADDED (ROI): 16918826
Number of LQ_ADDED: 210610081
Number of LQ_ADDED (ROI): 210610081
Number of Instructions read from trace: 600000257

ChampSim completed all CPUs

Region of Interest Statistics

CPU 0 cumulative IPC: 0.998182 instructions: 500000000 cycles: 500910761
ITLB TOTAL     ACCESS:   76254169  HIT:   76254131  MISS:         38
ITLB LOAD      ACCESS:   76254169  HIT:   76254131  MISS:         38
ITLB RFO       ACCESS:          0  HIT:          0  MISS:          0
ITLB PREFETCH  ACCESS:          0  HIT:          0  MISS:          0
ITLB WRITEBACK ACCESS:          0  HIT:          0  MISS:          0
ITLB PREFETCH  REQUESTED:          0  ISSUED:          0  USEFUL:          0  USELESS:          0
ITLB TOTAL MSHR MERGED:         37
ITLB LOAD MSHR MERGED:         37
ITLB RFO MSHR MERGED:          0
ITLB PREFETCH MSHR MERGED:          0
ITLB WRITEBACK MSHR MERGED:          0
ITLB TOTAL ACCESSES:   76254206 HITS:   76254131 MISSES:         75
ITLB LOAD ACCESSES:   76254206 HITS:   76254131 MISSES:         75
ITLB RFO ACCESSES:          0 HITS:          0 MISSES:          0
ITLB PREFETCH ACCESSES:          0 HITS:          0 MISSES:          0
ITLB WRITEBACK ACCESSES:          0 HITS:          0 MISSES:          0
ITLB RQ ACCESS:  500000188
ITLB RQ TO_CACHE:   76254207
ITLB RQ MERGED:  423745981
ITLB RQ FORWARD:          0
ITLB WQ ACCESS:          0
ITLB WQ TO_CACHE:          0
ITLB WQ MERGED:          0
ITLB WQ FORWARD:          0
DTLB TOTAL     ACCESS:  136876911  HIT:  136674119  MISS:     202792
DTLB LOAD      ACCESS:  128814244  HIT:  128614173  MISS:     200071
DTLB RFO       ACCESS:    8062667  HIT:    8059946  MISS:       2721
DTLB PREFETCH  ACCESS:          0  HIT:          0  MISS:          0
DTLB WRITEBACK ACCESS:          0  HIT:          0  MISS:          0
DTLB PREFETCH  REQUESTED:          0  ISSUED:          0  USEFUL:          0  USELESS:          0
DTLB TOTAL MSHR MERGED:     447708
DTLB LOAD MSHR MERGED:     444089
DTLB RFO MSHR MERGED:       3619
DTLB PREFETCH MSHR MERGED:          0
DTLB WRITEBACK MSHR MERGED:          0
DTLB TOTAL ACCESSES:  137324619 HITS:  136674119 MISSES:     650500
DTLB LOAD ACCESSES:  129258333 HITS:  128614173 MISSES:     644160
DTLB RFO ACCESSES:    8066286 HITS:    8059946 MISSES:       6340
DTLB PREFETCH ACCESSES:          0 HITS:          0 MISSES:          0
DTLB WRITEBACK ACCESSES:          0 HITS:          0 MISSES:          0
DTLB RQ ACCESS:  189419670
DTLB RQ TO_CACHE:  137324619
DTLB RQ MERGED:   52095051
DTLB RQ FORWARD:          0
DTLB WQ ACCESS:          0
DTLB WQ TO_CACHE:          0
DTLB WQ MERGED:          0
DTLB WQ FORWARD:          0
L1D TOTAL     ACCESS:  125489911  HIT:  107932996  MISS:   17556915
L1D LOAD      ACCESS:   72332287  HIT:   62072726  MISS:   10259561
L1D RFO       ACCESS:   14013549  HIT:   13860711  MISS:     152838
L1D PREFETCH  ACCESS:   39144075  HIT:   31999559  MISS:    7144516
L1D WRITEBACK ACCESS:          0  HIT:          0  MISS:          0
L1D PREFETCH  REQUESTED:   85575160  ISSUED:   84253398  USEFUL:    5885231  USELESS:    1259296
L1D TOTAL MSHR MERGED:   31473877
L1D LOAD MSHR MERGED:   18399697
L1D RFO MSHR MERGED:     267768
L1D PREFETCH MSHR MERGED:   12806412
L1D WRITEBACK MSHR MERGED:          0
L1D TOTAL ACCESSES:  156964287 HITS:  107933496 MISSES:   49030791
L1D LOAD ACCESSES:   85575176 HITS:   62072742 MISSES:   23502434
L1D RFO ACCESSES:   14281290 HITS:   13860711 MISSES:     420579
L1D PREFETCH ACCESSES:   57107821 HITS:   32000043 MISSES:   25107778
L1D WRITEBACK ACCESSES:          0 HITS:          0 MISSES:          0
L1D RQ ACCESS:  175130648
L1D RQ TO_CACHE:   85575160
L1D RQ MERGED:   89555472
L1D RQ FORWARD:          0
L1D WQ ACCESS:   14289037
L1D WQ TO_CACHE:   14281290
L1D WQ MERGED:       7747
L1D WQ FORWARD:        500
L1I TOTAL     ACCESS:   93276366  HIT:   93274570  MISS:       1796
L1I LOAD      ACCESS:   93276366  HIT:   93274570  MISS:       1796
L1I RFO       ACCESS:          0  HIT:          0  MISS:          0
L1I PREFETCH  ACCESS:          0  HIT:          0  MISS:          0
L1I WRITEBACK ACCESS:          0  HIT:          0  MISS:          0
L1I PREFETCH  REQUESTED:          0  ISSUED:          0  USEFUL:          0  USELESS:          0
L1I TOTAL MSHR MERGED:       2299
L1I LOAD MSHR MERGED:       2299
L1I RFO MSHR MERGED:          0
L1I PREFETCH MSHR MERGED:          0
L1I WRITEBACK MSHR MERGED:          0
L1I TOTAL ACCESSES:   93278665 HITS:   93274570 MISSES:       4095
L1I LOAD ACCESSES:   93278665 HITS:   93274570 MISSES:       4095
L1I RFO ACCESSES:          0 HITS:          0 MISSES:          0
L1I PREFETCH ACCESSES:          0 HITS:          0 MISSES:          0
L1I WRITEBACK ACCESSES:          0 HITS:          0 MISSES:          0
L1I RQ ACCESS:  500000187
L1I RQ TO_CACHE:   93278665
L1I RQ MERGED:  406721522
L1I RQ FORWARD:          0
L1I WQ ACCESS:          0
L1I WQ TO_CACHE:          0
L1I WQ MERGED:          0
L1I WQ FORWARD:          0
L2C TOTAL     ACCESS:   20890654  HIT:    8661406  MISS:   12229248
L2C LOAD      ACCESS:    5104509  HIT:    2138749  MISS:    2965760
L2C RFO       ACCESS:     152811  HIT:       6506  MISS:     146305
L2C PREFETCH  ACCESS:   13860580  HIT:    4743507  MISS:    9117073
L2C WRITEBACK ACCESS:    1772754  HIT:    1772644  MISS:        110
L2C PREFETCH  REQUESTED:    1801074  ISSUED:    1801074  USEFUL:    1068780  USELESS:    8049903
L2C TOTAL MSHR MERGED:      97844
L2C LOAD MSHR MERGED:      22920
L2C RFO MSHR MERGED:          0
L2C PREFETCH MSHR MERGED:      74924
L2C WRITEBACK MSHR MERGED:          0
L2C TOTAL ACCESSES:   21018862 HITS:    8661442 MISSES:   12357420
L2C LOAD ACCESSES:    5104533 HITS:    2138773 MISSES:    2965760
L2C RFO ACCESSES:     152811 HITS:       6506 MISSES:     146305
L2C PREFETCH ACCESSES:   13988764 HITS:    4743519 MISSES:    9245245
L2C WRITEBACK ACCESSES:    1772754 HITS:    1772644 MISSES:        110
L2C RQ ACCESS:    5257344
L2C RQ TO_CACHE:    5257320
L2C RQ MERGED:          0
L2C RQ FORWARD:          0
L2C WQ ACCESS:    1772754
L2C WQ TO_CACHE:    1772754
L2C WQ MERGED:          0
L2C WQ FORWARD:         36
LLC TOTAL     ACCESS:   12535832  HIT:    6490244  MISS:    6045588
LLC LOAD      ACCESS:    2942822  HIT:    2442348  MISS:     500474
LLC RFO       ACCESS:     146305  HIT:      43891  MISS:     102414
LLC PREFETCH  ACCESS:    9160727  HIT:    3810697  MISS:    5350030
LLC WRITEBACK ACCESS:     285978  HIT:     193308  MISS:      92670
LLC PREFETCH  REQUESTED:          0  ISSUED:          0  USEFUL:      20380  USELESS:    5330188
LLC TOTAL MSHR MERGED:       4424
LLC LOAD MSHR MERGED:       1198
LLC RFO MSHR MERGED:          0
LLC PREFETCH MSHR MERGED:       3226
LLC WRITEBACK MSHR MERGED:          0
LLC TOTAL ACCESSES:   12540287 HITS:    6490275 MISSES:    6050012
LLC LOAD ACCESSES:    2942840 HITS:    2442366 MISSES:     500474
LLC RFO ACCESSES:     146305 HITS:      43891 MISSES:     102414
LLC PREFETCH ACCESSES:    9165164 HITS:    3810710 MISSES:    5354454
LLC WRITEBACK ACCESSES:     285978 HITS:     193308 MISSES:      92670
LLC 0 RQ ACCESS:    3089145
LLC 0 RQ TO_CACHE:    3089127
LLC 0 RQ MERGED:          0
LLC 0 RQ FORWARD:          0
LLC WQ ACCESS:     285978
LLC WQ TO_CACHE:     285978
LLC WQ MERGED:          0
LLC WQ FORWARD:         31
Major fault: 0 Minor fault: 6524
CPU 0 L1D next line prefetcher final stats
CPU 0 L2C PC-based stride prefetcher final stats
All Misses: 7863630
All Hits: 7197215
SD Algo Stats - Switches: 0 SRR-Repls: 533219 BRR-Repls: 0

DRAM Statistics
 CHANNEL 0
 RQ ROW_BUFFER_HIT:    5050222  ROW_BUFFER_MISS:     890762
 DBUS_CONGESTED:    2054617
 WQ ROW_BUFFER_HIT:      29944  ROW_BUFFER_MISS:     121700  FULL:          0

 AVG_CONGESTED_CYCLE: 12
LOADS RETIRED: 175418235
INSTR RETIRED: 500000000
