
*** ChampSim Multicore Out-of-Order Simulator ***

Warmup Instructions: 100000000
Simulation Instructions: 500000000
Number of CPUs: 1
LLC sets: 2048
LLC ways: 16
Clean RRIP Policies: 323102303231023 Dirty RRIP Policies: 2323201323232013 PSEL Width: 10 Track Set: 4294967295 PSEL Mask: 1 Demote Mask: 2303143323031433DS Algo: 0Window size: 0
Off-chip DRAM Size: 4096 MB Channels: 1 Width: 64-bit Data Rate: 1600 MT/s

CPU 0 runs /mnt/beegfs/iconst01/spec2017/Gcc.trace.gz
NOT SORTED
TRACE STRING: /mnt/beegfs/iconst01/spec2017/Gcc.trace.gz
SORTED
TRACE STRING: /mnt/beegfs/iconst01/spec2017/Gcc.trace.gz
INITIAL
TRACE STRING: /mnt/beegfs/iconst01/spec2017/Gcc.trace.gz

champsim_seed used: 269

CPU 0 L1D next line prefetcher
CPU 0 L2C IP-based stride prefetcher
Initialize DRRIP state
Assign rand_sets[0]: 454  LLC: 2048
rand_sets[0]: 454
Assign rand_sets[1]: 1662  LLC: 2048
rand_sets[1]: 1662
Assign rand_sets[2]: 1921  LLC: 2048
rand_sets[2]: 1921
Assign rand_sets[3]: 1131  LLC: 2048
rand_sets[3]: 1131
Assign rand_sets[4]: 331  LLC: 2048
rand_sets[4]: 331
Assign rand_sets[5]: 1531  LLC: 2048
rand_sets[5]: 1531
Assign rand_sets[6]: 482  LLC: 2048
rand_sets[6]: 482
Assign rand_sets[7]: 1275  LLC: 2048
rand_sets[7]: 1275
Assign rand_sets[8]: 1876  LLC: 2048
rand_sets[8]: 1876
Assign rand_sets[9]: 2038  LLC: 2048
rand_sets[9]: 2038
Assign rand_sets[10]: 701  LLC: 2048
rand_sets[10]: 701
Assign rand_sets[11]: 479  LLC: 2048
rand_sets[11]: 479
Assign rand_sets[12]: 892  LLC: 2048
rand_sets[12]: 892
Assign rand_sets[13]: 1820  LLC: 2048
rand_sets[13]: 1820
Assign rand_sets[14]: 1505  LLC: 2048
rand_sets[14]: 1505
Assign rand_sets[15]: 1159  LLC: 2048
rand_sets[15]: 1159
Assign rand_sets[16]: 513  LLC: 2048
rand_sets[16]: 513
Assign rand_sets[17]: 703  LLC: 2048
rand_sets[17]: 703
Assign rand_sets[18]: 561  LLC: 2048
rand_sets[18]: 561
Assign rand_sets[19]: 990  LLC: 2048
rand_sets[19]: 990
Assign rand_sets[20]: 342  LLC: 2048
rand_sets[20]: 342
Assign rand_sets[21]: 882  LLC: 2048
rand_sets[21]: 882
Assign rand_sets[22]: 15  LLC: 2048
rand_sets[22]: 15
Assign rand_sets[23]: 71  LLC: 2048
rand_sets[23]: 71
Assign rand_sets[24]: 1127  LLC: 2048
rand_sets[24]: 1127
Assign rand_sets[25]: 1382  LLC: 2048
rand_sets[25]: 1382
Assign rand_sets[26]: 647  LLC: 2048
rand_sets[26]: 647
Assign rand_sets[27]: 857  LLC: 2048
rand_sets[27]: 857
Assign rand_sets[28]: 1450  LLC: 2048
rand_sets[28]: 1450
Assign rand_sets[29]: 1160  LLC: 2048
rand_sets[29]: 1160
Assign rand_sets[30]: 1852  LLC: 2048
rand_sets[30]: 1852
Assign rand_sets[31]: 1881  LLC: 2048
rand_sets[31]: 1881
Assign rand_sets[32]: 1770  LLC: 2048
rand_sets[32]: 1770
Assign rand_sets[33]: 1622  LLC: 2048
rand_sets[33]: 1622
Assign rand_sets[34]: 275  LLC: 2048
rand_sets[34]: 275
Assign rand_sets[35]: 635  LLC: 2048
rand_sets[35]: 635
Assign rand_sets[36]: 466  LLC: 2048
rand_sets[36]: 466
Assign rand_sets[37]: 1413  LLC: 2048
rand_sets[37]: 1413
Assign rand_sets[38]: 417  LLC: 2048
rand_sets[38]: 417
Assign rand_sets[39]: 472  LLC: 2048
rand_sets[39]: 472
Assign rand_sets[40]: 1340  LLC: 2048
rand_sets[40]: 1340
Assign rand_sets[41]: 852  LLC: 2048
rand_sets[41]: 852
Assign rand_sets[42]: 1365  LLC: 2048
rand_sets[42]: 1365
Assign rand_sets[43]: 47  LLC: 2048
rand_sets[43]: 47
Assign rand_sets[44]: 823  LLC: 2048
rand_sets[44]: 823
Assign rand_sets[45]: 686  LLC: 2048
rand_sets[45]: 686
Assign rand_sets[46]: 1637  LLC: 2048
rand_sets[46]: 1637
Assign rand_sets[47]: 1115  LLC: 2048
rand_sets[47]: 1115
Assign rand_sets[48]: 986  LLC: 2048
rand_sets[48]: 986
Assign rand_sets[49]: 258  LLC: 2048
rand_sets[49]: 258
Assign rand_sets[50]: 633  LLC: 2048
rand_sets[50]: 633
Assign rand_sets[51]: 920  LLC: 2048
rand_sets[51]: 920
Assign rand_sets[52]: 204  LLC: 2048
rand_sets[52]: 204
Assign rand_sets[53]: 227  LLC: 2048
rand_sets[53]: 227
Assign rand_sets[54]: 1818  LLC: 2048
rand_sets[54]: 1818
Assign rand_sets[55]: 886  LLC: 2048
rand_sets[55]: 886
Assign rand_sets[56]: 1422  LLC: 2048
rand_sets[56]: 1422
Assign rand_sets[57]: 607  LLC: 2048
rand_sets[57]: 607
Assign rand_sets[58]: 217  LLC: 2048
rand_sets[58]: 217
Assign rand_sets[59]: 1945  LLC: 2048
rand_sets[59]: 1945
Assign rand_sets[60]: 143  LLC: 2048
rand_sets[60]: 143
Assign rand_sets[61]: 1311  LLC: 2048
rand_sets[61]: 1311
Assign rand_sets[62]: 319  LLC: 2048
rand_sets[62]: 319
Assign rand_sets[63]: 1846  LLC: 2048
rand_sets[63]: 1846
 CLEAN-RRIP-POLICY-1: 0-3-2-3-1-0-2-3- CLEAN-RRIP-POLICY-2: 0-3-2-3-1-0-2-3-
 DIRTY-RRIP-POLICY-1: 2-3-2-3-2-0-1-3- DIRTY-RRIP-POLICY-2: 2-3-2-3-2-0-1-3-
 PSEL width: 10
Heartbeat CPU 0 instructions: 10000001 cycles: 7321625 heartbeat IPC: 1.36582 cumulative IPC: 1.36582 (Simulation time: 0 hr 0 min 15 sec) 
Heartbeat CPU 0 instructions: 20000000 cycles: 14328006 heartbeat IPC: 1.42727 cumulative IPC: 1.39587 (Simulation time: 0 hr 0 min 30 sec) 
Heartbeat CPU 0 instructions: 30000001 cycles: 21045401 heartbeat IPC: 1.48867 cumulative IPC: 1.42549 (Simulation time: 0 hr 0 min 46 sec) 
Heartbeat CPU 0 instructions: 40000000 cycles: 27507829 heartbeat IPC: 1.54741 cumulative IPC: 1.45413 (Simulation time: 0 hr 1 min 2 sec) 
Heartbeat CPU 0 instructions: 50000001 cycles: 33610820 heartbeat IPC: 1.63854 cumulative IPC: 1.48762 (Simulation time: 0 hr 1 min 17 sec) 
Heartbeat CPU 0 instructions: 60000000 cycles: 40093192 heartbeat IPC: 1.54265 cumulative IPC: 1.49651 (Simulation time: 0 hr 1 min 33 sec) 
Heartbeat CPU 0 instructions: 70000000 cycles: 47136703 heartbeat IPC: 1.41975 cumulative IPC: 1.48504 (Simulation time: 0 hr 1 min 48 sec) 
Heartbeat CPU 0 instructions: 80000000 cycles: 54232620 heartbeat IPC: 1.40926 cumulative IPC: 1.47513 (Simulation time: 0 hr 2 min 3 sec) 
Heartbeat CPU 0 instructions: 90000003 cycles: 61243399 heartbeat IPC: 1.42638 cumulative IPC: 1.46955 (Simulation time: 0 hr 2 min 18 sec) 
Heartbeat CPU 0 instructions: 100000000 cycles: 68417041 heartbeat IPC: 1.39399 cumulative IPC: 1.46162 (Simulation time: 0 hr 2 min 32 sec) 

Warmup complete CPU 0 instructions: 100000004 cycles: 68417042 (Simulation time: 0 hr 2 min 32 sec) 

Heartbeat CPU 0 instructions: 110000003 cycles: 97091398 heartbeat IPC: 0.348744 cumulative IPC: 0.348744 (Simulation time: 0 hr 3 min 1 sec) 
Heartbeat CPU 0 instructions: 120000000 cycles: 124952164 heartbeat IPC: 0.358928 cumulative IPC: 0.353762 (Simulation time: 0 hr 3 min 30 sec) 
Heartbeat CPU 0 instructions: 130000000 cycles: 150270290 heartbeat IPC: 0.394974 cumulative IPC: 0.36651 (Simulation time: 0 hr 3 min 58 sec) 
Heartbeat CPU 0 instructions: 140000000 cycles: 181591696 heartbeat IPC: 0.31927 cumulative IPC: 0.353436 (Simulation time: 0 hr 4 min 27 sec) 
Heartbeat CPU 0 instructions: 150000000 cycles: 212749868 heartbeat IPC: 0.320943 cumulative IPC: 0.346422 (Simulation time: 0 hr 4 min 56 sec) 
Heartbeat CPU 0 instructions: 160000000 cycles: 240661575 heartbeat IPC: 0.358273 cumulative IPC: 0.348342 (Simulation time: 0 hr 5 min 24 sec) 
Heartbeat CPU 0 instructions: 170000001 cycles: 269253739 heartbeat IPC: 0.349746 cumulative IPC: 0.348542 (Simulation time: 0 hr 5 min 54 sec) 
Heartbeat CPU 0 instructions: 180000000 cycles: 298330261 heartbeat IPC: 0.34392 cumulative IPC: 0.347957 (Simulation time: 0 hr 6 min 23 sec) 
Heartbeat CPU 0 instructions: 190000002 cycles: 327042304 heartbeat IPC: 0.348286 cumulative IPC: 0.347994 (Simulation time: 0 hr 6 min 52 sec) 
Heartbeat CPU 0 instructions: 200000000 cycles: 356068641 heartbeat IPC: 0.344515 cumulative IPC: 0.347643 (Simulation time: 0 hr 7 min 21 sec) 
Heartbeat CPU 0 instructions: 210000002 cycles: 384585871 heartbeat IPC: 0.350665 cumulative IPC: 0.347915 (Simulation time: 0 hr 7 min 50 sec) 
Heartbeat CPU 0 instructions: 220000000 cycles: 415356747 heartbeat IPC: 0.324983 cumulative IPC: 0.345881 (Simulation time: 0 hr 8 min 18 sec) 
Heartbeat CPU 0 instructions: 230000000 cycles: 443753767 heartbeat IPC: 0.35215 cumulative IPC: 0.346356 (Simulation time: 0 hr 8 min 46 sec) 
Heartbeat CPU 0 instructions: 240000000 cycles: 470369843 heartbeat IPC: 0.375713 cumulative IPC: 0.3483 (Simulation time: 0 hr 9 min 13 sec) 
Heartbeat CPU 0 instructions: 250000000 cycles: 500854461 heartbeat IPC: 0.328034 cumulative IPC: 0.346871 (Simulation time: 0 hr 9 min 43 sec) 
Heartbeat CPU 0 instructions: 260000000 cycles: 528250952 heartbeat IPC: 0.36501 cumulative IPC: 0.347952 (Simulation time: 0 hr 10 min 12 sec) 
Heartbeat CPU 0 instructions: 270000003 cycles: 557075895 heartbeat IPC: 0.346922 cumulative IPC: 0.347891 (Simulation time: 0 hr 10 min 41 sec) 
Heartbeat CPU 0 instructions: 280000000 cycles: 585704381 heartbeat IPC: 0.349302 cumulative IPC: 0.347969 (Simulation time: 0 hr 11 min 11 sec) 
Heartbeat CPU 0 instructions: 290000000 cycles: 614993434 heartbeat IPC: 0.341424 cumulative IPC: 0.347618 (Simulation time: 0 hr 11 min 41 sec) 
Heartbeat CPU 0 instructions: 300000000 cycles: 646075272 heartbeat IPC: 0.321731 cumulative IPC: 0.346225 (Simulation time: 0 hr 12 min 9 sec) 
Heartbeat CPU 0 instructions: 310000001 cycles: 676333025 heartbeat IPC: 0.330494 cumulative IPC: 0.345442 (Simulation time: 0 hr 12 min 38 sec) 
Heartbeat CPU 0 instructions: 320000000 cycles: 705557809 heartbeat IPC: 0.342175 cumulative IPC: 0.345293 (Simulation time: 0 hr 13 min 6 sec) 
Heartbeat CPU 0 instructions: 330000000 cycles: 734903768 heartbeat IPC: 0.340762 cumulative IPC: 0.345093 (Simulation time: 0 hr 13 min 35 sec) 
Heartbeat CPU 0 instructions: 340000000 cycles: 765052195 heartbeat IPC: 0.331692 cumulative IPC: 0.344513 (Simulation time: 0 hr 14 min 4 sec) 
Heartbeat CPU 0 instructions: 350000003 cycles: 792621945 heartbeat IPC: 0.362716 cumulative IPC: 0.345206 (Simulation time: 0 hr 14 min 32 sec) 
Heartbeat CPU 0 instructions: 360000000 cycles: 823259840 heartbeat IPC: 0.326393 cumulative IPC: 0.344443 (Simulation time: 0 hr 15 min 0 sec) 
Heartbeat CPU 0 instructions: 370000000 cycles: 854039465 heartbeat IPC: 0.32489 cumulative IPC: 0.343677 (Simulation time: 0 hr 15 min 28 sec) 
Heartbeat CPU 0 instructions: 380000000 cycles: 885230628 heartbeat IPC: 0.320604 cumulative IPC: 0.342795 (Simulation time: 0 hr 15 min 56 sec) 
Heartbeat CPU 0 instructions: 390000001 cycles: 915542422 heartbeat IPC: 0.329905 cumulative IPC: 0.342334 (Simulation time: 0 hr 16 min 24 sec) 
Heartbeat CPU 0 instructions: 400000000 cycles: 946759324 heartbeat IPC: 0.320339 cumulative IPC: 0.341552 (Simulation time: 0 hr 16 min 52 sec) 
Heartbeat CPU 0 instructions: 410000001 cycles: 976798702 heartbeat IPC: 0.332896 cumulative IPC: 0.341266 (Simulation time: 0 hr 17 min 20 sec) 
Heartbeat CPU 0 instructions: 420000000 cycles: 1006866481 heartbeat IPC: 0.332582 cumulative IPC: 0.340988 (Simulation time: 0 hr 17 min 48 sec) 
Heartbeat CPU 0 instructions: 430000002 cycles: 1037350205 heartbeat IPC: 0.328044 cumulative IPC: 0.340581 (Simulation time: 0 hr 18 min 17 sec) 
Heartbeat CPU 0 instructions: 440000000 cycles: 1068981705 heartbeat IPC: 0.316141 cumulative IPC: 0.339808 (Simulation time: 0 hr 18 min 45 sec) 
Heartbeat CPU 0 instructions: 450000002 cycles: 1100468449 heartbeat IPC: 0.317594 cumulative IPC: 0.33913 (Simulation time: 0 hr 19 min 13 sec) 
Heartbeat CPU 0 instructions: 460000000 cycles: 1130810624 heartbeat IPC: 0.329574 cumulative IPC: 0.338857 (Simulation time: 0 hr 19 min 41 sec) 
Heartbeat CPU 0 instructions: 470000000 cycles: 1160830856 heartbeat IPC: 0.333109 cumulative IPC: 0.338699 (Simulation time: 0 hr 20 min 9 sec) 
Heartbeat CPU 0 instructions: 480000000 cycles: 1191046917 heartbeat IPC: 0.33095 cumulative IPC: 0.338491 (Simulation time: 0 hr 20 min 37 sec) 
Heartbeat CPU 0 instructions: 490000000 cycles: 1221004353 heartbeat IPC: 0.333807 cumulative IPC: 0.338369 (Simulation time: 0 hr 21 min 5 sec) 
Heartbeat CPU 0 instructions: 500000000 cycles: 1251376377 heartbeat IPC: 0.32925 cumulative IPC: 0.338135 (Simulation time: 0 hr 21 min 33 sec) 
Heartbeat CPU 0 instructions: 510000000 cycles: 1286655410 heartbeat IPC: 0.283454 cumulative IPC: 0.336552 (Simulation time: 0 hr 22 min 4 sec) 
Heartbeat CPU 0 instructions: 520000000 cycles: 1314811613 heartbeat IPC: 0.355162 cumulative IPC: 0.336972 (Simulation time: 0 hr 22 min 32 sec) 
Heartbeat CPU 0 instructions: 530000001 cycles: 1345262430 heartbeat IPC: 0.328398 cumulative IPC: 0.336767 (Simulation time: 0 hr 23 min 1 sec) 
Heartbeat CPU 0 instructions: 540000000 cycles: 1374226993 heartbeat IPC: 0.345249 cumulative IPC: 0.336956 (Simulation time: 0 hr 23 min 29 sec) 
Heartbeat CPU 0 instructions: 550000001 cycles: 1403687159 heartbeat IPC: 0.339441 cumulative IPC: 0.33701 (Simulation time: 0 hr 23 min 59 sec) 
Heartbeat CPU 0 instructions: 560000000 cycles: 1429404984 heartbeat IPC: 0.388835 cumulative IPC: 0.33799 (Simulation time: 0 hr 24 min 27 sec) 
Heartbeat CPU 0 instructions: 570000000 cycles: 1459650535 heartbeat IPC: 0.330627 cumulative IPC: 0.33783 (Simulation time: 0 hr 24 min 56 sec) 
Heartbeat CPU 0 instructions: 580000000 cycles: 1488386231 heartbeat IPC: 0.347999 cumulative IPC: 0.338035 (Simulation time: 0 hr 25 min 24 sec) 
Heartbeat CPU 0 instructions: 590000001 cycles: 1513682664 heartbeat IPC: 0.395313 cumulative IPC: 0.339038 (Simulation time: 0 hr 25 min 51 sec) 
Heartbeat CPU 0 instructions: 600000000 cycles: 1540821872 heartbeat IPC: 0.368471 cumulative IPC: 0.339581 (Simulation time: 0 hr 26 min 19 sec) 
Finished CPU 0 instructions: 500000000 cycles: 1472404852 cumulative IPC: 0.339581 (Simulation time: 0 hr 26 min 19 sec) 

CPU 0 Branch Prediction Accuracy: 86.4311% MPKI: 26.2662
Number of Branches: 96788573 Number of Mispredictions: 13133102
Number of LOAD Instructions: 164682285
Number of LOAD Instructions (ROI): 164682285
Number of STORE Instructions: 78194750
Number of STORE Instructions (ROI): 78194750
Total Destination Memory Operands: 83268534
Total Destination Memory Operands (ROI): 83268534
Total Source Memory Operands: 164712438
Total Source Memory Operands (ROI): 164712438
Number of DEPENDED LOADS: 7056853
Number of DEPENDED LOADS (ROI): 7056853
Number of SQ_ADDED: 83268522
Number of SQ_ADDED (ROI): 83268522
Number of LQ_ADDED: 236617242
Number of LQ_ADDED (ROI): 236617242
Number of Instructions read from trace: 600000066

ChampSim completed all CPUs

Region of Interest Statistics

CPU 0 cumulative IPC: 0.339581 instructions: 500000000 cycles: 1472404852
ITLB TOTAL     ACCESS:  100527040  HIT:  100322594  MISS:     204446
ITLB LOAD      ACCESS:  100527040  HIT:  100322594  MISS:     204446
ITLB RFO       ACCESS:          0  HIT:          0  MISS:          0
ITLB PREFETCH  ACCESS:          0  HIT:          0  MISS:          0
ITLB WRITEBACK ACCESS:          0  HIT:          0  MISS:          0
ITLB PREFETCH  REQUESTED:          0  ISSUED:          0  USEFUL:          0  USELESS:          0
ITLB TOTAL MSHR MERGED:     172425
ITLB LOAD MSHR MERGED:     172425
ITLB RFO MSHR MERGED:          0
ITLB PREFETCH MSHR MERGED:          0
ITLB WRITEBACK MSHR MERGED:          0
ITLB TOTAL ACCESSES:  100699465 HITS:  100322594 MISSES:     376871
ITLB LOAD ACCESSES:  100699465 HITS:  100322594 MISSES:     376871
ITLB RFO ACCESSES:          0 HITS:          0 MISSES:          0
ITLB PREFETCH ACCESSES:          0 HITS:          0 MISSES:          0
ITLB WRITEBACK ACCESSES:          0 HITS:          0 MISSES:          0
ITLB RQ ACCESS:  500000057
ITLB RQ TO_CACHE:  100699465
ITLB RQ MERGED:  399300592
ITLB RQ FORWARD:          0
ITLB WQ ACCESS:          0
ITLB WQ TO_CACHE:          0
ITLB WQ MERGED:          0
ITLB WQ FORWARD:          0
DTLB TOTAL     ACCESS:  165354069  HIT:  164719714  MISS:     634355
DTLB LOAD      ACCESS:  106302655  HIT:  105732623  MISS:     570032
DTLB RFO       ACCESS:   59051414  HIT:   58987091  MISS:      64323
DTLB PREFETCH  ACCESS:          0  HIT:          0  MISS:          0
DTLB WRITEBACK ACCESS:          0  HIT:          0  MISS:          0
DTLB PREFETCH  REQUESTED:          0  ISSUED:          0  USEFUL:          0  USELESS:          0
DTLB TOTAL MSHR MERGED:      99625
DTLB LOAD MSHR MERGED:      59263
DTLB RFO MSHR MERGED:      40362
DTLB PREFETCH MSHR MERGED:          0
DTLB WRITEBACK MSHR MERGED:          0
DTLB TOTAL ACCESSES:  165453694 HITS:  164719714 MISSES:     733980
DTLB LOAD ACCESSES:  106361918 HITS:  105732623 MISSES:     629295
DTLB RFO ACCESSES:   59091776 HITS:   58987091 MISSES:     104685
DTLB PREFETCH ACCESSES:          0 HITS:          0 MISSES:          0
DTLB WRITEBACK ACCESSES:          0 HITS:          0 MISSES:          0
DTLB RQ ACCESS:  200314055
DTLB RQ TO_CACHE:  165453694
DTLB RQ MERGED:   34860361
DTLB RQ FORWARD:          0
DTLB WQ ACCESS:          0
DTLB WQ TO_CACHE:          0
DTLB WQ MERGED:          0
DTLB WQ FORWARD:          0
L1D TOTAL     ACCESS:  281873258  HIT:  273963799  MISS:    7909459
L1D LOAD      ACCESS:  110432503  HIT:  107152911  MISS:    3279592
L1D RFO       ACCESS:   67133943  HIT:   66243890  MISS:     890053
L1D PREFETCH  ACCESS:  104306812  HIT:  100566998  MISS:    3739814
L1D WRITEBACK ACCESS:          0  HIT:          0  MISS:          0
L1D PREFETCH  REQUESTED:  110832276  ISSUED:  109132906  USEFUL:    1660333  USELESS:    2079445
L1D TOTAL MSHR MERGED:    2868252
L1D LOAD MSHR MERGED:     499165
L1D RFO MSHR MERGED:    1851214
L1D PREFETCH MSHR MERGED:     517873
L1D WRITEBACK MSHR MERGED:          0
L1D TOTAL ACCESSES:  284768951 HITS:  273991240 MISSES:   10777711
L1D LOAD ACCESSES:  110833745 HITS:  107154380 MISSES:    3679365
L1D RFO ACCESSES:   68973814 HITS:   66243890 MISSES:    2729924
L1D PREFETCH ACCESSES:  104961392 HITS:  100592970 MISSES:    4368422
L1D WRITEBACK ACCESSES:          0 HITS:          0 MISSES:          0
L1D RQ ACCESS:  130761452
L1D RQ TO_CACHE:  110832279
L1D RQ MERGED:   19927704
L1D RQ FORWARD:          0
L1D WQ ACCESS:   69552603
L1D WQ TO_CACHE:   68973815
L1D WQ MERGED:     578788
L1D WQ FORWARD:      27441
L1I TOTAL     ACCESS:  126569634  HIT:  122331112  MISS:    4238522
L1I LOAD      ACCESS:  126569634  HIT:  122331112  MISS:    4238522
L1I RFO       ACCESS:          0  HIT:          0  MISS:          0
L1I PREFETCH  ACCESS:          0  HIT:          0  MISS:          0
L1I WRITEBACK ACCESS:          0  HIT:          0  MISS:          0
L1I PREFETCH  REQUESTED:          0  ISSUED:          0  USEFUL:          0  USELESS:          0
L1I TOTAL MSHR MERGED:    1839308
L1I LOAD MSHR MERGED:    1839308
L1I RFO MSHR MERGED:          0
L1I PREFETCH MSHR MERGED:          0
L1I WRITEBACK MSHR MERGED:          0
L1I TOTAL ACCESSES:  128408945 HITS:  122331112 MISSES:    6077833
L1I LOAD ACCESSES:  128408945 HITS:  122331112 MISSES:    6077833
L1I RFO ACCESSES:          0 HITS:          0 MISSES:          0
L1I PREFETCH ACCESSES:          0 HITS:          0 MISSES:          0
L1I WRITEBACK ACCESSES:          0 HITS:          0 MISSES:          0
L1I RQ ACCESS:  500000057
L1I RQ TO_CACHE:  128408945
L1I RQ MERGED:  371591112
L1I RQ FORWARD:          0
L1I WQ ACCESS:          0
L1I WQ TO_CACHE:          0
L1I WQ MERGED:          0
L1I WQ FORWARD:          0
L2C TOTAL     ACCESS:   14905621  HIT:   11159152  MISS:    3746469
L2C LOAD      ACCESS:    7418514  HIT:    5098704  MISS:    2319810
L2C RFO       ACCESS:     878614  HIT:     409947  MISS:     468667
L2C PREFETCH  ACCESS:    4569235  HIT:    3628504  MISS:     940731
L2C WRITEBACK ACCESS:    2039258  HIT:    2021997  MISS:      17261
L2C PREFETCH  REQUESTED:     842713  ISSUED:     842713  USEFUL:     203508  USELESS:     736929
L2C TOTAL MSHR MERGED:       6742
L2C LOAD MSHR MERGED:        721
L2C RFO MSHR MERGED:          0
L2C PREFETCH MSHR MERGED:       6021
L2C WRITEBACK MSHR MERGED:          0
L2C TOTAL ACCESSES:   14913260 HITS:   11159601 MISSES:    3753659
L2C LOAD ACCESSES:    7418722 HITS:    5098912 MISSES:    2319810
L2C RFO ACCESSES:     878710 HITS:     410043 MISSES:     468667
L2C PREFETCH ACCESSES:    4576570 HITS:    3628649 MISSES:     947921
L2C WRITEBACK ACCESSES:    2039258 HITS:    2021997 MISSES:      17261
L2C RQ ACCESS:    8297435
L2C RQ TO_CACHE:    8297131
L2C RQ MERGED:          0
L2C RQ FORWARD:          0
L2C WQ ACCESS:    2039258
L2C WQ TO_CACHE:    2039258
L2C WQ MERGED:          0
L2C WQ FORWARD:        449
LLC TOTAL     ACCESS:    4609815  HIT:    3230297  MISS:    1379518
LLC LOAD      ACCESS:    2319076  HIT:    1439999  MISS:     879077
LLC RFO       ACCESS:     468659  HIT:     417816  MISS:      50843
LLC PREFETCH  ACCESS:     941788  HIT:     581115  MISS:     360673
LLC WRITEBACK ACCESS:     880292  HIT:     791367  MISS:      88925
LLC PREFETCH  REQUESTED:          0  ISSUED:          0  USEFUL:      11752  USELESS:     347337
LLC TOTAL MSHR MERGED:         93
LLC LOAD MSHR MERGED:         31
LLC RFO MSHR MERGED:          0
LLC PREFETCH MSHR MERGED:         62
LLC WRITEBACK MSHR MERGED:          0
LLC TOTAL ACCESSES:    4609943 HITS:    3230332 MISSES:    1379611
LLC LOAD ACCESSES:    2319089 HITS:    1440012 MISSES:     879077
LLC RFO ACCESSES:     468667 HITS:     417824 MISSES:      50843
LLC PREFETCH ACCESSES:     941895 HITS:     581129 MISSES:     360766
LLC WRITEBACK ACCESSES:     880292 HITS:     791367 MISSES:      88925
LLC 0 RQ ACCESS:    2787756
LLC 0 RQ TO_CACHE:    2787735
LLC 0 RQ MERGED:          0
LLC 0 RQ FORWARD:          0
LLC WQ ACCESS:     880292
LLC WQ TO_CACHE:     880292
LLC WQ MERGED:          0
LLC WQ FORWARD:         35
Major fault: 0 Minor fault: 12862
CPU 0 L1D next line prefetcher final stats
CPU 0 L2C PC-based stride prefetcher final stats
All Misses: 1630757
All Hits: 3796064
SD Algo Stats - Switches: 0 SRR-Repls: 1019854 BRR-Repls: 0

DRAM Statistics
 CHANNEL 0
 RQ ROW_BUFFER_HIT:     379122  ROW_BUFFER_MISS:     908212
 DBUS_CONGESTED:     486041
 WQ ROW_BUFFER_HIT:      10005  ROW_BUFFER_MISS:     177991  FULL:          0

 AVG_CONGESTED_CYCLE: 13
LOADS RETIRED: 136549171
INSTR RETIRED: 500000000
