
*** ChampSim Multicore Out-of-Order Simulator ***

Warmup Instructions: 100000000
Simulation Instructions: 500000000
Number of CPUs: 1
LLC sets: 2048
LLC ways: 16
Clean RRIP Policies: 2213230222132302 Dirty RRIP Policies: 1203131212031312 PSEL Width: 10 Track Set: 4294967295 PSEL Mask: 1 Demote Mask: 1040100010401000DS Algo: 0Window size: 0
Off-chip DRAM Size: 4096 MB Channels: 1 Width: 64-bit Data Rate: 1600 MT/s

CPU 0 runs /mnt/beegfs/iconst01/spec2017/cactuBSSN.trace.gz
NOT SORTED
TRACE STRING: /mnt/beegfs/iconst01/spec2017/cactuBSSN.trace.gz
SORTED
TRACE STRING: /mnt/beegfs/iconst01/spec2017/cactuBSSN.trace.gz
INITIAL
TRACE STRING: /mnt/beegfs/iconst01/spec2017/cactuBSSN.trace.gz

champsim_seed used: 838

CPU 0 L1D next line prefetcher
CPU 0 L2C IP-based stride prefetcher
Initialize DRRIP state
Assign rand_sets[0]: 454  LLC: 2048
rand_sets[0]: 454
Assign rand_sets[1]: 1662  LLC: 2048
rand_sets[1]: 1662
Assign rand_sets[2]: 1921  LLC: 2048
rand_sets[2]: 1921
Assign rand_sets[3]: 1131  LLC: 2048
rand_sets[3]: 1131
Assign rand_sets[4]: 331  LLC: 2048
rand_sets[4]: 331
Assign rand_sets[5]: 1531  LLC: 2048
rand_sets[5]: 1531
Assign rand_sets[6]: 482  LLC: 2048
rand_sets[6]: 482
Assign rand_sets[7]: 1275  LLC: 2048
rand_sets[7]: 1275
Assign rand_sets[8]: 1876  LLC: 2048
rand_sets[8]: 1876
Assign rand_sets[9]: 2038  LLC: 2048
rand_sets[9]: 2038
Assign rand_sets[10]: 701  LLC: 2048
rand_sets[10]: 701
Assign rand_sets[11]: 479  LLC: 2048
rand_sets[11]: 479
Assign rand_sets[12]: 892  LLC: 2048
rand_sets[12]: 892
Assign rand_sets[13]: 1820  LLC: 2048
rand_sets[13]: 1820
Assign rand_sets[14]: 1505  LLC: 2048
rand_sets[14]: 1505
Assign rand_sets[15]: 1159  LLC: 2048
rand_sets[15]: 1159
Assign rand_sets[16]: 513  LLC: 2048
rand_sets[16]: 513
Assign rand_sets[17]: 703  LLC: 2048
rand_sets[17]: 703
Assign rand_sets[18]: 561  LLC: 2048
rand_sets[18]: 561
Assign rand_sets[19]: 990  LLC: 2048
rand_sets[19]: 990
Assign rand_sets[20]: 342  LLC: 2048
rand_sets[20]: 342
Assign rand_sets[21]: 882  LLC: 2048
rand_sets[21]: 882
Assign rand_sets[22]: 15  LLC: 2048
rand_sets[22]: 15
Assign rand_sets[23]: 71  LLC: 2048
rand_sets[23]: 71
Assign rand_sets[24]: 1127  LLC: 2048
rand_sets[24]: 1127
Assign rand_sets[25]: 1382  LLC: 2048
rand_sets[25]: 1382
Assign rand_sets[26]: 647  LLC: 2048
rand_sets[26]: 647
Assign rand_sets[27]: 857  LLC: 2048
rand_sets[27]: 857
Assign rand_sets[28]: 1450  LLC: 2048
rand_sets[28]: 1450
Assign rand_sets[29]: 1160  LLC: 2048
rand_sets[29]: 1160
Assign rand_sets[30]: 1852  LLC: 2048
rand_sets[30]: 1852
Assign rand_sets[31]: 1881  LLC: 2048
rand_sets[31]: 1881
Assign rand_sets[32]: 1770  LLC: 2048
rand_sets[32]: 1770
Assign rand_sets[33]: 1622  LLC: 2048
rand_sets[33]: 1622
Assign rand_sets[34]: 275  LLC: 2048
rand_sets[34]: 275
Assign rand_sets[35]: 635  LLC: 2048
rand_sets[35]: 635
Assign rand_sets[36]: 466  LLC: 2048
rand_sets[36]: 466
Assign rand_sets[37]: 1413  LLC: 2048
rand_sets[37]: 1413
Assign rand_sets[38]: 417  LLC: 2048
rand_sets[38]: 417
Assign rand_sets[39]: 472  LLC: 2048
rand_sets[39]: 472
Assign rand_sets[40]: 1340  LLC: 2048
rand_sets[40]: 1340
Assign rand_sets[41]: 852  LLC: 2048
rand_sets[41]: 852
Assign rand_sets[42]: 1365  LLC: 2048
rand_sets[42]: 1365
Assign rand_sets[43]: 47  LLC: 2048
rand_sets[43]: 47
Assign rand_sets[44]: 823  LLC: 2048
rand_sets[44]: 823
Assign rand_sets[45]: 686  LLC: 2048
rand_sets[45]: 686
Assign rand_sets[46]: 1637  LLC: 2048
rand_sets[46]: 1637
Assign rand_sets[47]: 1115  LLC: 2048
rand_sets[47]: 1115
Assign rand_sets[48]: 986  LLC: 2048
rand_sets[48]: 986
Assign rand_sets[49]: 258  LLC: 2048
rand_sets[49]: 258
Assign rand_sets[50]: 633  LLC: 2048
rand_sets[50]: 633
Assign rand_sets[51]: 920  LLC: 2048
rand_sets[51]: 920
Assign rand_sets[52]: 204  LLC: 2048
rand_sets[52]: 204
Assign rand_sets[53]: 227  LLC: 2048
rand_sets[53]: 227
Assign rand_sets[54]: 1818  LLC: 2048
rand_sets[54]: 1818
Assign rand_sets[55]: 886  LLC: 2048
rand_sets[55]: 886
Assign rand_sets[56]: 1422  LLC: 2048
rand_sets[56]: 1422
Assign rand_sets[57]: 607  LLC: 2048
rand_sets[57]: 607
Assign rand_sets[58]: 217  LLC: 2048
rand_sets[58]: 217
Assign rand_sets[59]: 1945  LLC: 2048
rand_sets[59]: 1945
Assign rand_sets[60]: 143  LLC: 2048
rand_sets[60]: 143
Assign rand_sets[61]: 1311  LLC: 2048
rand_sets[61]: 1311
Assign rand_sets[62]: 319  LLC: 2048
rand_sets[62]: 319
Assign rand_sets[63]: 1846  LLC: 2048
rand_sets[63]: 1846
 CLEAN-RRIP-POLICY-1: 2-2-1-3-2-3-0-2- CLEAN-RRIP-POLICY-2: 2-2-1-3-2-3-0-2-
 DIRTY-RRIP-POLICY-1: 1-2-0-3-1-3-1-2- DIRTY-RRIP-POLICY-2: 1-2-0-3-1-3-1-2-
 PSEL width: 10
Heartbeat CPU 0 instructions: 10000000 cycles: 6588002 heartbeat IPC: 1.51791 cumulative IPC: 1.51791 (Simulation time: 0 hr 0 min 24 sec) 
Heartbeat CPU 0 instructions: 20000000 cycles: 13179590 heartbeat IPC: 1.51709 cumulative IPC: 1.5175 (Simulation time: 0 hr 0 min 48 sec) 
Heartbeat CPU 0 instructions: 30000003 cycles: 19772908 heartbeat IPC: 1.51669 cumulative IPC: 1.51723 (Simulation time: 0 hr 1 min 13 sec) 
Heartbeat CPU 0 instructions: 40000000 cycles: 26364656 heartbeat IPC: 1.51705 cumulative IPC: 1.51718 (Simulation time: 0 hr 1 min 37 sec) 
Heartbeat CPU 0 instructions: 50000001 cycles: 32957330 heartbeat IPC: 1.51684 cumulative IPC: 1.51711 (Simulation time: 0 hr 2 min 2 sec) 
Heartbeat CPU 0 instructions: 60000000 cycles: 39556144 heartbeat IPC: 1.51542 cumulative IPC: 1.51683 (Simulation time: 0 hr 2 min 27 sec) 
Heartbeat CPU 0 instructions: 70000003 cycles: 46154519 heartbeat IPC: 1.51553 cumulative IPC: 1.51664 (Simulation time: 0 hr 2 min 51 sec) 
Heartbeat CPU 0 instructions: 80000000 cycles: 52752571 heartbeat IPC: 1.5156 cumulative IPC: 1.51651 (Simulation time: 0 hr 3 min 16 sec) 
Heartbeat CPU 0 instructions: 90000002 cycles: 59348246 heartbeat IPC: 1.51615 cumulative IPC: 1.51647 (Simulation time: 0 hr 3 min 41 sec) 
Heartbeat CPU 0 instructions: 100000000 cycles: 65943308 heartbeat IPC: 1.51629 cumulative IPC: 1.51645 (Simulation time: 0 hr 4 min 5 sec) 

Warmup complete CPU 0 instructions: 100000002 cycles: 65943309 (Simulation time: 0 hr 4 min 5 sec) 

Heartbeat CPU 0 instructions: 110000000 cycles: 79189566 heartbeat IPC: 0.75493 cumulative IPC: 0.75493 (Simulation time: 0 hr 4 min 35 sec) 
Heartbeat CPU 0 instructions: 120000000 cycles: 92385908 heartbeat IPC: 0.757786 cumulative IPC: 0.756355 (Simulation time: 0 hr 5 min 6 sec) 
Heartbeat CPU 0 instructions: 130000001 cycles: 105657270 heartbeat IPC: 0.753502 cumulative IPC: 0.755402 (Simulation time: 0 hr 5 min 36 sec) 
Heartbeat CPU 0 instructions: 140000000 cycles: 118829077 heartbeat IPC: 0.759197 cumulative IPC: 0.756347 (Simulation time: 0 hr 6 min 6 sec) 
Heartbeat CPU 0 instructions: 150000001 cycles: 132016192 heartbeat IPC: 0.758316 cumulative IPC: 0.75674 (Simulation time: 0 hr 6 min 36 sec) 
Heartbeat CPU 0 instructions: 160000000 cycles: 145251128 heartbeat IPC: 0.755576 cumulative IPC: 0.756546 (Simulation time: 0 hr 7 min 7 sec) 
Heartbeat CPU 0 instructions: 170000000 cycles: 158463233 heartbeat IPC: 0.756882 cumulative IPC: 0.756594 (Simulation time: 0 hr 7 min 37 sec) 
Heartbeat CPU 0 instructions: 180000000 cycles: 171659187 heartbeat IPC: 0.757808 cumulative IPC: 0.756745 (Simulation time: 0 hr 8 min 8 sec) 
Heartbeat CPU 0 instructions: 190000000 cycles: 184819727 heartbeat IPC: 0.759847 cumulative IPC: 0.757089 (Simulation time: 0 hr 8 min 38 sec) 
Heartbeat CPU 0 instructions: 200000000 cycles: 198071756 heartbeat IPC: 0.754601 cumulative IPC: 0.756839 (Simulation time: 0 hr 9 min 8 sec) 
Heartbeat CPU 0 instructions: 210000002 cycles: 211279146 heartbeat IPC: 0.757152 cumulative IPC: 0.756868 (Simulation time: 0 hr 9 min 38 sec) 
Heartbeat CPU 0 instructions: 220000000 cycles: 224452224 heartbeat IPC: 0.759124 cumulative IPC: 0.757055 (Simulation time: 0 hr 10 min 9 sec) 
Heartbeat CPU 0 instructions: 230000003 cycles: 237700951 heartbeat IPC: 0.75479 cumulative IPC: 0.75688 (Simulation time: 0 hr 10 min 39 sec) 
Heartbeat CPU 0 instructions: 240000000 cycles: 250887678 heartbeat IPC: 0.758338 cumulative IPC: 0.756984 (Simulation time: 0 hr 11 min 9 sec) 
Heartbeat CPU 0 instructions: 250000001 cycles: 264102924 heartbeat IPC: 0.756702 cumulative IPC: 0.756966 (Simulation time: 0 hr 11 min 39 sec) 
Heartbeat CPU 0 instructions: 260000000 cycles: 277314420 heartbeat IPC: 0.756916 cumulative IPC: 0.756962 (Simulation time: 0 hr 12 min 9 sec) 
Heartbeat CPU 0 instructions: 270000003 cycles: 290556848 heartbeat IPC: 0.755149 cumulative IPC: 0.756856 (Simulation time: 0 hr 12 min 39 sec) 
Heartbeat CPU 0 instructions: 280000000 cycles: 303755988 heartbeat IPC: 0.757625 cumulative IPC: 0.756898 (Simulation time: 0 hr 13 min 9 sec) 
Heartbeat CPU 0 instructions: 290000000 cycles: 316929305 heartbeat IPC: 0.75911 cumulative IPC: 0.757014 (Simulation time: 0 hr 13 min 39 sec) 
Heartbeat CPU 0 instructions: 300000000 cycles: 330187329 heartbeat IPC: 0.75426 cumulative IPC: 0.756876 (Simulation time: 0 hr 14 min 9 sec) 
Heartbeat CPU 0 instructions: 310000001 cycles: 343364307 heartbeat IPC: 0.758899 cumulative IPC: 0.756972 (Simulation time: 0 hr 14 min 38 sec) 
Heartbeat CPU 0 instructions: 320000000 cycles: 356554480 heartbeat IPC: 0.75814 cumulative IPC: 0.757025 (Simulation time: 0 hr 15 min 8 sec) 
Heartbeat CPU 0 instructions: 330000002 cycles: 369746945 heartbeat IPC: 0.758009 cumulative IPC: 0.757068 (Simulation time: 0 hr 15 min 38 sec) 
Heartbeat CPU 0 instructions: 340000000 cycles: 382988653 heartbeat IPC: 0.755189 cumulative IPC: 0.756989 (Simulation time: 0 hr 16 min 8 sec) 
Heartbeat CPU 0 instructions: 350000000 cycles: 396241471 heartbeat IPC: 0.754556 cumulative IPC: 0.756892 (Simulation time: 0 hr 16 min 37 sec) 
Heartbeat CPU 0 instructions: 360000000 cycles: 409456634 heartbeat IPC: 0.756707 cumulative IPC: 0.756885 (Simulation time: 0 hr 17 min 7 sec) 
Heartbeat CPU 0 instructions: 370000002 cycles: 422727801 heartbeat IPC: 0.753513 cumulative IPC: 0.756759 (Simulation time: 0 hr 17 min 37 sec) 
Heartbeat CPU 0 instructions: 380000000 cycles: 435937840 heartbeat IPC: 0.757 cumulative IPC: 0.756768 (Simulation time: 0 hr 18 min 6 sec) 
Heartbeat CPU 0 instructions: 390000000 cycles: 449115107 heartbeat IPC: 0.758883 cumulative IPC: 0.756841 (Simulation time: 0 hr 18 min 36 sec) 
Heartbeat CPU 0 instructions: 400000000 cycles: 462316187 heartbeat IPC: 0.757514 cumulative IPC: 0.756863 (Simulation time: 0 hr 19 min 6 sec) 
Heartbeat CPU 0 instructions: 410000001 cycles: 475572773 heartbeat IPC: 0.754342 cumulative IPC: 0.756782 (Simulation time: 0 hr 19 min 35 sec) 
Heartbeat CPU 0 instructions: 420000000 cycles: 488753128 heartbeat IPC: 0.758705 cumulative IPC: 0.756841 (Simulation time: 0 hr 20 min 5 sec) 
Heartbeat CPU 0 instructions: 430000001 cycles: 501941107 heartbeat IPC: 0.758266 cumulative IPC: 0.756885 (Simulation time: 0 hr 20 min 34 sec) 
Heartbeat CPU 0 instructions: 440000000 cycles: 515113898 heartbeat IPC: 0.75914 cumulative IPC: 0.756951 (Simulation time: 0 hr 21 min 4 sec) 
Heartbeat CPU 0 instructions: 450000002 cycles: 528420117 heartbeat IPC: 0.751528 cumulative IPC: 0.756795 (Simulation time: 0 hr 21 min 34 sec) 
Heartbeat CPU 0 instructions: 460000000 cycles: 541637779 heartbeat IPC: 0.756563 cumulative IPC: 0.756788 (Simulation time: 0 hr 22 min 3 sec) 
Heartbeat CPU 0 instructions: 470000003 cycles: 554830864 heartbeat IPC: 0.757973 cumulative IPC: 0.75682 (Simulation time: 0 hr 22 min 33 sec) 
Heartbeat CPU 0 instructions: 480000000 cycles: 568071904 heartbeat IPC: 0.755227 cumulative IPC: 0.756778 (Simulation time: 0 hr 23 min 2 sec) 
Heartbeat CPU 0 instructions: 490000000 cycles: 581284716 heartbeat IPC: 0.756841 cumulative IPC: 0.75678 (Simulation time: 0 hr 23 min 32 sec) 
Heartbeat CPU 0 instructions: 500000000 cycles: 594488351 heartbeat IPC: 0.757367 cumulative IPC: 0.756795 (Simulation time: 0 hr 24 min 1 sec) 
Heartbeat CPU 0 instructions: 510000001 cycles: 607661495 heartbeat IPC: 0.75912 cumulative IPC: 0.756851 (Simulation time: 0 hr 24 min 31 sec) 
Heartbeat CPU 0 instructions: 520000000 cycles: 620945228 heartbeat IPC: 0.7528 cumulative IPC: 0.756754 (Simulation time: 0 hr 25 min 1 sec) 
Heartbeat CPU 0 instructions: 530000000 cycles: 634193831 heartbeat IPC: 0.754797 cumulative IPC: 0.756709 (Simulation time: 0 hr 25 min 30 sec) 
Heartbeat CPU 0 instructions: 540000000 cycles: 647421930 heartbeat IPC: 0.755967 cumulative IPC: 0.756692 (Simulation time: 0 hr 26 min 0 sec) 
Heartbeat CPU 0 instructions: 550000002 cycles: 660677985 heartbeat IPC: 0.754372 cumulative IPC: 0.75664 (Simulation time: 0 hr 26 min 29 sec) 
Heartbeat CPU 0 instructions: 560000000 cycles: 673866139 heartbeat IPC: 0.758256 cumulative IPC: 0.756675 (Simulation time: 0 hr 26 min 59 sec) 
Heartbeat CPU 0 instructions: 570000001 cycles: 687072537 heartbeat IPC: 0.757209 cumulative IPC: 0.756686 (Simulation time: 0 hr 27 min 28 sec) 
Heartbeat CPU 0 instructions: 580000000 cycles: 700276217 heartbeat IPC: 0.757365 cumulative IPC: 0.7567 (Simulation time: 0 hr 27 min 58 sec) 
Heartbeat CPU 0 instructions: 590000003 cycles: 713514574 heartbeat IPC: 0.755381 cumulative IPC: 0.756673 (Simulation time: 0 hr 28 min 27 sec) 
Heartbeat CPU 0 instructions: 600000000 cycles: 726771351 heartbeat IPC: 0.754331 cumulative IPC: 0.756626 (Simulation time: 0 hr 28 min 56 sec) 
Finished CPU 0 instructions: 500000000 cycles: 660828052 cumulative IPC: 0.756626 (Simulation time: 0 hr 28 min 56 sec) 

CPU 0 Branch Prediction Accuracy: 99.968% MPKI: 0.002246
Number of Branches: 3513331 Number of Mispredictions: 1123
Number of LOAD Instructions: 287251172
Number of LOAD Instructions (ROI): 287251172
Number of STORE Instructions: 51060820
Number of STORE Instructions (ROI): 51060820
Total Destination Memory Operands: 51166221
Total Destination Memory Operands (ROI): 51166221
Total Source Memory Operands: 287251172
Total Source Memory Operands (ROI): 287251172
Number of DEPENDED LOADS: 9555487
Number of DEPENDED LOADS (ROI): 9555487
Number of SQ_ADDED: 51166208
Number of SQ_ADDED (ROI): 51166208
Number of LQ_ADDED: 290420001
Number of LQ_ADDED (ROI): 290420001
Number of Instructions read from trace: 600000257

ChampSim completed all CPUs

Region of Interest Statistics

CPU 0 cumulative IPC: 0.756626 instructions: 500000000 cycles: 660828052
ITLB TOTAL     ACCESS:  108949798  HIT:  108949798  MISS:          0
ITLB LOAD      ACCESS:  108949798  HIT:  108949798  MISS:          0
ITLB RFO       ACCESS:          0  HIT:          0  MISS:          0
ITLB PREFETCH  ACCESS:          0  HIT:          0  MISS:          0
ITLB WRITEBACK ACCESS:          0  HIT:          0  MISS:          0
ITLB PREFETCH  REQUESTED:          0  ISSUED:          0  USEFUL:          0  USELESS:          0
ITLB TOTAL MSHR MERGED:          0
ITLB LOAD MSHR MERGED:          0
ITLB RFO MSHR MERGED:          0
ITLB PREFETCH MSHR MERGED:          0
ITLB WRITEBACK MSHR MERGED:          0
ITLB TOTAL ACCESSES:  108949798 HITS:  108949798 MISSES:          0
ITLB LOAD ACCESSES:  108949798 HITS:  108949798 MISSES:          0
ITLB RFO ACCESSES:          0 HITS:          0 MISSES:          0
ITLB PREFETCH ACCESSES:          0 HITS:          0 MISSES:          0
ITLB WRITEBACK ACCESSES:          0 HITS:          0 MISSES:          0
ITLB RQ ACCESS:  500000001
ITLB RQ TO_CACHE:  108949798
ITLB RQ MERGED:  391050203
ITLB RQ FORWARD:          0
ITLB WQ ACCESS:          0
ITLB WQ TO_CACHE:          0
ITLB WQ MERGED:          0
ITLB WQ FORWARD:          0
DTLB TOTAL     ACCESS:  171131117  HIT:  161114776  MISS:   10016341
DTLB LOAD      ACCESS:  143471914  HIT:  135595823  MISS:    7876091
DTLB RFO       ACCESS:   27659203  HIT:   25518953  MISS:    2140250
DTLB PREFETCH  ACCESS:          0  HIT:          0  MISS:          0
DTLB WRITEBACK ACCESS:          0  HIT:          0  MISS:          0
DTLB PREFETCH  REQUESTED:          0  ISSUED:          0  USEFUL:          0  USELESS:          0
DTLB TOTAL MSHR MERGED:     360470
DTLB LOAD MSHR MERGED:     360470
DTLB RFO MSHR MERGED:          0
DTLB PREFETCH MSHR MERGED:          0
DTLB WRITEBACK MSHR MERGED:          0
DTLB TOTAL ACCESSES:  171491587 HITS:  161114776 MISSES:   10376811
DTLB LOAD ACCESSES:  143832384 HITS:  135595823 MISSES:    8236561
DTLB RFO ACCESSES:   27659203 HITS:   25518953 MISSES:    2140250
DTLB PREFETCH ACCESSES:          0 HITS:          0 MISSES:          0
DTLB WRITEBACK ACCESSES:          0 HITS:          0 MISSES:          0
DTLB RQ ACCESS:  274072330
DTLB RQ TO_CACHE:  171491587
DTLB RQ MERGED:  102580743
DTLB RQ FORWARD:          0
DTLB WQ ACCESS:          0
DTLB WQ TO_CACHE:          0
DTLB WQ MERGED:          0
DTLB WQ FORWARD:          0
L1D TOTAL     ACCESS:  350948877  HIT:  283749710  MISS:   67199167
L1D LOAD      ACCESS:  175627466  HIT:  142588272  MISS:   33039194
L1D RFO       ACCESS:   42020052  HIT:   39214514  MISS:    2805538
L1D PREFETCH  ACCESS:  133301359  HIT:  101946924  MISS:   31354435
L1D WRITEBACK ACCESS:          0  HIT:          0  MISS:          0
L1D PREFETCH  REQUESTED:  176231489  ISSUED:  175293233  USEFUL:    2180581  USELESS:   29173856
L1D TOTAL MSHR MERGED:    1482709
L1D LOAD MSHR MERGED:     703974
L1D RFO MSHR MERGED:     349049
L1D PREFETCH MSHR MERGED:     429686
L1D WRITEBACK MSHR MERGED:          0
L1D TOTAL ACCESSES:  352543802 HITS:  283861926 MISSES:   68681876
L1D LOAD ACCESSES:  176237792 HITS:  142594575 MISSES:   33643217
L1D RFO ACCESSES:   42368420 HITS:   39214514 MISSES:    3153906
L1D PREFETCH ACCESSES:  133937590 HITS:  102052837 MISSES:   31884753
L1D WRITEBACK ACCESSES:          0 HITS:          0 MISSES:          0
L1D RQ ACCESS:  231433857
L1D RQ TO_CACHE:  176231489
L1D RQ MERGED:   55196065
L1D RQ FORWARD:          0
L1D WQ ACCESS:   42638475
L1D WQ TO_CACHE:   42368420
L1D WQ MERGED:     270055
L1D WQ FORWARD:     112216
L1I TOTAL     ACCESS:  109343710  HIT:   77828006  MISS:   31515704
L1I LOAD      ACCESS:  109343710  HIT:   77828006  MISS:   31515704
L1I RFO       ACCESS:          0  HIT:          0  MISS:          0
L1I PREFETCH  ACCESS:          0  HIT:          0  MISS:          0
L1I WRITEBACK ACCESS:          0  HIT:          0  MISS:          0
L1I PREFETCH  REQUESTED:          0  ISSUED:          0  USEFUL:          0  USELESS:          0
L1I TOTAL MSHR MERGED:   30750095
L1I LOAD MSHR MERGED:   30750095
L1I RFO MSHR MERGED:          0
L1I PREFETCH MSHR MERGED:          0
L1I WRITEBACK MSHR MERGED:          0
L1I TOTAL ACCESSES:  140093807 HITS:   77828006 MISSES:   62265801
L1I LOAD ACCESSES:  140093807 HITS:   77828006 MISSES:   62265801
L1I RFO ACCESSES:          0 HITS:          0 MISSES:          0
L1I PREFETCH ACCESSES:          0 HITS:          0 MISSES:          0
L1I WRITEBACK ACCESSES:          0 HITS:          0 MISSES:          0
L1I RQ ACCESS:  500000003
L1I RQ TO_CACHE:  140093807
L1I RQ MERGED:  359906196
L1I RQ FORWARD:          0
L1I WQ ACCESS:          0
L1I WQ TO_CACHE:          0
L1I WQ MERGED:          0
L1I WQ FORWARD:          0
L2C TOTAL     ACCESS:  113699780  HIT:  110697299  MISS:    3002481
L2C LOAD      ACCESS:   64453090  HIT:   63892517  MISS:     560573
L2C RFO       ACCESS:    2802966  HIT:    2193442  MISS:     609524
L2C PREFETCH  ACCESS:   43282754  HIT:   41456630  MISS:    1826124
L2C WRITEBACK ACCESS:    3160970  HIT:    3154710  MISS:       6260
L2C PREFETCH  REQUESTED:   15134589  ISSUED:   14620417  USEFUL:    1701018  USELESS:     125112
L2C TOTAL MSHR MERGED:      12873
L2C LOAD MSHR MERGED:          0
L2C RFO MSHR MERGED:          0
L2C PREFETCH MSHR MERGED:      12873
L2C WRITEBACK MSHR MERGED:          0
L2C TOTAL ACCESSES:  113904351 HITS:  110703159 MISSES:    3201192
L2C LOAD ACCESSES:   64454948 HITS:   63894374 MISSES:     560574
L2C RFO ACCESSES:    2804857 HITS:    2195333 MISSES:     609524
L2C PREFETCH ACCESSES:   43483576 HITS:   41458742 MISSES:    2024834
L2C WRITEBACK ACCESSES:    3160970 HITS:    3154710 MISSES:       6260
L2C RQ ACCESS:   67259806
L2C RQ TO_CACHE:   67256058
L2C RQ MERGED:          0
L2C RQ FORWARD:          0
L2C WQ ACCESS:    3160970
L2C WQ TO_CACHE:    3160970
L2C WQ MERGED:          0
L2C WQ FORWARD:       5860
LLC TOTAL     ACCESS:    3713336  HIT:    1847799  MISS:    1865537
LLC LOAD      ACCESS:     560544  HIT:     496661  MISS:      63883
LLC RFO       ACCESS:     527391  HIT:     239284  MISS:     288107
LLC PREFETCH  ACCESS:    2006859  HIT:     642058  MISS:    1364801
LLC WRITEBACK ACCESS:     618542  HIT:     469796  MISS:     148746
LLC PREFETCH  REQUESTED:          0  ISSUED:          0  USEFUL:      43760  USELESS:    1314624
LLC TOTAL MSHR MERGED:       4434
LLC LOAD MSHR MERGED:          0
LLC RFO MSHR MERGED:          0
LLC PREFETCH MSHR MERGED:       4434
LLC WRITEBACK MSHR MERGED:          0
LLC TOTAL ACCESSES:    3800017 HITS:    1930046 MISSES:    1869971
LLC LOAD ACCESSES:     560573 HITS:     496690 MISSES:      63883
LLC RFO ACCESSES:     609524 HITS:     321417 MISSES:     288107
LLC PREFETCH ACCESSES:    2011378 HITS:     642143 MISSES:    1369235
LLC WRITEBACK ACCESSES:     618542 HITS:     469796 MISSES:     148746
LLC 0 RQ ACCESS:    1170098
LLC 0 RQ TO_CACHE:    1087936
LLC 0 RQ MERGED:          0
LLC 0 RQ FORWARD:          0
LLC WQ ACCESS:     618542
LLC WQ TO_CACHE:     618542
LLC WQ MERGED:          0
LLC WQ FORWARD:      82247
Major fault: 0 Minor fault: 12800
CPU 0 L1D next line prefetcher final stats
CPU 0 L2C PC-based stride prefetcher final stats
All Misses: 2265397
All Hits: 2298889
SD Algo Stats - Switches: 0 SRR-Repls: 81440 BRR-Repls: 0

DRAM Statistics
 CHANNEL 0
 RQ ROW_BUFFER_HIT:     846539  ROW_BUFFER_MISS:     870245
 DBUS_CONGESTED:     911078
 WQ ROW_BUFFER_HIT:      30498  ROW_BUFFER_MISS:     261154  FULL:          0

 AVG_CONGESTED_CYCLE: 13
LOADS RETIRED: 239375970
INSTR RETIRED: 500000000
