
*** ChampSim Multicore Out-of-Order Simulator ***

Warmup Instructions: 100000000
Simulation Instructions: 500000000
Number of CPUs: 1
LLC sets: 2048
LLC ways: 16
Clean RRIP Policies: 2213230222132302 Dirty RRIP Policies: 1203131212031312 PSEL Width: 10 Track Set: 4294967295 PSEL Mask: 1 Demote Mask: 1040100010401000DS Algo: 0Window size: 0
Off-chip DRAM Size: 4096 MB Channels: 1 Width: 64-bit Data Rate: 1600 MT/s

CPU 0 runs /mnt/beegfs/iconst01/spec2017/x264.trace.gz
NOT SORTED
TRACE STRING: /mnt/beegfs/iconst01/spec2017/x264.trace.gz
SORTED
TRACE STRING: /mnt/beegfs/iconst01/spec2017/x264.trace.gz
INITIAL
TRACE STRING: /mnt/beegfs/iconst01/spec2017/x264.trace.gz

champsim_seed used: 276

CPU 0 L1D next line prefetcher
CPU 0 L2C IP-based stride prefetcher
Initialize DRRIP state
Assign rand_sets[0]: 454  LLC: 2048
rand_sets[0]: 454
Assign rand_sets[1]: 1662  LLC: 2048
rand_sets[1]: 1662
Assign rand_sets[2]: 1921  LLC: 2048
rand_sets[2]: 1921
Assign rand_sets[3]: 1131  LLC: 2048
rand_sets[3]: 1131
Assign rand_sets[4]: 331  LLC: 2048
rand_sets[4]: 331
Assign rand_sets[5]: 1531  LLC: 2048
rand_sets[5]: 1531
Assign rand_sets[6]: 482  LLC: 2048
rand_sets[6]: 482
Assign rand_sets[7]: 1275  LLC: 2048
rand_sets[7]: 1275
Assign rand_sets[8]: 1876  LLC: 2048
rand_sets[8]: 1876
Assign rand_sets[9]: 2038  LLC: 2048
rand_sets[9]: 2038
Assign rand_sets[10]: 701  LLC: 2048
rand_sets[10]: 701
Assign rand_sets[11]: 479  LLC: 2048
rand_sets[11]: 479
Assign rand_sets[12]: 892  LLC: 2048
rand_sets[12]: 892
Assign rand_sets[13]: 1820  LLC: 2048
rand_sets[13]: 1820
Assign rand_sets[14]: 1505  LLC: 2048
rand_sets[14]: 1505
Assign rand_sets[15]: 1159  LLC: 2048
rand_sets[15]: 1159
Assign rand_sets[16]: 513  LLC: 2048
rand_sets[16]: 513
Assign rand_sets[17]: 703  LLC: 2048
rand_sets[17]: 703
Assign rand_sets[18]: 561  LLC: 2048
rand_sets[18]: 561
Assign rand_sets[19]: 990  LLC: 2048
rand_sets[19]: 990
Assign rand_sets[20]: 342  LLC: 2048
rand_sets[20]: 342
Assign rand_sets[21]: 882  LLC: 2048
rand_sets[21]: 882
Assign rand_sets[22]: 15  LLC: 2048
rand_sets[22]: 15
Assign rand_sets[23]: 71  LLC: 2048
rand_sets[23]: 71
Assign rand_sets[24]: 1127  LLC: 2048
rand_sets[24]: 1127
Assign rand_sets[25]: 1382  LLC: 2048
rand_sets[25]: 1382
Assign rand_sets[26]: 647  LLC: 2048
rand_sets[26]: 647
Assign rand_sets[27]: 857  LLC: 2048
rand_sets[27]: 857
Assign rand_sets[28]: 1450  LLC: 2048
rand_sets[28]: 1450
Assign rand_sets[29]: 1160  LLC: 2048
rand_sets[29]: 1160
Assign rand_sets[30]: 1852  LLC: 2048
rand_sets[30]: 1852
Assign rand_sets[31]: 1881  LLC: 2048
rand_sets[31]: 1881
Assign rand_sets[32]: 1770  LLC: 2048
rand_sets[32]: 1770
Assign rand_sets[33]: 1622  LLC: 2048
rand_sets[33]: 1622
Assign rand_sets[34]: 275  LLC: 2048
rand_sets[34]: 275
Assign rand_sets[35]: 635  LLC: 2048
rand_sets[35]: 635
Assign rand_sets[36]: 466  LLC: 2048
rand_sets[36]: 466
Assign rand_sets[37]: 1413  LLC: 2048
rand_sets[37]: 1413
Assign rand_sets[38]: 417  LLC: 2048
rand_sets[38]: 417
Assign rand_sets[39]: 472  LLC: 2048
rand_sets[39]: 472
Assign rand_sets[40]: 1340  LLC: 2048
rand_sets[40]: 1340
Assign rand_sets[41]: 852  LLC: 2048
rand_sets[41]: 852
Assign rand_sets[42]: 1365  LLC: 2048
rand_sets[42]: 1365
Assign rand_sets[43]: 47  LLC: 2048
rand_sets[43]: 47
Assign rand_sets[44]: 823  LLC: 2048
rand_sets[44]: 823
Assign rand_sets[45]: 686  LLC: 2048
rand_sets[45]: 686
Assign rand_sets[46]: 1637  LLC: 2048
rand_sets[46]: 1637
Assign rand_sets[47]: 1115  LLC: 2048
rand_sets[47]: 1115
Assign rand_sets[48]: 986  LLC: 2048
rand_sets[48]: 986
Assign rand_sets[49]: 258  LLC: 2048
rand_sets[49]: 258
Assign rand_sets[50]: 633  LLC: 2048
rand_sets[50]: 633
Assign rand_sets[51]: 920  LLC: 2048
rand_sets[51]: 920
Assign rand_sets[52]: 204  LLC: 2048
rand_sets[52]: 204
Assign rand_sets[53]: 227  LLC: 2048
rand_sets[53]: 227
Assign rand_sets[54]: 1818  LLC: 2048
rand_sets[54]: 1818
Assign rand_sets[55]: 886  LLC: 2048
rand_sets[55]: 886
Assign rand_sets[56]: 1422  LLC: 2048
rand_sets[56]: 1422
Assign rand_sets[57]: 607  LLC: 2048
rand_sets[57]: 607
Assign rand_sets[58]: 217  LLC: 2048
rand_sets[58]: 217
Assign rand_sets[59]: 1945  LLC: 2048
rand_sets[59]: 1945
Assign rand_sets[60]: 143  LLC: 2048
rand_sets[60]: 143
Assign rand_sets[61]: 1311  LLC: 2048
rand_sets[61]: 1311
Assign rand_sets[62]: 319  LLC: 2048
rand_sets[62]: 319
Assign rand_sets[63]: 1846  LLC: 2048
rand_sets[63]: 1846
 CLEAN-RRIP-POLICY-1: 2-2-1-3-2-3-0-2- CLEAN-RRIP-POLICY-2: 2-2-1-3-2-3-0-2-
 DIRTY-RRIP-POLICY-1: 1-2-0-3-1-3-1-2- DIRTY-RRIP-POLICY-2: 1-2-0-3-1-3-1-2-
 PSEL width: 10
Heartbeat CPU 0 instructions: 10000000 cycles: 4124759 heartbeat IPC: 2.42438 cumulative IPC: 2.42438 (Simulation time: 0 hr 0 min 13 sec) 
Heartbeat CPU 0 instructions: 20000000 cycles: 8233863 heartbeat IPC: 2.43362 cumulative IPC: 2.42899 (Simulation time: 0 hr 0 min 26 sec) 
Heartbeat CPU 0 instructions: 30000003 cycles: 12464696 heartbeat IPC: 2.3636 cumulative IPC: 2.4068 (Simulation time: 0 hr 0 min 38 sec) 
Heartbeat CPU 0 instructions: 40000000 cycles: 16636669 heartbeat IPC: 2.39695 cumulative IPC: 2.40433 (Simulation time: 0 hr 0 min 51 sec) 
Heartbeat CPU 0 instructions: 50000000 cycles: 20699150 heartbeat IPC: 2.46155 cumulative IPC: 2.41556 (Simulation time: 0 hr 1 min 4 sec) 
Heartbeat CPU 0 instructions: 60000000 cycles: 25022635 heartbeat IPC: 2.31295 cumulative IPC: 2.39783 (Simulation time: 0 hr 1 min 17 sec) 
Heartbeat CPU 0 instructions: 70000000 cycles: 29370910 heartbeat IPC: 2.29976 cumulative IPC: 2.38331 (Simulation time: 0 hr 1 min 30 sec) 
Heartbeat CPU 0 instructions: 80000000 cycles: 33721041 heartbeat IPC: 2.29878 cumulative IPC: 2.37241 (Simulation time: 0 hr 1 min 42 sec) 
Heartbeat CPU 0 instructions: 90000002 cycles: 38032023 heartbeat IPC: 2.31966 cumulative IPC: 2.36643 (Simulation time: 0 hr 1 min 55 sec) 
Heartbeat CPU 0 instructions: 100000000 cycles: 42328937 heartbeat IPC: 2.32725 cumulative IPC: 2.36245 (Simulation time: 0 hr 2 min 8 sec) 

Warmup complete CPU 0 instructions: 100000001 cycles: 42328938 (Simulation time: 0 hr 2 min 8 sec) 

Heartbeat CPU 0 instructions: 110000001 cycles: 49382462 heartbeat IPC: 1.41773 cumulative IPC: 1.41773 (Simulation time: 0 hr 2 min 24 sec) 
Heartbeat CPU 0 instructions: 120000000 cycles: 58875830 heartbeat IPC: 1.05337 cumulative IPC: 1.20869 (Simulation time: 0 hr 2 min 42 sec) 
Heartbeat CPU 0 instructions: 130000000 cycles: 63683049 heartbeat IPC: 2.0802 cumulative IPC: 1.40488 (Simulation time: 0 hr 2 min 58 sec) 
Heartbeat CPU 0 instructions: 140000000 cycles: 68596418 heartbeat IPC: 2.03526 cumulative IPC: 1.5228 (Simulation time: 0 hr 3 min 14 sec) 
Heartbeat CPU 0 instructions: 150000002 cycles: 75429545 heartbeat IPC: 1.46346 cumulative IPC: 1.51055 (Simulation time: 0 hr 3 min 31 sec) 
Heartbeat CPU 0 instructions: 160000000 cycles: 83271832 heartbeat IPC: 1.27514 cumulative IPC: 1.46546 (Simulation time: 0 hr 3 min 48 sec) 
Heartbeat CPU 0 instructions: 170000000 cycles: 90673848 heartbeat IPC: 1.35098 cumulative IPC: 1.44793 (Simulation time: 0 hr 4 min 4 sec) 
Heartbeat CPU 0 instructions: 180000000 cycles: 97975643 heartbeat IPC: 1.36953 cumulative IPC: 1.43764 (Simulation time: 0 hr 4 min 20 sec) 
Heartbeat CPU 0 instructions: 190000002 cycles: 105143221 heartbeat IPC: 1.39517 cumulative IPC: 1.4328 (Simulation time: 0 hr 4 min 37 sec) 
Heartbeat CPU 0 instructions: 200000000 cycles: 112377569 heartbeat IPC: 1.38229 cumulative IPC: 1.42758 (Simulation time: 0 hr 4 min 53 sec) 
Heartbeat CPU 0 instructions: 210000000 cycles: 119251685 heartbeat IPC: 1.45473 cumulative IPC: 1.43001 (Simulation time: 0 hr 5 min 9 sec) 
Heartbeat CPU 0 instructions: 220000000 cycles: 126028463 heartbeat IPC: 1.47563 cumulative IPC: 1.4337 (Simulation time: 0 hr 5 min 25 sec) 
Heartbeat CPU 0 instructions: 230000003 cycles: 132755618 heartbeat IPC: 1.48651 cumulative IPC: 1.43763 (Simulation time: 0 hr 5 min 40 sec) 
Heartbeat CPU 0 instructions: 240000000 cycles: 139497123 heartbeat IPC: 1.48335 cumulative IPC: 1.4408 (Simulation time: 0 hr 5 min 56 sec) 
Heartbeat CPU 0 instructions: 250000001 cycles: 146224529 heartbeat IPC: 1.48646 cumulative IPC: 1.44376 (Simulation time: 0 hr 6 min 12 sec) 
Heartbeat CPU 0 instructions: 260000000 cycles: 152928728 heartbeat IPC: 1.4916 cumulative IPC: 1.44666 (Simulation time: 0 hr 6 min 28 sec) 
Heartbeat CPU 0 instructions: 270000001 cycles: 159903676 heartbeat IPC: 1.4337 cumulative IPC: 1.44589 (Simulation time: 0 hr 6 min 44 sec) 
Heartbeat CPU 0 instructions: 280000000 cycles: 167437880 heartbeat IPC: 1.32728 cumulative IPC: 1.43875 (Simulation time: 0 hr 7 min 0 sec) 
Heartbeat CPU 0 instructions: 290000000 cycles: 175352706 heartbeat IPC: 1.26345 cumulative IPC: 1.42832 (Simulation time: 0 hr 7 min 17 sec) 
Heartbeat CPU 0 instructions: 300000000 cycles: 183525738 heartbeat IPC: 1.22354 cumulative IPC: 1.41646 (Simulation time: 0 hr 7 min 34 sec) 
Heartbeat CPU 0 instructions: 310000002 cycles: 191837256 heartbeat IPC: 1.20315 cumulative IPC: 1.4046 (Simulation time: 0 hr 7 min 51 sec) 
Heartbeat CPU 0 instructions: 320000000 cycles: 201827440 heartbeat IPC: 1.00098 cumulative IPC: 1.37932 (Simulation time: 0 hr 8 min 10 sec) 
Heartbeat CPU 0 instructions: 330000002 cycles: 206460790 heartbeat IPC: 2.15827 cumulative IPC: 1.40131 (Simulation time: 0 hr 8 min 26 sec) 
Heartbeat CPU 0 instructions: 340000000 cycles: 211685480 heartbeat IPC: 1.91399 cumulative IPC: 1.41713 (Simulation time: 0 hr 8 min 42 sec) 
Heartbeat CPU 0 instructions: 350000000 cycles: 218905153 heartbeat IPC: 1.3851 cumulative IPC: 1.41582 (Simulation time: 0 hr 8 min 59 sec) 
Heartbeat CPU 0 instructions: 360000000 cycles: 226565580 heartbeat IPC: 1.30541 cumulative IPC: 1.41123 (Simulation time: 0 hr 9 min 16 sec) 
Heartbeat CPU 0 instructions: 370000000 cycles: 233973776 heartbeat IPC: 1.34986 cumulative IPC: 1.40886 (Simulation time: 0 hr 9 min 32 sec) 
Heartbeat CPU 0 instructions: 380000000 cycles: 241247462 heartbeat IPC: 1.37482 cumulative IPC: 1.40761 (Simulation time: 0 hr 9 min 49 sec) 
Heartbeat CPU 0 instructions: 390000000 cycles: 249361738 heartbeat IPC: 1.2324 cumulative IPC: 1.40074 (Simulation time: 0 hr 10 min 6 sec) 
Heartbeat CPU 0 instructions: 400000000 cycles: 257564625 heartbeat IPC: 1.21908 cumulative IPC: 1.39382 (Simulation time: 0 hr 10 min 23 sec) 
Heartbeat CPU 0 instructions: 410000001 cycles: 265380479 heartbeat IPC: 1.27945 cumulative IPC: 1.38981 (Simulation time: 0 hr 10 min 40 sec) 
Heartbeat CPU 0 instructions: 420000000 cycles: 273435133 heartbeat IPC: 1.24152 cumulative IPC: 1.38464 (Simulation time: 0 hr 10 min 57 sec) 
Heartbeat CPU 0 instructions: 430000001 cycles: 281692334 heartbeat IPC: 1.21106 cumulative IPC: 1.37866 (Simulation time: 0 hr 11 min 14 sec) 
Heartbeat CPU 0 instructions: 440000000 cycles: 289733255 heartbeat IPC: 1.24364 cumulative IPC: 1.37427 (Simulation time: 0 hr 11 min 31 sec) 
Heartbeat CPU 0 instructions: 450000001 cycles: 297601627 heartbeat IPC: 1.27091 cumulative IPC: 1.37108 (Simulation time: 0 hr 11 min 48 sec) 
Heartbeat CPU 0 instructions: 460000000 cycles: 307549482 heartbeat IPC: 1.00524 cumulative IPC: 1.35736 (Simulation time: 0 hr 12 min 7 sec) 
Heartbeat CPU 0 instructions: 470000002 cycles: 312176384 heartbeat IPC: 2.16127 cumulative IPC: 1.37115 (Simulation time: 0 hr 12 min 23 sec) 
Heartbeat CPU 0 instructions: 480000000 cycles: 317421719 heartbeat IPC: 1.90646 cumulative IPC: 1.38135 (Simulation time: 0 hr 12 min 39 sec) 
Heartbeat CPU 0 instructions: 490000001 cycles: 324736972 heartbeat IPC: 1.36701 cumulative IPC: 1.38098 (Simulation time: 0 hr 12 min 57 sec) 
Heartbeat CPU 0 instructions: 500000000 cycles: 333468355 heartbeat IPC: 1.14529 cumulative IPC: 1.37391 (Simulation time: 0 hr 13 min 16 sec) 
Heartbeat CPU 0 instructions: 510000002 cycles: 342200591 heartbeat IPC: 1.14518 cumulative IPC: 1.36725 (Simulation time: 0 hr 13 min 35 sec) 
Heartbeat CPU 0 instructions: 520000000 cycles: 350930621 heartbeat IPC: 1.14547 cumulative IPC: 1.36098 (Simulation time: 0 hr 13 min 54 sec) 
Heartbeat CPU 0 instructions: 530000000 cycles: 359637610 heartbeat IPC: 1.1485 cumulative IPC: 1.35515 (Simulation time: 0 hr 14 min 13 sec) 
Heartbeat CPU 0 instructions: 540000000 cycles: 367894185 heartbeat IPC: 1.21116 cumulative IPC: 1.3515 (Simulation time: 0 hr 14 min 32 sec) 
Heartbeat CPU 0 instructions: 550000000 cycles: 374932106 heartbeat IPC: 1.42087 cumulative IPC: 1.35296 (Simulation time: 0 hr 14 min 49 sec) 
Heartbeat CPU 0 instructions: 560000000 cycles: 381545703 heartbeat IPC: 1.51204 cumulative IPC: 1.35607 (Simulation time: 0 hr 15 min 5 sec) 
Heartbeat CPU 0 instructions: 570000002 cycles: 388138963 heartbeat IPC: 1.5167 cumulative IPC: 1.35913 (Simulation time: 0 hr 15 min 22 sec) 
Heartbeat CPU 0 instructions: 580000000 cycles: 394789522 heartbeat IPC: 1.50363 cumulative IPC: 1.36185 (Simulation time: 0 hr 15 min 38 sec) 
Heartbeat CPU 0 instructions: 590000002 cycles: 401476551 heartbeat IPC: 1.49543 cumulative IPC: 1.36434 (Simulation time: 0 hr 15 min 55 sec) 
Heartbeat CPU 0 instructions: 600000000 cycles: 408285894 heartbeat IPC: 1.46857 cumulative IPC: 1.36628 (Simulation time: 0 hr 16 min 11 sec) 
Finished CPU 0 instructions: 500000000 cycles: 365956964 cumulative IPC: 1.36628 (Simulation time: 0 hr 16 min 11 sec) 

CPU 0 Branch Prediction Accuracy: 93.4682% MPKI: 2.44079
Number of Branches: 18683822 Number of Mispredictions: 1220394
Number of LOAD Instructions: 142551610
Number of LOAD Instructions (ROI): 142551610
Number of STORE Instructions: 44807454
Number of STORE Instructions (ROI): 44807454
Total Destination Memory Operands: 48357071
Total Destination Memory Operands (ROI): 48357071
Total Source Memory Operands: 142551610
Total Source Memory Operands (ROI): 142551610
Number of DEPENDED LOADS: 7395143
Number of DEPENDED LOADS (ROI): 7395143
Number of SQ_ADDED: 48357051
Number of SQ_ADDED (ROI): 48357051
Number of LQ_ADDED: 157233557
Number of LQ_ADDED (ROI): 157233557
Number of Instructions read from trace: 600000256

ChampSim completed all CPUs

Region of Interest Statistics

CPU 0 cumulative IPC: 1.36628 instructions: 500000000 cycles: 365956964
ITLB TOTAL     ACCESS:   88176815  HIT:   88176746  MISS:         69
ITLB LOAD      ACCESS:   88176815  HIT:   88176746  MISS:         69
ITLB RFO       ACCESS:          0  HIT:          0  MISS:          0
ITLB PREFETCH  ACCESS:          0  HIT:          0  MISS:          0
ITLB WRITEBACK ACCESS:          0  HIT:          0  MISS:          0
ITLB PREFETCH  REQUESTED:          0  ISSUED:          0  USEFUL:          0  USELESS:          0
ITLB TOTAL MSHR MERGED:         85
ITLB LOAD MSHR MERGED:         85
ITLB RFO MSHR MERGED:          0
ITLB PREFETCH MSHR MERGED:          0
ITLB WRITEBACK MSHR MERGED:          0
ITLB TOTAL ACCESSES:   88176900 HITS:   88176746 MISSES:        154
ITLB LOAD ACCESSES:   88176900 HITS:   88176746 MISSES:        154
ITLB RFO ACCESSES:          0 HITS:          0 MISSES:          0
ITLB PREFETCH ACCESSES:          0 HITS:          0 MISSES:          0
ITLB WRITEBACK ACCESSES:          0 HITS:          0 MISSES:          0
ITLB RQ ACCESS:  500000000
ITLB RQ TO_CACHE:   88176900
ITLB RQ MERGED:  411823100
ITLB RQ FORWARD:          0
ITLB WQ ACCESS:          0
ITLB WQ TO_CACHE:          0
ITLB WQ MERGED:          0
ITLB WQ FORWARD:          0
DTLB TOTAL     ACCESS:   88202986  HIT:   88075571  MISS:     127415
DTLB LOAD      ACCESS:   59485207  HIT:   59392738  MISS:      92469
DTLB RFO       ACCESS:   28717779  HIT:   28682833  MISS:      34946
DTLB PREFETCH  ACCESS:          0  HIT:          0  MISS:          0
DTLB WRITEBACK ACCESS:          0  HIT:          0  MISS:          0
DTLB PREFETCH  REQUESTED:          0  ISSUED:          0  USEFUL:          0  USELESS:          0
DTLB TOTAL MSHR MERGED:     141191
DTLB LOAD MSHR MERGED:     107715
DTLB RFO MSHR MERGED:      33476
DTLB PREFETCH MSHR MERGED:          0
DTLB WRITEBACK MSHR MERGED:          0
DTLB TOTAL ACCESSES:   88344177 HITS:   88075571 MISSES:     268606
DTLB LOAD ACCESSES:   59592922 HITS:   59392738 MISSES:     200184
DTLB RFO ACCESSES:   28751255 HITS:   28682833 MISSES:      68422
DTLB PREFETCH ACCESSES:          0 HITS:          0 MISSES:          0
DTLB WRITEBACK ACCESSES:          0 HITS:          0 MISSES:          0
DTLB RQ ACCESS:  154558748
DTLB RQ TO_CACHE:   88344177
DTLB RQ MERGED:   66214571
DTLB RQ FORWARD:          0
DTLB WQ ACCESS:          0
DTLB WQ TO_CACHE:          0
DTLB WQ MERGED:          0
DTLB WQ FORWARD:          0
L1D TOTAL     ACCESS:  128101267  HIT:  124875628  MISS:    3225639
L1D LOAD      ACCESS:   53172149  HIT:   51976793  MISS:    1195356
L1D RFO       ACCESS:   37389511  HIT:   36775323  MISS:     614188
L1D PREFETCH  ACCESS:   37539607  HIT:   36123512  MISS:    1416095
L1D WRITEBACK ACCESS:          0  HIT:          0  MISS:          0
L1D PREFETCH  REQUESTED:   53656872  ISSUED:   52456903  USEFUL:     352071  USELESS:    1063989
L1D TOTAL MSHR MERGED:    2801360
L1D LOAD MSHR MERGED:     523450
L1D RFO MSHR MERGED:    1565103
L1D PREFETCH MSHR MERGED:     712807
L1D WRITEBACK MSHR MERGED:          0
L1D TOTAL ACCESSES:  130937578 HITS:  124910579 MISSES:    6026999
L1D LOAD ACCESSES:   53659818 HITS:   51979739 MISSES:    1680079
L1D RFO ACCESSES:   38952854 HITS:   36775323 MISSES:    2177531
L1D PREFETCH ACCESSES:   38324906 HITS:   36155517 MISSES:    2169389
L1D WRITEBACK ACCESSES:          0 HITS:          0 MISSES:          0
L1D RQ ACCESS:  113713856
L1D RQ TO_CACHE:   53656872
L1D RQ MERGED:   60054038
L1D RQ FORWARD:          0
L1D WQ ACCESS:   40844891
L1D WQ TO_CACHE:   38952854
L1D WQ MERGED:    1892037
L1D WQ FORWARD:      34951
L1I TOTAL     ACCESS:  108368655  HIT:  107809522  MISS:     559133
L1I LOAD      ACCESS:  108368655  HIT:  107809522  MISS:     559133
L1I RFO       ACCESS:          0  HIT:          0  MISS:          0
L1I PREFETCH  ACCESS:          0  HIT:          0  MISS:          0
L1I WRITEBACK ACCESS:          0  HIT:          0  MISS:          0
L1I PREFETCH  REQUESTED:          0  ISSUED:          0  USEFUL:          0  USELESS:          0
L1I TOTAL MSHR MERGED:     525692
L1I LOAD MSHR MERGED:     525692
L1I RFO MSHR MERGED:          0
L1I PREFETCH MSHR MERGED:          0
L1I WRITEBACK MSHR MERGED:          0
L1I TOTAL ACCESSES:  108894347 HITS:  107809522 MISSES:    1084825
L1I LOAD ACCESSES:  108894347 HITS:  107809522 MISSES:    1084825
L1I RFO ACCESSES:          0 HITS:          0 MISSES:          0
L1I PREFETCH ACCESSES:          0 HITS:          0 MISSES:          0
L1I WRITEBACK ACCESSES:          0 HITS:          0 MISSES:          0
L1I RQ ACCESS:  500000002
L1I RQ TO_CACHE:  108894347
L1I RQ MERGED:  391105655
L1I RQ FORWARD:          0
L1I WQ ACCESS:          0
L1I WQ TO_CACHE:          0
L1I WQ MERGED:          0
L1I WQ FORWARD:          0
L2C TOTAL     ACCESS:    4691938  HIT:    3865798  MISS:     826140
L2C LOAD      ACCESS:    1715648  HIT:    1562658  MISS:     152990
L2C RFO       ACCESS:     610989  HIT:     421194  MISS:     189795
L2C PREFETCH  ACCESS:    1662394  HIT:    1181225  MISS:     481169
L2C WRITEBACK ACCESS:     702907  HIT:     700721  MISS:       2186
L2C PREFETCH  REQUESTED:     256384  ISSUED:     256384  USEFUL:     173074  USELESS:     308761
L2C TOTAL MSHR MERGED:      13309
L2C LOAD MSHR MERGED:       4063
L2C RFO MSHR MERGED:          0
L2C PREFETCH MSHR MERGED:       9246
L2C WRITEBACK MSHR MERGED:          0
L2C TOTAL ACCESSES:    4712231 HITS:    3867417 MISSES:     844814
L2C LOAD ACCESSES:    1715762 HITS:    1562772 MISSES:     152990
L2C RFO ACCESSES:     612428 HITS:     422633 MISSES:     189795
L2C PREFETCH ACCESSES:    1681134 HITS:    1181291 MISSES:     499843
L2C WRITEBACK ACCESSES:     702907 HITS:     700721 MISSES:       2186
L2C RQ ACCESS:    2328190
L2C RQ TO_CACHE:    2326637
L2C RQ MERGED:          0
L2C RQ FORWARD:          0
L2C WQ ACCESS:     702907
L2C WQ TO_CACHE:     702907
L2C WQ MERGED:          0
L2C WQ FORWARD:       1619
LLC TOTAL     ACCESS:    1047764  HIT:     288607  MISS:     759157
LLC LOAD      ACCESS:     148923  HIT:      89898  MISS:      59025
LLC RFO       ACCESS:     189787  HIT:       6187  MISS:     183600
LLC PREFETCH  ACCESS:     488175  HIT:     153733  MISS:     334442
LLC WRITEBACK ACCESS:     220879  HIT:      38789  MISS:     182090
LLC PREFETCH  REQUESTED:          0  ISSUED:          0  USEFUL:       2174  USELESS:     332723
LLC TOTAL MSHR MERGED:       1675
LLC LOAD MSHR MERGED:        550
LLC RFO MSHR MERGED:          0
LLC PREFETCH MSHR MERGED:       1125
LLC WRITEBACK MSHR MERGED:          0
LLC TOTAL ACCESSES:    1049451 HITS:     288619 MISSES:     760832
LLC LOAD ACCESSES:     148927 HITS:      89902 MISSES:      59025
LLC RFO ACCESSES:     189795 HITS:       6195 MISSES:     183600
LLC PREFETCH ACCESSES:     489850 HITS:     153733 MISSES:     336117
LLC WRITEBACK ACCESSES:     220879 HITS:      38789 MISSES:     182090
LLC 0 RQ ACCESS:     338722
LLC 0 RQ TO_CACHE:     338710
LLC 0 RQ MERGED:          0
LLC 0 RQ FORWARD:          0
LLC WQ ACCESS:     220879
LLC WQ TO_CACHE:     220879
LLC WQ MERGED:          0
LLC WQ FORWARD:         12
Major fault: 0 Minor fault: 6811
CPU 0 L1D next line prefetcher final stats
CPU 0 L2C PC-based stride prefetcher final stats
All Misses: 898185
All Hits: 356562
SD Algo Stats - Switches: 0 SRR-Repls: 66416 BRR-Repls: 0

DRAM Statistics
 CHANNEL 0
 RQ ROW_BUFFER_HIT:     289068  ROW_BUFFER_MISS:     287920
 DBUS_CONGESTED:     399484
 WQ ROW_BUFFER_HIT:      24378  ROW_BUFFER_MISS:     191289  FULL:          0

 AVG_CONGESTED_CYCLE: 13
LOADS RETIRED: 119922929
INSTR RETIRED: 500000000
