
*** ChampSim Multicore Out-of-Order Simulator ***

Warmup Instructions: 100000000
Simulation Instructions: 500000000
Number of CPUs: 1
LLC sets: 2048
LLC ways: 16
Clean RRIP Policies: 2013230220132302 Dirty RRIP Policies: 1003130210031302 PSEL Width: 10 Track Set: 4294967295 PSEL Mask: 1 Demote Mask: 1040100010401000DS Algo: 0Window size: 0
Off-chip DRAM Size: 4096 MB Channels: 1 Width: 64-bit Data Rate: 1600 MT/s

CPU 0 runs /mnt/beegfs/iconst01/spec2017/Fotonik3d.trace.gz
NOT SORTED
TRACE STRING: /mnt/beegfs/iconst01/spec2017/Fotonik3d.trace.gz
SORTED
TRACE STRING: /mnt/beegfs/iconst01/spec2017/Fotonik3d.trace.gz
INITIAL
TRACE STRING: /mnt/beegfs/iconst01/spec2017/Fotonik3d.trace.gz

champsim_seed used: 881

CPU 0 L1D next line prefetcher
CPU 0 L2C IP-based stride prefetcher
Initialize DRRIP state
Assign rand_sets[0]: 454  LLC: 2048
rand_sets[0]: 454
Assign rand_sets[1]: 1662  LLC: 2048
rand_sets[1]: 1662
Assign rand_sets[2]: 1921  LLC: 2048
rand_sets[2]: 1921
Assign rand_sets[3]: 1131  LLC: 2048
rand_sets[3]: 1131
Assign rand_sets[4]: 331  LLC: 2048
rand_sets[4]: 331
Assign rand_sets[5]: 1531  LLC: 2048
rand_sets[5]: 1531
Assign rand_sets[6]: 482  LLC: 2048
rand_sets[6]: 482
Assign rand_sets[7]: 1275  LLC: 2048
rand_sets[7]: 1275
Assign rand_sets[8]: 1876  LLC: 2048
rand_sets[8]: 1876
Assign rand_sets[9]: 2038  LLC: 2048
rand_sets[9]: 2038
Assign rand_sets[10]: 701  LLC: 2048
rand_sets[10]: 701
Assign rand_sets[11]: 479  LLC: 2048
rand_sets[11]: 479
Assign rand_sets[12]: 892  LLC: 2048
rand_sets[12]: 892
Assign rand_sets[13]: 1820  LLC: 2048
rand_sets[13]: 1820
Assign rand_sets[14]: 1505  LLC: 2048
rand_sets[14]: 1505
Assign rand_sets[15]: 1159  LLC: 2048
rand_sets[15]: 1159
Assign rand_sets[16]: 513  LLC: 2048
rand_sets[16]: 513
Assign rand_sets[17]: 703  LLC: 2048
rand_sets[17]: 703
Assign rand_sets[18]: 561  LLC: 2048
rand_sets[18]: 561
Assign rand_sets[19]: 990  LLC: 2048
rand_sets[19]: 990
Assign rand_sets[20]: 342  LLC: 2048
rand_sets[20]: 342
Assign rand_sets[21]: 882  LLC: 2048
rand_sets[21]: 882
Assign rand_sets[22]: 15  LLC: 2048
rand_sets[22]: 15
Assign rand_sets[23]: 71  LLC: 2048
rand_sets[23]: 71
Assign rand_sets[24]: 1127  LLC: 2048
rand_sets[24]: 1127
Assign rand_sets[25]: 1382  LLC: 2048
rand_sets[25]: 1382
Assign rand_sets[26]: 647  LLC: 2048
rand_sets[26]: 647
Assign rand_sets[27]: 857  LLC: 2048
rand_sets[27]: 857
Assign rand_sets[28]: 1450  LLC: 2048
rand_sets[28]: 1450
Assign rand_sets[29]: 1160  LLC: 2048
rand_sets[29]: 1160
Assign rand_sets[30]: 1852  LLC: 2048
rand_sets[30]: 1852
Assign rand_sets[31]: 1881  LLC: 2048
rand_sets[31]: 1881
Assign rand_sets[32]: 1770  LLC: 2048
rand_sets[32]: 1770
Assign rand_sets[33]: 1622  LLC: 2048
rand_sets[33]: 1622
Assign rand_sets[34]: 275  LLC: 2048
rand_sets[34]: 275
Assign rand_sets[35]: 635  LLC: 2048
rand_sets[35]: 635
Assign rand_sets[36]: 466  LLC: 2048
rand_sets[36]: 466
Assign rand_sets[37]: 1413  LLC: 2048
rand_sets[37]: 1413
Assign rand_sets[38]: 417  LLC: 2048
rand_sets[38]: 417
Assign rand_sets[39]: 472  LLC: 2048
rand_sets[39]: 472
Assign rand_sets[40]: 1340  LLC: 2048
rand_sets[40]: 1340
Assign rand_sets[41]: 852  LLC: 2048
rand_sets[41]: 852
Assign rand_sets[42]: 1365  LLC: 2048
rand_sets[42]: 1365
Assign rand_sets[43]: 47  LLC: 2048
rand_sets[43]: 47
Assign rand_sets[44]: 823  LLC: 2048
rand_sets[44]: 823
Assign rand_sets[45]: 686  LLC: 2048
rand_sets[45]: 686
Assign rand_sets[46]: 1637  LLC: 2048
rand_sets[46]: 1637
Assign rand_sets[47]: 1115  LLC: 2048
rand_sets[47]: 1115
Assign rand_sets[48]: 986  LLC: 2048
rand_sets[48]: 986
Assign rand_sets[49]: 258  LLC: 2048
rand_sets[49]: 258
Assign rand_sets[50]: 633  LLC: 2048
rand_sets[50]: 633
Assign rand_sets[51]: 920  LLC: 2048
rand_sets[51]: 920
Assign rand_sets[52]: 204  LLC: 2048
rand_sets[52]: 204
Assign rand_sets[53]: 227  LLC: 2048
rand_sets[53]: 227
Assign rand_sets[54]: 1818  LLC: 2048
rand_sets[54]: 1818
Assign rand_sets[55]: 886  LLC: 2048
rand_sets[55]: 886
Assign rand_sets[56]: 1422  LLC: 2048
rand_sets[56]: 1422
Assign rand_sets[57]: 607  LLC: 2048
rand_sets[57]: 607
Assign rand_sets[58]: 217  LLC: 2048
rand_sets[58]: 217
Assign rand_sets[59]: 1945  LLC: 2048
rand_sets[59]: 1945
Assign rand_sets[60]: 143  LLC: 2048
rand_sets[60]: 143
Assign rand_sets[61]: 1311  LLC: 2048
rand_sets[61]: 1311
Assign rand_sets[62]: 319  LLC: 2048
rand_sets[62]: 319
Assign rand_sets[63]: 1846  LLC: 2048
rand_sets[63]: 1846
 CLEAN-RRIP-POLICY-1: 2-0-1-3-2-3-0-2- CLEAN-RRIP-POLICY-2: 2-0-1-3-2-3-0-2-
 DIRTY-RRIP-POLICY-1: 1-0-0-3-1-3-0-2- DIRTY-RRIP-POLICY-2: 1-0-0-3-1-3-0-2-
 PSEL width: 10
Heartbeat CPU 0 instructions: 10000002 cycles: 7306840 heartbeat IPC: 1.36858 cumulative IPC: 1.36858 (Simulation time: 0 hr 0 min 25 sec) 
Heartbeat CPU 0 instructions: 20000000 cycles: 14613894 heartbeat IPC: 1.36854 cumulative IPC: 1.36856 (Simulation time: 0 hr 0 min 49 sec) 
Heartbeat CPU 0 instructions: 30000001 cycles: 21920856 heartbeat IPC: 1.36856 cumulative IPC: 1.36856 (Simulation time: 0 hr 1 min 14 sec) 
Heartbeat CPU 0 instructions: 40000000 cycles: 29227692 heartbeat IPC: 1.36858 cumulative IPC: 1.36857 (Simulation time: 0 hr 1 min 38 sec) 
Heartbeat CPU 0 instructions: 50000001 cycles: 36534490 heartbeat IPC: 1.36859 cumulative IPC: 1.36857 (Simulation time: 0 hr 2 min 3 sec) 
Heartbeat CPU 0 instructions: 60000000 cycles: 43841556 heartbeat IPC: 1.36854 cumulative IPC: 1.36856 (Simulation time: 0 hr 2 min 28 sec) 
Heartbeat CPU 0 instructions: 70000002 cycles: 51148406 heartbeat IPC: 1.36858 cumulative IPC: 1.36857 (Simulation time: 0 hr 2 min 52 sec) 
Heartbeat CPU 0 instructions: 80000000 cycles: 58455214 heartbeat IPC: 1.36859 cumulative IPC: 1.36857 (Simulation time: 0 hr 3 min 17 sec) 
Heartbeat CPU 0 instructions: 90000003 cycles: 65765871 heartbeat IPC: 1.36787 cumulative IPC: 1.36849 (Simulation time: 0 hr 3 min 41 sec) 
Heartbeat CPU 0 instructions: 100000000 cycles: 73076550 heartbeat IPC: 1.36786 cumulative IPC: 1.36843 (Simulation time: 0 hr 4 min 6 sec) 

Warmup complete CPU 0 instructions: 100000002 cycles: 73076562 (Simulation time: 0 hr 4 min 6 sec) 

Heartbeat CPU 0 instructions: 110000001 cycles: 85614019 heartbeat IPC: 0.797609 cumulative IPC: 0.79761 (Simulation time: 0 hr 4 min 35 sec) 
Heartbeat CPU 0 instructions: 120000000 cycles: 98095521 heartbeat IPC: 0.801186 cumulative IPC: 0.799394 (Simulation time: 0 hr 5 min 4 sec) 
Heartbeat CPU 0 instructions: 130000000 cycles: 110637177 heartbeat IPC: 0.797343 cumulative IPC: 0.798709 (Simulation time: 0 hr 5 min 34 sec) 
Heartbeat CPU 0 instructions: 140000000 cycles: 123147598 heartbeat IPC: 0.799334 cumulative IPC: 0.798865 (Simulation time: 0 hr 6 min 3 sec) 
Heartbeat CPU 0 instructions: 150000000 cycles: 135622408 heartbeat IPC: 0.801615 cumulative IPC: 0.799414 (Simulation time: 0 hr 6 min 32 sec) 
Heartbeat CPU 0 instructions: 160000000 cycles: 148136779 heartbeat IPC: 0.799081 cumulative IPC: 0.799358 (Simulation time: 0 hr 7 min 1 sec) 
Heartbeat CPU 0 instructions: 170000001 cycles: 160649721 heartbeat IPC: 0.799173 cumulative IPC: 0.799332 (Simulation time: 0 hr 7 min 30 sec) 
Heartbeat CPU 0 instructions: 180000000 cycles: 173164422 heartbeat IPC: 0.79906 cumulative IPC: 0.799298 (Simulation time: 0 hr 7 min 59 sec) 
Heartbeat CPU 0 instructions: 190000000 cycles: 185707159 heartbeat IPC: 0.797274 cumulative IPC: 0.799072 (Simulation time: 0 hr 8 min 29 sec) 
Heartbeat CPU 0 instructions: 200000000 cycles: 198201298 heartbeat IPC: 0.800375 cumulative IPC: 0.799202 (Simulation time: 0 hr 8 min 58 sec) 
Heartbeat CPU 0 instructions: 210000002 cycles: 210768766 heartbeat IPC: 0.795705 cumulative IPC: 0.798883 (Simulation time: 0 hr 9 min 27 sec) 
Heartbeat CPU 0 instructions: 220000000 cycles: 223320819 heartbeat IPC: 0.796682 cumulative IPC: 0.798699 (Simulation time: 0 hr 9 min 56 sec) 
Heartbeat CPU 0 instructions: 230000002 cycles: 235822493 heartbeat IPC: 0.799893 cumulative IPC: 0.798791 (Simulation time: 0 hr 10 min 25 sec) 
Heartbeat CPU 0 instructions: 240000000 cycles: 249045345 heartbeat IPC: 0.756266 cumulative IPC: 0.795596 (Simulation time: 0 hr 10 min 55 sec) 
Heartbeat CPU 0 instructions: 250000001 cycles: 266343516 heartbeat IPC: 0.578096 cumulative IPC: 0.776129 (Simulation time: 0 hr 11 min 26 sec) 
Heartbeat CPU 0 instructions: 260000000 cycles: 283545177 heartbeat IPC: 0.581339 cumulative IPC: 0.760208 (Simulation time: 0 hr 11 min 58 sec) 
Heartbeat CPU 0 instructions: 270000000 cycles: 300798161 heartbeat IPC: 0.57961 cumulative IPC: 0.746526 (Simulation time: 0 hr 12 min 30 sec) 
Heartbeat CPU 0 instructions: 280000000 cycles: 318028890 heartbeat IPC: 0.580359 cumulative IPC: 0.734837 (Simulation time: 0 hr 13 min 2 sec) 
Heartbeat CPU 0 instructions: 290000000 cycles: 346543896 heartbeat IPC: 0.350693 cumulative IPC: 0.694781 (Simulation time: 0 hr 13 min 41 sec) 
Heartbeat CPU 0 instructions: 300000000 cycles: 383474656 heartbeat IPC: 0.270777 cumulative IPC: 0.644334 (Simulation time: 0 hr 14 min 26 sec) 
Heartbeat CPU 0 instructions: 310000000 cycles: 400095530 heartbeat IPC: 0.601653 cumulative IPC: 0.642165 (Simulation time: 0 hr 14 min 57 sec) 
Heartbeat CPU 0 instructions: 320000000 cycles: 416701897 heartbeat IPC: 0.602179 cumulative IPC: 0.640232 (Simulation time: 0 hr 15 min 28 sec) 
Heartbeat CPU 0 instructions: 330000003 cycles: 433333833 heartbeat IPC: 0.601253 cumulative IPC: 0.638433 (Simulation time: 0 hr 15 min 59 sec) 
Heartbeat CPU 0 instructions: 340000000 cycles: 449911547 heartbeat IPC: 0.603219 cumulative IPC: 0.636884 (Simulation time: 0 hr 16 min 30 sec) 
Heartbeat CPU 0 instructions: 350000001 cycles: 464707215 heartbeat IPC: 0.675874 cumulative IPC: 0.638357 (Simulation time: 0 hr 17 min 0 sec) 
Heartbeat CPU 0 instructions: 360000000 cycles: 476643016 heartbeat IPC: 0.837815 cumulative IPC: 0.644256 (Simulation time: 0 hr 17 min 27 sec) 
Heartbeat CPU 0 instructions: 370000002 cycles: 488344430 heartbeat IPC: 0.854598 cumulative IPC: 0.650183 (Simulation time: 0 hr 17 min 54 sec) 
Heartbeat CPU 0 instructions: 380000000 cycles: 500237755 heartbeat IPC: 0.840808 cumulative IPC: 0.65549 (Simulation time: 0 hr 18 min 21 sec) 
Heartbeat CPU 0 instructions: 390000003 cycles: 513599940 heartbeat IPC: 0.748381 cumulative IPC: 0.658308 (Simulation time: 0 hr 18 min 49 sec) 
Heartbeat CPU 0 instructions: 400000000 cycles: 525898358 heartbeat IPC: 0.813112 cumulative IPC: 0.662512 (Simulation time: 0 hr 19 min 17 sec) 
Heartbeat CPU 0 instructions: 410000002 cycles: 537905436 heartbeat IPC: 0.832842 cumulative IPC: 0.666912 (Simulation time: 0 hr 19 min 45 sec) 
Heartbeat CPU 0 instructions: 420000000 cycles: 550764281 heartbeat IPC: 0.777675 cumulative IPC: 0.669894 (Simulation time: 0 hr 20 min 13 sec) 
Heartbeat CPU 0 instructions: 430000003 cycles: 569346519 heartbeat IPC: 0.538148 cumulative IPC: 0.664961 (Simulation time: 0 hr 20 min 38 sec) 
Heartbeat CPU 0 instructions: 440000000 cycles: 587907606 heartbeat IPC: 0.538761 cumulative IPC: 0.660411 (Simulation time: 0 hr 21 min 3 sec) 
Heartbeat CPU 0 instructions: 450000003 cycles: 606508637 heartbeat IPC: 0.537605 cumulative IPC: 0.656129 (Simulation time: 0 hr 21 min 28 sec) 
Heartbeat CPU 0 instructions: 460000000 cycles: 625071968 heartbeat IPC: 0.538696 cumulative IPC: 0.652179 (Simulation time: 0 hr 21 min 53 sec) 
Heartbeat CPU 0 instructions: 470000003 cycles: 643659978 heartbeat IPC: 0.537981 cumulative IPC: 0.648459 (Simulation time: 0 hr 22 min 18 sec) 
Heartbeat CPU 0 instructions: 480000000 cycles: 662242819 heartbeat IPC: 0.538131 cumulative IPC: 0.644979 (Simulation time: 0 hr 22 min 43 sec) 
Heartbeat CPU 0 instructions: 490000003 cycles: 680841806 heartbeat IPC: 0.537664 cumulative IPC: 0.641695 (Simulation time: 0 hr 23 min 8 sec) 
Heartbeat CPU 0 instructions: 500000000 cycles: 699390770 heartbeat IPC: 0.539114 cumulative IPC: 0.638657 (Simulation time: 0 hr 23 min 34 sec) 
Heartbeat CPU 0 instructions: 510000003 cycles: 717979917 heartbeat IPC: 0.537948 cumulative IPC: 0.635754 (Simulation time: 0 hr 23 min 59 sec) 
Heartbeat CPU 0 instructions: 520000000 cycles: 736527532 heartbeat IPC: 0.539153 cumulative IPC: 0.633054 (Simulation time: 0 hr 24 min 24 sec) 
Heartbeat CPU 0 instructions: 530000001 cycles: 755113445 heartbeat IPC: 0.538042 cumulative IPC: 0.630464 (Simulation time: 0 hr 24 min 49 sec) 
Heartbeat CPU 0 instructions: 540000000 cycles: 773630041 heartbeat IPC: 0.540056 cumulative IPC: 0.628075 (Simulation time: 0 hr 25 min 14 sec) 
Heartbeat CPU 0 instructions: 550000001 cycles: 792145191 heartbeat IPC: 0.540098 cumulative IPC: 0.62581 (Simulation time: 0 hr 25 min 39 sec) 
Heartbeat CPU 0 instructions: 560000000 cycles: 810681498 heartbeat IPC: 0.539482 cumulative IPC: 0.62364 (Simulation time: 0 hr 26 min 5 sec) 
Heartbeat CPU 0 instructions: 570000001 cycles: 829188436 heartbeat IPC: 0.540338 cumulative IPC: 0.621601 (Simulation time: 0 hr 26 min 30 sec) 
Heartbeat CPU 0 instructions: 580000000 cycles: 847649503 heartbeat IPC: 0.54168 cumulative IPC: 0.619696 (Simulation time: 0 hr 26 min 55 sec) 
Heartbeat CPU 0 instructions: 590000001 cycles: 866165736 heartbeat IPC: 0.540067 cumulative IPC: 0.617837 (Simulation time: 0 hr 27 min 20 sec) 
Heartbeat CPU 0 instructions: 600000000 cycles: 884690090 heartbeat IPC: 0.53983 cumulative IPC: 0.616057 (Simulation time: 0 hr 27 min 45 sec) 
Finished CPU 0 instructions: 500000002 cycles: 811613542 cumulative IPC: 0.616057 (Simulation time: 0 hr 27 min 45 sec) 

CPU 0 Branch Prediction Accuracy: 99.5931% MPKI: 0.08288
Number of Branches: 10184133 Number of Mispredictions: 41440
Number of LOAD Instructions: 261155957
Number of LOAD Instructions (ROI): 261155957
Number of STORE Instructions: 57884062
Number of STORE Instructions (ROI): 57884062
Total Destination Memory Operands: 83293336
Total Destination Memory Operands (ROI): 83293336
Total Source Memory Operands: 261155957
Total Source Memory Operands (ROI): 261155957
Number of DEPENDED LOADS: 22257163
Number of DEPENDED LOADS (ROI): 22257163
Number of SQ_ADDED: 83293300
Number of SQ_ADDED (ROI): 83293300
Number of LQ_ADDED: 1779310137
Number of LQ_ADDED (ROI): 1779310137
Number of Instructions read from trace: 600000257

ChampSim completed all CPUs

Region of Interest Statistics

CPU 0 cumulative IPC: 0.616057 instructions: 500000002 cycles: 811613542
ITLB TOTAL     ACCESS:   94674451  HIT:   94674413  MISS:         38
ITLB LOAD      ACCESS:   94674451  HIT:   94674413  MISS:         38
ITLB RFO       ACCESS:          0  HIT:          0  MISS:          0
ITLB PREFETCH  ACCESS:          0  HIT:          0  MISS:          0
ITLB WRITEBACK ACCESS:          0  HIT:          0  MISS:          0
ITLB PREFETCH  REQUESTED:          0  ISSUED:          0  USEFUL:          0  USELESS:          0
ITLB TOTAL MSHR MERGED:         93
ITLB LOAD MSHR MERGED:         93
ITLB RFO MSHR MERGED:          0
ITLB PREFETCH MSHR MERGED:          0
ITLB WRITEBACK MSHR MERGED:          0
ITLB TOTAL ACCESSES:   94674544 HITS:   94674413 MISSES:        131
ITLB LOAD ACCESSES:   94674544 HITS:   94674413 MISSES:        131
ITLB RFO ACCESSES:          0 HITS:          0 MISSES:          0
ITLB PREFETCH ACCESSES:          0 HITS:          0 MISSES:          0
ITLB WRITEBACK ACCESSES:          0 HITS:          0 MISSES:          0
ITLB RQ ACCESS:  500000001
ITLB RQ TO_CACHE:   94674545
ITLB RQ MERGED:  405325456
ITLB RQ FORWARD:          0
ITLB WQ ACCESS:          0
ITLB WQ TO_CACHE:          0
ITLB WQ MERGED:          0
ITLB WQ FORWARD:          0
DTLB TOTAL     ACCESS:  149175594  HIT:  148578634  MISS:     596960
DTLB LOAD      ACCESS:  107301931  HIT:  106704982  MISS:     596949
DTLB RFO       ACCESS:   41873663  HIT:   41873652  MISS:         11
DTLB PREFETCH  ACCESS:          0  HIT:          0  MISS:          0
DTLB WRITEBACK ACCESS:          0  HIT:          0  MISS:          0
DTLB PREFETCH  REQUESTED:          0  ISSUED:          0  USEFUL:          0  USELESS:          0
DTLB TOTAL MSHR MERGED:     134194
DTLB LOAD MSHR MERGED:     134194
DTLB RFO MSHR MERGED:          0
DTLB PREFETCH MSHR MERGED:          0
DTLB WRITEBACK MSHR MERGED:          0
DTLB TOTAL ACCESSES:  149309788 HITS:  148578634 MISSES:     731154
DTLB LOAD ACCESSES:  107436125 HITS:  106704982 MISSES:     731143
DTLB RFO ACCESSES:   41873663 HITS:   41873652 MISSES:         11
DTLB PREFETCH ACCESSES:          0 HITS:          0 MISSES:          0
DTLB WRITEBACK ACCESSES:          0 HITS:          0 MISSES:          0
DTLB RQ ACCESS:  259758731
DTLB RQ TO_CACHE:  149309788
DTLB RQ MERGED:  110448943
DTLB RQ FORWARD:          0
DTLB WQ ACCESS:          0
DTLB WQ TO_CACHE:          0
DTLB WQ MERGED:          0
DTLB WQ FORWARD:          0
L1D TOTAL     ACCESS:  261045173  HIT:  245647295  MISS:   15397878
L1D LOAD      ACCESS:  118063861  HIT:  112561745  MISS:    5502116
L1D RFO       ACCESS:   68946874  HIT:   68932465  MISS:      14409
L1D PREFETCH  ACCESS:   74034438  HIT:   64153085  MISS:    9881353
L1D WRITEBACK ACCESS:          0  HIT:          0  MISS:          0
L1D PREFETCH  REQUESTED:  120652738  ISSUED:  119079648  USEFUL:    8010437  USELESS:    1870938
L1D TOTAL MSHR MERGED:   16518053
L1D LOAD MSHR MERGED:    5000917
L1D RFO MSHR MERGED:      21701
L1D PREFETCH MSHR MERGED:   11495435
L1D WRITEBACK MSHR MERGED:          0
L1D TOTAL ACCESSES:  277673352 HITS:  245757421 MISSES:   31915931
L1D LOAD ACCESSES:  120660262 HITS:  112569269 MISSES:    8090993
L1D RFO ACCESSES:   68968573 HITS:   68932465 MISSES:      36108
L1D PREFETCH ACCESSES:   88044517 HITS:   64255687 MISSES:   23788830
L1D WRITEBACK ACCESSES:          0 HITS:          0 MISSES:          0
L1D RQ ACCESS:  190684415
L1D RQ TO_CACHE:  120652738
L1D RQ MERGED:   70024153
L1D RQ FORWARD:          0
L1D WQ ACCESS:   69074336
L1D WQ TO_CACHE:   68968575
L1D WQ MERGED:     105761
L1D WQ FORWARD:     110126
L1I TOTAL     ACCESS:  121585484  HIT:  121584411  MISS:       1073
L1I LOAD      ACCESS:  121585484  HIT:  121584411  MISS:       1073
L1I RFO       ACCESS:          0  HIT:          0  MISS:          0
L1I PREFETCH  ACCESS:          0  HIT:          0  MISS:          0
L1I WRITEBACK ACCESS:          0  HIT:          0  MISS:          0
L1I PREFETCH  REQUESTED:          0  ISSUED:          0  USEFUL:          0  USELESS:          0
L1I TOTAL MSHR MERGED:       1083
L1I LOAD MSHR MERGED:       1083
L1I RFO MSHR MERGED:          0
L1I PREFETCH MSHR MERGED:          0
L1I WRITEBACK MSHR MERGED:          0
L1I TOTAL ACCESSES:  121586567 HITS:  121584411 MISSES:       2156
L1I LOAD ACCESSES:  121586567 HITS:  121584411 MISSES:       2156
L1I RFO ACCESSES:          0 HITS:          0 MISSES:          0
L1I PREFETCH ACCESSES:          0 HITS:          0 MISSES:          0
L1I WRITEBACK ACCESSES:          0 HITS:          0 MISSES:          0
L1I RQ ACCESS:  500000000
L1I RQ TO_CACHE:  121586567
L1I RQ MERGED:  378413433
L1I RQ FORWARD:          0
L1I WQ ACCESS:          0
L1I WQ TO_CACHE:          0
L1I WQ MERGED:          0
L1I WQ FORWARD:          0
L2C TOTAL     ACCESS:   22470078  HIT:    9151181  MISS:   13318897
L2C LOAD      ACCESS:    3091110  HIT:     416452  MISS:    2674658
L2C RFO       ACCESS:      14407  HIT:      13992  MISS:        415
L2C PREFETCH  ACCESS:   12734638  HIT:    2092628  MISS:   10642010
L2C WRITEBACK ACCESS:    6629923  HIT:    6628109  MISS:       1814
L2C PREFETCH  REQUESTED:     694333  ISSUED:     694333  USEFUL:     185999  USELESS:   10456808
L2C TOTAL MSHR MERGED:      71632
L2C LOAD MSHR MERGED:      22432
L2C RFO MSHR MERGED:          0
L2C PREFETCH MSHR MERGED:      49200
L2C WRITEBACK MSHR MERGED:          0
L2C TOTAL ACCESSES:   22683152 HITS:    9151237 MISSES:   13531915
L2C LOAD ACCESSES:    3091149 HITS:     416491 MISSES:    2674658
L2C RFO ACCESSES:      14407 HITS:      13992 MISSES:        415
L2C PREFETCH ACCESSES:   12947673 HITS:    2092645 MISSES:   10855028
L2C WRITEBACK ACCESSES:    6629923 HITS:    6628109 MISSES:       1814
L2C RQ ACCESS:    3105556
L2C RQ TO_CACHE:    3105517
L2C RQ MERGED:          0
L2C RQ FORWARD:          0
L2C WQ ACCESS:    6629923
L2C WQ TO_CACHE:    6629923
L2C WQ MERGED:          0
L2C WQ FORWARD:         56
LLC TOTAL     ACCESS:   20026967  HIT:    1922729  MISS:   18104238
LLC LOAD      ACCESS:    2652225  HIT:     386955  MISS:    2265270
LLC RFO       ACCESS:        415  HIT:         20  MISS:        395
LLC PREFETCH  ACCESS:   10783073  HIT:     113643  MISS:   10669430
LLC WRITEBACK ACCESS:    6591254  HIT:    1422111  MISS:    5169143
LLC PREFETCH  REQUESTED:          0  ISSUED:          0  USEFUL:      46939  USELESS:   10623463
LLC TOTAL MSHR MERGED:      21309
LLC LOAD MSHR MERGED:       9838
LLC RFO MSHR MERGED:          0
LLC PREFETCH MSHR MERGED:      11471
LLC WRITEBACK MSHR MERGED:          0
LLC TOTAL ACCESSES:   20048280 HITS:    1922732 MISSES:   18125548
LLC LOAD ACCESSES:    2652226 HITS:     386956 MISSES:    2265270
LLC RFO ACCESSES:        415 HITS:         20 MISSES:        395
LLC PREFETCH ACCESSES:   10804385 HITS:     113645 MISSES:   10690740
LLC WRITEBACK ACCESSES:    6591254 HITS:    1422111 MISSES:    5169143
LLC 0 RQ ACCESS:    2652641
LLC 0 RQ TO_CACHE:    2652640
LLC 0 RQ MERGED:          0
LLC 0 RQ FORWARD:          0
LLC WQ ACCESS:    6591255
LLC WQ TO_CACHE:    6591255
LLC WQ MERGED:          0
LLC WQ FORWARD:          3
Major fault: 0 Minor fault: 183991
CPU 0 L1D next line prefetcher final stats
CPU 0 L2C PC-based stride prefetcher final stats
All Misses: 20979823
All Hits: 1978190
SD Algo Stats - Switches: 0 SRR-Repls: 2331604 BRR-Repls: 0

DRAM Statistics
 CHANNEL 0
 RQ ROW_BUFFER_HIT:    7182644  ROW_BUFFER_MISS:    5752452
 DBUS_CONGESTED:   11386387
 WQ ROW_BUFFER_HIT:    1047485  ROW_BUFFER_MISS:    5540241  FULL:          0

 AVG_CONGESTED_CYCLE: 13
LOADS RETIRED: 204440772
INSTR RETIRED: 500000000
