
*** ChampSim Multicore Out-of-Order Simulator ***

Warmup Instructions: 100000000
Simulation Instructions: 500000000
Number of CPUs: 1
LLC sets: 2048
LLC ways: 16
Clean RRIP Policies: 323002303230023 Dirty RRIP Policies: 2303200323032003 PSEL Width: 10 Track Set: 4294967295 PSEL Mask: 1 Demote Mask: 2303143323031433DS Algo: 0Window size: 0
Off-chip DRAM Size: 4096 MB Channels: 1 Width: 64-bit Data Rate: 1600 MT/s

CPU 0 runs /mnt/beegfs/iconst01/spec2017/Gcc.trace.gz
NOT SORTED
TRACE STRING: /mnt/beegfs/iconst01/spec2017/Gcc.trace.gz
SORTED
TRACE STRING: /mnt/beegfs/iconst01/spec2017/Gcc.trace.gz
INITIAL
TRACE STRING: /mnt/beegfs/iconst01/spec2017/Gcc.trace.gz

champsim_seed used: 269

CPU 0 L1D next line prefetcher
CPU 0 L2C IP-based stride prefetcher
Initialize DRRIP state
Assign rand_sets[0]: 454  LLC: 2048
rand_sets[0]: 454
Assign rand_sets[1]: 1662  LLC: 2048
rand_sets[1]: 1662
Assign rand_sets[2]: 1921  LLC: 2048
rand_sets[2]: 1921
Assign rand_sets[3]: 1131  LLC: 2048
rand_sets[3]: 1131
Assign rand_sets[4]: 331  LLC: 2048
rand_sets[4]: 331
Assign rand_sets[5]: 1531  LLC: 2048
rand_sets[5]: 1531
Assign rand_sets[6]: 482  LLC: 2048
rand_sets[6]: 482
Assign rand_sets[7]: 1275  LLC: 2048
rand_sets[7]: 1275
Assign rand_sets[8]: 1876  LLC: 2048
rand_sets[8]: 1876
Assign rand_sets[9]: 2038  LLC: 2048
rand_sets[9]: 2038
Assign rand_sets[10]: 701  LLC: 2048
rand_sets[10]: 701
Assign rand_sets[11]: 479  LLC: 2048
rand_sets[11]: 479
Assign rand_sets[12]: 892  LLC: 2048
rand_sets[12]: 892
Assign rand_sets[13]: 1820  LLC: 2048
rand_sets[13]: 1820
Assign rand_sets[14]: 1505  LLC: 2048
rand_sets[14]: 1505
Assign rand_sets[15]: 1159  LLC: 2048
rand_sets[15]: 1159
Assign rand_sets[16]: 513  LLC: 2048
rand_sets[16]: 513
Assign rand_sets[17]: 703  LLC: 2048
rand_sets[17]: 703
Assign rand_sets[18]: 561  LLC: 2048
rand_sets[18]: 561
Assign rand_sets[19]: 990  LLC: 2048
rand_sets[19]: 990
Assign rand_sets[20]: 342  LLC: 2048
rand_sets[20]: 342
Assign rand_sets[21]: 882  LLC: 2048
rand_sets[21]: 882
Assign rand_sets[22]: 15  LLC: 2048
rand_sets[22]: 15
Assign rand_sets[23]: 71  LLC: 2048
rand_sets[23]: 71
Assign rand_sets[24]: 1127  LLC: 2048
rand_sets[24]: 1127
Assign rand_sets[25]: 1382  LLC: 2048
rand_sets[25]: 1382
Assign rand_sets[26]: 647  LLC: 2048
rand_sets[26]: 647
Assign rand_sets[27]: 857  LLC: 2048
rand_sets[27]: 857
Assign rand_sets[28]: 1450  LLC: 2048
rand_sets[28]: 1450
Assign rand_sets[29]: 1160  LLC: 2048
rand_sets[29]: 1160
Assign rand_sets[30]: 1852  LLC: 2048
rand_sets[30]: 1852
Assign rand_sets[31]: 1881  LLC: 2048
rand_sets[31]: 1881
Assign rand_sets[32]: 1770  LLC: 2048
rand_sets[32]: 1770
Assign rand_sets[33]: 1622  LLC: 2048
rand_sets[33]: 1622
Assign rand_sets[34]: 275  LLC: 2048
rand_sets[34]: 275
Assign rand_sets[35]: 635  LLC: 2048
rand_sets[35]: 635
Assign rand_sets[36]: 466  LLC: 2048
rand_sets[36]: 466
Assign rand_sets[37]: 1413  LLC: 2048
rand_sets[37]: 1413
Assign rand_sets[38]: 417  LLC: 2048
rand_sets[38]: 417
Assign rand_sets[39]: 472  LLC: 2048
rand_sets[39]: 472
Assign rand_sets[40]: 1340  LLC: 2048
rand_sets[40]: 1340
Assign rand_sets[41]: 852  LLC: 2048
rand_sets[41]: 852
Assign rand_sets[42]: 1365  LLC: 2048
rand_sets[42]: 1365
Assign rand_sets[43]: 47  LLC: 2048
rand_sets[43]: 47
Assign rand_sets[44]: 823  LLC: 2048
rand_sets[44]: 823
Assign rand_sets[45]: 686  LLC: 2048
rand_sets[45]: 686
Assign rand_sets[46]: 1637  LLC: 2048
rand_sets[46]: 1637
Assign rand_sets[47]: 1115  LLC: 2048
rand_sets[47]: 1115
Assign rand_sets[48]: 986  LLC: 2048
rand_sets[48]: 986
Assign rand_sets[49]: 258  LLC: 2048
rand_sets[49]: 258
Assign rand_sets[50]: 633  LLC: 2048
rand_sets[50]: 633
Assign rand_sets[51]: 920  LLC: 2048
rand_sets[51]: 920
Assign rand_sets[52]: 204  LLC: 2048
rand_sets[52]: 204
Assign rand_sets[53]: 227  LLC: 2048
rand_sets[53]: 227
Assign rand_sets[54]: 1818  LLC: 2048
rand_sets[54]: 1818
Assign rand_sets[55]: 886  LLC: 2048
rand_sets[55]: 886
Assign rand_sets[56]: 1422  LLC: 2048
rand_sets[56]: 1422
Assign rand_sets[57]: 607  LLC: 2048
rand_sets[57]: 607
Assign rand_sets[58]: 217  LLC: 2048
rand_sets[58]: 217
Assign rand_sets[59]: 1945  LLC: 2048
rand_sets[59]: 1945
Assign rand_sets[60]: 143  LLC: 2048
rand_sets[60]: 143
Assign rand_sets[61]: 1311  LLC: 2048
rand_sets[61]: 1311
Assign rand_sets[62]: 319  LLC: 2048
rand_sets[62]: 319
Assign rand_sets[63]: 1846  LLC: 2048
rand_sets[63]: 1846
 CLEAN-RRIP-POLICY-1: 0-3-2-3-0-0-2-3- CLEAN-RRIP-POLICY-2: 0-3-2-3-0-0-2-3-
 DIRTY-RRIP-POLICY-1: 2-3-0-3-2-0-0-3- DIRTY-RRIP-POLICY-2: 2-3-0-3-2-0-0-3-
 PSEL width: 10
Heartbeat CPU 0 instructions: 10000001 cycles: 7321625 heartbeat IPC: 1.36582 cumulative IPC: 1.36582 (Simulation time: 0 hr 0 min 15 sec) 
Heartbeat CPU 0 instructions: 20000000 cycles: 14328006 heartbeat IPC: 1.42727 cumulative IPC: 1.39587 (Simulation time: 0 hr 0 min 29 sec) 
Heartbeat CPU 0 instructions: 30000001 cycles: 21045401 heartbeat IPC: 1.48867 cumulative IPC: 1.42549 (Simulation time: 0 hr 0 min 45 sec) 
Heartbeat CPU 0 instructions: 40000000 cycles: 27507828 heartbeat IPC: 1.54741 cumulative IPC: 1.45413 (Simulation time: 0 hr 1 min 1 sec) 
Heartbeat CPU 0 instructions: 50000001 cycles: 33610823 heartbeat IPC: 1.63854 cumulative IPC: 1.48762 (Simulation time: 0 hr 1 min 17 sec) 
Heartbeat CPU 0 instructions: 60000000 cycles: 40093208 heartbeat IPC: 1.54264 cumulative IPC: 1.49651 (Simulation time: 0 hr 1 min 33 sec) 
Heartbeat CPU 0 instructions: 70000000 cycles: 47136803 heartbeat IPC: 1.41973 cumulative IPC: 1.48504 (Simulation time: 0 hr 1 min 48 sec) 
Heartbeat CPU 0 instructions: 80000000 cycles: 54232771 heartbeat IPC: 1.40925 cumulative IPC: 1.47512 (Simulation time: 0 hr 2 min 3 sec) 
Heartbeat CPU 0 instructions: 90000003 cycles: 61243679 heartbeat IPC: 1.42635 cumulative IPC: 1.46954 (Simulation time: 0 hr 2 min 17 sec) 
Heartbeat CPU 0 instructions: 100000000 cycles: 68417441 heartbeat IPC: 1.39397 cumulative IPC: 1.46162 (Simulation time: 0 hr 2 min 32 sec) 

Warmup complete CPU 0 instructions: 100000004 cycles: 68417442 (Simulation time: 0 hr 2 min 32 sec) 

Heartbeat CPU 0 instructions: 110000003 cycles: 97107917 heartbeat IPC: 0.348548 cumulative IPC: 0.348548 (Simulation time: 0 hr 3 min 1 sec) 
Heartbeat CPU 0 instructions: 120000000 cycles: 124960560 heartbeat IPC: 0.359032 cumulative IPC: 0.353712 (Simulation time: 0 hr 3 min 31 sec) 
Heartbeat CPU 0 instructions: 130000000 cycles: 150266291 heartbeat IPC: 0.395167 cumulative IPC: 0.366529 (Simulation time: 0 hr 3 min 59 sec) 
Heartbeat CPU 0 instructions: 140000000 cycles: 181656027 heartbeat IPC: 0.318575 cumulative IPC: 0.353236 (Simulation time: 0 hr 4 min 28 sec) 
Heartbeat CPU 0 instructions: 150000000 cycles: 212870637 heartbeat IPC: 0.320363 cumulative IPC: 0.346133 (Simulation time: 0 hr 4 min 58 sec) 
Heartbeat CPU 0 instructions: 160000000 cycles: 240779275 heartbeat IPC: 0.358312 cumulative IPC: 0.348105 (Simulation time: 0 hr 5 min 26 sec) 
Heartbeat CPU 0 instructions: 170000001 cycles: 269371532 heartbeat IPC: 0.349745 cumulative IPC: 0.348338 (Simulation time: 0 hr 5 min 56 sec) 
Heartbeat CPU 0 instructions: 180000000 cycles: 298458442 heartbeat IPC: 0.343797 cumulative IPC: 0.347764 (Simulation time: 0 hr 6 min 26 sec) 
Heartbeat CPU 0 instructions: 190000002 cycles: 327182565 heartbeat IPC: 0.348139 cumulative IPC: 0.347806 (Simulation time: 0 hr 6 min 55 sec) 
Heartbeat CPU 0 instructions: 200000000 cycles: 356230373 heartbeat IPC: 0.34426 cumulative IPC: 0.347448 (Simulation time: 0 hr 7 min 25 sec) 
Heartbeat CPU 0 instructions: 210000002 cycles: 384768941 heartbeat IPC: 0.350403 cumulative IPC: 0.347714 (Simulation time: 0 hr 7 min 54 sec) 
Heartbeat CPU 0 instructions: 220000000 cycles: 415622800 heartbeat IPC: 0.324109 cumulative IPC: 0.345617 (Simulation time: 0 hr 8 min 23 sec) 
Heartbeat CPU 0 instructions: 230000000 cycles: 444040841 heartbeat IPC: 0.351889 cumulative IPC: 0.346091 (Simulation time: 0 hr 8 min 51 sec) 
Heartbeat CPU 0 instructions: 240000000 cycles: 470624401 heartbeat IPC: 0.376172 cumulative IPC: 0.34808 (Simulation time: 0 hr 9 min 19 sec) 
Heartbeat CPU 0 instructions: 250000000 cycles: 501146252 heartbeat IPC: 0.327634 cumulative IPC: 0.346637 (Simulation time: 0 hr 9 min 49 sec) 
Heartbeat CPU 0 instructions: 260000000 cycles: 528520418 heartbeat IPC: 0.365308 cumulative IPC: 0.347748 (Simulation time: 0 hr 10 min 18 sec) 
Heartbeat CPU 0 instructions: 270000003 cycles: 557383957 heartbeat IPC: 0.346458 cumulative IPC: 0.347672 (Simulation time: 0 hr 10 min 48 sec) 
Heartbeat CPU 0 instructions: 280000000 cycles: 586057393 heartbeat IPC: 0.348755 cumulative IPC: 0.347732 (Simulation time: 0 hr 11 min 18 sec) 
Heartbeat CPU 0 instructions: 290000000 cycles: 615366493 heartbeat IPC: 0.341191 cumulative IPC: 0.347382 (Simulation time: 0 hr 11 min 48 sec) 
Heartbeat CPU 0 instructions: 300000000 cycles: 646525750 heartbeat IPC: 0.320932 cumulative IPC: 0.345956 (Simulation time: 0 hr 12 min 17 sec) 
Heartbeat CPU 0 instructions: 310000001 cycles: 676816375 heartbeat IPC: 0.330135 cumulative IPC: 0.345168 (Simulation time: 0 hr 12 min 46 sec) 
Heartbeat CPU 0 instructions: 320000000 cycles: 706084137 heartbeat IPC: 0.341673 cumulative IPC: 0.345008 (Simulation time: 0 hr 13 min 15 sec) 
Heartbeat CPU 0 instructions: 330000000 cycles: 735470045 heartbeat IPC: 0.340299 cumulative IPC: 0.3448 (Simulation time: 0 hr 13 min 44 sec) 
Heartbeat CPU 0 instructions: 340000000 cycles: 765637158 heartbeat IPC: 0.331487 cumulative IPC: 0.344224 (Simulation time: 0 hr 14 min 13 sec) 
Heartbeat CPU 0 instructions: 350000003 cycles: 793205719 heartbeat IPC: 0.362732 cumulative IPC: 0.344928 (Simulation time: 0 hr 14 min 41 sec) 
Heartbeat CPU 0 instructions: 360000000 cycles: 823952633 heartbeat IPC: 0.325236 cumulative IPC: 0.344127 (Simulation time: 0 hr 15 min 10 sec) 
Heartbeat CPU 0 instructions: 370000000 cycles: 854820239 heartbeat IPC: 0.323964 cumulative IPC: 0.343336 (Simulation time: 0 hr 15 min 38 sec) 
Heartbeat CPU 0 instructions: 380000000 cycles: 886093985 heartbeat IPC: 0.319757 cumulative IPC: 0.342434 (Simulation time: 0 hr 16 min 7 sec) 
Heartbeat CPU 0 instructions: 390000001 cycles: 916481883 heartbeat IPC: 0.329078 cumulative IPC: 0.341955 (Simulation time: 0 hr 16 min 36 sec) 
Heartbeat CPU 0 instructions: 400000000 cycles: 947732004 heartbeat IPC: 0.319999 cumulative IPC: 0.341175 (Simulation time: 0 hr 17 min 4 sec) 
Heartbeat CPU 0 instructions: 410000001 cycles: 977813099 heartbeat IPC: 0.332435 cumulative IPC: 0.340886 (Simulation time: 0 hr 17 min 33 sec) 
Heartbeat CPU 0 instructions: 420000000 cycles: 1007952985 heartbeat IPC: 0.331786 cumulative IPC: 0.340594 (Simulation time: 0 hr 18 min 1 sec) 
Heartbeat CPU 0 instructions: 430000002 cycles: 1038505621 heartbeat IPC: 0.327304 cumulative IPC: 0.340175 (Simulation time: 0 hr 18 min 30 sec) 
Heartbeat CPU 0 instructions: 440000000 cycles: 1070175681 heartbeat IPC: 0.315756 cumulative IPC: 0.339403 (Simulation time: 0 hr 18 min 58 sec) 
Heartbeat CPU 0 instructions: 450000002 cycles: 1101686557 heartbeat IPC: 0.317351 cumulative IPC: 0.338731 (Simulation time: 0 hr 19 min 26 sec) 
Heartbeat CPU 0 instructions: 460000000 cycles: 1132079809 heartbeat IPC: 0.32902 cumulative IPC: 0.338453 (Simulation time: 0 hr 19 min 54 sec) 
Heartbeat CPU 0 instructions: 470000000 cycles: 1162132618 heartbeat IPC: 0.332748 cumulative IPC: 0.338296 (Simulation time: 0 hr 20 min 22 sec) 
Heartbeat CPU 0 instructions: 480000000 cycles: 1192390546 heartbeat IPC: 0.330492 cumulative IPC: 0.338086 (Simulation time: 0 hr 20 min 50 sec) 
Heartbeat CPU 0 instructions: 490000000 cycles: 1222382208 heartbeat IPC: 0.333426 cumulative IPC: 0.337965 (Simulation time: 0 hr 21 min 18 sec) 
Heartbeat CPU 0 instructions: 500000000 cycles: 1252794176 heartbeat IPC: 0.328818 cumulative IPC: 0.33773 (Simulation time: 0 hr 21 min 47 sec) 
Heartbeat CPU 0 instructions: 510000000 cycles: 1288042113 heartbeat IPC: 0.283705 cumulative IPC: 0.336169 (Simulation time: 0 hr 22 min 17 sec) 
Heartbeat CPU 0 instructions: 520000000 cycles: 1316230006 heartbeat IPC: 0.354762 cumulative IPC: 0.336589 (Simulation time: 0 hr 22 min 46 sec) 
Heartbeat CPU 0 instructions: 530000001 cycles: 1346769700 heartbeat IPC: 0.327443 cumulative IPC: 0.33637 (Simulation time: 0 hr 23 min 14 sec) 
Heartbeat CPU 0 instructions: 540000000 cycles: 1375774492 heartbeat IPC: 0.344771 cumulative IPC: 0.336557 (Simulation time: 0 hr 23 min 43 sec) 
Heartbeat CPU 0 instructions: 550000001 cycles: 1405222669 heartbeat IPC: 0.33958 cumulative IPC: 0.336623 (Simulation time: 0 hr 24 min 13 sec) 
Heartbeat CPU 0 instructions: 560000000 cycles: 1430901471 heartbeat IPC: 0.389426 cumulative IPC: 0.337619 (Simulation time: 0 hr 24 min 40 sec) 
Heartbeat CPU 0 instructions: 570000000 cycles: 1461182099 heartbeat IPC: 0.330244 cumulative IPC: 0.337458 (Simulation time: 0 hr 25 min 9 sec) 
Heartbeat CPU 0 instructions: 580000000 cycles: 1489933425 heartbeat IPC: 0.34781 cumulative IPC: 0.337668 (Simulation time: 0 hr 25 min 38 sec) 
Heartbeat CPU 0 instructions: 590000001 cycles: 1515155548 heartbeat IPC: 0.396477 cumulative IPC: 0.338693 (Simulation time: 0 hr 26 min 5 sec) 
Heartbeat CPU 0 instructions: 600000000 cycles: 1542144234 heartbeat IPC: 0.370526 cumulative IPC: 0.339276 (Simulation time: 0 hr 26 min 33 sec) 
Finished CPU 0 instructions: 500000000 cycles: 1473726814 cumulative IPC: 0.339276 (Simulation time: 0 hr 26 min 33 sec) 

CPU 0 Branch Prediction Accuracy: 86.4311% MPKI: 26.2662
Number of Branches: 96788573 Number of Mispredictions: 13133102
Number of LOAD Instructions: 164682285
Number of LOAD Instructions (ROI): 164682285
Number of STORE Instructions: 78194750
Number of STORE Instructions (ROI): 78194750
Total Destination Memory Operands: 83268534
Total Destination Memory Operands (ROI): 83268534
Total Source Memory Operands: 164712438
Total Source Memory Operands (ROI): 164712438
Number of DEPENDED LOADS: 7052315
Number of DEPENDED LOADS (ROI): 7052315
Number of SQ_ADDED: 83268522
Number of SQ_ADDED (ROI): 83268522
Number of LQ_ADDED: 236637818
Number of LQ_ADDED (ROI): 236637818
Number of Instructions read from trace: 600000066

ChampSim completed all CPUs

Region of Interest Statistics

CPU 0 cumulative IPC: 0.339276 instructions: 500000000 cycles: 1473726814
ITLB TOTAL     ACCESS:  100529306  HIT:  100324860  MISS:     204446
ITLB LOAD      ACCESS:  100529306  HIT:  100324860  MISS:     204446
ITLB RFO       ACCESS:          0  HIT:          0  MISS:          0
ITLB PREFETCH  ACCESS:          0  HIT:          0  MISS:          0
ITLB WRITEBACK ACCESS:          0  HIT:          0  MISS:          0
ITLB PREFETCH  REQUESTED:          0  ISSUED:          0  USEFUL:          0  USELESS:          0
ITLB TOTAL MSHR MERGED:     172424
ITLB LOAD MSHR MERGED:     172424
ITLB RFO MSHR MERGED:          0
ITLB PREFETCH MSHR MERGED:          0
ITLB WRITEBACK MSHR MERGED:          0
ITLB TOTAL ACCESSES:  100701730 HITS:  100324860 MISSES:     376870
ITLB LOAD ACCESSES:  100701730 HITS:  100324860 MISSES:     376870
ITLB RFO ACCESSES:          0 HITS:          0 MISSES:          0
ITLB PREFETCH ACCESSES:          0 HITS:          0 MISSES:          0
ITLB WRITEBACK ACCESSES:          0 HITS:          0 MISSES:          0
ITLB RQ ACCESS:  500000057
ITLB RQ TO_CACHE:  100701730
ITLB RQ MERGED:  399298327
ITLB RQ FORWARD:          0
ITLB WQ ACCESS:          0
ITLB WQ TO_CACHE:          0
ITLB WQ MERGED:          0
ITLB WQ FORWARD:          0
DTLB TOTAL     ACCESS:  165357567  HIT:  164723214  MISS:     634353
DTLB LOAD      ACCESS:  106306537  HIT:  105736496  MISS:     570041
DTLB RFO       ACCESS:   59051030  HIT:   58986718  MISS:      64312
DTLB PREFETCH  ACCESS:          0  HIT:          0  MISS:          0
DTLB WRITEBACK ACCESS:          0  HIT:          0  MISS:          0
DTLB PREFETCH  REQUESTED:          0  ISSUED:          0  USEFUL:          0  USELESS:          0
DTLB TOTAL MSHR MERGED:      99485
DTLB LOAD MSHR MERGED:      59134
DTLB RFO MSHR MERGED:      40351
DTLB PREFETCH MSHR MERGED:          0
DTLB WRITEBACK MSHR MERGED:          0
DTLB TOTAL ACCESSES:  165457052 HITS:  164723214 MISSES:     733838
DTLB LOAD ACCESSES:  106365671 HITS:  105736496 MISSES:     629175
DTLB RFO ACCESSES:   59091381 HITS:   58986718 MISSES:     104663
DTLB PREFETCH ACCESSES:          0 HITS:          0 MISSES:          0
DTLB WRITEBACK ACCESSES:          0 HITS:          0 MISSES:          0
DTLB RQ ACCESS:  200318586
DTLB RQ TO_CACHE:  165457052
DTLB RQ MERGED:   34861534
DTLB RQ FORWARD:          0
DTLB WQ ACCESS:          0
DTLB WQ TO_CACHE:          0
DTLB WQ MERGED:          0
DTLB WQ FORWARD:          0
L1D TOTAL     ACCESS:  281893255  HIT:  273983784  MISS:    7909471
L1D LOAD      ACCESS:  110438232  HIT:  107159665  MISS:    3278567
L1D RFO       ACCESS:   67136570  HIT:   66246579  MISS:     889991
L1D PREFETCH  ACCESS:  104318453  HIT:  100577540  MISS:    3740913
L1D WRITEBACK ACCESS:          0  HIT:          0  MISS:          0
L1D PREFETCH  REQUESTED:  110837217  ISSUED:  109137716  USEFUL:    1661420  USELESS:    2079457
L1D TOTAL MSHR MERGED:    2858500
L1D LOAD MSHR MERGED:     497363
L1D RFO MSHR MERGED:    1849397
L1D PREFETCH MSHR MERGED:     511740
L1D WRITEBACK MSHR MERGED:          0
L1D TOTAL ACCESSES:  284779144 HITS:  274011173 MISSES:   10767971
L1D LOAD ACCESSES:  110838667 HITS:  107161115 MISSES:    3677552
L1D RFO ACCESSES:   68974666 HITS:   66246579 MISSES:    2728087
L1D PREFETCH ACCESSES:  104965811 HITS:  100603479 MISSES:    4362332
L1D WRITEBACK ACCESSES:          0 HITS:          0 MISSES:          0
L1D RQ ACCESS:  130765983
L1D RQ TO_CACHE:  110837220
L1D RQ MERGED:   19927313
L1D RQ FORWARD:          0
L1D WQ ACCESS:   69552603
L1D WQ TO_CACHE:   68974667
L1D WQ MERGED:     577936
L1D WQ FORWARD:      27389
L1I TOTAL     ACCESS:  126572490  HIT:  122333969  MISS:    4238521
L1I LOAD      ACCESS:  126572490  HIT:  122333969  MISS:    4238521
L1I RFO       ACCESS:          0  HIT:          0  MISS:          0
L1I PREFETCH  ACCESS:          0  HIT:          0  MISS:          0
L1I WRITEBACK ACCESS:          0  HIT:          0  MISS:          0
L1I PREFETCH  REQUESTED:          0  ISSUED:          0  USEFUL:          0  USELESS:          0
L1I TOTAL MSHR MERGED:    1839145
L1I LOAD MSHR MERGED:    1839145
L1I RFO MSHR MERGED:          0
L1I PREFETCH MSHR MERGED:          0
L1I WRITEBACK MSHR MERGED:          0
L1I TOTAL ACCESSES:  128411638 HITS:  122333969 MISSES:    6077669
L1I LOAD ACCESSES:  128411638 HITS:  122333969 MISSES:    6077669
L1I RFO ACCESSES:          0 HITS:          0 MISSES:          0
L1I PREFETCH ACCESSES:          0 HITS:          0 MISSES:          0
L1I WRITEBACK ACCESSES:          0 HITS:          0 MISSES:          0
L1I RQ ACCESS:  500000057
L1I RQ TO_CACHE:  128411638
L1I RQ MERGED:  371588419
L1I RQ FORWARD:          0
L1I WQ ACCESS:          0
L1I WQ TO_CACHE:          0
L1I WQ MERGED:          0
L1I WQ FORWARD:          0
L2C TOTAL     ACCESS:   14905658  HIT:   11159227  MISS:    3746431
L2C LOAD      ACCESS:    7418503  HIT:    5098737  MISS:    2319766
L2C RFO       ACCESS:     878595  HIT:     409947  MISS:     468648
L2C PREFETCH  ACCESS:    4569303  HIT:    3628549  MISS:     940754
L2C WRITEBACK ACCESS:    2039257  HIT:    2021994  MISS:      17263
L2C PREFETCH  REQUESTED:     842859  ISSUED:     842859  USEFUL:     203576  USELESS:     736885
L2C TOTAL MSHR MERGED:       6789
L2C LOAD MSHR MERGED:        727
L2C RFO MSHR MERGED:          0
L2C PREFETCH MSHR MERGED:       6062
L2C WRITEBACK MSHR MERGED:          0
L2C TOTAL ACCESSES:   14913339 HITS:   11159671 MISSES:    3753668
L2C LOAD ACCESSES:    7418710 HITS:    5098944 MISSES:    2319766
L2C RFO ACCESSES:     878690 HITS:     410042 MISSES:     468648
L2C PREFETCH ACCESSES:    4576682 HITS:    3628691 MISSES:     947991
L2C WRITEBACK ACCESSES:    2039257 HITS:    2021994 MISSES:      17263
L2C RQ ACCESS:    8297403
L2C RQ TO_CACHE:    8297101
L2C RQ MERGED:          0
L2C RQ FORWARD:          0
L2C WQ ACCESS:    2039257
L2C WQ TO_CACHE:    2039257
L2C WQ MERGED:          0
L2C WQ FORWARD:        444
LLC TOTAL     ACCESS:    4609760  HIT:    3245673  MISS:    1364087
LLC LOAD      ACCESS:    2319026  HIT:    1425986  MISS:     893040
LLC RFO       ACCESS:     468639  HIT:     419327  MISS:      49312
LLC PREFETCH  ACCESS:     941815  HIT:     598308  MISS:     343507
LLC WRITEBACK ACCESS:     880280  HIT:     802052  MISS:      78228
LLC PREFETCH  REQUESTED:          0  ISSUED:          0  USEFUL:      11554  USELESS:     330720
LLC TOTAL MSHR MERGED:         96
LLC LOAD MSHR MERGED:         33
LLC RFO MSHR MERGED:          0
LLC PREFETCH MSHR MERGED:         63
LLC WRITEBACK MSHR MERGED:          0
LLC TOTAL ACCESSES:    4609893 HITS:    3245710 MISSES:    1364183
LLC LOAD ACCESSES:    2319039 HITS:    1425999 MISSES:     893040
LLC RFO ACCESSES:     468648 HITS:     419336 MISSES:      49312
LLC PREFETCH ACCESSES:     941926 HITS:     598323 MISSES:     343603
LLC WRITEBACK ACCESSES:     880280 HITS:     802052 MISSES:      78228
LLC 0 RQ ACCESS:    2787687
LLC 0 RQ TO_CACHE:    2787665
LLC 0 RQ MERGED:          0
LLC 0 RQ FORWARD:          0
LLC WQ ACCESS:     880280
LLC WQ TO_CACHE:     880280
LLC WQ MERGED:          0
LLC WQ FORWARD:         37
Major fault: 0 Minor fault: 12862
CPU 0 L1D next line prefetcher final stats
CPU 0 L2C PC-based stride prefetcher final stats
All Misses: 1615518
All Hits: 3811248
SD Algo Stats - Switches: 0 SRR-Repls: 1034333 BRR-Repls: 0

DRAM Statistics
 CHANNEL 0
 RQ ROW_BUFFER_HIT:     381900  ROW_BUFFER_MISS:     901508
 DBUS_CONGESTED:     472874
 WQ ROW_BUFFER_HIT:       8026  ROW_BUFFER_MISS:     164978  FULL:          0

 AVG_CONGESTED_CYCLE: 13
LOADS RETIRED: 136549171
INSTR RETIRED: 500000000
