
*** ChampSim Multicore Out-of-Order Simulator ***

Warmup Instructions: 100000000
Simulation Instructions: 500000000
Number of CPUs: 1
LLC sets: 2048
LLC ways: 16
Clean RRIP Policies: 2213230222132302 Dirty RRIP Policies: 1203130212031302 PSEL Width: 10 Track Set: 4294967295 PSEL Mask: 1 Demote Mask: 1040140010401400DS Algo: 0Window size: 0
Off-chip DRAM Size: 4096 MB Channels: 1 Width: 64-bit Data Rate: 1600 MT/s

CPU 0 runs /mnt/beegfs/iconst01/spec2017/Xalancbmk.trace.gz
NOT SORTED
TRACE STRING: /mnt/beegfs/iconst01/spec2017/Xalancbmk.trace.gz
SORTED
TRACE STRING: /mnt/beegfs/iconst01/spec2017/Xalancbmk.trace.gz
INITIAL
TRACE STRING: /mnt/beegfs/iconst01/spec2017/Xalancbmk.trace.gz

champsim_seed used: 913

CPU 0 L1D next line prefetcher
CPU 0 L2C IP-based stride prefetcher
Initialize DRRIP state
Assign rand_sets[0]: 454  LLC: 2048
rand_sets[0]: 454
Assign rand_sets[1]: 1662  LLC: 2048
rand_sets[1]: 1662
Assign rand_sets[2]: 1921  LLC: 2048
rand_sets[2]: 1921
Assign rand_sets[3]: 1131  LLC: 2048
rand_sets[3]: 1131
Assign rand_sets[4]: 331  LLC: 2048
rand_sets[4]: 331
Assign rand_sets[5]: 1531  LLC: 2048
rand_sets[5]: 1531
Assign rand_sets[6]: 482  LLC: 2048
rand_sets[6]: 482
Assign rand_sets[7]: 1275  LLC: 2048
rand_sets[7]: 1275
Assign rand_sets[8]: 1876  LLC: 2048
rand_sets[8]: 1876
Assign rand_sets[9]: 2038  LLC: 2048
rand_sets[9]: 2038
Assign rand_sets[10]: 701  LLC: 2048
rand_sets[10]: 701
Assign rand_sets[11]: 479  LLC: 2048
rand_sets[11]: 479
Assign rand_sets[12]: 892  LLC: 2048
rand_sets[12]: 892
Assign rand_sets[13]: 1820  LLC: 2048
rand_sets[13]: 1820
Assign rand_sets[14]: 1505  LLC: 2048
rand_sets[14]: 1505
Assign rand_sets[15]: 1159  LLC: 2048
rand_sets[15]: 1159
Assign rand_sets[16]: 513  LLC: 2048
rand_sets[16]: 513
Assign rand_sets[17]: 703  LLC: 2048
rand_sets[17]: 703
Assign rand_sets[18]: 561  LLC: 2048
rand_sets[18]: 561
Assign rand_sets[19]: 990  LLC: 2048
rand_sets[19]: 990
Assign rand_sets[20]: 342  LLC: 2048
rand_sets[20]: 342
Assign rand_sets[21]: 882  LLC: 2048
rand_sets[21]: 882
Assign rand_sets[22]: 15  LLC: 2048
rand_sets[22]: 15
Assign rand_sets[23]: 71  LLC: 2048
rand_sets[23]: 71
Assign rand_sets[24]: 1127  LLC: 2048
rand_sets[24]: 1127
Assign rand_sets[25]: 1382  LLC: 2048
rand_sets[25]: 1382
Assign rand_sets[26]: 647  LLC: 2048
rand_sets[26]: 647
Assign rand_sets[27]: 857  LLC: 2048
rand_sets[27]: 857
Assign rand_sets[28]: 1450  LLC: 2048
rand_sets[28]: 1450
Assign rand_sets[29]: 1160  LLC: 2048
rand_sets[29]: 1160
Assign rand_sets[30]: 1852  LLC: 2048
rand_sets[30]: 1852
Assign rand_sets[31]: 1881  LLC: 2048
rand_sets[31]: 1881
Assign rand_sets[32]: 1770  LLC: 2048
rand_sets[32]: 1770
Assign rand_sets[33]: 1622  LLC: 2048
rand_sets[33]: 1622
Assign rand_sets[34]: 275  LLC: 2048
rand_sets[34]: 275
Assign rand_sets[35]: 635  LLC: 2048
rand_sets[35]: 635
Assign rand_sets[36]: 466  LLC: 2048
rand_sets[36]: 466
Assign rand_sets[37]: 1413  LLC: 2048
rand_sets[37]: 1413
Assign rand_sets[38]: 417  LLC: 2048
rand_sets[38]: 417
Assign rand_sets[39]: 472  LLC: 2048
rand_sets[39]: 472
Assign rand_sets[40]: 1340  LLC: 2048
rand_sets[40]: 1340
Assign rand_sets[41]: 852  LLC: 2048
rand_sets[41]: 852
Assign rand_sets[42]: 1365  LLC: 2048
rand_sets[42]: 1365
Assign rand_sets[43]: 47  LLC: 2048
rand_sets[43]: 47
Assign rand_sets[44]: 823  LLC: 2048
rand_sets[44]: 823
Assign rand_sets[45]: 686  LLC: 2048
rand_sets[45]: 686
Assign rand_sets[46]: 1637  LLC: 2048
rand_sets[46]: 1637
Assign rand_sets[47]: 1115  LLC: 2048
rand_sets[47]: 1115
Assign rand_sets[48]: 986  LLC: 2048
rand_sets[48]: 986
Assign rand_sets[49]: 258  LLC: 2048
rand_sets[49]: 258
Assign rand_sets[50]: 633  LLC: 2048
rand_sets[50]: 633
Assign rand_sets[51]: 920  LLC: 2048
rand_sets[51]: 920
Assign rand_sets[52]: 204  LLC: 2048
rand_sets[52]: 204
Assign rand_sets[53]: 227  LLC: 2048
rand_sets[53]: 227
Assign rand_sets[54]: 1818  LLC: 2048
rand_sets[54]: 1818
Assign rand_sets[55]: 886  LLC: 2048
rand_sets[55]: 886
Assign rand_sets[56]: 1422  LLC: 2048
rand_sets[56]: 1422
Assign rand_sets[57]: 607  LLC: 2048
rand_sets[57]: 607
Assign rand_sets[58]: 217  LLC: 2048
rand_sets[58]: 217
Assign rand_sets[59]: 1945  LLC: 2048
rand_sets[59]: 1945
Assign rand_sets[60]: 143  LLC: 2048
rand_sets[60]: 143
Assign rand_sets[61]: 1311  LLC: 2048
rand_sets[61]: 1311
Assign rand_sets[62]: 319  LLC: 2048
rand_sets[62]: 319
Assign rand_sets[63]: 1846  LLC: 2048
rand_sets[63]: 1846
 CLEAN-RRIP-POLICY-1: 2-2-1-3-2-3-0-2- CLEAN-RRIP-POLICY-2: 2-2-1-3-2-3-0-2-
 DIRTY-RRIP-POLICY-1: 1-2-0-3-1-3-0-2- DIRTY-RRIP-POLICY-2: 1-2-0-3-1-3-0-2-
 PSEL width: 10
Heartbeat CPU 0 instructions: 10000003 cycles: 4591723 heartbeat IPC: 2.17783 cumulative IPC: 2.17783 (Simulation time: 0 hr 0 min 16 sec) 
Heartbeat CPU 0 instructions: 20000000 cycles: 8993165 heartbeat IPC: 2.27198 cumulative IPC: 2.22391 (Simulation time: 0 hr 0 min 30 sec) 
Heartbeat CPU 0 instructions: 30000000 cycles: 13406413 heartbeat IPC: 2.2659 cumulative IPC: 2.23774 (Simulation time: 0 hr 0 min 45 sec) 
Heartbeat CPU 0 instructions: 40000000 cycles: 18029214 heartbeat IPC: 2.16319 cumulative IPC: 2.21862 (Simulation time: 0 hr 1 min 1 sec) 
Heartbeat CPU 0 instructions: 50000002 cycles: 22451288 heartbeat IPC: 2.26138 cumulative IPC: 2.22704 (Simulation time: 0 hr 1 min 15 sec) 
Heartbeat CPU 0 instructions: 60000000 cycles: 27104201 heartbeat IPC: 2.14919 cumulative IPC: 2.21368 (Simulation time: 0 hr 1 min 31 sec) 
Heartbeat CPU 0 instructions: 70000003 cycles: 31515480 heartbeat IPC: 2.26692 cumulative IPC: 2.22113 (Simulation time: 0 hr 1 min 46 sec) 
Heartbeat CPU 0 instructions: 80000000 cycles: 35942977 heartbeat IPC: 2.25861 cumulative IPC: 2.22575 (Simulation time: 0 hr 2 min 1 sec) 
Heartbeat CPU 0 instructions: 90000002 cycles: 40404481 heartbeat IPC: 2.2414 cumulative IPC: 2.22748 (Simulation time: 0 hr 2 min 16 sec) 
Heartbeat CPU 0 instructions: 100000000 cycles: 44878924 heartbeat IPC: 2.23491 cumulative IPC: 2.22822 (Simulation time: 0 hr 2 min 30 sec) 

Warmup complete CPU 0 instructions: 100000003 cycles: 44878925 (Simulation time: 0 hr 2 min 30 sec) 

Heartbeat CPU 0 instructions: 110000000 cycles: 71372174 heartbeat IPC: 0.377455 cumulative IPC: 0.377455 (Simulation time: 0 hr 3 min 2 sec) 
Heartbeat CPU 0 instructions: 120000000 cycles: 99591789 heartbeat IPC: 0.354363 cumulative IPC: 0.365545 (Simulation time: 0 hr 3 min 36 sec) 
Heartbeat CPU 0 instructions: 130000000 cycles: 122655107 heartbeat IPC: 0.433589 cumulative IPC: 0.385722 (Simulation time: 0 hr 4 min 5 sec) 
Heartbeat CPU 0 instructions: 140000000 cycles: 145116862 heartbeat IPC: 0.445201 cumulative IPC: 0.39905 (Simulation time: 0 hr 4 min 34 sec) 
Heartbeat CPU 0 instructions: 150000000 cycles: 169212301 heartbeat IPC: 0.415016 cumulative IPC: 0.402145 (Simulation time: 0 hr 5 min 5 sec) 
Heartbeat CPU 0 instructions: 160000000 cycles: 193826541 heartbeat IPC: 0.406269 cumulative IPC: 0.402826 (Simulation time: 0 hr 5 min 35 sec) 
Heartbeat CPU 0 instructions: 170000002 cycles: 215153960 heartbeat IPC: 0.46888 cumulative IPC: 0.4111 (Simulation time: 0 hr 6 min 3 sec) 
Heartbeat CPU 0 instructions: 180000000 cycles: 237358637 heartbeat IPC: 0.450355 cumulative IPC: 0.415628 (Simulation time: 0 hr 6 min 32 sec) 
Heartbeat CPU 0 instructions: 190000000 cycles: 256405021 heartbeat IPC: 0.525034 cumulative IPC: 0.425479 (Simulation time: 0 hr 6 min 59 sec) 
Heartbeat CPU 0 instructions: 200000000 cycles: 277298541 heartbeat IPC: 0.478617 cumulative IPC: 0.430256 (Simulation time: 0 hr 7 min 27 sec) 
Heartbeat CPU 0 instructions: 210000001 cycles: 303387478 heartbeat IPC: 0.383304 cumulative IPC: 0.425518 (Simulation time: 0 hr 7 min 58 sec) 
Heartbeat CPU 0 instructions: 220000000 cycles: 328750606 heartbeat IPC: 0.394273 cumulative IPC: 0.422726 (Simulation time: 0 hr 8 min 30 sec) 
Heartbeat CPU 0 instructions: 230000000 cycles: 351010638 heartbeat IPC: 0.449236 cumulative IPC: 0.424654 (Simulation time: 0 hr 8 min 59 sec) 
Heartbeat CPU 0 instructions: 240000000 cycles: 376415566 heartbeat IPC: 0.393624 cumulative IPC: 0.422276 (Simulation time: 0 hr 9 min 30 sec) 
Heartbeat CPU 0 instructions: 250000001 cycles: 400997474 heartbeat IPC: 0.406803 cumulative IPC: 0.421208 (Simulation time: 0 hr 10 min 1 sec) 
Heartbeat CPU 0 instructions: 260000000 cycles: 421926852 heartbeat IPC: 0.477797 cumulative IPC: 0.424349 (Simulation time: 0 hr 10 min 28 sec) 
Heartbeat CPU 0 instructions: 270000000 cycles: 443303701 heartbeat IPC: 0.467796 cumulative IPC: 0.42668 (Simulation time: 0 hr 10 min 57 sec) 
Heartbeat CPU 0 instructions: 280000000 cycles: 470785606 heartbeat IPC: 0.363876 cumulative IPC: 0.422628 (Simulation time: 0 hr 11 min 29 sec) 
Heartbeat CPU 0 instructions: 290000000 cycles: 491802392 heartbeat IPC: 0.47581 cumulative IPC: 0.425129 (Simulation time: 0 hr 11 min 57 sec) 
Heartbeat CPU 0 instructions: 300000000 cycles: 512219398 heartbeat IPC: 0.489788 cumulative IPC: 0.427954 (Simulation time: 0 hr 12 min 25 sec) 
Heartbeat CPU 0 instructions: 310000000 cycles: 531477190 heartbeat IPC: 0.51927 cumulative IPC: 0.431567 (Simulation time: 0 hr 12 min 51 sec) 
Heartbeat CPU 0 instructions: 320000000 cycles: 560531909 heartbeat IPC: 0.344178 cumulative IPC: 0.426644 (Simulation time: 0 hr 13 min 24 sec) 
Heartbeat CPU 0 instructions: 330000001 cycles: 580096356 heartbeat IPC: 0.511131 cumulative IPC: 0.429732 (Simulation time: 0 hr 13 min 51 sec) 
Heartbeat CPU 0 instructions: 340000000 cycles: 599493352 heartbeat IPC: 0.515544 cumulative IPC: 0.432733 (Simulation time: 0 hr 14 min 17 sec) 
Heartbeat CPU 0 instructions: 350000001 cycles: 624609119 heartbeat IPC: 0.398156 cumulative IPC: 0.431235 (Simulation time: 0 hr 14 min 47 sec) 
Heartbeat CPU 0 instructions: 360000000 cycles: 646740904 heartbeat IPC: 0.451839 cumulative IPC: 0.431993 (Simulation time: 0 hr 15 min 15 sec) 
Heartbeat CPU 0 instructions: 370000001 cycles: 671417288 heartbeat IPC: 0.405246 cumulative IPC: 0.430939 (Simulation time: 0 hr 15 min 46 sec) 
Heartbeat CPU 0 instructions: 380000000 cycles: 694486626 heartbeat IPC: 0.433476 cumulative IPC: 0.431029 (Simulation time: 0 hr 16 min 14 sec) 
Heartbeat CPU 0 instructions: 390000000 cycles: 713471313 heartbeat IPC: 0.52674 cumulative IPC: 0.433747 (Simulation time: 0 hr 16 min 40 sec) 
Heartbeat CPU 0 instructions: 400000000 cycles: 733379085 heartbeat IPC: 0.502316 cumulative IPC: 0.43573 (Simulation time: 0 hr 17 min 6 sec) 
Heartbeat CPU 0 instructions: 410000001 cycles: 759346276 heartbeat IPC: 0.385101 cumulative IPC: 0.43389 (Simulation time: 0 hr 17 min 36 sec) 
Heartbeat CPU 0 instructions: 420000000 cycles: 783542096 heartbeat IPC: 0.413294 cumulative IPC: 0.433215 (Simulation time: 0 hr 18 min 5 sec) 
Heartbeat CPU 0 instructions: 430000002 cycles: 804629634 heartbeat IPC: 0.474214 cumulative IPC: 0.434353 (Simulation time: 0 hr 18 min 32 sec) 
Heartbeat CPU 0 instructions: 440000000 cycles: 824793967 heartbeat IPC: 0.495925 cumulative IPC: 0.435945 (Simulation time: 0 hr 18 min 58 sec) 
Heartbeat CPU 0 instructions: 450000002 cycles: 851256485 heartbeat IPC: 0.377893 cumulative IPC: 0.43404 (Simulation time: 0 hr 19 min 28 sec) 
Heartbeat CPU 0 instructions: 460000000 cycles: 876974452 heartbeat IPC: 0.388833 cumulative IPC: 0.432643 (Simulation time: 0 hr 19 min 58 sec) 
Heartbeat CPU 0 instructions: 470000002 cycles: 902514657 heartbeat IPC: 0.39154 cumulative IPC: 0.431419 (Simulation time: 0 hr 20 min 28 sec) 
Heartbeat CPU 0 instructions: 480000000 cycles: 926290378 heartbeat IPC: 0.420597 cumulative IPC: 0.431127 (Simulation time: 0 hr 20 min 56 sec) 
Heartbeat CPU 0 instructions: 490000000 cycles: 947146909 heartbeat IPC: 0.479466 cumulative IPC: 0.432244 (Simulation time: 0 hr 21 min 22 sec) 
Heartbeat CPU 0 instructions: 500000000 cycles: 971832578 heartbeat IPC: 0.405093 cumulative IPC: 0.431521 (Simulation time: 0 hr 21 min 51 sec) 
Heartbeat CPU 0 instructions: 510000000 cycles: 996413408 heartbeat IPC: 0.406821 cumulative IPC: 0.430883 (Simulation time: 0 hr 22 min 20 sec) 
Heartbeat CPU 0 instructions: 520000000 cycles: 1017452330 heartbeat IPC: 0.47531 cumulative IPC: 0.431844 (Simulation time: 0 hr 22 min 47 sec) 
Heartbeat CPU 0 instructions: 530000003 cycles: 1042550851 heartbeat IPC: 0.39843 cumulative IPC: 0.431003 (Simulation time: 0 hr 23 min 16 sec) 
Heartbeat CPU 0 instructions: 540000000 cycles: 1065352537 heartbeat IPC: 0.438564 cumulative IPC: 0.431172 (Simulation time: 0 hr 23 min 44 sec) 
Heartbeat CPU 0 instructions: 550000000 cycles: 1090554082 heartbeat IPC: 0.396801 cumulative IPC: 0.430344 (Simulation time: 0 hr 24 min 13 sec) 
Heartbeat CPU 0 instructions: 560000000 cycles: 1113272746 heartbeat IPC: 0.440167 cumulative IPC: 0.430553 (Simulation time: 0 hr 24 min 41 sec) 
Heartbeat CPU 0 instructions: 570000002 cycles: 1136539179 heartbeat IPC: 0.429804 cumulative IPC: 0.430537 (Simulation time: 0 hr 25 min 9 sec) 
Heartbeat CPU 0 instructions: 580000000 cycles: 1157370035 heartbeat IPC: 0.480057 cumulative IPC: 0.431464 (Simulation time: 0 hr 25 min 35 sec) 
Heartbeat CPU 0 instructions: 590000001 cycles: 1181010958 heartbeat IPC: 0.422995 cumulative IPC: 0.431288 (Simulation time: 0 hr 26 min 4 sec) 
Heartbeat CPU 0 instructions: 600000000 cycles: 1200162846 heartbeat IPC: 0.522142 cumulative IPC: 0.432794 (Simulation time: 0 hr 26 min 29 sec) 
Finished CPU 0 instructions: 500000000 cycles: 1155283942 cumulative IPC: 0.432794 (Simulation time: 0 hr 26 min 29 sec) 

CPU 0 Branch Prediction Accuracy: 99.5434% MPKI: 1.33026
Number of Branches: 145676990 Number of Mispredictions: 665128
Number of LOAD Instructions: 188863207
Number of LOAD Instructions (ROI): 188863207
Number of STORE Instructions: 7332002
Number of STORE Instructions (ROI): 7332002
Total Destination Memory Operands: 10029285
Total Destination Memory Operands (ROI): 10029285
Total Source Memory Operands: 188863207
Total Source Memory Operands (ROI): 188863207
Number of DEPENDED LOADS: 293557
Number of DEPENDED LOADS (ROI): 293557
Number of SQ_ADDED: 10029285
Number of SQ_ADDED (ROI): 10029285
Number of LQ_ADDED: 200808421
Number of LQ_ADDED (ROI): 200808421
Number of Instructions read from trace: 600000010

ChampSim completed all CPUs

Region of Interest Statistics

CPU 0 cumulative IPC: 0.432794 instructions: 500000000 cycles: 1155283942
ITLB TOTAL     ACCESS:  145860053  HIT:  145820524  MISS:      39529
ITLB LOAD      ACCESS:  145860053  HIT:  145820524  MISS:      39529
ITLB RFO       ACCESS:          0  HIT:          0  MISS:          0
ITLB PREFETCH  ACCESS:          0  HIT:          0  MISS:          0
ITLB WRITEBACK ACCESS:          0  HIT:          0  MISS:          0
ITLB PREFETCH  REQUESTED:          0  ISSUED:          0  USEFUL:          0  USELESS:          0
ITLB TOTAL MSHR MERGED:      57354
ITLB LOAD MSHR MERGED:      57354
ITLB RFO MSHR MERGED:          0
ITLB PREFETCH MSHR MERGED:          0
ITLB WRITEBACK MSHR MERGED:          0
ITLB TOTAL ACCESSES:  145917407 HITS:  145820524 MISSES:      96883
ITLB LOAD ACCESSES:  145917407 HITS:  145820524 MISSES:      96883
ITLB RFO ACCESSES:          0 HITS:          0 MISSES:          0
ITLB PREFETCH ACCESSES:          0 HITS:          0 MISSES:          0
ITLB WRITEBACK ACCESSES:          0 HITS:          0 MISSES:          0
ITLB RQ ACCESS:  499999754
ITLB RQ TO_CACHE:  145917407
ITLB RQ MERGED:  354082347
ITLB RQ FORWARD:          0
ITLB WQ ACCESS:          0
ITLB WQ TO_CACHE:          0
ITLB WQ MERGED:          0
ITLB WQ FORWARD:          0
DTLB TOTAL     ACCESS:  135196066  HIT:  134027705  MISS:    1168361
DTLB LOAD      ACCESS:  127155266  HIT:  125996011  MISS:    1159255
DTLB RFO       ACCESS:    8040800  HIT:    8031694  MISS:       9106
DTLB PREFETCH  ACCESS:          0  HIT:          0  MISS:          0
DTLB WRITEBACK ACCESS:          0  HIT:          0  MISS:          0
DTLB PREFETCH  REQUESTED:          0  ISSUED:          0  USEFUL:          0  USELESS:          0
DTLB TOTAL MSHR MERGED:     580664
DTLB LOAD MSHR MERGED:     576282
DTLB RFO MSHR MERGED:       4382
DTLB PREFETCH MSHR MERGED:          0
DTLB WRITEBACK MSHR MERGED:          0
DTLB TOTAL ACCESSES:  135776730 HITS:  134027705 MISSES:    1749025
DTLB LOAD ACCESSES:  127731548 HITS:  125996011 MISSES:    1735537
DTLB RFO ACCESSES:    8045182 HITS:    8031694 MISSES:      13488
DTLB PREFETCH ACCESSES:          0 HITS:          0 MISSES:          0
DTLB WRITEBACK ACCESSES:          0 HITS:          0 MISSES:          0
DTLB RQ ACCESS:  165760764
DTLB RQ TO_CACHE:  135776730
DTLB RQ MERGED:   29984034
DTLB RQ FORWARD:          0
DTLB WQ ACCESS:          0
DTLB WQ TO_CACHE:          0
DTLB WQ MERGED:          0
DTLB WQ FORWARD:          0
L1D TOTAL     ACCESS:  157080547  HIT:  139764839  MISS:   17315708
L1D LOAD      ACCESS:   90051866  HIT:   78903088  MISS:   11148778
L1D RFO       ACCESS:    8495911  HIT:    8408703  MISS:      87208
L1D PREFETCH  ACCESS:   58532770  HIT:   52453048  MISS:    6079722
L1D WRITEBACK ACCESS:          0  HIT:          0  MISS:          0
L1D PREFETCH  REQUESTED:   93724693  ISSUED:   92857062  USEFUL:    1998301  USELESS:    4081494
L1D TOTAL MSHR MERGED:   15009766
L1D LOAD MSHR MERGED:    7075875
L1D RFO MSHR MERGED:     128699
L1D PREFETCH MSHR MERGED:    7805192
L1D WRITEBACK MSHR MERGED:          0
L1D TOTAL ACCESSES:  172090465 HITS:  139764991 MISSES:   32325474
L1D LOAD ACCESSES:   93724697 HITS:   78903092 MISSES:   14821605
L1D RFO ACCESSES:    8622712 HITS:    8408703 MISSES:     214009
L1D PREFETCH ACCESSES:   69743056 HITS:   52453196 MISSES:   17289860
L1D WRITEBACK ACCESSES:          0 HITS:          0 MISSES:          0
L1D RQ ACCESS:  157121558
L1D RQ TO_CACHE:   93724693
L1D RQ MERGED:   63396861
L1D RQ FORWARD:          0
L1D WQ ACCESS:    8639208
L1D WQ TO_CACHE:    8622712
L1D WQ MERGED:      16496
L1D WQ FORWARD:        152
L1I TOTAL     ACCESS:  178848611  HIT:  178184865  MISS:     663746
L1I LOAD      ACCESS:  178848611  HIT:  178184865  MISS:     663746
L1I RFO       ACCESS:          0  HIT:          0  MISS:          0
L1I PREFETCH  ACCESS:          0  HIT:          0  MISS:          0
L1I WRITEBACK ACCESS:          0  HIT:          0  MISS:          0
L1I PREFETCH  REQUESTED:          0  ISSUED:          0  USEFUL:          0  USELESS:          0
L1I TOTAL MSHR MERGED:     597713
L1I LOAD MSHR MERGED:     597713
L1I RFO MSHR MERGED:          0
L1I PREFETCH MSHR MERGED:          0
L1I WRITEBACK MSHR MERGED:          0
L1I TOTAL ACCESSES:  179446324 HITS:  178184865 MISSES:    1261459
L1I LOAD ACCESSES:  179446324 HITS:  178184865 MISSES:    1261459
L1I RFO ACCESSES:          0 HITS:          0 MISSES:          0
L1I PREFETCH ACCESSES:          0 HITS:          0 MISSES:          0
L1I WRITEBACK ACCESSES:          0 HITS:          0 MISSES:          0
L1I RQ ACCESS:  499999757
L1I RQ TO_CACHE:  179446324
L1I RQ MERGED:  320553433
L1I RQ FORWARD:          0
L1I WQ ACCESS:          0
L1I WQ TO_CACHE:          0
L1I WQ MERGED:          0
L1I WQ FORWARD:          0
L2C TOTAL     ACCESS:   19277799  HIT:    2057627  MISS:   17220172
L2C LOAD      ACCESS:    8409375  HIT:     951220  MISS:    7458155
L2C RFO       ACCESS:      85287  HIT:      53739  MISS:      31548
L2C PREFETCH  ACCESS:   10498097  HIT:     770438  MISS:    9727659
L2C WRITEBACK ACCESS:     285040  HIT:     282230  MISS:       2810
L2C PREFETCH  REQUESTED:    1018357  ISSUED:    1018357  USEFUL:     274800  USELESS:    9451958
L2C TOTAL MSHR MERGED:        993
L2C LOAD MSHR MERGED:        223
L2C RFO MSHR MERGED:          1
L2C PREFETCH MSHR MERGED:        769
L2C WRITEBACK MSHR MERGED:          0
L2C TOTAL ACCESSES:   19281585 HITS:    2057817 MISSES:   17223768
L2C LOAD ACCESSES:    8409476 HITS:     951321 MISSES:    7458155
L2C RFO ACCESSES:      85310 HITS:      53762 MISSES:      31548
L2C PREFETCH ACCESSES:   10501759 HITS:     770504 MISSES:    9731255
L2C WRITEBACK ACCESSES:     285040 HITS:     282230 MISSES:       2810
L2C RQ ACCESS:    8494786
L2C RQ TO_CACHE:    8494662
L2C RQ MERGED:          0
L2C RQ FORWARD:          0
L2C WQ ACCESS:     285040
L2C WQ TO_CACHE:     285040
L2C WQ MERGED:          0
L2C WQ FORWARD:        190
LLC TOTAL     ACCESS:   17326023  HIT:    5211726  MISS:   12114297
LLC LOAD      ACCESS:    7457932  HIT:    4218599  MISS:    3239333
LLC RFO       ACCESS:      31547  HIT:      10964  MISS:      20583
LLC PREFETCH  ACCESS:    9730484  HIT:     912297  MISS:    8818187
LLC WRITEBACK ACCESS:     106060  HIT:      69866  MISS:      36194
LLC PREFETCH  REQUESTED:          0  ISSUED:          0  USEFUL:       1527  USELESS:    8816326
LLC TOTAL MSHR MERGED:          2
LLC LOAD MSHR MERGED:          0
LLC RFO MSHR MERGED:          0
LLC PREFETCH MSHR MERGED:          2
LLC WRITEBACK MSHR MERGED:          0
LLC TOTAL ACCESSES:   17326025 HITS:    5211726 MISSES:   12114299
LLC LOAD ACCESSES:    7457932 HITS:    4218599 MISSES:    3239333
LLC RFO ACCESSES:      31547 HITS:      10964 MISSES:      20583
LLC PREFETCH ACCESSES:    9730486 HITS:     912297 MISSES:    8818189
LLC WRITEBACK ACCESSES:     106060 HITS:      69866 MISSES:      36194
LLC 0 RQ ACCESS:    7489479
LLC 0 RQ TO_CACHE:    7489479
LLC 0 RQ MERGED:          0
LLC 0 RQ FORWARD:          0
LLC WQ ACCESS:     106060
LLC WQ TO_CACHE:     106060
LLC WQ MERGED:          0
LLC WQ FORWARD:          0
Major fault: 0 Minor fault: 6432
CPU 0 L1D next line prefetcher final stats
CPU 0 L2C PC-based stride prefetcher final stats
All Misses: 14384119
All Hits: 6161449
SD Algo Stats - Switches: 0 SRR-Repls: 3507246 BRR-Repls: 0

DRAM Statistics
 CHANNEL 0
 RQ ROW_BUFFER_HIT:    9053725  ROW_BUFFER_MISS:    3017072
 DBUS_CONGESTED:    5566056
 WQ ROW_BUFFER_HIT:       2375  ROW_BUFFER_MISS:      61617  FULL:          0

 AVG_CONGESTED_CYCLE: 12
LOADS RETIRED: 157382665
INSTR RETIRED: 500000000
