
*** ChampSim Multicore Out-of-Order Simulator ***

Warmup Instructions: 100000000
Simulation Instructions: 500000000
Number of CPUs: 1
LLC sets: 2048
LLC ways: 16
Clean RRIP Policies: 2213230122132301 Dirty RRIP Policies: 1203130112031301 PSEL Width: 10 Track Set: 4294967295 PSEL Mask: 1 Demote Mask: 1040100010401000DS Algo: 0Window size: 0
Off-chip DRAM Size: 4096 MB Channels: 1 Width: 64-bit Data Rate: 1600 MT/s

CPU 0 runs /mnt/beegfs/iconst01/spec2017/Blender.trace.gz
NOT SORTED
TRACE STRING: /mnt/beegfs/iconst01/spec2017/Blender.trace.gz
SORTED
TRACE STRING: /mnt/beegfs/iconst01/spec2017/Blender.trace.gz
INITIAL
TRACE STRING: /mnt/beegfs/iconst01/spec2017/Blender.trace.gz

champsim_seed used: 700

CPU 0 L1D next line prefetcher
CPU 0 L2C IP-based stride prefetcher
Initialize DRRIP state
Assign rand_sets[0]: 454  LLC: 2048
rand_sets[0]: 454
Assign rand_sets[1]: 1662  LLC: 2048
rand_sets[1]: 1662
Assign rand_sets[2]: 1921  LLC: 2048
rand_sets[2]: 1921
Assign rand_sets[3]: 1131  LLC: 2048
rand_sets[3]: 1131
Assign rand_sets[4]: 331  LLC: 2048
rand_sets[4]: 331
Assign rand_sets[5]: 1531  LLC: 2048
rand_sets[5]: 1531
Assign rand_sets[6]: 482  LLC: 2048
rand_sets[6]: 482
Assign rand_sets[7]: 1275  LLC: 2048
rand_sets[7]: 1275
Assign rand_sets[8]: 1876  LLC: 2048
rand_sets[8]: 1876
Assign rand_sets[9]: 2038  LLC: 2048
rand_sets[9]: 2038
Assign rand_sets[10]: 701  LLC: 2048
rand_sets[10]: 701
Assign rand_sets[11]: 479  LLC: 2048
rand_sets[11]: 479
Assign rand_sets[12]: 892  LLC: 2048
rand_sets[12]: 892
Assign rand_sets[13]: 1820  LLC: 2048
rand_sets[13]: 1820
Assign rand_sets[14]: 1505  LLC: 2048
rand_sets[14]: 1505
Assign rand_sets[15]: 1159  LLC: 2048
rand_sets[15]: 1159
Assign rand_sets[16]: 513  LLC: 2048
rand_sets[16]: 513
Assign rand_sets[17]: 703  LLC: 2048
rand_sets[17]: 703
Assign rand_sets[18]: 561  LLC: 2048
rand_sets[18]: 561
Assign rand_sets[19]: 990  LLC: 2048
rand_sets[19]: 990
Assign rand_sets[20]: 342  LLC: 2048
rand_sets[20]: 342
Assign rand_sets[21]: 882  LLC: 2048
rand_sets[21]: 882
Assign rand_sets[22]: 15  LLC: 2048
rand_sets[22]: 15
Assign rand_sets[23]: 71  LLC: 2048
rand_sets[23]: 71
Assign rand_sets[24]: 1127  LLC: 2048
rand_sets[24]: 1127
Assign rand_sets[25]: 1382  LLC: 2048
rand_sets[25]: 1382
Assign rand_sets[26]: 647  LLC: 2048
rand_sets[26]: 647
Assign rand_sets[27]: 857  LLC: 2048
rand_sets[27]: 857
Assign rand_sets[28]: 1450  LLC: 2048
rand_sets[28]: 1450
Assign rand_sets[29]: 1160  LLC: 2048
rand_sets[29]: 1160
Assign rand_sets[30]: 1852  LLC: 2048
rand_sets[30]: 1852
Assign rand_sets[31]: 1881  LLC: 2048
rand_sets[31]: 1881
Assign rand_sets[32]: 1770  LLC: 2048
rand_sets[32]: 1770
Assign rand_sets[33]: 1622  LLC: 2048
rand_sets[33]: 1622
Assign rand_sets[34]: 275  LLC: 2048
rand_sets[34]: 275
Assign rand_sets[35]: 635  LLC: 2048
rand_sets[35]: 635
Assign rand_sets[36]: 466  LLC: 2048
rand_sets[36]: 466
Assign rand_sets[37]: 1413  LLC: 2048
rand_sets[37]: 1413
Assign rand_sets[38]: 417  LLC: 2048
rand_sets[38]: 417
Assign rand_sets[39]: 472  LLC: 2048
rand_sets[39]: 472
Assign rand_sets[40]: 1340  LLC: 2048
rand_sets[40]: 1340
Assign rand_sets[41]: 852  LLC: 2048
rand_sets[41]: 852
Assign rand_sets[42]: 1365  LLC: 2048
rand_sets[42]: 1365
Assign rand_sets[43]: 47  LLC: 2048
rand_sets[43]: 47
Assign rand_sets[44]: 823  LLC: 2048
rand_sets[44]: 823
Assign rand_sets[45]: 686  LLC: 2048
rand_sets[45]: 686
Assign rand_sets[46]: 1637  LLC: 2048
rand_sets[46]: 1637
Assign rand_sets[47]: 1115  LLC: 2048
rand_sets[47]: 1115
Assign rand_sets[48]: 986  LLC: 2048
rand_sets[48]: 986
Assign rand_sets[49]: 258  LLC: 2048
rand_sets[49]: 258
Assign rand_sets[50]: 633  LLC: 2048
rand_sets[50]: 633
Assign rand_sets[51]: 920  LLC: 2048
rand_sets[51]: 920
Assign rand_sets[52]: 204  LLC: 2048
rand_sets[52]: 204
Assign rand_sets[53]: 227  LLC: 2048
rand_sets[53]: 227
Assign rand_sets[54]: 1818  LLC: 2048
rand_sets[54]: 1818
Assign rand_sets[55]: 886  LLC: 2048
rand_sets[55]: 886
Assign rand_sets[56]: 1422  LLC: 2048
rand_sets[56]: 1422
Assign rand_sets[57]: 607  LLC: 2048
rand_sets[57]: 607
Assign rand_sets[58]: 217  LLC: 2048
rand_sets[58]: 217
Assign rand_sets[59]: 1945  LLC: 2048
rand_sets[59]: 1945
Assign rand_sets[60]: 143  LLC: 2048
rand_sets[60]: 143
Assign rand_sets[61]: 1311  LLC: 2048
rand_sets[61]: 1311
Assign rand_sets[62]: 319  LLC: 2048
rand_sets[62]: 319
Assign rand_sets[63]: 1846  LLC: 2048
rand_sets[63]: 1846
 CLEAN-RRIP-POLICY-1: 2-2-1-3-2-3-0-1- CLEAN-RRIP-POLICY-2: 2-2-1-3-2-3-0-1-
 DIRTY-RRIP-POLICY-1: 1-2-0-3-1-3-0-1- DIRTY-RRIP-POLICY-2: 1-2-0-3-1-3-0-1-
 PSEL width: 10
Heartbeat CPU 0 instructions: 10000002 cycles: 5480930 heartbeat IPC: 1.82451 cumulative IPC: 1.82451 (Simulation time: 0 hr 0 min 14 sec) 
Heartbeat CPU 0 instructions: 20000000 cycles: 10913520 heartbeat IPC: 1.84074 cumulative IPC: 1.83259 (Simulation time: 0 hr 0 min 27 sec) 
Heartbeat CPU 0 instructions: 30000000 cycles: 16447387 heartbeat IPC: 1.80705 cumulative IPC: 1.824 (Simulation time: 0 hr 0 min 40 sec) 
Heartbeat CPU 0 instructions: 40000000 cycles: 21898153 heartbeat IPC: 1.8346 cumulative IPC: 1.82664 (Simulation time: 0 hr 0 min 54 sec) 
Heartbeat CPU 0 instructions: 50000000 cycles: 27400070 heartbeat IPC: 1.81755 cumulative IPC: 1.82481 (Simulation time: 0 hr 1 min 7 sec) 
Heartbeat CPU 0 instructions: 60000000 cycles: 32778900 heartbeat IPC: 1.85914 cumulative IPC: 1.83045 (Simulation time: 0 hr 1 min 21 sec) 
Heartbeat CPU 0 instructions: 70000001 cycles: 38335192 heartbeat IPC: 1.79976 cumulative IPC: 1.826 (Simulation time: 0 hr 1 min 34 sec) 
Heartbeat CPU 0 instructions: 80000000 cycles: 43795394 heartbeat IPC: 1.83143 cumulative IPC: 1.82668 (Simulation time: 0 hr 1 min 47 sec) 
Heartbeat CPU 0 instructions: 90000000 cycles: 49242153 heartbeat IPC: 1.83595 cumulative IPC: 1.8277 (Simulation time: 0 hr 2 min 0 sec) 
Heartbeat CPU 0 instructions: 100000000 cycles: 54787297 heartbeat IPC: 1.80338 cumulative IPC: 1.82524 (Simulation time: 0 hr 2 min 13 sec) 

Warmup complete CPU 0 instructions: 100000002 cycles: 54787298 (Simulation time: 0 hr 2 min 13 sec) 

Heartbeat CPU 0 instructions: 110000001 cycles: 69189119 heartbeat IPC: 0.694357 cumulative IPC: 0.694357 (Simulation time: 0 hr 2 min 32 sec) 
Heartbeat CPU 0 instructions: 120000000 cycles: 84192337 heartbeat IPC: 0.666524 cumulative IPC: 0.680155 (Simulation time: 0 hr 2 min 52 sec) 
Heartbeat CPU 0 instructions: 130000000 cycles: 98692256 heartbeat IPC: 0.689659 cumulative IPC: 0.683294 (Simulation time: 0 hr 3 min 11 sec) 
Heartbeat CPU 0 instructions: 140000000 cycles: 113038133 heartbeat IPC: 0.697064 cumulative IPC: 0.686685 (Simulation time: 0 hr 3 min 29 sec) 
Heartbeat CPU 0 instructions: 150000000 cycles: 127747552 heartbeat IPC: 0.679837 cumulative IPC: 0.685305 (Simulation time: 0 hr 3 min 48 sec) 
Heartbeat CPU 0 instructions: 160000000 cycles: 142870338 heartbeat IPC: 0.661254 cumulative IPC: 0.681175 (Simulation time: 0 hr 4 min 7 sec) 
Heartbeat CPU 0 instructions: 170000001 cycles: 157734538 heartbeat IPC: 0.672757 cumulative IPC: 0.67996 (Simulation time: 0 hr 4 min 26 sec) 
Heartbeat CPU 0 instructions: 180000000 cycles: 172666623 heartbeat IPC: 0.669699 cumulative IPC: 0.67866 (Simulation time: 0 hr 4 min 45 sec) 
Heartbeat CPU 0 instructions: 190000002 cycles: 187143215 heartbeat IPC: 0.69077 cumulative IPC: 0.679985 (Simulation time: 0 hr 5 min 4 sec) 
Heartbeat CPU 0 instructions: 200000000 cycles: 201501454 heartbeat IPC: 0.696464 cumulative IPC: 0.681597 (Simulation time: 0 hr 5 min 23 sec) 
Heartbeat CPU 0 instructions: 210000003 cycles: 216124182 heartbeat IPC: 0.683867 cumulative IPC: 0.681803 (Simulation time: 0 hr 5 min 42 sec) 
Heartbeat CPU 0 instructions: 220000000 cycles: 230819390 heartbeat IPC: 0.680494 cumulative IPC: 0.681694 (Simulation time: 0 hr 6 min 1 sec) 
Heartbeat CPU 0 instructions: 230000001 cycles: 245934813 heartbeat IPC: 0.661576 cumulative IPC: 0.680103 (Simulation time: 0 hr 6 min 20 sec) 
Heartbeat CPU 0 instructions: 240000000 cycles: 260850234 heartbeat IPC: 0.670447 cumulative IPC: 0.679404 (Simulation time: 0 hr 6 min 39 sec) 
Heartbeat CPU 0 instructions: 250000003 cycles: 275680687 heartbeat IPC: 0.674288 cumulative IPC: 0.679061 (Simulation time: 0 hr 6 min 58 sec) 
Heartbeat CPU 0 instructions: 260000000 cycles: 291167778 heartbeat IPC: 0.645699 cumulative IPC: 0.676875 (Simulation time: 0 hr 7 min 17 sec) 
Heartbeat CPU 0 instructions: 270000003 cycles: 305753429 heartbeat IPC: 0.685606 cumulative IPC: 0.677382 (Simulation time: 0 hr 7 min 36 sec) 
Heartbeat CPU 0 instructions: 280000000 cycles: 320250495 heartbeat IPC: 0.689795 cumulative IPC: 0.67806 (Simulation time: 0 hr 7 min 55 sec) 
Heartbeat CPU 0 instructions: 290000002 cycles: 334698976 heartbeat IPC: 0.692114 cumulative IPC: 0.678786 (Simulation time: 0 hr 8 min 14 sec) 
Heartbeat CPU 0 instructions: 300000000 cycles: 350091966 heartbeat IPC: 0.649646 cumulative IPC: 0.677267 (Simulation time: 0 hr 8 min 33 sec) 
Heartbeat CPU 0 instructions: 310000000 cycles: 365066227 heartbeat IPC: 0.667813 cumulative IPC: 0.67681 (Simulation time: 0 hr 8 min 52 sec) 
Heartbeat CPU 0 instructions: 320000000 cycles: 379874079 heartbeat IPC: 0.675317 cumulative IPC: 0.676742 (Simulation time: 0 hr 9 min 10 sec) 
Heartbeat CPU 0 instructions: 330000000 cycles: 395634831 heartbeat IPC: 0.634488 cumulative IPC: 0.674789 (Simulation time: 0 hr 9 min 30 sec) 
Heartbeat CPU 0 instructions: 340000000 cycles: 410268779 heartbeat IPC: 0.683343 cumulative IPC: 0.675141 (Simulation time: 0 hr 9 min 48 sec) 
Heartbeat CPU 0 instructions: 350000000 cycles: 424901121 heartbeat IPC: 0.683418 cumulative IPC: 0.675468 (Simulation time: 0 hr 10 min 7 sec) 
Heartbeat CPU 0 instructions: 360000000 cycles: 439565189 heartbeat IPC: 0.681939 cumulative IPC: 0.675714 (Simulation time: 0 hr 10 min 26 sec) 
Heartbeat CPU 0 instructions: 370000002 cycles: 454991239 heartbeat IPC: 0.648254 cumulative IPC: 0.674656 (Simulation time: 0 hr 10 min 45 sec) 
Heartbeat CPU 0 instructions: 380000000 cycles: 469848115 heartbeat IPC: 0.673089 cumulative IPC: 0.6746 (Simulation time: 0 hr 11 min 4 sec) 
Heartbeat CPU 0 instructions: 390000003 cycles: 484808082 heartbeat IPC: 0.668451 cumulative IPC: 0.674386 (Simulation time: 0 hr 11 min 22 sec) 
Heartbeat CPU 0 instructions: 400000000 cycles: 500658087 heartbeat IPC: 0.630914 cumulative IPC: 0.672841 (Simulation time: 0 hr 11 min 42 sec) 
Heartbeat CPU 0 instructions: 410000001 cycles: 515684534 heartbeat IPC: 0.665493 cumulative IPC: 0.672601 (Simulation time: 0 hr 12 min 0 sec) 
Heartbeat CPU 0 instructions: 420000000 cycles: 530419378 heartbeat IPC: 0.678663 cumulative IPC: 0.672789 (Simulation time: 0 hr 12 min 19 sec) 
Heartbeat CPU 0 instructions: 430000000 cycles: 545832556 heartbeat IPC: 0.648795 cumulative IPC: 0.672036 (Simulation time: 0 hr 12 min 38 sec) 
Heartbeat CPU 0 instructions: 440000000 cycles: 560635359 heartbeat IPC: 0.675548 cumulative IPC: 0.672139 (Simulation time: 0 hr 12 min 57 sec) 
Heartbeat CPU 0 instructions: 450000000 cycles: 575614024 heartbeat IPC: 0.667616 cumulative IPC: 0.672009 (Simulation time: 0 hr 13 min 16 sec) 
Heartbeat CPU 0 instructions: 460000000 cycles: 591351211 heartbeat IPC: 0.635438 cumulative IPC: 0.670936 (Simulation time: 0 hr 13 min 35 sec) 
Heartbeat CPU 0 instructions: 470000000 cycles: 606429372 heartbeat IPC: 0.663211 cumulative IPC: 0.670725 (Simulation time: 0 hr 13 min 54 sec) 
Heartbeat CPU 0 instructions: 480000000 cycles: 621295567 heartbeat IPC: 0.672667 cumulative IPC: 0.670776 (Simulation time: 0 hr 14 min 12 sec) 
Heartbeat CPU 0 instructions: 490000002 cycles: 636564044 heartbeat IPC: 0.654944 cumulative IPC: 0.67036 (Simulation time: 0 hr 14 min 32 sec) 
Heartbeat CPU 0 instructions: 500000000 cycles: 651435783 heartbeat IPC: 0.672416 cumulative IPC: 0.670411 (Simulation time: 0 hr 14 min 50 sec) 
Heartbeat CPU 0 instructions: 510000001 cycles: 666544137 heartbeat IPC: 0.661886 cumulative IPC: 0.670201 (Simulation time: 0 hr 15 min 9 sec) 
Heartbeat CPU 0 instructions: 520000000 cycles: 682009540 heartbeat IPC: 0.646604 cumulative IPC: 0.669619 (Simulation time: 0 hr 15 min 28 sec) 
Heartbeat CPU 0 instructions: 530000001 cycles: 697424579 heartbeat IPC: 0.648717 cumulative IPC: 0.669118 (Simulation time: 0 hr 15 min 47 sec) 
Heartbeat CPU 0 instructions: 540000000 cycles: 712007204 heartbeat IPC: 0.685748 cumulative IPC: 0.669487 (Simulation time: 0 hr 16 min 6 sec) 
Heartbeat CPU 0 instructions: 550000001 cycles: 727264562 heartbeat IPC: 0.655422 cumulative IPC: 0.669168 (Simulation time: 0 hr 16 min 25 sec) 
Heartbeat CPU 0 instructions: 560000000 cycles: 742067192 heartbeat IPC: 0.675556 cumulative IPC: 0.669305 (Simulation time: 0 hr 16 min 44 sec) 
Heartbeat CPU 0 instructions: 570000002 cycles: 757212553 heartbeat IPC: 0.660268 cumulative IPC: 0.66911 (Simulation time: 0 hr 17 min 3 sec) 
Heartbeat CPU 0 instructions: 580000000 cycles: 772219417 heartbeat IPC: 0.666362 cumulative IPC: 0.669053 (Simulation time: 0 hr 17 min 21 sec) 
Heartbeat CPU 0 instructions: 590000001 cycles: 787215839 heartbeat IPC: 0.666826 cumulative IPC: 0.669007 (Simulation time: 0 hr 17 min 40 sec) 
Heartbeat CPU 0 instructions: 600000000 cycles: 801864177 heartbeat IPC: 0.682671 cumulative IPC: 0.669275 (Simulation time: 0 hr 17 min 59 sec) 
Finished CPU 0 instructions: 500000000 cycles: 747076887 cumulative IPC: 0.669275 (Simulation time: 0 hr 17 min 59 sec) 

CPU 0 Branch Prediction Accuracy: 93.7783% MPKI: 10.0718
Number of Branches: 80940586 Number of Mispredictions: 5035908
Number of LOAD Instructions: 184238101
Number of LOAD Instructions (ROI): 184238101
Number of STORE Instructions: 33143298
Number of STORE Instructions (ROI): 33143298
Total Destination Memory Operands: 33324321
Total Destination Memory Operands (ROI): 33324321
Total Source Memory Operands: 184238101
Total Source Memory Operands (ROI): 184238101
Number of DEPENDED LOADS: 4461348
Number of DEPENDED LOADS (ROI): 4461348
Number of SQ_ADDED: 33324292
Number of SQ_ADDED (ROI): 33324292
Number of LQ_ADDED: 184867619
Number of LQ_ADDED (ROI): 184867619
Number of Instructions read from trace: 600000256

ChampSim completed all CPUs

Region of Interest Statistics

CPU 0 cumulative IPC: 0.669275 instructions: 500000000 cycles: 747076887
ITLB TOTAL     ACCESS:   77746038  HIT:   77746038  MISS:          0
ITLB LOAD      ACCESS:   77746038  HIT:   77746038  MISS:          0
ITLB RFO       ACCESS:          0  HIT:          0  MISS:          0
ITLB PREFETCH  ACCESS:          0  HIT:          0  MISS:          0
ITLB WRITEBACK ACCESS:          0  HIT:          0  MISS:          0
ITLB PREFETCH  REQUESTED:          0  ISSUED:          0  USEFUL:          0  USELESS:          0
ITLB TOTAL MSHR MERGED:          0
ITLB LOAD MSHR MERGED:          0
ITLB RFO MSHR MERGED:          0
ITLB PREFETCH MSHR MERGED:          0
ITLB WRITEBACK MSHR MERGED:          0
ITLB TOTAL ACCESSES:   77746038 HITS:   77746038 MISSES:          0
ITLB LOAD ACCESSES:   77746038 HITS:   77746038 MISSES:          0
ITLB RFO ACCESSES:          0 HITS:          0 MISSES:          0
ITLB PREFETCH ACCESSES:          0 HITS:          0 MISSES:          0
ITLB WRITEBACK ACCESSES:          0 HITS:          0 MISSES:          0
ITLB RQ ACCESS:  500000245
ITLB RQ TO_CACHE:   77746038
ITLB RQ MERGED:  422254207
ITLB RQ FORWARD:          0
ITLB WQ ACCESS:          0
ITLB WQ TO_CACHE:          0
ITLB WQ MERGED:          0
ITLB WQ FORWARD:          0
DTLB TOTAL     ACCESS:   88436755  HIT:   87299905  MISS:    1136850
DTLB LOAD      ACCESS:   66310039  HIT:   65177429  MISS:    1132610
DTLB RFO       ACCESS:   22126716  HIT:   22122476  MISS:       4240
DTLB PREFETCH  ACCESS:          0  HIT:          0  MISS:          0
DTLB WRITEBACK ACCESS:          0  HIT:          0  MISS:          0
DTLB PREFETCH  REQUESTED:          0  ISSUED:          0  USEFUL:          0  USELESS:          0
DTLB TOTAL MSHR MERGED:     135524
DTLB LOAD MSHR MERGED:     133707
DTLB RFO MSHR MERGED:       1817
DTLB PREFETCH MSHR MERGED:          0
DTLB WRITEBACK MSHR MERGED:          0
DTLB TOTAL ACCESSES:   88572279 HITS:   87299905 MISSES:    1272374
DTLB LOAD ACCESSES:   66443746 HITS:   65177429 MISSES:    1266317
DTLB RFO ACCESSES:   22128533 HITS:   22122476 MISSES:       6057
DTLB PREFETCH ACCESSES:          0 HITS:          0 MISSES:          0
DTLB WRITEBACK ACCESSES:          0 HITS:          0 MISSES:          0
DTLB RQ ACCESS:  177579391
DTLB RQ TO_CACHE:   88572279
DTLB RQ MERGED:   89007112
DTLB RQ FORWARD:          0
DTLB WQ ACCESS:          0
DTLB WQ TO_CACHE:          0
DTLB WQ MERGED:          0
DTLB WQ FORWARD:          0
L1D TOTAL     ACCESS:  142081377  HIT:  136522330  MISS:    5559047
L1D LOAD      ACCESS:   61384015  HIT:   58275581  MISS:    3108434
L1D RFO       ACCESS:   27669014  HIT:   27587205  MISS:      81809
L1D PREFETCH  ACCESS:   53028348  HIT:   50659544  MISS:    2368804
L1D WRITEBACK ACCESS:          0  HIT:          0  MISS:          0
L1D PREFETCH  REQUESTED:   61670203  ISSUED:   60752035  USEFUL:     661921  USELESS:    1706888
L1D TOTAL MSHR MERGED:    1198179
L1D LOAD MSHR MERGED:     388988
L1D RFO MSHR MERGED:     164065
L1D PREFETCH MSHR MERGED:     645126
L1D WRITEBACK MSHR MERGED:          0
L1D TOTAL ACCESSES:  143377170 HITS:  136619944 MISSES:    6757226
L1D LOAD ACCESSES:   61670213 HITS:   58275591 MISSES:    3394622
L1D RFO ACCESSES:   27829287 HITS:   27587205 MISSES:     242082
L1D PREFETCH ACCESSES:   53877670 HITS:   50757148 MISSES:    3120522
L1D WRITEBACK ACCESSES:          0 HITS:          0 MISSES:          0
L1D RQ ACCESS:  149746425
L1D RQ TO_CACHE:   61670203
L1D RQ MERGED:   88076212
L1D RQ FORWARD:          0
L1D WQ ACCESS:   27832966
L1D WQ TO_CACHE:   27829287
L1D WQ MERGED:       3679
L1D WQ FORWARD:      97614
L1I TOTAL     ACCESS:   96223380  HIT:   96064112  MISS:     159268
L1I LOAD      ACCESS:   96223380  HIT:   96064112  MISS:     159268
L1I RFO       ACCESS:          0  HIT:          0  MISS:          0
L1I PREFETCH  ACCESS:          0  HIT:          0  MISS:          0
L1I WRITEBACK ACCESS:          0  HIT:          0  MISS:          0
L1I PREFETCH  REQUESTED:          0  ISSUED:          0  USEFUL:          0  USELESS:          0
L1I TOTAL MSHR MERGED:     130259
L1I LOAD MSHR MERGED:     130259
L1I RFO MSHR MERGED:          0
L1I PREFETCH MSHR MERGED:          0
L1I WRITEBACK MSHR MERGED:          0
L1I TOTAL ACCESSES:   96353639 HITS:   96064112 MISSES:     289527
L1I LOAD ACCESSES:   96353639 HITS:   96064112 MISSES:     289527
L1I RFO ACCESSES:          0 HITS:          0 MISSES:          0
L1I PREFETCH ACCESSES:          0 HITS:          0 MISSES:          0
L1I WRITEBACK ACCESSES:          0 HITS:          0 MISSES:          0
L1I RQ ACCESS:  500000245
L1I RQ TO_CACHE:   96353639
L1I RQ MERGED:  403646606
L1I RQ FORWARD:          0
L1I WQ ACCESS:          0
L1I WQ TO_CACHE:          0
L1I WQ MERGED:          0
L1I WQ FORWARD:          0
L2C TOTAL     ACCESS:    5910972  HIT:    3062301  MISS:    2848671
L2C LOAD      ACCESS:    3164892  HIT:    1583013  MISS:    1581879
L2C RFO       ACCESS:      77941  HIT:      45087  MISS:      32854
L2C PREFETCH  ACCESS:    2524609  HIT:    1296254  MISS:    1228355
L2C WRITEBACK ACCESS:     143530  HIT:     137947  MISS:       5583
L2C PREFETCH  REQUESTED:      52724  ISSUED:      52724  USEFUL:      18674  USELESS:    1209721
L2C TOTAL MSHR MERGED:       2578
L2C LOAD MSHR MERGED:        934
L2C RFO MSHR MERGED:          0
L2C PREFETCH MSHR MERGED:       1644
L2C WRITEBACK MSHR MERGED:          0
L2C TOTAL ACCESSES:    5913644 HITS:    3062387 MISSES:    2851257
L2C LOAD ACCESSES:    3164902 HITS:    1583023 MISSES:    1581879
L2C RFO ACCESSES:      78017 HITS:      45163 MISSES:      32854
L2C PREFETCH ACCESSES:    2527195 HITS:    1296254 MISSES:    1230941
L2C WRITEBACK ACCESSES:     143530 HITS:     137947 MISSES:       5583
L2C RQ ACCESS:    3242919
L2C RQ TO_CACHE:    3242833
L2C RQ MERGED:          0
L2C RQ FORWARD:          0
L2C WQ ACCESS:     143530
L2C WQ TO_CACHE:     143530
L2C WQ MERGED:          0
L2C WQ FORWARD:         86
LLC TOTAL     ACCESS:    2892631  HIT:    1808150  MISS:    1084481
LLC LOAD      ACCESS:    1580945  HIT:    1132776  MISS:     448169
LLC RFO       ACCESS:      32844  HIT:      32624  MISS:        220
LLC PREFETCH  ACCESS:    1229297  HIT:     593577  MISS:     635720
LLC WRITEBACK ACCESS:      49545  HIT:      49173  MISS:        372
LLC PREFETCH  REQUESTED:          0  ISSUED:          0  USEFUL:       3095  USELESS:     632656
LLC TOTAL MSHR MERGED:          0
LLC LOAD MSHR MERGED:          0
LLC RFO MSHR MERGED:          0
LLC PREFETCH MSHR MERGED:          0
LLC WRITEBACK MSHR MERGED:          0
LLC TOTAL ACCESSES:    2892641 HITS:    1808160 MISSES:    1084481
LLC LOAD ACCESSES:    1580945 HITS:    1132776 MISSES:     448169
LLC RFO ACCESSES:      32854 HITS:      32634 MISSES:        220
LLC PREFETCH ACCESSES:    1229297 HITS:     593577 MISSES:     635720
LLC WRITEBACK ACCESSES:      49545 HITS:      49173 MISSES:        372
LLC 0 RQ ACCESS:    1613799
LLC 0 RQ TO_CACHE:    1613789
LLC 0 RQ MERGED:          0
LLC 0 RQ FORWARD:          0
LLC WQ ACCESS:      49545
LLC WQ TO_CACHE:      49545
LLC WQ MERGED:          0
LLC WQ FORWARD:         10
Major fault: 0 Minor fault: 8460
CPU 0 L1D next line prefetcher final stats
CPU 0 L2C PC-based stride prefetcher final stats
All Misses: 1316475
All Hits: 2112752
SD Algo Stats - Switches: 0 SRR-Repls: 519414 BRR-Repls: 0

DRAM Statistics
 CHANNEL 0
 RQ ROW_BUFFER_HIT:     370386  ROW_BUFFER_MISS:     713671
 DBUS_CONGESTED:     332461
 WQ ROW_BUFFER_HIT:         32  ROW_BUFFER_MISS:        590  FULL:          0

 AVG_CONGESTED_CYCLE: 12
LOADS RETIRED: 153532848
INSTR RETIRED: 500000000
