
*** ChampSim Multicore Out-of-Order Simulator ***

Warmup Instructions: 100000000
Simulation Instructions: 500000000
Number of CPUs: 1
LLC sets: 2048
LLC ways: 16
Clean RRIP Policies: 1202222012022220 Dirty RRIP Policies: 1222021012220210 PSEL Width: 10 Track Set: 4294967295 PSEL Mask: 1 Demote Mask: 2034344020343440DS Algo: 0Window size: 0
Off-chip DRAM Size: 4096 MB Channels: 1 Width: 64-bit Data Rate: 1600 MT/s

CPU 0 runs /mnt/beegfs/iconst01/spec2017/Wrf.trace.gz
NOT SORTED
TRACE STRING: /mnt/beegfs/iconst01/spec2017/Wrf.trace.gz
SORTED
TRACE STRING: /mnt/beegfs/iconst01/spec2017/Wrf.trace.gz
INITIAL
TRACE STRING: /mnt/beegfs/iconst01/spec2017/Wrf.trace.gz

champsim_seed used: 303

CPU 0 L1D next line prefetcher
CPU 0 L2C IP-based stride prefetcher
Initialize DRRIP state
Assign rand_sets[0]: 454  LLC: 2048
rand_sets[0]: 454
Assign rand_sets[1]: 1662  LLC: 2048
rand_sets[1]: 1662
Assign rand_sets[2]: 1921  LLC: 2048
rand_sets[2]: 1921
Assign rand_sets[3]: 1131  LLC: 2048
rand_sets[3]: 1131
Assign rand_sets[4]: 331  LLC: 2048
rand_sets[4]: 331
Assign rand_sets[5]: 1531  LLC: 2048
rand_sets[5]: 1531
Assign rand_sets[6]: 482  LLC: 2048
rand_sets[6]: 482
Assign rand_sets[7]: 1275  LLC: 2048
rand_sets[7]: 1275
Assign rand_sets[8]: 1876  LLC: 2048
rand_sets[8]: 1876
Assign rand_sets[9]: 2038  LLC: 2048
rand_sets[9]: 2038
Assign rand_sets[10]: 701  LLC: 2048
rand_sets[10]: 701
Assign rand_sets[11]: 479  LLC: 2048
rand_sets[11]: 479
Assign rand_sets[12]: 892  LLC: 2048
rand_sets[12]: 892
Assign rand_sets[13]: 1820  LLC: 2048
rand_sets[13]: 1820
Assign rand_sets[14]: 1505  LLC: 2048
rand_sets[14]: 1505
Assign rand_sets[15]: 1159  LLC: 2048
rand_sets[15]: 1159
Assign rand_sets[16]: 513  LLC: 2048
rand_sets[16]: 513
Assign rand_sets[17]: 703  LLC: 2048
rand_sets[17]: 703
Assign rand_sets[18]: 561  LLC: 2048
rand_sets[18]: 561
Assign rand_sets[19]: 990  LLC: 2048
rand_sets[19]: 990
Assign rand_sets[20]: 342  LLC: 2048
rand_sets[20]: 342
Assign rand_sets[21]: 882  LLC: 2048
rand_sets[21]: 882
Assign rand_sets[22]: 15  LLC: 2048
rand_sets[22]: 15
Assign rand_sets[23]: 71  LLC: 2048
rand_sets[23]: 71
Assign rand_sets[24]: 1127  LLC: 2048
rand_sets[24]: 1127
Assign rand_sets[25]: 1382  LLC: 2048
rand_sets[25]: 1382
Assign rand_sets[26]: 647  LLC: 2048
rand_sets[26]: 647
Assign rand_sets[27]: 857  LLC: 2048
rand_sets[27]: 857
Assign rand_sets[28]: 1450  LLC: 2048
rand_sets[28]: 1450
Assign rand_sets[29]: 1160  LLC: 2048
rand_sets[29]: 1160
Assign rand_sets[30]: 1852  LLC: 2048
rand_sets[30]: 1852
Assign rand_sets[31]: 1881  LLC: 2048
rand_sets[31]: 1881
Assign rand_sets[32]: 1770  LLC: 2048
rand_sets[32]: 1770
Assign rand_sets[33]: 1622  LLC: 2048
rand_sets[33]: 1622
Assign rand_sets[34]: 275  LLC: 2048
rand_sets[34]: 275
Assign rand_sets[35]: 635  LLC: 2048
rand_sets[35]: 635
Assign rand_sets[36]: 466  LLC: 2048
rand_sets[36]: 466
Assign rand_sets[37]: 1413  LLC: 2048
rand_sets[37]: 1413
Assign rand_sets[38]: 417  LLC: 2048
rand_sets[38]: 417
Assign rand_sets[39]: 472  LLC: 2048
rand_sets[39]: 472
Assign rand_sets[40]: 1340  LLC: 2048
rand_sets[40]: 1340
Assign rand_sets[41]: 852  LLC: 2048
rand_sets[41]: 852
Assign rand_sets[42]: 1365  LLC: 2048
rand_sets[42]: 1365
Assign rand_sets[43]: 47  LLC: 2048
rand_sets[43]: 47
Assign rand_sets[44]: 823  LLC: 2048
rand_sets[44]: 823
Assign rand_sets[45]: 686  LLC: 2048
rand_sets[45]: 686
Assign rand_sets[46]: 1637  LLC: 2048
rand_sets[46]: 1637
Assign rand_sets[47]: 1115  LLC: 2048
rand_sets[47]: 1115
Assign rand_sets[48]: 986  LLC: 2048
rand_sets[48]: 986
Assign rand_sets[49]: 258  LLC: 2048
rand_sets[49]: 258
Assign rand_sets[50]: 633  LLC: 2048
rand_sets[50]: 633
Assign rand_sets[51]: 920  LLC: 2048
rand_sets[51]: 920
Assign rand_sets[52]: 204  LLC: 2048
rand_sets[52]: 204
Assign rand_sets[53]: 227  LLC: 2048
rand_sets[53]: 227
Assign rand_sets[54]: 1818  LLC: 2048
rand_sets[54]: 1818
Assign rand_sets[55]: 886  LLC: 2048
rand_sets[55]: 886
Assign rand_sets[56]: 1422  LLC: 2048
rand_sets[56]: 1422
Assign rand_sets[57]: 607  LLC: 2048
rand_sets[57]: 607
Assign rand_sets[58]: 217  LLC: 2048
rand_sets[58]: 217
Assign rand_sets[59]: 1945  LLC: 2048
rand_sets[59]: 1945
Assign rand_sets[60]: 143  LLC: 2048
rand_sets[60]: 143
Assign rand_sets[61]: 1311  LLC: 2048
rand_sets[61]: 1311
Assign rand_sets[62]: 319  LLC: 2048
rand_sets[62]: 319
Assign rand_sets[63]: 1846  LLC: 2048
rand_sets[63]: 1846
 CLEAN-RRIP-POLICY-1: 1-2-0-2-2-2-2-0- CLEAN-RRIP-POLICY-2: 1-2-0-2-2-2-2-0-
 DIRTY-RRIP-POLICY-1: 1-2-2-2-0-2-1-0- DIRTY-RRIP-POLICY-2: 1-2-2-2-0-2-1-0-
 PSEL width: 10
Heartbeat CPU 0 instructions: 10000002 cycles: 6559548 heartbeat IPC: 1.5245 cumulative IPC: 1.5245 (Simulation time: 0 hr 0 min 25 sec) 
Heartbeat CPU 0 instructions: 20000000 cycles: 12222159 heartbeat IPC: 1.76597 cumulative IPC: 1.63637 (Simulation time: 0 hr 0 min 48 sec) 
Heartbeat CPU 0 instructions: 30000003 cycles: 18203952 heartbeat IPC: 1.67174 cumulative IPC: 1.64799 (Simulation time: 0 hr 1 min 12 sec) 
Heartbeat CPU 0 instructions: 40000000 cycles: 24059288 heartbeat IPC: 1.70784 cumulative IPC: 1.66256 (Simulation time: 0 hr 1 min 36 sec) 
Heartbeat CPU 0 instructions: 50000000 cycles: 29527784 heartbeat IPC: 1.82866 cumulative IPC: 1.69332 (Simulation time: 0 hr 1 min 59 sec) 
Heartbeat CPU 0 instructions: 60000000 cycles: 35640245 heartbeat IPC: 1.636 cumulative IPC: 1.68349 (Simulation time: 0 hr 2 min 24 sec) 
Heartbeat CPU 0 instructions: 70000000 cycles: 41359986 heartbeat IPC: 1.74833 cumulative IPC: 1.69246 (Simulation time: 0 hr 2 min 47 sec) 
Heartbeat CPU 0 instructions: 80000000 cycles: 47230969 heartbeat IPC: 1.70329 cumulative IPC: 1.6938 (Simulation time: 0 hr 3 min 10 sec) 
Heartbeat CPU 0 instructions: 90000000 cycles: 52984474 heartbeat IPC: 1.73807 cumulative IPC: 1.69861 (Simulation time: 0 hr 3 min 34 sec) 
Heartbeat CPU 0 instructions: 100000000 cycles: 58537458 heartbeat IPC: 1.80083 cumulative IPC: 1.70831 (Simulation time: 0 hr 3 min 57 sec) 

Warmup complete CPU 0 instructions: 100000004 cycles: 58537460 (Simulation time: 0 hr 3 min 57 sec) 

Heartbeat CPU 0 instructions: 110000002 cycles: 73249853 heartbeat IPC: 0.679699 cumulative IPC: 0.679699 (Simulation time: 0 hr 4 min 27 sec) 
Heartbeat CPU 0 instructions: 120000000 cycles: 84765738 heartbeat IPC: 0.868366 cumulative IPC: 0.762536 (Simulation time: 0 hr 4 min 55 sec) 
Heartbeat CPU 0 instructions: 130000000 cycles: 95616009 heartbeat IPC: 0.921636 cumulative IPC: 0.809093 (Simulation time: 0 hr 5 min 21 sec) 
Heartbeat CPU 0 instructions: 140000000 cycles: 107430626 heartbeat IPC: 0.846409 cumulative IPC: 0.81811 (Simulation time: 0 hr 5 min 49 sec) 
Heartbeat CPU 0 instructions: 150000002 cycles: 119332851 heartbeat IPC: 0.840179 cumulative IPC: 0.822431 (Simulation time: 0 hr 6 min 17 sec) 
Heartbeat CPU 0 instructions: 160000000 cycles: 129112033 heartbeat IPC: 1.02258 cumulative IPC: 0.850164 (Simulation time: 0 hr 6 min 43 sec) 
Heartbeat CPU 0 instructions: 170000003 cycles: 140992728 heartbeat IPC: 0.841702 cumulative IPC: 0.848945 (Simulation time: 0 hr 7 min 10 sec) 
Heartbeat CPU 0 instructions: 180000000 cycles: 154243069 heartbeat IPC: 0.754697 cumulative IPC: 0.835897 (Simulation time: 0 hr 7 min 39 sec) 
Heartbeat CPU 0 instructions: 190000000 cycles: 169363248 heartbeat IPC: 0.661368 cumulative IPC: 0.812085 (Simulation time: 0 hr 8 min 6 sec) 
Heartbeat CPU 0 instructions: 200000000 cycles: 184450312 heartbeat IPC: 0.66282 cumulative IPC: 0.7942 (Simulation time: 0 hr 8 min 34 sec) 
Heartbeat CPU 0 instructions: 210000000 cycles: 199526331 heartbeat IPC: 0.663305 cumulative IPC: 0.780203 (Simulation time: 0 hr 9 min 1 sec) 
Heartbeat CPU 0 instructions: 220000000 cycles: 215358039 heartbeat IPC: 0.631644 cumulative IPC: 0.765206 (Simulation time: 0 hr 9 min 31 sec) 
Heartbeat CPU 0 instructions: 230000003 cycles: 233434698 heartbeat IPC: 0.5532 cumulative IPC: 0.743294 (Simulation time: 0 hr 10 min 3 sec) 
Heartbeat CPU 0 instructions: 240000000 cycles: 243705549 heartbeat IPC: 0.973629 cumulative IPC: 0.75607 (Simulation time: 0 hr 10 min 29 sec) 
Heartbeat CPU 0 instructions: 250000000 cycles: 253372527 heartbeat IPC: 1.03445 cumulative IPC: 0.769882 (Simulation time: 0 hr 10 min 55 sec) 
Heartbeat CPU 0 instructions: 260000000 cycles: 263474768 heartbeat IPC: 0.989879 cumulative IPC: 0.780727 (Simulation time: 0 hr 11 min 20 sec) 
Heartbeat CPU 0 instructions: 270000000 cycles: 273640148 heartbeat IPC: 0.983731 cumulative IPC: 0.79032 (Simulation time: 0 hr 11 min 47 sec) 
Heartbeat CPU 0 instructions: 280000000 cycles: 283282178 heartbeat IPC: 1.03713 cumulative IPC: 0.800909 (Simulation time: 0 hr 12 min 14 sec) 
Heartbeat CPU 0 instructions: 290000000 cycles: 293467581 heartbeat IPC: 0.981797 cumulative IPC: 0.808751 (Simulation time: 0 hr 12 min 42 sec) 
Heartbeat CPU 0 instructions: 300000000 cycles: 302712743 heartbeat IPC: 1.08165 cumulative IPC: 0.819084 (Simulation time: 0 hr 13 min 8 sec) 
Heartbeat CPU 0 instructions: 310000002 cycles: 317713126 heartbeat IPC: 0.66665 cumulative IPC: 0.810261 (Simulation time: 0 hr 13 min 39 sec) 
Heartbeat CPU 0 instructions: 320000000 cycles: 334132854 heartbeat IPC: 0.609023 cumulative IPC: 0.798272 (Simulation time: 0 hr 14 min 12 sec) 
Heartbeat CPU 0 instructions: 330000002 cycles: 344836991 heartbeat IPC: 0.934218 cumulative IPC: 0.803354 (Simulation time: 0 hr 14 min 39 sec) 
Heartbeat CPU 0 instructions: 340000000 cycles: 355838550 heartbeat IPC: 0.908962 cumulative IPC: 0.807262 (Simulation time: 0 hr 15 min 7 sec) 
Heartbeat CPU 0 instructions: 350000002 cycles: 369667243 heartbeat IPC: 0.723134 cumulative IPC: 0.803523 (Simulation time: 0 hr 15 min 38 sec) 
Heartbeat CPU 0 instructions: 360000000 cycles: 381238412 heartbeat IPC: 0.864217 cumulative IPC: 0.8057 (Simulation time: 0 hr 16 min 6 sec) 
Heartbeat CPU 0 instructions: 370000000 cycles: 392341096 heartbeat IPC: 0.900683 cumulative IPC: 0.808859 (Simulation time: 0 hr 16 min 33 sec) 
Heartbeat CPU 0 instructions: 380000000 cycles: 403109467 heartbeat IPC: 0.928646 cumulative IPC: 0.812602 (Simulation time: 0 hr 17 min 1 sec) 
Heartbeat CPU 0 instructions: 390000003 cycles: 421422880 heartbeat IPC: 0.546048 cumulative IPC: 0.79915 (Simulation time: 0 hr 17 min 35 sec) 
Heartbeat CPU 0 instructions: 400000000 cycles: 433833320 heartbeat IPC: 0.805773 cumulative IPC: 0.799369 (Simulation time: 0 hr 18 min 3 sec) 
Heartbeat CPU 0 instructions: 410000002 cycles: 445700461 heartbeat IPC: 0.842663 cumulative IPC: 0.800696 (Simulation time: 0 hr 18 min 29 sec) 
Heartbeat CPU 0 instructions: 420000000 cycles: 457499279 heartbeat IPC: 0.847542 cumulative IPC: 0.802082 (Simulation time: 0 hr 18 min 56 sec) 
Heartbeat CPU 0 instructions: 430000003 cycles: 469290140 heartbeat IPC: 0.848115 cumulative IPC: 0.803403 (Simulation time: 0 hr 19 min 23 sec) 
Heartbeat CPU 0 instructions: 440000000 cycles: 482076674 heartbeat IPC: 0.782073 cumulative IPC: 0.802759 (Simulation time: 0 hr 19 min 49 sec) 
Heartbeat CPU 0 instructions: 450000002 cycles: 497192706 heartbeat IPC: 0.661549 cumulative IPC: 0.797893 (Simulation time: 0 hr 20 min 16 sec) 
Heartbeat CPU 0 instructions: 460000000 cycles: 512271324 heartbeat IPC: 0.663191 cumulative IPC: 0.793417 (Simulation time: 0 hr 20 min 43 sec) 
Heartbeat CPU 0 instructions: 470000003 cycles: 527348151 heartbeat IPC: 0.66327 cumulative IPC: 0.789231 (Simulation time: 0 hr 21 min 10 sec) 
Heartbeat CPU 0 instructions: 480000000 cycles: 543218131 heartbeat IPC: 0.63012 cumulative IPC: 0.784021 (Simulation time: 0 hr 21 min 39 sec) 
Heartbeat CPU 0 instructions: 490000002 cycles: 561375850 heartbeat IPC: 0.55073 cumulative IPC: 0.775597 (Simulation time: 0 hr 22 min 10 sec) 
Heartbeat CPU 0 instructions: 500000000 cycles: 571649223 heartbeat IPC: 0.97339 cumulative IPC: 0.779557 (Simulation time: 0 hr 22 min 36 sec) 
Heartbeat CPU 0 instructions: 510000002 cycles: 581359789 heartbeat IPC: 1.02981 cumulative IPC: 0.784205 (Simulation time: 0 hr 23 min 0 sec) 
Heartbeat CPU 0 instructions: 520000000 cycles: 591445397 heartbeat IPC: 0.991512 cumulative IPC: 0.788129 (Simulation time: 0 hr 23 min 25 sec) 
Heartbeat CPU 0 instructions: 530000002 cycles: 601649268 heartbeat IPC: 0.98002 cumulative IPC: 0.791734 (Simulation time: 0 hr 23 min 51 sec) 
Heartbeat CPU 0 instructions: 540000000 cycles: 611257536 heartbeat IPC: 1.04077 cumulative IPC: 0.796063 (Simulation time: 0 hr 24 min 17 sec) 
Heartbeat CPU 0 instructions: 550000002 cycles: 621473729 heartbeat IPC: 0.978838 cumulative IPC: 0.79938 (Simulation time: 0 hr 24 min 45 sec) 
Heartbeat CPU 0 instructions: 560000000 cycles: 630707216 heartbeat IPC: 1.08301 cumulative IPC: 0.803957 (Simulation time: 0 hr 25 min 10 sec) 
Heartbeat CPU 0 instructions: 570000003 cycles: 645519048 heartbeat IPC: 0.675136 cumulative IPC: 0.800707 (Simulation time: 0 hr 25 min 40 sec) 
Heartbeat CPU 0 instructions: 580000000 cycles: 662073524 heartbeat IPC: 0.604066 cumulative IPC: 0.795313 (Simulation time: 0 hr 26 min 12 sec) 
Heartbeat CPU 0 instructions: 590000002 cycles: 672401632 heartbeat IPC: 0.968232 cumulative IPC: 0.798222 (Simulation time: 0 hr 26 min 38 sec) 
Heartbeat CPU 0 instructions: 600000000 cycles: 683796506 heartbeat IPC: 0.877587 cumulative IPC: 0.799669 (Simulation time: 0 hr 27 min 5 sec) 
Finished CPU 0 instructions: 500000000 cycles: 625259065 cumulative IPC: 0.799669 (Simulation time: 0 hr 27 min 5 sec) 

CPU 0 Branch Prediction Accuracy: 99.5219% MPKI: 0.251582
Number of Branches: 26312578 Number of Mispredictions: 125791
Number of LOAD Instructions: 235643083
Number of LOAD Instructions (ROI): 235643083
Number of STORE Instructions: 37593550
Number of STORE Instructions (ROI): 37593550
Total Destination Memory Operands: 40480968
Total Destination Memory Operands (ROI): 40480968
Total Source Memory Operands: 235643083
Total Source Memory Operands (ROI): 235643083
Number of DEPENDED LOADS: 6701858
Number of DEPENDED LOADS (ROI): 6701858
Number of SQ_ADDED: 40480950
Number of SQ_ADDED (ROI): 40480950
Number of LQ_ADDED: 397062305
Number of LQ_ADDED (ROI): 397062305
Number of Instructions read from trace: 600000259

ChampSim completed all CPUs

Region of Interest Statistics

CPU 0 cumulative IPC: 0.799669 instructions: 500000000 cycles: 625259065
ITLB TOTAL     ACCESS:  109399710  HIT:  109399197  MISS:        513
ITLB LOAD      ACCESS:  109399710  HIT:  109399197  MISS:        513
ITLB RFO       ACCESS:          0  HIT:          0  MISS:          0
ITLB PREFETCH  ACCESS:          0  HIT:          0  MISS:          0
ITLB WRITEBACK ACCESS:          0  HIT:          0  MISS:          0
ITLB PREFETCH  REQUESTED:          0  ISSUED:          0  USEFUL:          0  USELESS:          0
ITLB TOTAL MSHR MERGED:        979
ITLB LOAD MSHR MERGED:        979
ITLB RFO MSHR MERGED:          0
ITLB PREFETCH MSHR MERGED:          0
ITLB WRITEBACK MSHR MERGED:          0
ITLB TOTAL ACCESSES:  109400689 HITS:  109399197 MISSES:       1492
ITLB LOAD ACCESSES:  109400689 HITS:  109399197 MISSES:       1492
ITLB RFO ACCESSES:          0 HITS:          0 MISSES:          0
ITLB PREFETCH ACCESSES:          0 HITS:          0 MISSES:          0
ITLB WRITEBACK ACCESSES:          0 HITS:          0 MISSES:          0
ITLB RQ ACCESS:  500000003
ITLB RQ TO_CACHE:  109400689
ITLB RQ MERGED:  390599314
ITLB RQ FORWARD:          0
ITLB WQ ACCESS:          0
ITLB WQ TO_CACHE:          0
ITLB WQ MERGED:          0
ITLB WQ FORWARD:          0
DTLB TOTAL     ACCESS:  130432160  HIT:  130174589  MISS:     257571
DTLB LOAD      ACCESS:  109101634  HIT:  108880898  MISS:     220736
DTLB RFO       ACCESS:   21330526  HIT:   21293691  MISS:      36835
DTLB PREFETCH  ACCESS:          0  HIT:          0  MISS:          0
DTLB WRITEBACK ACCESS:          0  HIT:          0  MISS:          0
DTLB PREFETCH  REQUESTED:          0  ISSUED:          0  USEFUL:          0  USELESS:          0
DTLB TOTAL MSHR MERGED:     121913
DTLB LOAD MSHR MERGED:      84011
DTLB RFO MSHR MERGED:      37902
DTLB PREFETCH MSHR MERGED:          0
DTLB WRITEBACK MSHR MERGED:          0
DTLB TOTAL ACCESSES:  130554073 HITS:  130174589 MISSES:     379484
DTLB LOAD ACCESSES:  109185645 HITS:  108880898 MISSES:     304747
DTLB RFO ACCESSES:   21368428 HITS:   21293691 MISSES:      74737
DTLB PREFETCH ACCESSES:          0 HITS:          0 MISSES:          0
DTLB WRITEBACK ACCESSES:          0 HITS:          0 MISSES:          0
DTLB RQ ACCESS:  218632629
DTLB RQ TO_CACHE:  130554074
DTLB RQ MERGED:   88078555
DTLB RQ FORWARD:          0
DTLB WQ ACCESS:          0
DTLB WQ TO_CACHE:          0
DTLB WQ MERGED:          0
DTLB WQ FORWARD:          0
L1D TOTAL     ACCESS:  204644820  HIT:  193573848  MISS:   11070972
L1D LOAD      ACCESS:  106140922  HIT:  102875786  MISS:    3265136
L1D RFO       ACCESS:   26937505  HIT:   25187166  MISS:    1750339
L1D PREFETCH  ACCESS:   71566393  HIT:   65510896  MISS:    6055497
L1D WRITEBACK ACCESS:          0  HIT:          0  MISS:          0
L1D PREFETCH  REQUESTED:  108975194  ISSUED:  107320018  USEFUL:    5602193  USELESS:     453298
L1D TOTAL MSHR MERGED:   18506183
L1D LOAD MSHR MERGED:    4942629
L1D RFO MSHR MERGED:    6489263
L1D PREFETCH MSHR MERGED:    7074291
L1D WRITEBACK MSHR MERGED:          0
L1D TOTAL ACCESSES:  223217416 HITS:  193640261 MISSES:   29577155
L1D LOAD ACCESSES:  109004066 HITS:  102904658 MISSES:    6099408
L1D RFO ACCESSES:   33424255 HITS:   25187166 MISSES:    8237089
L1D PREFETCH ACCESSES:   80789095 HITS:   65548437 MISSES:   15240658
L1D WRITEBACK ACCESSES:          0 HITS:          0 MISSES:          0
L1D RQ ACCESS:  184989191
L1D RQ TO_CACHE:  108975194
L1D RQ MERGED:   75985125
L1D RQ FORWARD:          0
L1D WQ ACCESS:   33643426
L1D WQ TO_CACHE:   33424254
L1D WQ MERGED:     219172
L1D WQ FORWARD:      66413
L1I TOTAL     ACCESS:  134079342  HIT:  134054764  MISS:      24578
L1I LOAD      ACCESS:  134079342  HIT:  134054764  MISS:      24578
L1I RFO       ACCESS:          0  HIT:          0  MISS:          0
L1I PREFETCH  ACCESS:          0  HIT:          0  MISS:          0
L1I WRITEBACK ACCESS:          0  HIT:          0  MISS:          0
L1I PREFETCH  REQUESTED:          0  ISSUED:          0  USEFUL:          0  USELESS:          0
L1I TOTAL MSHR MERGED:      30473
L1I LOAD MSHR MERGED:      30473
L1I RFO MSHR MERGED:          0
L1I PREFETCH MSHR MERGED:          0
L1I WRITEBACK MSHR MERGED:          0
L1I TOTAL ACCESSES:  134109815 HITS:  134054764 MISSES:      55051
L1I LOAD ACCESSES:  134109815 HITS:  134054764 MISSES:      55051
L1I RFO ACCESSES:          0 HITS:          0 MISSES:          0
L1I PREFETCH ACCESSES:          0 HITS:          0 MISSES:          0
L1I WRITEBACK ACCESSES:          0 HITS:          0 MISSES:          0
L1I RQ ACCESS:  500000005
L1I RQ TO_CACHE:  134109815
L1I RQ MERGED:  365890190
L1I RQ FORWARD:          0
L1I WQ ACCESS:          0
L1I WQ TO_CACHE:          0
L1I WQ MERGED:          0
L1I WQ FORWARD:          0
L2C TOTAL     ACCESS:   14937603  HIT:    6942028  MISS:    7995575
L2C LOAD      ACCESS:    1181152  HIT:     297924  MISS:     883228
L2C RFO       ACCESS:    1747627  HIT:     368791  MISS:    1378836
L2C PREFETCH  ACCESS:    8327001  HIT:    2602183  MISS:    5724818
L2C WRITEBACK ACCESS:    3681823  HIT:    3673130  MISS:       8693
L2C PREFETCH  REQUESTED:     385413  ISSUED:     385407  USEFUL:     113009  USELESS:    5612638
L2C TOTAL MSHR MERGED:      42435
L2C LOAD MSHR MERGED:       2155
L2C RFO MSHR MERGED:       1171
L2C PREFETCH MSHR MERGED:      39109
L2C WRITEBACK MSHR MERGED:          0
L2C TOTAL ACCESSES:   15098627 HITS:    6942682 MISSES:    8155945
L2C LOAD ACCESSES:    1181357 HITS:     298129 MISSES:     883228
L2C RFO ACCESSES:    1747826 HITS:     368990 MISSES:    1378836
L2C PREFETCH ACCESSES:    8487621 HITS:    2602433 MISSES:    5885188
L2C WRITEBACK ACCESSES:    3681823 HITS:    3673130 MISSES:       8693
L2C RQ ACCESS:    2929183
L2C RQ TO_CACHE:    2928779
L2C RQ MERGED:          0
L2C RQ FORWARD:          0
L2C WQ ACCESS:    3681823
L2C WQ TO_CACHE:    3681823
L2C WQ MERGED:          0
L2C WQ FORWARD:        654
LLC TOTAL     ACCESS:   11181303  HIT:    3509018  MISS:    7672285
LLC LOAD      ACCESS:     881068  HIT:     236949  MISS:     644119
LLC RFO       ACCESS:    1377664  HIT:     144734  MISS:    1232930
LLC PREFETCH  ACCESS:    5818950  HIT:    1123278  MISS:    4695672
LLC WRITEBACK ACCESS:    3103621  HIT:    2004057  MISS:    1099564
LLC PREFETCH  REQUESTED:          0  ISSUED:          0  USEFUL:     158481  USELESS:    4536656
LLC TOTAL MSHR MERGED:      19516
LLC LOAD MSHR MERGED:       5600
LLC RFO MSHR MERGED:        665
LLC PREFETCH MSHR MERGED:      13251
LLC WRITEBACK MSHR MERGED:          0
LLC TOTAL ACCESSES:   11200834 HITS:    3509033 MISSES:    7691801
LLC LOAD ACCESSES:     881073 HITS:     236954 MISSES:     644119
LLC RFO ACCESSES:    1377665 HITS:     144735 MISSES:    1232930
LLC PREFETCH ACCESSES:    5838475 HITS:    1123287 MISSES:    4715188
LLC WRITEBACK ACCESSES:    3103621 HITS:    2004057 MISSES:    1099564
LLC 0 RQ ACCESS:    2258738
LLC 0 RQ TO_CACHE:    2258732
LLC 0 RQ MERGED:          0
LLC 0 RQ FORWARD:          0
LLC WQ ACCESS:    3103621
LLC WQ TO_CACHE:    3103621
LLC WQ MERGED:          0
LLC WQ FORWARD:         15
Major fault: 0 Minor fault: 11519
CPU 0 L1D next line prefetcher final stats
CPU 0 L2C PC-based stride prefetcher final stats
All Misses: 9602245
All Hits: 4190259
SD Algo Stats - Switches: 0 SRR-Repls: 723429 BRR-Repls: 0

DRAM Statistics
 CHANNEL 0
 RQ ROW_BUFFER_HIT:    3723216  ROW_BUFFER_MISS:    2848647
 DBUS_CONGESTED:    5060286
 WQ ROW_BUFFER_HIT:     580389  ROW_BUFFER_MISS:    2164327  FULL:         78

 AVG_CONGESTED_CYCLE: 13
LOADS RETIRED: 190375692
INSTR RETIRED: 500000000
