
*** ChampSim Multicore Out-of-Order Simulator ***

Warmup Instructions: 100000000
Simulation Instructions: 500000000
Number of CPUs: 1
LLC sets: 2048
LLC ways: 16
Clean RRIP Policies: 2113130121131301 Dirty RRIP Policies: 1103130111031301 PSEL Width: 10 Track Set: 4294967295 PSEL Mask: 1 Demote Mask: 2141400021414DS Algo: 0Window size: 0
Off-chip DRAM Size: 4096 MB Channels: 1 Width: 64-bit Data Rate: 1600 MT/s

CPU 0 runs /mnt/beegfs/iconst01/spec2017/Gcc.trace.gz
NOT SORTED
TRACE STRING: /mnt/beegfs/iconst01/spec2017/Gcc.trace.gz
SORTED
TRACE STRING: /mnt/beegfs/iconst01/spec2017/Gcc.trace.gz
INITIAL
TRACE STRING: /mnt/beegfs/iconst01/spec2017/Gcc.trace.gz

champsim_seed used: 269

CPU 0 L1D next line prefetcher
CPU 0 L2C IP-based stride prefetcher
Initialize DRRIP state
Assign rand_sets[0]: 454  LLC: 2048
rand_sets[0]: 454
Assign rand_sets[1]: 1662  LLC: 2048
rand_sets[1]: 1662
Assign rand_sets[2]: 1921  LLC: 2048
rand_sets[2]: 1921
Assign rand_sets[3]: 1131  LLC: 2048
rand_sets[3]: 1131
Assign rand_sets[4]: 331  LLC: 2048
rand_sets[4]: 331
Assign rand_sets[5]: 1531  LLC: 2048
rand_sets[5]: 1531
Assign rand_sets[6]: 482  LLC: 2048
rand_sets[6]: 482
Assign rand_sets[7]: 1275  LLC: 2048
rand_sets[7]: 1275
Assign rand_sets[8]: 1876  LLC: 2048
rand_sets[8]: 1876
Assign rand_sets[9]: 2038  LLC: 2048
rand_sets[9]: 2038
Assign rand_sets[10]: 701  LLC: 2048
rand_sets[10]: 701
Assign rand_sets[11]: 479  LLC: 2048
rand_sets[11]: 479
Assign rand_sets[12]: 892  LLC: 2048
rand_sets[12]: 892
Assign rand_sets[13]: 1820  LLC: 2048
rand_sets[13]: 1820
Assign rand_sets[14]: 1505  LLC: 2048
rand_sets[14]: 1505
Assign rand_sets[15]: 1159  LLC: 2048
rand_sets[15]: 1159
Assign rand_sets[16]: 513  LLC: 2048
rand_sets[16]: 513
Assign rand_sets[17]: 703  LLC: 2048
rand_sets[17]: 703
Assign rand_sets[18]: 561  LLC: 2048
rand_sets[18]: 561
Assign rand_sets[19]: 990  LLC: 2048
rand_sets[19]: 990
Assign rand_sets[20]: 342  LLC: 2048
rand_sets[20]: 342
Assign rand_sets[21]: 882  LLC: 2048
rand_sets[21]: 882
Assign rand_sets[22]: 15  LLC: 2048
rand_sets[22]: 15
Assign rand_sets[23]: 71  LLC: 2048
rand_sets[23]: 71
Assign rand_sets[24]: 1127  LLC: 2048
rand_sets[24]: 1127
Assign rand_sets[25]: 1382  LLC: 2048
rand_sets[25]: 1382
Assign rand_sets[26]: 647  LLC: 2048
rand_sets[26]: 647
Assign rand_sets[27]: 857  LLC: 2048
rand_sets[27]: 857
Assign rand_sets[28]: 1450  LLC: 2048
rand_sets[28]: 1450
Assign rand_sets[29]: 1160  LLC: 2048
rand_sets[29]: 1160
Assign rand_sets[30]: 1852  LLC: 2048
rand_sets[30]: 1852
Assign rand_sets[31]: 1881  LLC: 2048
rand_sets[31]: 1881
Assign rand_sets[32]: 1770  LLC: 2048
rand_sets[32]: 1770
Assign rand_sets[33]: 1622  LLC: 2048
rand_sets[33]: 1622
Assign rand_sets[34]: 275  LLC: 2048
rand_sets[34]: 275
Assign rand_sets[35]: 635  LLC: 2048
rand_sets[35]: 635
Assign rand_sets[36]: 466  LLC: 2048
rand_sets[36]: 466
Assign rand_sets[37]: 1413  LLC: 2048
rand_sets[37]: 1413
Assign rand_sets[38]: 417  LLC: 2048
rand_sets[38]: 417
Assign rand_sets[39]: 472  LLC: 2048
rand_sets[39]: 472
Assign rand_sets[40]: 1340  LLC: 2048
rand_sets[40]: 1340
Assign rand_sets[41]: 852  LLC: 2048
rand_sets[41]: 852
Assign rand_sets[42]: 1365  LLC: 2048
rand_sets[42]: 1365
Assign rand_sets[43]: 47  LLC: 2048
rand_sets[43]: 47
Assign rand_sets[44]: 823  LLC: 2048
rand_sets[44]: 823
Assign rand_sets[45]: 686  LLC: 2048
rand_sets[45]: 686
Assign rand_sets[46]: 1637  LLC: 2048
rand_sets[46]: 1637
Assign rand_sets[47]: 1115  LLC: 2048
rand_sets[47]: 1115
Assign rand_sets[48]: 986  LLC: 2048
rand_sets[48]: 986
Assign rand_sets[49]: 258  LLC: 2048
rand_sets[49]: 258
Assign rand_sets[50]: 633  LLC: 2048
rand_sets[50]: 633
Assign rand_sets[51]: 920  LLC: 2048
rand_sets[51]: 920
Assign rand_sets[52]: 204  LLC: 2048
rand_sets[52]: 204
Assign rand_sets[53]: 227  LLC: 2048
rand_sets[53]: 227
Assign rand_sets[54]: 1818  LLC: 2048
rand_sets[54]: 1818
Assign rand_sets[55]: 886  LLC: 2048
rand_sets[55]: 886
Assign rand_sets[56]: 1422  LLC: 2048
rand_sets[56]: 1422
Assign rand_sets[57]: 607  LLC: 2048
rand_sets[57]: 607
Assign rand_sets[58]: 217  LLC: 2048
rand_sets[58]: 217
Assign rand_sets[59]: 1945  LLC: 2048
rand_sets[59]: 1945
Assign rand_sets[60]: 143  LLC: 2048
rand_sets[60]: 143
Assign rand_sets[61]: 1311  LLC: 2048
rand_sets[61]: 1311
Assign rand_sets[62]: 319  LLC: 2048
rand_sets[62]: 319
Assign rand_sets[63]: 1846  LLC: 2048
rand_sets[63]: 1846
 CLEAN-RRIP-POLICY-1: 2-1-1-3-1-3-0-1- CLEAN-RRIP-POLICY-2: 2-1-1-3-1-3-0-1-
 DIRTY-RRIP-POLICY-1: 1-1-0-3-1-3-0-1- DIRTY-RRIP-POLICY-2: 1-1-0-3-1-3-0-1-
 PSEL width: 10
Heartbeat CPU 0 instructions: 10000001 cycles: 7315982 heartbeat IPC: 1.36687 cumulative IPC: 1.36687 (Simulation time: 0 hr 0 min 15 sec) 
Heartbeat CPU 0 instructions: 20000000 cycles: 14307403 heartbeat IPC: 1.43032 cumulative IPC: 1.39788 (Simulation time: 0 hr 0 min 30 sec) 
Heartbeat CPU 0 instructions: 30000001 cycles: 21020112 heartbeat IPC: 1.48971 cumulative IPC: 1.4272 (Simulation time: 0 hr 0 min 47 sec) 
Heartbeat CPU 0 instructions: 40000000 cycles: 27480879 heartbeat IPC: 1.5478 cumulative IPC: 1.45556 (Simulation time: 0 hr 1 min 4 sec) 
Heartbeat CPU 0 instructions: 50000001 cycles: 33582471 heartbeat IPC: 1.63892 cumulative IPC: 1.48887 (Simulation time: 0 hr 1 min 20 sec) 
Heartbeat CPU 0 instructions: 60000000 cycles: 40063507 heartbeat IPC: 1.54296 cumulative IPC: 1.49762 (Simulation time: 0 hr 1 min 37 sec) 
Heartbeat CPU 0 instructions: 70000000 cycles: 47100506 heartbeat IPC: 1.42106 cumulative IPC: 1.48618 (Simulation time: 0 hr 1 min 52 sec) 
Heartbeat CPU 0 instructions: 80000000 cycles: 54189752 heartbeat IPC: 1.41059 cumulative IPC: 1.47629 (Simulation time: 0 hr 2 min 8 sec) 
Heartbeat CPU 0 instructions: 90000003 cycles: 61193778 heartbeat IPC: 1.42775 cumulative IPC: 1.47074 (Simulation time: 0 hr 2 min 23 sec) 
Heartbeat CPU 0 instructions: 100000000 cycles: 68360571 heartbeat IPC: 1.39532 cumulative IPC: 1.46283 (Simulation time: 0 hr 2 min 39 sec) 

Warmup complete CPU 0 instructions: 100000004 cycles: 68360572 (Simulation time: 0 hr 2 min 39 sec) 

Heartbeat CPU 0 instructions: 110000003 cycles: 95929686 heartbeat IPC: 0.362725 cumulative IPC: 0.362725 (Simulation time: 0 hr 3 min 9 sec) 
Heartbeat CPU 0 instructions: 120000000 cycles: 123359658 heartbeat IPC: 0.364565 cumulative IPC: 0.363642 (Simulation time: 0 hr 3 min 40 sec) 
Heartbeat CPU 0 instructions: 130000000 cycles: 148309678 heartbeat IPC: 0.400801 cumulative IPC: 0.375239 (Simulation time: 0 hr 4 min 11 sec) 
Heartbeat CPU 0 instructions: 140000000 cycles: 177598485 heartbeat IPC: 0.341427 cumulative IPC: 0.366173 (Simulation time: 0 hr 4 min 41 sec) 
Heartbeat CPU 0 instructions: 150000000 cycles: 207364564 heartbeat IPC: 0.335953 cumulative IPC: 0.359702 (Simulation time: 0 hr 5 min 12 sec) 
Heartbeat CPU 0 instructions: 160000000 cycles: 234730740 heartbeat IPC: 0.365415 cumulative IPC: 0.360642 (Simulation time: 0 hr 5 min 42 sec) 
Heartbeat CPU 0 instructions: 170000001 cycles: 262689996 heartbeat IPC: 0.357663 cumulative IPC: 0.360213 (Simulation time: 0 hr 6 min 14 sec) 
Heartbeat CPU 0 instructions: 180000000 cycles: 291053657 heartbeat IPC: 0.352564 cumulative IPC: 0.359239 (Simulation time: 0 hr 6 min 45 sec) 
Heartbeat CPU 0 instructions: 190000002 cycles: 318943180 heartbeat IPC: 0.358558 cumulative IPC: 0.359163 (Simulation time: 0 hr 7 min 16 sec) 
Heartbeat CPU 0 instructions: 200000000 cycles: 347219144 heartbeat IPC: 0.353657 cumulative IPC: 0.358605 (Simulation time: 0 hr 7 min 47 sec) 
Heartbeat CPU 0 instructions: 210000002 cycles: 374965265 heartbeat IPC: 0.360411 cumulative IPC: 0.358768 (Simulation time: 0 hr 8 min 18 sec) 
Heartbeat CPU 0 instructions: 220000000 cycles: 403935397 heartbeat IPC: 0.345183 cumulative IPC: 0.357595 (Simulation time: 0 hr 8 min 47 sec) 
Heartbeat CPU 0 instructions: 230000000 cycles: 431408606 heartbeat IPC: 0.363991 cumulative IPC: 0.358079 (Simulation time: 0 hr 9 min 17 sec) 
Heartbeat CPU 0 instructions: 240000000 cycles: 457337034 heartbeat IPC: 0.385677 cumulative IPC: 0.359919 (Simulation time: 0 hr 9 min 46 sec) 
Heartbeat CPU 0 instructions: 250000000 cycles: 487404504 heartbeat IPC: 0.332585 cumulative IPC: 0.357958 (Simulation time: 0 hr 10 min 19 sec) 
Heartbeat CPU 0 instructions: 260000000 cycles: 514449234 heartbeat IPC: 0.369758 cumulative IPC: 0.358673 (Simulation time: 0 hr 10 min 49 sec) 
Heartbeat CPU 0 instructions: 270000003 cycles: 542768979 heartbeat IPC: 0.353111 cumulative IPC: 0.358341 (Simulation time: 0 hr 11 min 21 sec) 
Heartbeat CPU 0 instructions: 280000000 cycles: 570803636 heartbeat IPC: 0.356701 cumulative IPC: 0.35825 (Simulation time: 0 hr 11 min 52 sec) 
Heartbeat CPU 0 instructions: 290000000 cycles: 599578667 heartbeat IPC: 0.347524 cumulative IPC: 0.357669 (Simulation time: 0 hr 12 min 24 sec) 
Heartbeat CPU 0 instructions: 300000000 cycles: 629234145 heartbeat IPC: 0.337206 cumulative IPC: 0.356587 (Simulation time: 0 hr 12 min 55 sec) 
Heartbeat CPU 0 instructions: 310000001 cycles: 658503406 heartbeat IPC: 0.341655 cumulative IPC: 0.355846 (Simulation time: 0 hr 13 min 25 sec) 
Heartbeat CPU 0 instructions: 320000000 cycles: 686584951 heartbeat IPC: 0.356106 cumulative IPC: 0.355858 (Simulation time: 0 hr 13 min 55 sec) 
Heartbeat CPU 0 instructions: 330000000 cycles: 715121288 heartbeat IPC: 0.35043 cumulative IPC: 0.355618 (Simulation time: 0 hr 14 min 26 sec) 
Heartbeat CPU 0 instructions: 340000000 cycles: 744311314 heartbeat IPC: 0.342583 cumulative IPC: 0.355055 (Simulation time: 0 hr 14 min 56 sec) 
Heartbeat CPU 0 instructions: 350000003 cycles: 771245327 heartbeat IPC: 0.371278 cumulative IPC: 0.355677 (Simulation time: 0 hr 15 min 26 sec) 
Heartbeat CPU 0 instructions: 360000000 cycles: 799263726 heartbeat IPC: 0.356908 cumulative IPC: 0.355724 (Simulation time: 0 hr 15 min 56 sec) 
Heartbeat CPU 0 instructions: 370000000 cycles: 827437076 heartbeat IPC: 0.354945 cumulative IPC: 0.355695 (Simulation time: 0 hr 16 min 25 sec) 
Heartbeat CPU 0 instructions: 380000000 cycles: 855923818 heartbeat IPC: 0.35104 cumulative IPC: 0.355527 (Simulation time: 0 hr 16 min 54 sec) 
Heartbeat CPU 0 instructions: 390000001 cycles: 883522391 heartbeat IPC: 0.362338 cumulative IPC: 0.355758 (Simulation time: 0 hr 17 min 24 sec) 
Heartbeat CPU 0 instructions: 400000000 cycles: 912149049 heartbeat IPC: 0.349325 cumulative IPC: 0.355539 (Simulation time: 0 hr 17 min 53 sec) 
Heartbeat CPU 0 instructions: 410000001 cycles: 939460936 heartbeat IPC: 0.366141 cumulative IPC: 0.355872 (Simulation time: 0 hr 18 min 22 sec) 
Heartbeat CPU 0 instructions: 420000000 cycles: 966783906 heartbeat IPC: 0.365992 cumulative IPC: 0.35618 (Simulation time: 0 hr 18 min 51 sec) 
Heartbeat CPU 0 instructions: 430000002 cycles: 994438721 heartbeat IPC: 0.361601 cumulative IPC: 0.356341 (Simulation time: 0 hr 19 min 19 sec) 
Heartbeat CPU 0 instructions: 440000000 cycles: 1023859378 heartbeat IPC: 0.339897 cumulative IPC: 0.355835 (Simulation time: 0 hr 19 min 48 sec) 
Heartbeat CPU 0 instructions: 450000002 cycles: 1053069064 heartbeat IPC: 0.342352 cumulative IPC: 0.355435 (Simulation time: 0 hr 20 min 17 sec) 
Heartbeat CPU 0 instructions: 460000000 cycles: 1080756888 heartbeat IPC: 0.36117 cumulative IPC: 0.355592 (Simulation time: 0 hr 20 min 45 sec) 
Heartbeat CPU 0 instructions: 470000000 cycles: 1108389142 heartbeat IPC: 0.361896 cumulative IPC: 0.355759 (Simulation time: 0 hr 21 min 12 sec) 
Heartbeat CPU 0 instructions: 480000000 cycles: 1136279243 heartbeat IPC: 0.35855 cumulative IPC: 0.355832 (Simulation time: 0 hr 21 min 40 sec) 
Heartbeat CPU 0 instructions: 490000000 cycles: 1163879243 heartbeat IPC: 0.362319 cumulative IPC: 0.355996 (Simulation time: 0 hr 22 min 8 sec) 
Heartbeat CPU 0 instructions: 500000000 cycles: 1192122440 heartbeat IPC: 0.354068 cumulative IPC: 0.355947 (Simulation time: 0 hr 22 min 36 sec) 
Heartbeat CPU 0 instructions: 510000000 cycles: 1227448903 heartbeat IPC: 0.283074 cumulative IPC: 0.353726 (Simulation time: 0 hr 23 min 8 sec) 
Heartbeat CPU 0 instructions: 520000000 cycles: 1255432474 heartbeat IPC: 0.357353 cumulative IPC: 0.353812 (Simulation time: 0 hr 23 min 36 sec) 
Heartbeat CPU 0 instructions: 530000001 cycles: 1284612870 heartbeat IPC: 0.342696 cumulative IPC: 0.353545 (Simulation time: 0 hr 24 min 5 sec) 
Heartbeat CPU 0 instructions: 540000000 cycles: 1312580294 heartbeat IPC: 0.357559 cumulative IPC: 0.353635 (Simulation time: 0 hr 24 min 34 sec) 
Heartbeat CPU 0 instructions: 550000001 cycles: 1341740754 heartbeat IPC: 0.34293 cumulative IPC: 0.35339 (Simulation time: 0 hr 25 min 4 sec) 
Heartbeat CPU 0 instructions: 560000000 cycles: 1367069558 heartbeat IPC: 0.394807 cumulative IPC: 0.354198 (Simulation time: 0 hr 25 min 32 sec) 
Heartbeat CPU 0 instructions: 570000000 cycles: 1396374991 heartbeat IPC: 0.341234 cumulative IPC: 0.353912 (Simulation time: 0 hr 26 min 1 sec) 
Heartbeat CPU 0 instructions: 580000000 cycles: 1424251740 heartbeat IPC: 0.358722 cumulative IPC: 0.354011 (Simulation time: 0 hr 26 min 30 sec) 
Heartbeat CPU 0 instructions: 590000001 cycles: 1449052272 heartbeat IPC: 0.403217 cumulative IPC: 0.354895 (Simulation time: 0 hr 26 min 57 sec) 
Heartbeat CPU 0 instructions: 600000000 cycles: 1475220392 heartbeat IPC: 0.382144 cumulative IPC: 0.355401 (Simulation time: 0 hr 27 min 25 sec) 
Finished CPU 0 instructions: 500000000 cycles: 1406859842 cumulative IPC: 0.355401 (Simulation time: 0 hr 27 min 25 sec) 

CPU 0 Branch Prediction Accuracy: 86.4311% MPKI: 26.2662
Number of Branches: 96788573 Number of Mispredictions: 13133102
Number of LOAD Instructions: 164682285
Number of LOAD Instructions (ROI): 164682285
Number of STORE Instructions: 78194750
Number of STORE Instructions (ROI): 78194750
Total Destination Memory Operands: 83268534
Total Destination Memory Operands (ROI): 83268534
Total Source Memory Operands: 164712438
Total Source Memory Operands (ROI): 164712438
Number of DEPENDED LOADS: 7063293
Number of DEPENDED LOADS (ROI): 7063293
Number of SQ_ADDED: 83268522
Number of SQ_ADDED (ROI): 83268522
Number of LQ_ADDED: 236751352
Number of LQ_ADDED (ROI): 236751352
Number of Instructions read from trace: 600000066

ChampSim completed all CPUs

Region of Interest Statistics

CPU 0 cumulative IPC: 0.355401 instructions: 500000000 cycles: 1406859842
ITLB TOTAL     ACCESS:  100506560  HIT:  100302114  MISS:     204446
ITLB LOAD      ACCESS:  100506560  HIT:  100302114  MISS:     204446
ITLB RFO       ACCESS:          0  HIT:          0  MISS:          0
ITLB PREFETCH  ACCESS:          0  HIT:          0  MISS:          0
ITLB WRITEBACK ACCESS:          0  HIT:          0  MISS:          0
ITLB PREFETCH  REQUESTED:          0  ISSUED:          0  USEFUL:          0  USELESS:          0
ITLB TOTAL MSHR MERGED:     172424
ITLB LOAD MSHR MERGED:     172424
ITLB RFO MSHR MERGED:          0
ITLB PREFETCH MSHR MERGED:          0
ITLB WRITEBACK MSHR MERGED:          0
ITLB TOTAL ACCESSES:  100678984 HITS:  100302114 MISSES:     376870
ITLB LOAD ACCESSES:  100678984 HITS:  100302114 MISSES:     376870
ITLB RFO ACCESSES:          0 HITS:          0 MISSES:          0
ITLB PREFETCH ACCESSES:          0 HITS:          0 MISSES:          0
ITLB WRITEBACK ACCESSES:          0 HITS:          0 MISSES:          0
ITLB RQ ACCESS:  500000057
ITLB RQ TO_CACHE:  100678984
ITLB RQ MERGED:  399321073
ITLB RQ FORWARD:          0
ITLB WQ ACCESS:          0
ITLB WQ TO_CACHE:          0
ITLB WQ MERGED:          0
ITLB WQ FORWARD:          0
DTLB TOTAL     ACCESS:  165332113  HIT:  164697769  MISS:     634344
DTLB LOAD      ACCESS:  106288919  HIT:  105718908  MISS:     570011
DTLB RFO       ACCESS:   59043194  HIT:   58978861  MISS:      64333
DTLB PREFETCH  ACCESS:          0  HIT:          0  MISS:          0
DTLB WRITEBACK ACCESS:          0  HIT:          0  MISS:          0
DTLB PREFETCH  REQUESTED:          0  ISSUED:          0  USEFUL:          0  USELESS:          0
DTLB TOTAL MSHR MERGED:     100025
DTLB LOAD MSHR MERGED:      59493
DTLB RFO MSHR MERGED:      40532
DTLB PREFETCH MSHR MERGED:          0
DTLB WRITEBACK MSHR MERGED:          0
DTLB TOTAL ACCESSES:  165432138 HITS:  164697769 MISSES:     734369
DTLB LOAD ACCESSES:  106348412 HITS:  105718908 MISSES:     629504
DTLB RFO ACCESSES:   59083726 HITS:   58978861 MISSES:     104865
DTLB PREFETCH ACCESSES:          0 HITS:          0 MISSES:          0
DTLB WRITEBACK ACCESSES:          0 HITS:          0 MISSES:          0
DTLB RQ ACCESS:  200307620
DTLB RQ TO_CACHE:  165432138
DTLB RQ MERGED:   34875482
DTLB RQ FORWARD:          0
DTLB WQ ACCESS:          0
DTLB WQ TO_CACHE:          0
DTLB WQ MERGED:          0
DTLB WQ FORWARD:          0
L1D TOTAL     ACCESS:  281797205  HIT:  273887935  MISS:    7909270
L1D LOAD      ACCESS:  110411566  HIT:  107133116  MISS:    3278450
L1D RFO       ACCESS:   67099209  HIT:   66207849  MISS:     891360
L1D PREFETCH  ACCESS:  104286430  HIT:  100546970  MISS:    3739460
L1D WRITEBACK ACCESS:          0  HIT:          0  MISS:          0
L1D PREFETCH  REQUESTED:  110812960  ISSUED:  109113707  USEFUL:    1660274  USELESS:    2079150
L1D TOTAL MSHR MERGED:    2898432
L1D LOAD MSHR MERGED:     499272
L1D RFO MSHR MERGED:    1887428
L1D PREFETCH MSHR MERGED:     511732
L1D WRITEBACK MSHR MERGED:          0
L1D TOTAL ACCESSES:  284723173 HITS:  273915471 MISSES:   10807702
L1D LOAD ACCESSES:  110814503 HITS:  107134659 MISSES:    3679844
L1D RFO ACCESSES:   68974075 HITS:   66207849 MISSES:    2766226
L1D PREFETCH ACCESSES:  104934595 HITS:  100572963 MISSES:    4361632
L1D WRITEBACK ACCESSES:          0 HITS:          0 MISSES:          0
L1D RQ ACCESS:  130755017
L1D RQ TO_CACHE:  110812963
L1D RQ MERGED:   19940511
L1D RQ FORWARD:          0
L1D WQ ACCESS:   69552603
L1D WQ TO_CACHE:   68974076
L1D WQ MERGED:     578527
L1D WQ FORWARD:      27536
L1I TOTAL     ACCESS:  126554570  HIT:  122316017  MISS:    4238553
L1I LOAD      ACCESS:  126554570  HIT:  122316017  MISS:    4238553
L1I RFO       ACCESS:          0  HIT:          0  MISS:          0
L1I PREFETCH  ACCESS:          0  HIT:          0  MISS:          0
L1I WRITEBACK ACCESS:          0  HIT:          0  MISS:          0
L1I PREFETCH  REQUESTED:          0  ISSUED:          0  USEFUL:          0  USELESS:          0
L1I TOTAL MSHR MERGED:    1834363
L1I LOAD MSHR MERGED:    1834363
L1I RFO MSHR MERGED:          0
L1I PREFETCH MSHR MERGED:          0
L1I WRITEBACK MSHR MERGED:          0
L1I TOTAL ACCESSES:  128388936 HITS:  122316017 MISSES:    6072919
L1I LOAD ACCESSES:  128388936 HITS:  122316017 MISSES:    6072919
L1I RFO ACCESSES:          0 HITS:          0 MISSES:          0
L1I PREFETCH ACCESSES:          0 HITS:          0 MISSES:          0
L1I WRITEBACK ACCESSES:          0 HITS:          0 MISSES:          0
L1I RQ ACCESS:  500000057
L1I RQ TO_CACHE:  128388936
L1I RQ MERGED:  371611121
L1I RQ FORWARD:          0
L1I WQ ACCESS:          0
L1I WQ TO_CACHE:          0
L1I WQ MERGED:          0
L1I WQ FORWARD:          0
L2C TOTAL     ACCESS:   14904058  HIT:   11157687  MISS:    3746371
L2C LOAD      ACCESS:    7418917  HIT:    5098616  MISS:    2320301
L2C RFO       ACCESS:     878697  HIT:     409908  MISS:     468789
L2C PREFETCH  ACCESS:    4567222  HIT:    3627197  MISS:     940025
L2C WRITEBACK ACCESS:    2039222  HIT:    2021966  MISS:      17256
L2C PREFETCH  REQUESTED:     842699  ISSUED:     842699  USEFUL:     203066  USELESS:     736665
L2C TOTAL MSHR MERGED:       8011
L2C LOAD MSHR MERGED:       1053
L2C RFO MSHR MERGED:          1
L2C PREFETCH MSHR MERGED:       6957
L2C WRITEBACK MSHR MERGED:          0
L2C TOTAL ACCESSES:   14913026 HITS:   11158138 MISSES:    3754888
L2C LOAD ACCESSES:    7419125 HITS:    5098824 MISSES:    2320301
L2C RFO ACCESSES:     878798 HITS:     410009 MISSES:     468789
L2C PREFETCH ACCESSES:    4575881 HITS:    3627339 MISSES:     948542
L2C WRITEBACK ACCESSES:    2039222 HITS:    2021966 MISSES:      17256
L2C RQ ACCESS:    8297926
L2C RQ TO_CACHE:    8297617
L2C RQ MERGED:          0
L2C RQ FORWARD:          0
L2C WQ ACCESS:    2039222
L2C WQ TO_CACHE:    2039222
L2C WQ MERGED:          0
L2C WQ FORWARD:        451
LLC TOTAL     ACCESS:    4609706  HIT:    3914210  MISS:     695496
LLC LOAD      ACCESS:    2319235  HIT:    2105928  MISS:     213307
LLC RFO       ACCESS:     468777  HIT:     376025  MISS:      92752
LLC PREFETCH  ACCESS:     941446  HIT:     632547  MISS:     308899
LLC WRITEBACK ACCESS:     880248  HIT:     799710  MISS:      80538
LLC PREFETCH  REQUESTED:          0  ISSUED:          0  USEFUL:      15395  USELESS:     294393
LLC TOTAL MSHR MERGED:        125
LLC LOAD MSHR MERGED:         36
LLC RFO MSHR MERGED:          0
LLC PREFETCH MSHR MERGED:         89
LLC WRITEBACK MSHR MERGED:          0
LLC TOTAL ACCESSES:    4609864 HITS:    3914243 MISSES:     695621
LLC LOAD ACCESSES:    2319248 HITS:    2105941 MISSES:     213307
LLC RFO ACCESSES:     468788 HITS:     376036 MISSES:      92752
LLC PREFETCH ACCESSES:     941580 HITS:     632556 MISSES:     309024
LLC WRITEBACK ACCESSES:     880248 HITS:     799710 MISSES:      80538
LLC 0 RQ ACCESS:    2788036
LLC 0 RQ TO_CACHE:    2788012
LLC 0 RQ MERGED:          0
LLC 0 RQ FORWARD:          0
LLC WQ ACCESS:     880248
LLC WQ TO_CACHE:     880248
LLC WQ MERGED:          0
LLC WQ FORWARD:         33
Major fault: 0 Minor fault: 12862
CPU 0 L1D next line prefetcher final stats
CPU 0 L2C PC-based stride prefetcher final stats
All Misses: 817140
All Hits: 4609572
SD Algo Stats - Switches: 0 SRR-Repls: 248666 BRR-Repls: 0

DRAM Statistics
 CHANNEL 0
 RQ ROW_BUFFER_HIT:     121538  ROW_BUFFER_MISS:     491704
 DBUS_CONGESTED:     416678
 WQ ROW_BUFFER_HIT:      23627  ROW_BUFFER_MISS:     221778  FULL:          0

 AVG_CONGESTED_CYCLE: 13
LOADS RETIRED: 136549171
INSTR RETIRED: 500000000
