
*** ChampSim Multicore Out-of-Order Simulator ***

Warmup Instructions: 100000000
Simulation Instructions: 500000000
Number of CPUs: 1
LLC sets: 2048
LLC ways: 16
Clean RRIP Policies: 1213030112130301 Dirty RRIP Policies: 2213130122131301 PSEL Width: 10 Track Set: 4294967295 PSEL Mask: 1 Demote Mask: 1040201010402010DS Algo: 0Window size: 0
Off-chip DRAM Size: 4096 MB Channels: 1 Width: 64-bit Data Rate: 1600 MT/s

CPU 0 runs /mnt/beegfs/iconst01/spec2017/Parest.trace.gz
NOT SORTED
TRACE STRING: /mnt/beegfs/iconst01/spec2017/Parest.trace.gz
SORTED
TRACE STRING: /mnt/beegfs/iconst01/spec2017/Parest.trace.gz
INITIAL
TRACE STRING: /mnt/beegfs/iconst01/spec2017/Parest.trace.gz

champsim_seed used: 623

CPU 0 L1D next line prefetcher
CPU 0 L2C IP-based stride prefetcher
Initialize DRRIP state
Assign rand_sets[0]: 454  LLC: 2048
rand_sets[0]: 454
Assign rand_sets[1]: 1662  LLC: 2048
rand_sets[1]: 1662
Assign rand_sets[2]: 1921  LLC: 2048
rand_sets[2]: 1921
Assign rand_sets[3]: 1131  LLC: 2048
rand_sets[3]: 1131
Assign rand_sets[4]: 331  LLC: 2048
rand_sets[4]: 331
Assign rand_sets[5]: 1531  LLC: 2048
rand_sets[5]: 1531
Assign rand_sets[6]: 482  LLC: 2048
rand_sets[6]: 482
Assign rand_sets[7]: 1275  LLC: 2048
rand_sets[7]: 1275
Assign rand_sets[8]: 1876  LLC: 2048
rand_sets[8]: 1876
Assign rand_sets[9]: 2038  LLC: 2048
rand_sets[9]: 2038
Assign rand_sets[10]: 701  LLC: 2048
rand_sets[10]: 701
Assign rand_sets[11]: 479  LLC: 2048
rand_sets[11]: 479
Assign rand_sets[12]: 892  LLC: 2048
rand_sets[12]: 892
Assign rand_sets[13]: 1820  LLC: 2048
rand_sets[13]: 1820
Assign rand_sets[14]: 1505  LLC: 2048
rand_sets[14]: 1505
Assign rand_sets[15]: 1159  LLC: 2048
rand_sets[15]: 1159
Assign rand_sets[16]: 513  LLC: 2048
rand_sets[16]: 513
Assign rand_sets[17]: 703  LLC: 2048
rand_sets[17]: 703
Assign rand_sets[18]: 561  LLC: 2048
rand_sets[18]: 561
Assign rand_sets[19]: 990  LLC: 2048
rand_sets[19]: 990
Assign rand_sets[20]: 342  LLC: 2048
rand_sets[20]: 342
Assign rand_sets[21]: 882  LLC: 2048
rand_sets[21]: 882
Assign rand_sets[22]: 15  LLC: 2048
rand_sets[22]: 15
Assign rand_sets[23]: 71  LLC: 2048
rand_sets[23]: 71
Assign rand_sets[24]: 1127  LLC: 2048
rand_sets[24]: 1127
Assign rand_sets[25]: 1382  LLC: 2048
rand_sets[25]: 1382
Assign rand_sets[26]: 647  LLC: 2048
rand_sets[26]: 647
Assign rand_sets[27]: 857  LLC: 2048
rand_sets[27]: 857
Assign rand_sets[28]: 1450  LLC: 2048
rand_sets[28]: 1450
Assign rand_sets[29]: 1160  LLC: 2048
rand_sets[29]: 1160
Assign rand_sets[30]: 1852  LLC: 2048
rand_sets[30]: 1852
Assign rand_sets[31]: 1881  LLC: 2048
rand_sets[31]: 1881
Assign rand_sets[32]: 1770  LLC: 2048
rand_sets[32]: 1770
Assign rand_sets[33]: 1622  LLC: 2048
rand_sets[33]: 1622
Assign rand_sets[34]: 275  LLC: 2048
rand_sets[34]: 275
Assign rand_sets[35]: 635  LLC: 2048
rand_sets[35]: 635
Assign rand_sets[36]: 466  LLC: 2048
rand_sets[36]: 466
Assign rand_sets[37]: 1413  LLC: 2048
rand_sets[37]: 1413
Assign rand_sets[38]: 417  LLC: 2048
rand_sets[38]: 417
Assign rand_sets[39]: 472  LLC: 2048
rand_sets[39]: 472
Assign rand_sets[40]: 1340  LLC: 2048
rand_sets[40]: 1340
Assign rand_sets[41]: 852  LLC: 2048
rand_sets[41]: 852
Assign rand_sets[42]: 1365  LLC: 2048
rand_sets[42]: 1365
Assign rand_sets[43]: 47  LLC: 2048
rand_sets[43]: 47
Assign rand_sets[44]: 823  LLC: 2048
rand_sets[44]: 823
Assign rand_sets[45]: 686  LLC: 2048
rand_sets[45]: 686
Assign rand_sets[46]: 1637  LLC: 2048
rand_sets[46]: 1637
Assign rand_sets[47]: 1115  LLC: 2048
rand_sets[47]: 1115
Assign rand_sets[48]: 986  LLC: 2048
rand_sets[48]: 986
Assign rand_sets[49]: 258  LLC: 2048
rand_sets[49]: 258
Assign rand_sets[50]: 633  LLC: 2048
rand_sets[50]: 633
Assign rand_sets[51]: 920  LLC: 2048
rand_sets[51]: 920
Assign rand_sets[52]: 204  LLC: 2048
rand_sets[52]: 204
Assign rand_sets[53]: 227  LLC: 2048
rand_sets[53]: 227
Assign rand_sets[54]: 1818  LLC: 2048
rand_sets[54]: 1818
Assign rand_sets[55]: 886  LLC: 2048
rand_sets[55]: 886
Assign rand_sets[56]: 1422  LLC: 2048
rand_sets[56]: 1422
Assign rand_sets[57]: 607  LLC: 2048
rand_sets[57]: 607
Assign rand_sets[58]: 217  LLC: 2048
rand_sets[58]: 217
Assign rand_sets[59]: 1945  LLC: 2048
rand_sets[59]: 1945
Assign rand_sets[60]: 143  LLC: 2048
rand_sets[60]: 143
Assign rand_sets[61]: 1311  LLC: 2048
rand_sets[61]: 1311
Assign rand_sets[62]: 319  LLC: 2048
rand_sets[62]: 319
Assign rand_sets[63]: 1846  LLC: 2048
rand_sets[63]: 1846
 CLEAN-RRIP-POLICY-1: 1-2-1-3-0-3-0-1- CLEAN-RRIP-POLICY-2: 1-2-1-3-0-3-0-1-
 DIRTY-RRIP-POLICY-1: 2-2-1-3-1-3-0-1- DIRTY-RRIP-POLICY-2: 2-2-1-3-1-3-0-1-
 PSEL width: 10
Heartbeat CPU 0 instructions: 10000001 cycles: 4387120 heartbeat IPC: 2.2794 cumulative IPC: 2.2794 (Simulation time: 0 hr 0 min 15 sec) 
Heartbeat CPU 0 instructions: 20000000 cycles: 8781247 heartbeat IPC: 2.27576 cumulative IPC: 2.27758 (Simulation time: 0 hr 0 min 29 sec) 
Heartbeat CPU 0 instructions: 30000003 cycles: 13213194 heartbeat IPC: 2.25635 cumulative IPC: 2.27046 (Simulation time: 0 hr 0 min 44 sec) 
Heartbeat CPU 0 instructions: 40000000 cycles: 17643798 heartbeat IPC: 2.25703 cumulative IPC: 2.26709 (Simulation time: 0 hr 0 min 58 sec) 
Heartbeat CPU 0 instructions: 50000000 cycles: 22051986 heartbeat IPC: 2.26851 cumulative IPC: 2.26737 (Simulation time: 0 hr 1 min 13 sec) 
Heartbeat CPU 0 instructions: 60000000 cycles: 26457661 heartbeat IPC: 2.2698 cumulative IPC: 2.26777 (Simulation time: 0 hr 1 min 27 sec) 
Heartbeat CPU 0 instructions: 70000000 cycles: 30858481 heartbeat IPC: 2.2723 cumulative IPC: 2.26842 (Simulation time: 0 hr 1 min 41 sec) 
Heartbeat CPU 0 instructions: 80000000 cycles: 35254040 heartbeat IPC: 2.27502 cumulative IPC: 2.26924 (Simulation time: 0 hr 1 min 56 sec) 
Heartbeat CPU 0 instructions: 90000000 cycles: 39648302 heartbeat IPC: 2.2757 cumulative IPC: 2.26996 (Simulation time: 0 hr 2 min 11 sec) 
Heartbeat CPU 0 instructions: 100000000 cycles: 44045608 heartbeat IPC: 2.27412 cumulative IPC: 2.27037 (Simulation time: 0 hr 2 min 26 sec) 

Warmup complete CPU 0 instructions: 100000002 cycles: 44045618 (Simulation time: 0 hr 2 min 26 sec) 

Heartbeat CPU 0 instructions: 110000000 cycles: 54209382 heartbeat IPC: 0.983886 cumulative IPC: 0.983887 (Simulation time: 0 hr 2 min 45 sec) 
Heartbeat CPU 0 instructions: 120000000 cycles: 63606326 heartbeat IPC: 1.06418 cumulative IPC: 1.02246 (Simulation time: 0 hr 3 min 4 sec) 
Heartbeat CPU 0 instructions: 130000000 cycles: 73031881 heartbeat IPC: 1.06095 cumulative IPC: 1.03497 (Simulation time: 0 hr 3 min 22 sec) 
Heartbeat CPU 0 instructions: 140000000 cycles: 82672769 heartbeat IPC: 1.03725 cumulative IPC: 1.03554 (Simulation time: 0 hr 3 min 41 sec) 
Heartbeat CPU 0 instructions: 150000000 cycles: 93672140 heartbeat IPC: 0.909143 cumulative IPC: 1.00753 (Simulation time: 0 hr 4 min 1 sec) 
Heartbeat CPU 0 instructions: 160000000 cycles: 103712716 heartbeat IPC: 0.995959 cumulative IPC: 1.00558 (Simulation time: 0 hr 4 min 19 sec) 
Heartbeat CPU 0 instructions: 170000003 cycles: 113654211 heartbeat IPC: 1.00589 cumulative IPC: 1.00562 (Simulation time: 0 hr 4 min 38 sec) 
Heartbeat CPU 0 instructions: 180000000 cycles: 123570359 heartbeat IPC: 1.00846 cumulative IPC: 1.00598 (Simulation time: 0 hr 4 min 57 sec) 
Heartbeat CPU 0 instructions: 190000002 cycles: 133631794 heartbeat IPC: 0.993894 cumulative IPC: 1.00462 (Simulation time: 0 hr 5 min 16 sec) 
Heartbeat CPU 0 instructions: 200000000 cycles: 143252603 heartbeat IPC: 1.03941 cumulative IPC: 1.00799 (Simulation time: 0 hr 5 min 34 sec) 
Heartbeat CPU 0 instructions: 210000000 cycles: 153228716 heartbeat IPC: 1.00239 cumulative IPC: 1.00748 (Simulation time: 0 hr 5 min 53 sec) 
Heartbeat CPU 0 instructions: 220000000 cycles: 162677800 heartbeat IPC: 1.0583 cumulative IPC: 1.01153 (Simulation time: 0 hr 6 min 12 sec) 
Heartbeat CPU 0 instructions: 230000001 cycles: 174886719 heartbeat IPC: 0.819073 cumulative IPC: 0.993572 (Simulation time: 0 hr 6 min 33 sec) 
Heartbeat CPU 0 instructions: 240000000 cycles: 185339954 heartbeat IPC: 0.956642 cumulative IPC: 0.990839 (Simulation time: 0 hr 6 min 52 sec) 
Heartbeat CPU 0 instructions: 250000002 cycles: 195275670 heartbeat IPC: 1.00647 cumulative IPC: 0.991866 (Simulation time: 0 hr 7 min 10 sec) 
Heartbeat CPU 0 instructions: 260000000 cycles: 205030740 heartbeat IPC: 1.02511 cumulative IPC: 0.993881 (Simulation time: 0 hr 7 min 29 sec) 
Heartbeat CPU 0 instructions: 270000001 cycles: 214727076 heartbeat IPC: 1.03132 cumulative IPC: 0.996007 (Simulation time: 0 hr 7 min 48 sec) 
Heartbeat CPU 0 instructions: 280000000 cycles: 224681397 heartbeat IPC: 1.00459 cumulative IPC: 0.99648 (Simulation time: 0 hr 8 min 6 sec) 
Heartbeat CPU 0 instructions: 290000002 cycles: 234155624 heartbeat IPC: 1.0555 cumulative IPC: 0.999421 (Simulation time: 0 hr 8 min 25 sec) 
Heartbeat CPU 0 instructions: 300000000 cycles: 243986962 heartbeat IPC: 1.01716 cumulative IPC: 1.00029 (Simulation time: 0 hr 8 min 44 sec) 
Heartbeat CPU 0 instructions: 310000000 cycles: 253411161 heartbeat IPC: 1.0611 cumulative IPC: 1.00303 (Simulation time: 0 hr 9 min 3 sec) 
Heartbeat CPU 0 instructions: 320000000 cycles: 262886119 heartbeat IPC: 1.05541 cumulative IPC: 1.0053 (Simulation time: 0 hr 9 min 22 sec) 
Heartbeat CPU 0 instructions: 330000003 cycles: 272469912 heartbeat IPC: 1.04343 cumulative IPC: 1.0069 (Simulation time: 0 hr 9 min 40 sec) 
Heartbeat CPU 0 instructions: 340000000 cycles: 282572756 heartbeat IPC: 0.98982 cumulative IPC: 1.00617 (Simulation time: 0 hr 9 min 59 sec) 
Heartbeat CPU 0 instructions: 350000000 cycles: 292757770 heartbeat IPC: 0.981835 cumulative IPC: 1.00518 (Simulation time: 0 hr 10 min 18 sec) 
Heartbeat CPU 0 instructions: 360000000 cycles: 302574658 heartbeat IPC: 1.01865 cumulative IPC: 1.00569 (Simulation time: 0 hr 10 min 37 sec) 
Heartbeat CPU 0 instructions: 370000000 cycles: 312250541 heartbeat IPC: 1.0335 cumulative IPC: 1.00669 (Simulation time: 0 hr 10 min 55 sec) 
Heartbeat CPU 0 instructions: 380000000 cycles: 321890087 heartbeat IPC: 1.03739 cumulative IPC: 1.00776 (Simulation time: 0 hr 11 min 14 sec) 
Heartbeat CPU 0 instructions: 390000002 cycles: 331368780 heartbeat IPC: 1.055 cumulative IPC: 1.00932 (Simulation time: 0 hr 11 min 33 sec) 
Heartbeat CPU 0 instructions: 400000000 cycles: 341198755 heartbeat IPC: 1.0173 cumulative IPC: 1.00958 (Simulation time: 0 hr 11 min 51 sec) 
Heartbeat CPU 0 instructions: 410000000 cycles: 350591523 heartbeat IPC: 1.06465 cumulative IPC: 1.01127 (Simulation time: 0 hr 12 min 10 sec) 
Heartbeat CPU 0 instructions: 420000000 cycles: 361659467 heartbeat IPC: 0.90351 cumulative IPC: 1.00751 (Simulation time: 0 hr 12 min 30 sec) 
Heartbeat CPU 0 instructions: 430000000 cycles: 372442187 heartbeat IPC: 0.92741 cumulative IPC: 1.00488 (Simulation time: 0 hr 12 min 48 sec) 
Heartbeat CPU 0 instructions: 440000000 cycles: 382446397 heartbeat IPC: 0.999579 cumulative IPC: 1.00473 (Simulation time: 0 hr 13 min 7 sec) 
Heartbeat CPU 0 instructions: 450000000 cycles: 392409054 heartbeat IPC: 1.00375 cumulative IPC: 1.0047 (Simulation time: 0 hr 13 min 25 sec) 
Heartbeat CPU 0 instructions: 460000000 cycles: 402362496 heartbeat IPC: 1.00468 cumulative IPC: 1.0047 (Simulation time: 0 hr 13 min 44 sec) 
Heartbeat CPU 0 instructions: 470000001 cycles: 412400045 heartbeat IPC: 0.996259 cumulative IPC: 1.00447 (Simulation time: 0 hr 14 min 2 sec) 
Heartbeat CPU 0 instructions: 480000000 cycles: 421993862 heartbeat IPC: 1.04234 cumulative IPC: 1.00543 (Simulation time: 0 hr 14 min 21 sec) 
Heartbeat CPU 0 instructions: 490000002 cycles: 431978750 heartbeat IPC: 1.00151 cumulative IPC: 1.00533 (Simulation time: 0 hr 14 min 39 sec) 
Heartbeat CPU 0 instructions: 500000000 cycles: 441679681 heartbeat IPC: 1.03083 cumulative IPC: 1.00595 (Simulation time: 0 hr 14 min 58 sec) 
Heartbeat CPU 0 instructions: 510000000 cycles: 451182828 heartbeat IPC: 1.05228 cumulative IPC: 1.00703 (Simulation time: 0 hr 15 min 16 sec) 
Heartbeat CPU 0 instructions: 520000000 cycles: 460867335 heartbeat IPC: 1.03258 cumulative IPC: 1.00762 (Simulation time: 0 hr 15 min 35 sec) 
Heartbeat CPU 0 instructions: 530000001 cycles: 471211923 heartbeat IPC: 0.966689 cumulative IPC: 1.00663 (Simulation time: 0 hr 15 min 54 sec) 
Heartbeat CPU 0 instructions: 540000000 cycles: 481574456 heartbeat IPC: 0.965015 cumulative IPC: 1.00565 (Simulation time: 0 hr 16 min 12 sec) 
Heartbeat CPU 0 instructions: 550000003 cycles: 491614288 heartbeat IPC: 0.996033 cumulative IPC: 1.00543 (Simulation time: 0 hr 16 min 30 sec) 
Heartbeat CPU 0 instructions: 560000000 cycles: 501496237 heartbeat IPC: 1.01195 cumulative IPC: 1.00557 (Simulation time: 0 hr 16 min 48 sec) 
Heartbeat CPU 0 instructions: 570000002 cycles: 511314624 heartbeat IPC: 1.0185 cumulative IPC: 1.00584 (Simulation time: 0 hr 17 min 7 sec) 
Heartbeat CPU 0 instructions: 580000000 cycles: 520974404 heartbeat IPC: 1.03522 cumulative IPC: 1.00644 (Simulation time: 0 hr 17 min 25 sec) 
Heartbeat CPU 0 instructions: 590000002 cycles: 530922847 heartbeat IPC: 1.00518 cumulative IPC: 1.00641 (Simulation time: 0 hr 17 min 43 sec) 
Heartbeat CPU 0 instructions: 600000000 cycles: 540525159 heartbeat IPC: 1.04142 cumulative IPC: 1.00709 (Simulation time: 0 hr 18 min 1 sec) 
Finished CPU 0 instructions: 500000000 cycles: 496479555 cumulative IPC: 1.00709 (Simulation time: 0 hr 18 min 1 sec) 

CPU 0 Branch Prediction Accuracy: 97.8526% MPKI: 2.66709
Number of Branches: 62099103 Number of Mispredictions: 1333545
Number of LOAD Instructions: 210576465
Number of LOAD Instructions (ROI): 210576465
Number of STORE Instructions: 16915507
Number of STORE Instructions (ROI): 16915507
Total Destination Memory Operands: 16918869
Total Destination Memory Operands (ROI): 16918869
Total Source Memory Operands: 210576465
Total Source Memory Operands (ROI): 210576465
Number of DEPENDED LOADS: 344916
Number of DEPENDED LOADS (ROI): 344916
Number of SQ_ADDED: 16918826
Number of SQ_ADDED (ROI): 16918826
Number of LQ_ADDED: 210608203
Number of LQ_ADDED (ROI): 210608203
Number of Instructions read from trace: 600000257

ChampSim completed all CPUs

Region of Interest Statistics

CPU 0 cumulative IPC: 1.00709 instructions: 500000000 cycles: 496479555
ITLB TOTAL     ACCESS:   76287538  HIT:   76287500  MISS:         38
ITLB LOAD      ACCESS:   76287538  HIT:   76287500  MISS:         38
ITLB RFO       ACCESS:          0  HIT:          0  MISS:          0
ITLB PREFETCH  ACCESS:          0  HIT:          0  MISS:          0
ITLB WRITEBACK ACCESS:          0  HIT:          0  MISS:          0
ITLB PREFETCH  REQUESTED:          0  ISSUED:          0  USEFUL:          0  USELESS:          0
ITLB TOTAL MSHR MERGED:         37
ITLB LOAD MSHR MERGED:         37
ITLB RFO MSHR MERGED:          0
ITLB PREFETCH MSHR MERGED:          0
ITLB WRITEBACK MSHR MERGED:          0
ITLB TOTAL ACCESSES:   76287575 HITS:   76287500 MISSES:         75
ITLB LOAD ACCESSES:   76287575 HITS:   76287500 MISSES:         75
ITLB RFO ACCESSES:          0 HITS:          0 MISSES:          0
ITLB PREFETCH ACCESSES:          0 HITS:          0 MISSES:          0
ITLB WRITEBACK ACCESSES:          0 HITS:          0 MISSES:          0
ITLB RQ ACCESS:  500000188
ITLB RQ TO_CACHE:   76287576
ITLB RQ MERGED:  423712612
ITLB RQ FORWARD:          0
ITLB WQ ACCESS:          0
ITLB WQ TO_CACHE:          0
ITLB WQ MERGED:          0
ITLB WQ FORWARD:          0
DTLB TOTAL     ACCESS:  136818857  HIT:  136616064  MISS:     202793
DTLB LOAD      ACCESS:  128756516  HIT:  128556444  MISS:     200072
DTLB RFO       ACCESS:    8062341  HIT:    8059620  MISS:       2721
DTLB PREFETCH  ACCESS:          0  HIT:          0  MISS:          0
DTLB WRITEBACK ACCESS:          0  HIT:          0  MISS:          0
DTLB PREFETCH  REQUESTED:          0  ISSUED:          0  USEFUL:          0  USELESS:          0
DTLB TOTAL MSHR MERGED:     447809
DTLB LOAD MSHR MERGED:     444121
DTLB RFO MSHR MERGED:       3688
DTLB PREFETCH MSHR MERGED:          0
DTLB WRITEBACK MSHR MERGED:          0
DTLB TOTAL ACCESSES:  137266666 HITS:  136616064 MISSES:     650602
DTLB LOAD ACCESSES:  129200637 HITS:  128556444 MISSES:     644193
DTLB RFO ACCESSES:    8066029 HITS:    8059620 MISSES:       6409
DTLB PREFETCH ACCESSES:          0 HITS:          0 MISSES:          0
DTLB WRITEBACK ACCESSES:          0 HITS:          0 MISSES:          0
DTLB RQ ACCESS:  189419651
DTLB RQ TO_CACHE:  137266666
DTLB RQ MERGED:   52152985
DTLB RQ FORWARD:          0
DTLB WQ ACCESS:          0
DTLB WQ TO_CACHE:          0
DTLB WQ MERGED:          0
DTLB WQ FORWARD:          0
L1D TOTAL     ACCESS:  125426661  HIT:  107869803  MISS:   17556858
L1D LOAD      ACCESS:   72323549  HIT:   62058143  MISS:   10265406
L1D RFO       ACCESS:   14014127  HIT:   13861294  MISS:     152833
L1D PREFETCH  ACCESS:   39088985  HIT:   31950366  MISS:    7138619
L1D WRITEBACK ACCESS:          0  HIT:          0  MISS:          0
L1D PREFETCH  REQUESTED:   85531246  ISSUED:   84210437  USEFUL:    5879374  USELESS:    1259256
L1D TOTAL MSHR MERGED:   31489925
L1D LOAD MSHR MERGED:   18366001
L1D RFO MSHR MERGED:     266563
L1D PREFETCH MSHR MERGED:   12857361
L1D WRITEBACK MSHR MERGED:          0
L1D TOTAL ACCESSES:  156917106 HITS:  107870324 MISSES:   49046782
L1D LOAD ACCESSES:   85531266 HITS:   62058163 MISSES:   23473103
L1D RFO ACCESSES:   14280664 HITS:   13861294 MISSES:     419370
L1D PREFETCH ACCESSES:   57105176 HITS:   31950867 MISSES:   25154309
L1D WRITEBACK ACCESSES:          0 HITS:          0 MISSES:          0
L1D RQ ACCESS:  175130629
L1D RQ TO_CACHE:   85531246
L1D RQ MERGED:   89599363
L1D RQ FORWARD:          0
L1D WQ ACCESS:   14289037
L1D WQ TO_CACHE:   14280664
L1D WQ MERGED:       8373
L1D WQ FORWARD:        521
L1I TOTAL     ACCESS:   93314118  HIT:   93312322  MISS:       1796
L1I LOAD      ACCESS:   93314118  HIT:   93312322  MISS:       1796
L1I RFO       ACCESS:          0  HIT:          0  MISS:          0
L1I PREFETCH  ACCESS:          0  HIT:          0  MISS:          0
L1I WRITEBACK ACCESS:          0  HIT:          0  MISS:          0
L1I PREFETCH  REQUESTED:          0  ISSUED:          0  USEFUL:          0  USELESS:          0
L1I TOTAL MSHR MERGED:       2281
L1I LOAD MSHR MERGED:       2281
L1I RFO MSHR MERGED:          0
L1I PREFETCH MSHR MERGED:          0
L1I WRITEBACK MSHR MERGED:          0
L1I TOTAL ACCESSES:   93316399 HITS:   93312322 MISSES:       4077
L1I LOAD ACCESSES:   93316399 HITS:   93312322 MISSES:       4077
L1I RFO ACCESSES:          0 HITS:          0 MISSES:          0
L1I PREFETCH ACCESSES:          0 HITS:          0 MISSES:          0
L1I WRITEBACK ACCESSES:          0 HITS:          0 MISSES:          0
L1I RQ ACCESS:  500000187
L1I RQ TO_CACHE:   93316399
L1I RQ MERGED:  406683788
L1I RQ FORWARD:          0
L1I WQ ACCESS:          0
L1I WQ TO_CACHE:          0
L1I WQ MERGED:          0
L1I WQ FORWARD:          0
L2C TOTAL     ACCESS:   20898188  HIT:    8668721  MISS:   12229467
L2C LOAD      ACCESS:    5108877  HIT:    2143666  MISS:    2965211
L2C RFO       ACCESS:     152807  HIT:       6512  MISS:     146295
L2C PREFETCH  ACCESS:   13863750  HIT:    4745900  MISS:    9117850
L2C WRITEBACK ACCESS:    1772754  HIT:    1772643  MISS:        111
L2C PREFETCH  REQUESTED:    1805280  ISSUED:    1805280  USEFUL:    1069054  USELESS:    8050425
L2C TOTAL MSHR MERGED:      96184
L2C LOAD MSHR MERGED:      21708
L2C RFO MSHR MERGED:          0
L2C PREFETCH MSHR MERGED:      74476
L2C WRITEBACK MSHR MERGED:          0
L2C TOTAL ACCESSES:   21018665 HITS:    8668760 MISSES:   12349905
L2C LOAD ACCESSES:    5108898 HITS:    2143687 MISSES:    2965211
L2C RFO ACCESSES:     152807 HITS:       6512 MISSES:     146295
L2C PREFETCH ACCESSES:   13984206 HITS:    4745918 MISSES:    9238288
L2C WRITEBACK ACCESSES:    1772754 HITS:    1772643 MISSES:        111
L2C RQ ACCESS:    5261705
L2C RQ TO_CACHE:    5261684
L2C RQ MERGED:          0
L2C RQ FORWARD:          0
L2C WQ ACCESS:    1772754
L2C WQ TO_CACHE:    1772754
L2C WQ MERGED:          0
L2C WQ FORWARD:         39
LLC TOTAL     ACCESS:   12533872  HIT:    6639544  MISS:    5894328
LLC LOAD      ACCESS:    2943479  HIT:    2451093  MISS:     492386
LLC RFO       ACCESS:     146295  HIT:      65889  MISS:      80406
LLC PREFETCH  ACCESS:    9158112  HIT:    3898777  MISS:    5259335
LLC WRITEBACK ACCESS:     285986  HIT:     223785  MISS:      62201
LLC PREFETCH  REQUESTED:          0  ISSUED:          0  USEFUL:      14648  USELESS:    5244198
LLC TOTAL MSHR MERGED:       1547
LLC LOAD MSHR MERGED:        357
LLC RFO MSHR MERGED:          0
LLC PREFETCH MSHR MERGED:       1190
LLC WRITEBACK MSHR MERGED:          0
LLC TOTAL ACCESSES:   12535456 HITS:    6639581 MISSES:    5895875
LLC LOAD ACCESSES:    2943503 HITS:    2451117 MISSES:     492386
LLC RFO ACCESSES:     146295 HITS:      65889 MISSES:      80406
LLC PREFETCH ACCESSES:    9159672 HITS:    3898790 MISSES:    5260882
LLC WRITEBACK ACCESSES:     285986 HITS:     223785 MISSES:      62201
LLC 0 RQ ACCESS:    3089798
LLC 0 RQ TO_CACHE:    3089774
LLC 0 RQ MERGED:          0
LLC 0 RQ FORWARD:          0
LLC WQ ACCESS:     285986
LLC WQ TO_CACHE:     285986
LLC WQ MERGED:          0
LLC WQ FORWARD:         37
Major fault: 0 Minor fault: 6524
CPU 0 L1D next line prefetcher final stats
CPU 0 L2C PC-based stride prefetcher final stats
All Misses: 7696963
All Hits: 7361922
SD Algo Stats - Switches: 0 SRR-Repls: 525509 BRR-Repls: 0

DRAM Statistics
 CHANNEL 0
 RQ ROW_BUFFER_HIT:    4981880  ROW_BUFFER_MISS:     841738
 DBUS_CONGESTED:    2017272
 WQ ROW_BUFFER_HIT:      13369  ROW_BUFFER_MISS:      92674  FULL:          0

 AVG_CONGESTED_CYCLE: 12
LOADS RETIRED: 175418235
INSTR RETIRED: 500000000
