
*** ChampSim Multicore Out-of-Order Simulator ***

Warmup Instructions: 100000000
Simulation Instructions: 500000000
Number of CPUs: 1
LLC sets: 2048
LLC ways: 16
Clean RRIP Policies: 323030103230301 Dirty RRIP Policies: 2303232123032321 PSEL Width: 10 Track Set: 4294967295 PSEL Mask: 1 Demote Mask: 2313142023131420DS Algo: 0Window size: 0
Off-chip DRAM Size: 4096 MB Channels: 1 Width: 64-bit Data Rate: 1600 MT/s

CPU 0 runs /mnt/beegfs/iconst01/spec2017/Gcc.trace.gz
NOT SORTED
TRACE STRING: /mnt/beegfs/iconst01/spec2017/Gcc.trace.gz
SORTED
TRACE STRING: /mnt/beegfs/iconst01/spec2017/Gcc.trace.gz
INITIAL
TRACE STRING: /mnt/beegfs/iconst01/spec2017/Gcc.trace.gz

champsim_seed used: 269

CPU 0 L1D next line prefetcher
CPU 0 L2C IP-based stride prefetcher
Initialize DRRIP state
Assign rand_sets[0]: 454  LLC: 2048
rand_sets[0]: 454
Assign rand_sets[1]: 1662  LLC: 2048
rand_sets[1]: 1662
Assign rand_sets[2]: 1921  LLC: 2048
rand_sets[2]: 1921
Assign rand_sets[3]: 1131  LLC: 2048
rand_sets[3]: 1131
Assign rand_sets[4]: 331  LLC: 2048
rand_sets[4]: 331
Assign rand_sets[5]: 1531  LLC: 2048
rand_sets[5]: 1531
Assign rand_sets[6]: 482  LLC: 2048
rand_sets[6]: 482
Assign rand_sets[7]: 1275  LLC: 2048
rand_sets[7]: 1275
Assign rand_sets[8]: 1876  LLC: 2048
rand_sets[8]: 1876
Assign rand_sets[9]: 2038  LLC: 2048
rand_sets[9]: 2038
Assign rand_sets[10]: 701  LLC: 2048
rand_sets[10]: 701
Assign rand_sets[11]: 479  LLC: 2048
rand_sets[11]: 479
Assign rand_sets[12]: 892  LLC: 2048
rand_sets[12]: 892
Assign rand_sets[13]: 1820  LLC: 2048
rand_sets[13]: 1820
Assign rand_sets[14]: 1505  LLC: 2048
rand_sets[14]: 1505
Assign rand_sets[15]: 1159  LLC: 2048
rand_sets[15]: 1159
Assign rand_sets[16]: 513  LLC: 2048
rand_sets[16]: 513
Assign rand_sets[17]: 703  LLC: 2048
rand_sets[17]: 703
Assign rand_sets[18]: 561  LLC: 2048
rand_sets[18]: 561
Assign rand_sets[19]: 990  LLC: 2048
rand_sets[19]: 990
Assign rand_sets[20]: 342  LLC: 2048
rand_sets[20]: 342
Assign rand_sets[21]: 882  LLC: 2048
rand_sets[21]: 882
Assign rand_sets[22]: 15  LLC: 2048
rand_sets[22]: 15
Assign rand_sets[23]: 71  LLC: 2048
rand_sets[23]: 71
Assign rand_sets[24]: 1127  LLC: 2048
rand_sets[24]: 1127
Assign rand_sets[25]: 1382  LLC: 2048
rand_sets[25]: 1382
Assign rand_sets[26]: 647  LLC: 2048
rand_sets[26]: 647
Assign rand_sets[27]: 857  LLC: 2048
rand_sets[27]: 857
Assign rand_sets[28]: 1450  LLC: 2048
rand_sets[28]: 1450
Assign rand_sets[29]: 1160  LLC: 2048
rand_sets[29]: 1160
Assign rand_sets[30]: 1852  LLC: 2048
rand_sets[30]: 1852
Assign rand_sets[31]: 1881  LLC: 2048
rand_sets[31]: 1881
Assign rand_sets[32]: 1770  LLC: 2048
rand_sets[32]: 1770
Assign rand_sets[33]: 1622  LLC: 2048
rand_sets[33]: 1622
Assign rand_sets[34]: 275  LLC: 2048
rand_sets[34]: 275
Assign rand_sets[35]: 635  LLC: 2048
rand_sets[35]: 635
Assign rand_sets[36]: 466  LLC: 2048
rand_sets[36]: 466
Assign rand_sets[37]: 1413  LLC: 2048
rand_sets[37]: 1413
Assign rand_sets[38]: 417  LLC: 2048
rand_sets[38]: 417
Assign rand_sets[39]: 472  LLC: 2048
rand_sets[39]: 472
Assign rand_sets[40]: 1340  LLC: 2048
rand_sets[40]: 1340
Assign rand_sets[41]: 852  LLC: 2048
rand_sets[41]: 852
Assign rand_sets[42]: 1365  LLC: 2048
rand_sets[42]: 1365
Assign rand_sets[43]: 47  LLC: 2048
rand_sets[43]: 47
Assign rand_sets[44]: 823  LLC: 2048
rand_sets[44]: 823
Assign rand_sets[45]: 686  LLC: 2048
rand_sets[45]: 686
Assign rand_sets[46]: 1637  LLC: 2048
rand_sets[46]: 1637
Assign rand_sets[47]: 1115  LLC: 2048
rand_sets[47]: 1115
Assign rand_sets[48]: 986  LLC: 2048
rand_sets[48]: 986
Assign rand_sets[49]: 258  LLC: 2048
rand_sets[49]: 258
Assign rand_sets[50]: 633  LLC: 2048
rand_sets[50]: 633
Assign rand_sets[51]: 920  LLC: 2048
rand_sets[51]: 920
Assign rand_sets[52]: 204  LLC: 2048
rand_sets[52]: 204
Assign rand_sets[53]: 227  LLC: 2048
rand_sets[53]: 227
Assign rand_sets[54]: 1818  LLC: 2048
rand_sets[54]: 1818
Assign rand_sets[55]: 886  LLC: 2048
rand_sets[55]: 886
Assign rand_sets[56]: 1422  LLC: 2048
rand_sets[56]: 1422
Assign rand_sets[57]: 607  LLC: 2048
rand_sets[57]: 607
Assign rand_sets[58]: 217  LLC: 2048
rand_sets[58]: 217
Assign rand_sets[59]: 1945  LLC: 2048
rand_sets[59]: 1945
Assign rand_sets[60]: 143  LLC: 2048
rand_sets[60]: 143
Assign rand_sets[61]: 1311  LLC: 2048
rand_sets[61]: 1311
Assign rand_sets[62]: 319  LLC: 2048
rand_sets[62]: 319
Assign rand_sets[63]: 1846  LLC: 2048
rand_sets[63]: 1846
 CLEAN-RRIP-POLICY-1: 0-3-2-3-0-3-0-1- CLEAN-RRIP-POLICY-2: 0-3-2-3-0-3-0-1-
 DIRTY-RRIP-POLICY-1: 2-3-0-3-2-3-2-1- DIRTY-RRIP-POLICY-2: 2-3-0-3-2-3-2-1-
 PSEL width: 10
Heartbeat CPU 0 instructions: 10000001 cycles: 7316030 heartbeat IPC: 1.36686 cumulative IPC: 1.36686 (Simulation time: 0 hr 0 min 18 sec) 
Heartbeat CPU 0 instructions: 20000000 cycles: 14307586 heartbeat IPC: 1.4303 cumulative IPC: 1.39786 (Simulation time: 0 hr 0 min 36 sec) 
Heartbeat CPU 0 instructions: 30000001 cycles: 21020692 heartbeat IPC: 1.48962 cumulative IPC: 1.42717 (Simulation time: 0 hr 0 min 56 sec) 
Heartbeat CPU 0 instructions: 40000000 cycles: 27481693 heartbeat IPC: 1.54775 cumulative IPC: 1.45551 (Simulation time: 0 hr 1 min 16 sec) 
Heartbeat CPU 0 instructions: 50000001 cycles: 33583559 heartbeat IPC: 1.63884 cumulative IPC: 1.48882 (Simulation time: 0 hr 1 min 35 sec) 
Heartbeat CPU 0 instructions: 60000000 cycles: 40064835 heartbeat IPC: 1.54291 cumulative IPC: 1.49757 (Simulation time: 0 hr 1 min 55 sec) 
Heartbeat CPU 0 instructions: 70000000 cycles: 47104484 heartbeat IPC: 1.42053 cumulative IPC: 1.48606 (Simulation time: 0 hr 2 min 13 sec) 
Heartbeat CPU 0 instructions: 80000000 cycles: 54195618 heartbeat IPC: 1.41021 cumulative IPC: 1.47613 (Simulation time: 0 hr 2 min 32 sec) 
Heartbeat CPU 0 instructions: 90000003 cycles: 61201669 heartbeat IPC: 1.42734 cumulative IPC: 1.47055 (Simulation time: 0 hr 2 min 50 sec) 
Heartbeat CPU 0 instructions: 100000000 cycles: 68370775 heartbeat IPC: 1.39487 cumulative IPC: 1.46261 (Simulation time: 0 hr 3 min 8 sec) 

Warmup complete CPU 0 instructions: 100000004 cycles: 68370776 (Simulation time: 0 hr 3 min 8 sec) 

Heartbeat CPU 0 instructions: 110000003 cycles: 96313964 heartbeat IPC: 0.357869 cumulative IPC: 0.357869 (Simulation time: 0 hr 3 min 44 sec) 
Heartbeat CPU 0 instructions: 120000000 cycles: 123909600 heartbeat IPC: 0.362376 cumulative IPC: 0.360108 (Simulation time: 0 hr 4 min 20 sec) 
Heartbeat CPU 0 instructions: 130000000 cycles: 149007160 heartbeat IPC: 0.398445 cumulative IPC: 0.37204 (Simulation time: 0 hr 4 min 56 sec) 
Heartbeat CPU 0 instructions: 140000000 cycles: 179080145 heartbeat IPC: 0.332524 cumulative IPC: 0.361306 (Simulation time: 0 hr 5 min 31 sec) 
Heartbeat CPU 0 instructions: 150000000 cycles: 209303382 heartbeat IPC: 0.330871 cumulative IPC: 0.354779 (Simulation time: 0 hr 6 min 7 sec) 
Heartbeat CPU 0 instructions: 160000000 cycles: 236856309 heartbeat IPC: 0.362938 cumulative IPC: 0.356114 (Simulation time: 0 hr 6 min 42 sec) 
Heartbeat CPU 0 instructions: 170000001 cycles: 265076306 heartbeat IPC: 0.354359 cumulative IPC: 0.355862 (Simulation time: 0 hr 7 min 20 sec) 
Heartbeat CPU 0 instructions: 180000000 cycles: 293708844 heartbeat IPC: 0.349253 cumulative IPC: 0.355022 (Simulation time: 0 hr 7 min 56 sec) 
Heartbeat CPU 0 instructions: 190000002 cycles: 322010769 heartbeat IPC: 0.353333 cumulative IPC: 0.354834 (Simulation time: 0 hr 8 min 32 sec) 
Heartbeat CPU 0 instructions: 200000000 cycles: 350559383 heartbeat IPC: 0.35028 cumulative IPC: 0.354373 (Simulation time: 0 hr 9 min 9 sec) 
Heartbeat CPU 0 instructions: 210000002 cycles: 378667644 heartbeat IPC: 0.355767 cumulative IPC: 0.354499 (Simulation time: 0 hr 9 min 45 sec) 
Heartbeat CPU 0 instructions: 220000000 cycles: 408375846 heartbeat IPC: 0.336607 cumulative IPC: 0.352936 (Simulation time: 0 hr 10 min 20 sec) 
Heartbeat CPU 0 instructions: 230000000 cycles: 436196351 heartbeat IPC: 0.359447 cumulative IPC: 0.353428 (Simulation time: 0 hr 10 min 55 sec) 
Heartbeat CPU 0 instructions: 240000000 cycles: 462288017 heartbeat IPC: 0.383264 cumulative IPC: 0.355405 (Simulation time: 0 hr 11 min 29 sec) 
Heartbeat CPU 0 instructions: 250000000 cycles: 492586573 heartbeat IPC: 0.330049 cumulative IPC: 0.353594 (Simulation time: 0 hr 12 min 7 sec) 
Heartbeat CPU 0 instructions: 260000000 cycles: 519788151 heartbeat IPC: 0.367626 cumulative IPC: 0.354439 (Simulation time: 0 hr 12 min 42 sec) 
Heartbeat CPU 0 instructions: 270000003 cycles: 548413558 heartbeat IPC: 0.34934 cumulative IPC: 0.354135 (Simulation time: 0 hr 13 min 19 sec) 
Heartbeat CPU 0 instructions: 280000000 cycles: 576855727 heartbeat IPC: 0.351591 cumulative IPC: 0.353993 (Simulation time: 0 hr 13 min 57 sec) 
Heartbeat CPU 0 instructions: 290000000 cycles: 605953832 heartbeat IPC: 0.343665 cumulative IPC: 0.353434 (Simulation time: 0 hr 14 min 34 sec) 
Heartbeat CPU 0 instructions: 300000000 cycles: 636648921 heartbeat IPC: 0.325785 cumulative IPC: 0.35194 (Simulation time: 0 hr 15 min 10 sec) 
Heartbeat CPU 0 instructions: 310000001 cycles: 666513503 heartbeat IPC: 0.334845 cumulative IPC: 0.351087 (Simulation time: 0 hr 15 min 46 sec) 
Heartbeat CPU 0 instructions: 320000000 cycles: 695284986 heartbeat IPC: 0.347566 cumulative IPC: 0.350925 (Simulation time: 0 hr 16 min 21 sec) 
Heartbeat CPU 0 instructions: 330000000 cycles: 724362644 heartbeat IPC: 0.343907 cumulative IPC: 0.350614 (Simulation time: 0 hr 16 min 57 sec) 
Heartbeat CPU 0 instructions: 340000000 cycles: 754057327 heartbeat IPC: 0.336761 cumulative IPC: 0.350014 (Simulation time: 0 hr 17 min 33 sec) 
Heartbeat CPU 0 instructions: 350000003 cycles: 781374752 heartbeat IPC: 0.366067 cumulative IPC: 0.350629 (Simulation time: 0 hr 18 min 8 sec) 
Heartbeat CPU 0 instructions: 360000000 cycles: 810358159 heartbeat IPC: 0.345025 cumulative IPC: 0.35041 (Simulation time: 0 hr 18 min 43 sec) 
Heartbeat CPU 0 instructions: 370000000 cycles: 839257447 heartbeat IPC: 0.346029 cumulative IPC: 0.350246 (Simulation time: 0 hr 19 min 17 sec) 
Heartbeat CPU 0 instructions: 380000000 cycles: 868373781 heartbeat IPC: 0.34345 cumulative IPC: 0.349999 (Simulation time: 0 hr 19 min 52 sec) 
Heartbeat CPU 0 instructions: 390000001 cycles: 896493477 heartbeat IPC: 0.355623 cumulative IPC: 0.35019 (Simulation time: 0 hr 20 min 26 sec) 
Heartbeat CPU 0 instructions: 400000000 cycles: 925661426 heartbeat IPC: 0.342842 cumulative IPC: 0.34994 (Simulation time: 0 hr 21 min 1 sec) 
Heartbeat CPU 0 instructions: 410000001 cycles: 953362541 heartbeat IPC: 0.360996 cumulative IPC: 0.350286 (Simulation time: 0 hr 21 min 35 sec) 
Heartbeat CPU 0 instructions: 420000000 cycles: 981050613 heartbeat IPC: 0.361166 cumulative IPC: 0.350616 (Simulation time: 0 hr 22 min 9 sec) 
Heartbeat CPU 0 instructions: 430000002 cycles: 1009146701 heartbeat IPC: 0.355922 cumulative IPC: 0.350774 (Simulation time: 0 hr 22 min 44 sec) 
Heartbeat CPU 0 instructions: 440000000 cycles: 1039193650 heartbeat IPC: 0.332812 cumulative IPC: 0.350218 (Simulation time: 0 hr 23 min 19 sec) 
Heartbeat CPU 0 instructions: 450000002 cycles: 1068962768 heartbeat IPC: 0.335919 cumulative IPC: 0.349793 (Simulation time: 0 hr 23 min 53 sec) 
Heartbeat CPU 0 instructions: 460000000 cycles: 1097055261 heartbeat IPC: 0.355967 cumulative IPC: 0.349962 (Simulation time: 0 hr 24 min 26 sec) 
Heartbeat CPU 0 instructions: 470000000 cycles: 1124952163 heartbeat IPC: 0.358463 cumulative IPC: 0.350186 (Simulation time: 0 hr 24 min 59 sec) 
Heartbeat CPU 0 instructions: 480000000 cycles: 1153101832 heartbeat IPC: 0.355244 cumulative IPC: 0.350317 (Simulation time: 0 hr 25 min 32 sec) 
Heartbeat CPU 0 instructions: 490000000 cycles: 1180950961 heartbeat IPC: 0.359078 cumulative IPC: 0.350537 (Simulation time: 0 hr 26 min 5 sec) 
Heartbeat CPU 0 instructions: 500000000 cycles: 1209515641 heartbeat IPC: 0.350083 cumulative IPC: 0.350525 (Simulation time: 0 hr 26 min 39 sec) 
Heartbeat CPU 0 instructions: 510000000 cycles: 1244281432 heartbeat IPC: 0.287639 cumulative IPC: 0.348666 (Simulation time: 0 hr 27 min 16 sec) 
Heartbeat CPU 0 instructions: 520000000 cycles: 1272343648 heartbeat IPC: 0.356351 cumulative IPC: 0.348845 (Simulation time: 0 hr 27 min 50 sec) 
Heartbeat CPU 0 instructions: 530000001 cycles: 1302391441 heartbeat IPC: 0.332803 cumulative IPC: 0.348454 (Simulation time: 0 hr 28 min 25 sec) 
Heartbeat CPU 0 instructions: 540000000 cycles: 1330944457 heartbeat IPC: 0.350226 cumulative IPC: 0.348494 (Simulation time: 0 hr 28 min 59 sec) 
Heartbeat CPU 0 instructions: 550000001 cycles: 1360363714 heartbeat IPC: 0.339913 cumulative IPC: 0.348299 (Simulation time: 0 hr 29 min 35 sec) 
Heartbeat CPU 0 instructions: 560000000 cycles: 1385950014 heartbeat IPC: 0.390834 cumulative IPC: 0.349125 (Simulation time: 0 hr 30 min 9 sec) 
Heartbeat CPU 0 instructions: 570000000 cycles: 1416072154 heartbeat IPC: 0.331982 cumulative IPC: 0.348742 (Simulation time: 0 hr 30 min 44 sec) 
Heartbeat CPU 0 instructions: 580000000 cycles: 1444546967 heartbeat IPC: 0.351188 cumulative IPC: 0.348793 (Simulation time: 0 hr 31 min 18 sec) 
Heartbeat CPU 0 instructions: 590000001 cycles: 1469487096 heartbeat IPC: 0.40096 cumulative IPC: 0.349721 (Simulation time: 0 hr 31 min 50 sec) 
Heartbeat CPU 0 instructions: 600000000 cycles: 1495888458 heartbeat IPC: 0.378768 cumulative IPC: 0.350258 (Simulation time: 0 hr 32 min 24 sec) 
Finished CPU 0 instructions: 500000000 cycles: 1427517704 cumulative IPC: 0.350258 (Simulation time: 0 hr 32 min 24 sec) 

CPU 0 Branch Prediction Accuracy: 86.4311% MPKI: 26.2662
Number of Branches: 96788573 Number of Mispredictions: 13133102
Number of LOAD Instructions: 164682285
Number of LOAD Instructions (ROI): 164682285
Number of STORE Instructions: 78194750
Number of STORE Instructions (ROI): 78194750
Total Destination Memory Operands: 83268534
Total Destination Memory Operands (ROI): 83268534
Total Source Memory Operands: 164712438
Total Source Memory Operands (ROI): 164712438
Number of DEPENDED LOADS: 7056288
Number of DEPENDED LOADS (ROI): 7056288
Number of SQ_ADDED: 83268522
Number of SQ_ADDED (ROI): 83268522
Number of LQ_ADDED: 236873456
Number of LQ_ADDED (ROI): 236873456
Number of Instructions read from trace: 600000066

ChampSim completed all CPUs

Region of Interest Statistics

CPU 0 cumulative IPC: 0.350258 instructions: 500000000 cycles: 1427517704
ITLB TOTAL     ACCESS:  100525502  HIT:  100321056  MISS:     204446
ITLB LOAD      ACCESS:  100525502  HIT:  100321056  MISS:     204446
ITLB RFO       ACCESS:          0  HIT:          0  MISS:          0
ITLB PREFETCH  ACCESS:          0  HIT:          0  MISS:          0
ITLB WRITEBACK ACCESS:          0  HIT:          0  MISS:          0
ITLB PREFETCH  REQUESTED:          0  ISSUED:          0  USEFUL:          0  USELESS:          0
ITLB TOTAL MSHR MERGED:     172423
ITLB LOAD MSHR MERGED:     172423
ITLB RFO MSHR MERGED:          0
ITLB PREFETCH MSHR MERGED:          0
ITLB WRITEBACK MSHR MERGED:          0
ITLB TOTAL ACCESSES:  100697925 HITS:  100321056 MISSES:     376869
ITLB LOAD ACCESSES:  100697925 HITS:  100321056 MISSES:     376869
ITLB RFO ACCESSES:          0 HITS:          0 MISSES:          0
ITLB PREFETCH ACCESSES:          0 HITS:          0 MISSES:          0
ITLB WRITEBACK ACCESSES:          0 HITS:          0 MISSES:          0
ITLB RQ ACCESS:  500000057
ITLB RQ TO_CACHE:  100697925
ITLB RQ MERGED:  399302132
ITLB RQ FORWARD:          0
ITLB WQ ACCESS:          0
ITLB WQ TO_CACHE:          0
ITLB WQ MERGED:          0
ITLB WQ FORWARD:          0
DTLB TOTAL     ACCESS:  165344152  HIT:  164709799  MISS:     634353
DTLB LOAD      ACCESS:  106297864  HIT:  105727873  MISS:     569991
DTLB RFO       ACCESS:   59046288  HIT:   58981926  MISS:      64362
DTLB PREFETCH  ACCESS:          0  HIT:          0  MISS:          0
DTLB WRITEBACK ACCESS:          0  HIT:          0  MISS:          0
DTLB PREFETCH  REQUESTED:          0  ISSUED:          0  USEFUL:          0  USELESS:          0
DTLB TOTAL MSHR MERGED:      99790
DTLB LOAD MSHR MERGED:      59333
DTLB RFO MSHR MERGED:      40457
DTLB PREFETCH MSHR MERGED:          0
DTLB WRITEBACK MSHR MERGED:          0
DTLB TOTAL ACCESSES:  165443942 HITS:  164709799 MISSES:     734143
DTLB LOAD ACCESSES:  106357197 HITS:  105727873 MISSES:     629324
DTLB RFO ACCESSES:   59086745 HITS:   58981926 MISSES:     104819
DTLB PREFETCH ACCESSES:          0 HITS:          0 MISSES:          0
DTLB WRITEBACK ACCESSES:          0 HITS:          0 MISSES:          0
DTLB RQ ACCESS:  200314651
DTLB RQ TO_CACHE:  165443942
DTLB RQ MERGED:   34870709
DTLB RQ FORWARD:          0
DTLB WQ ACCESS:          0
DTLB WQ TO_CACHE:          0
DTLB WQ MERGED:          0
DTLB WQ FORWARD:          0
L1D TOTAL     ACCESS:  281806445  HIT:  273897167  MISS:    7909278
L1D LOAD      ACCESS:  110417539  HIT:  107134779  MISS:    3282760
L1D RFO       ACCESS:   67116771  HIT:   66226102  MISS:     890669
L1D PREFETCH  ACCESS:  104272135  HIT:  100536286  MISS:    3735849
L1D WRITEBACK ACCESS:          0  HIT:          0  MISS:          0
L1D PREFETCH  REQUESTED:  110824689  ISSUED:  109125381  USEFUL:    1656583  USELESS:    2079230
L1D TOTAL MSHR MERGED:    2914464
L1D LOAD MSHR MERGED:     509533
L1D RFO MSHR MERGED:    1869008
L1D PREFETCH MSHR MERGED:     535923
L1D WRITEBACK MSHR MERGED:          0
L1D TOTAL ACCESSES:  284748394 HITS:  273924652 MISSES:   10823742
L1D LOAD ACCESSES:  110826194 HITS:  107136284 MISSES:    3689910
L1D RFO ACCESSES:   68973838 HITS:   66226102 MISSES:    2747736
L1D PREFETCH ACCESSES:  104948362 HITS:  100562266 MISSES:    4386096
L1D WRITEBACK ACCESSES:          0 HITS:          0 MISSES:          0
L1D RQ ACCESS:  130762048
L1D RQ TO_CACHE:  110824692
L1D RQ MERGED:   19935851
L1D RQ FORWARD:          0
L1D WQ ACCESS:   69552603
L1D WQ TO_CACHE:   68973839
L1D WQ MERGED:     578764
L1D WQ FORWARD:      27485
L1I TOTAL     ACCESS:  126572153  HIT:  122333604  MISS:    4238549
L1I LOAD      ACCESS:  126572153  HIT:  122333604  MISS:    4238549
L1I RFO       ACCESS:          0  HIT:          0  MISS:          0
L1I PREFETCH  ACCESS:          0  HIT:          0  MISS:          0
L1I WRITEBACK ACCESS:          0  HIT:          0  MISS:          0
L1I PREFETCH  REQUESTED:          0  ISSUED:          0  USEFUL:          0  USELESS:          0
L1I TOTAL MSHR MERGED:    1835237
L1I LOAD MSHR MERGED:    1835237
L1I RFO MSHR MERGED:          0
L1I PREFETCH MSHR MERGED:          0
L1I WRITEBACK MSHR MERGED:          0
L1I TOTAL ACCESSES:  128407393 HITS:  122333604 MISSES:    6073789
L1I LOAD ACCESSES:  128407393 HITS:  122333604 MISSES:    6073789
L1I RFO ACCESSES:          0 HITS:          0 MISSES:          0
L1I PREFETCH ACCESSES:          0 HITS:          0 MISSES:          0
L1I WRITEBACK ACCESSES:          0 HITS:          0 MISSES:          0
L1I RQ ACCESS:  500000057
L1I RQ TO_CACHE:  128407393
L1I RQ MERGED:  371592664
L1I RQ FORWARD:          0
L1I WQ ACCESS:          0
L1I WQ TO_CACHE:          0
L1I WQ MERGED:          0
L1I WQ FORWARD:          0
L2C TOTAL     ACCESS:   14904684  HIT:   11158333  MISS:    3746351
L2C LOAD      ACCESS:    7418717  HIT:    5098677  MISS:    2320040
L2C RFO       ACCESS:     878630  HIT:     409904  MISS:     468726
L2C PREFETCH  ACCESS:    4568109  HIT:    3627785  MISS:     940324
L2C WRITEBACK ACCESS:    2039228  HIT:    2021967  MISS:      17261
L2C PREFETCH  REQUESTED:     842694  ISSUED:     842694  USEFUL:     203260  USELESS:     736770
L2C TOTAL MSHR MERGED:       7448
L2C LOAD MSHR MERGED:        897
L2C RFO MSHR MERGED:          0
L2C PREFETCH MSHR MERGED:       6551
L2C WRITEBACK MSHR MERGED:          0
L2C TOTAL ACCESSES:   14913049 HITS:   11158782 MISSES:    3754267
L2C LOAD ACCESSES:    7418926 HITS:    5098886 MISSES:    2320040
L2C RFO ACCESSES:     878728 HITS:     410002 MISSES:     468726
L2C PREFETCH ACCESSES:    4576167 HITS:    3627927 MISSES:     948240
L2C WRITEBACK ACCESSES:    2039228 HITS:    2021967 MISSES:      17261
L2C RQ ACCESS:    8297657
L2C RQ TO_CACHE:    8297350
L2C RQ MERGED:          0
L2C RQ FORWARD:          0
L2C WQ ACCESS:    2039228
L2C WQ TO_CACHE:    2039228
L2C WQ MERGED:          0
L2C WQ FORWARD:        449
LLC TOTAL     ACCESS:    4609670  HIT:    3640137  MISS:     969533
LLC LOAD      ACCESS:    2319128  HIT:    1920457  MISS:     398671
LLC RFO       ACCESS:     468716  HIT:     388855  MISS:      79861
LLC PREFETCH  ACCESS:     941573  HIT:     549094  MISS:     392479
LLC WRITEBACK ACCESS:     880253  HIT:     781731  MISS:      98522
LLC PREFETCH  REQUESTED:          0  ISSUED:          0  USEFUL:      13817  USELESS:     377981
LLC TOTAL MSHR MERGED:         94
LLC LOAD MSHR MERGED:         33
LLC RFO MSHR MERGED:          0
LLC PREFETCH MSHR MERGED:         61
LLC WRITEBACK MSHR MERGED:          0
LLC TOTAL ACCESSES:    4609800 HITS:    3640173 MISSES:     969627
LLC LOAD ACCESSES:    2319143 HITS:    1920472 MISSES:     398671
LLC RFO ACCESSES:     468726 HITS:     388865 MISSES:      79861
LLC PREFETCH ACCESSES:     941678 HITS:     549105 MISSES:     392573
LLC WRITEBACK ACCESSES:     880253 HITS:     781731 MISSES:      98522
LLC 0 RQ ACCESS:    2787869
LLC 0 RQ TO_CACHE:    2787844
LLC 0 RQ MERGED:          0
LLC 0 RQ FORWARD:          0
LLC WQ ACCESS:     880253
LLC WQ TO_CACHE:     880253
LLC WQ MERGED:          0
LLC WQ FORWARD:         36
Major fault: 0 Minor fault: 12862
CPU 0 L1D next line prefetcher final stats
CPU 0 L2C PC-based stride prefetcher final stats
All Misses: 1139139
All Hits: 4287537
SD Algo Stats - Switches: 0 SRR-Repls: 450165 BRR-Repls: 0

DRAM Statistics
 CHANNEL 0
 RQ ROW_BUFFER_HIT:     192142  ROW_BUFFER_MISS:     675099
 DBUS_CONGESTED:     408259
 WQ ROW_BUFFER_HIT:      15970  ROW_BUFFER_MISS:     197775  FULL:          0

 AVG_CONGESTED_CYCLE: 13
LOADS RETIRED: 136549171
INSTR RETIRED: 500000000
