
*** ChampSim Multicore Out-of-Order Simulator ***

Warmup Instructions: 100000000
Simulation Instructions: 500000000
Number of CPUs: 1
LLC sets: 2048
LLC ways: 16
Clean RRIP Policies: 2213220222132202 Dirty RRIP Policies: 1203120212031202 PSEL Width: 10 Track Set: 4294967295 PSEL Mask: 1 Demote Mask: 1040400010404000DS Algo: 0Window size: 0
Off-chip DRAM Size: 4096 MB Channels: 1 Width: 64-bit Data Rate: 1600 MT/s

CPU 0 runs /mnt/beegfs/iconst01/spec2017/Gcc.trace.gz
NOT SORTED
TRACE STRING: /mnt/beegfs/iconst01/spec2017/Gcc.trace.gz
SORTED
TRACE STRING: /mnt/beegfs/iconst01/spec2017/Gcc.trace.gz
INITIAL
TRACE STRING: /mnt/beegfs/iconst01/spec2017/Gcc.trace.gz

champsim_seed used: 269

CPU 0 L1D next line prefetcher
CPU 0 L2C IP-based stride prefetcher
Initialize DRRIP state
Assign rand_sets[0]: 454  LLC: 2048
rand_sets[0]: 454
Assign rand_sets[1]: 1662  LLC: 2048
rand_sets[1]: 1662
Assign rand_sets[2]: 1921  LLC: 2048
rand_sets[2]: 1921
Assign rand_sets[3]: 1131  LLC: 2048
rand_sets[3]: 1131
Assign rand_sets[4]: 331  LLC: 2048
rand_sets[4]: 331
Assign rand_sets[5]: 1531  LLC: 2048
rand_sets[5]: 1531
Assign rand_sets[6]: 482  LLC: 2048
rand_sets[6]: 482
Assign rand_sets[7]: 1275  LLC: 2048
rand_sets[7]: 1275
Assign rand_sets[8]: 1876  LLC: 2048
rand_sets[8]: 1876
Assign rand_sets[9]: 2038  LLC: 2048
rand_sets[9]: 2038
Assign rand_sets[10]: 701  LLC: 2048
rand_sets[10]: 701
Assign rand_sets[11]: 479  LLC: 2048
rand_sets[11]: 479
Assign rand_sets[12]: 892  LLC: 2048
rand_sets[12]: 892
Assign rand_sets[13]: 1820  LLC: 2048
rand_sets[13]: 1820
Assign rand_sets[14]: 1505  LLC: 2048
rand_sets[14]: 1505
Assign rand_sets[15]: 1159  LLC: 2048
rand_sets[15]: 1159
Assign rand_sets[16]: 513  LLC: 2048
rand_sets[16]: 513
Assign rand_sets[17]: 703  LLC: 2048
rand_sets[17]: 703
Assign rand_sets[18]: 561  LLC: 2048
rand_sets[18]: 561
Assign rand_sets[19]: 990  LLC: 2048
rand_sets[19]: 990
Assign rand_sets[20]: 342  LLC: 2048
rand_sets[20]: 342
Assign rand_sets[21]: 882  LLC: 2048
rand_sets[21]: 882
Assign rand_sets[22]: 15  LLC: 2048
rand_sets[22]: 15
Assign rand_sets[23]: 71  LLC: 2048
rand_sets[23]: 71
Assign rand_sets[24]: 1127  LLC: 2048
rand_sets[24]: 1127
Assign rand_sets[25]: 1382  LLC: 2048
rand_sets[25]: 1382
Assign rand_sets[26]: 647  LLC: 2048
rand_sets[26]: 647
Assign rand_sets[27]: 857  LLC: 2048
rand_sets[27]: 857
Assign rand_sets[28]: 1450  LLC: 2048
rand_sets[28]: 1450
Assign rand_sets[29]: 1160  LLC: 2048
rand_sets[29]: 1160
Assign rand_sets[30]: 1852  LLC: 2048
rand_sets[30]: 1852
Assign rand_sets[31]: 1881  LLC: 2048
rand_sets[31]: 1881
Assign rand_sets[32]: 1770  LLC: 2048
rand_sets[32]: 1770
Assign rand_sets[33]: 1622  LLC: 2048
rand_sets[33]: 1622
Assign rand_sets[34]: 275  LLC: 2048
rand_sets[34]: 275
Assign rand_sets[35]: 635  LLC: 2048
rand_sets[35]: 635
Assign rand_sets[36]: 466  LLC: 2048
rand_sets[36]: 466
Assign rand_sets[37]: 1413  LLC: 2048
rand_sets[37]: 1413
Assign rand_sets[38]: 417  LLC: 2048
rand_sets[38]: 417
Assign rand_sets[39]: 472  LLC: 2048
rand_sets[39]: 472
Assign rand_sets[40]: 1340  LLC: 2048
rand_sets[40]: 1340
Assign rand_sets[41]: 852  LLC: 2048
rand_sets[41]: 852
Assign rand_sets[42]: 1365  LLC: 2048
rand_sets[42]: 1365
Assign rand_sets[43]: 47  LLC: 2048
rand_sets[43]: 47
Assign rand_sets[44]: 823  LLC: 2048
rand_sets[44]: 823
Assign rand_sets[45]: 686  LLC: 2048
rand_sets[45]: 686
Assign rand_sets[46]: 1637  LLC: 2048
rand_sets[46]: 1637
Assign rand_sets[47]: 1115  LLC: 2048
rand_sets[47]: 1115
Assign rand_sets[48]: 986  LLC: 2048
rand_sets[48]: 986
Assign rand_sets[49]: 258  LLC: 2048
rand_sets[49]: 258
Assign rand_sets[50]: 633  LLC: 2048
rand_sets[50]: 633
Assign rand_sets[51]: 920  LLC: 2048
rand_sets[51]: 920
Assign rand_sets[52]: 204  LLC: 2048
rand_sets[52]: 204
Assign rand_sets[53]: 227  LLC: 2048
rand_sets[53]: 227
Assign rand_sets[54]: 1818  LLC: 2048
rand_sets[54]: 1818
Assign rand_sets[55]: 886  LLC: 2048
rand_sets[55]: 886
Assign rand_sets[56]: 1422  LLC: 2048
rand_sets[56]: 1422
Assign rand_sets[57]: 607  LLC: 2048
rand_sets[57]: 607
Assign rand_sets[58]: 217  LLC: 2048
rand_sets[58]: 217
Assign rand_sets[59]: 1945  LLC: 2048
rand_sets[59]: 1945
Assign rand_sets[60]: 143  LLC: 2048
rand_sets[60]: 143
Assign rand_sets[61]: 1311  LLC: 2048
rand_sets[61]: 1311
Assign rand_sets[62]: 319  LLC: 2048
rand_sets[62]: 319
Assign rand_sets[63]: 1846  LLC: 2048
rand_sets[63]: 1846
 CLEAN-RRIP-POLICY-1: 2-2-1-3-2-2-0-2- CLEAN-RRIP-POLICY-2: 2-2-1-3-2-2-0-2-
 DIRTY-RRIP-POLICY-1: 1-2-0-3-1-2-0-2- DIRTY-RRIP-POLICY-2: 1-2-0-3-1-2-0-2-
 PSEL width: 10
Heartbeat CPU 0 instructions: 10000001 cycles: 7315977 heartbeat IPC: 1.36687 cumulative IPC: 1.36687 (Simulation time: 0 hr 0 min 15 sec) 
Heartbeat CPU 0 instructions: 20000000 cycles: 14307732 heartbeat IPC: 1.43026 cumulative IPC: 1.39785 (Simulation time: 0 hr 0 min 29 sec) 
Heartbeat CPU 0 instructions: 30000001 cycles: 21020664 heartbeat IPC: 1.48966 cumulative IPC: 1.42717 (Simulation time: 0 hr 0 min 45 sec) 
Heartbeat CPU 0 instructions: 40000000 cycles: 27481438 heartbeat IPC: 1.5478 cumulative IPC: 1.45553 (Simulation time: 0 hr 1 min 1 sec) 
Heartbeat CPU 0 instructions: 50000001 cycles: 33583221 heartbeat IPC: 1.63887 cumulative IPC: 1.48884 (Simulation time: 0 hr 1 min 17 sec) 
Heartbeat CPU 0 instructions: 60000000 cycles: 40064475 heartbeat IPC: 1.54291 cumulative IPC: 1.49759 (Simulation time: 0 hr 1 min 33 sec) 
Heartbeat CPU 0 instructions: 70000000 cycles: 47103641 heartbeat IPC: 1.42062 cumulative IPC: 1.48608 (Simulation time: 0 hr 1 min 48 sec) 
Heartbeat CPU 0 instructions: 80000000 cycles: 54194055 heartbeat IPC: 1.41035 cumulative IPC: 1.47618 (Simulation time: 0 hr 2 min 2 sec) 
Heartbeat CPU 0 instructions: 90000003 cycles: 61198891 heartbeat IPC: 1.42759 cumulative IPC: 1.47061 (Simulation time: 0 hr 2 min 17 sec) 
Heartbeat CPU 0 instructions: 100000000 cycles: 68366490 heartbeat IPC: 1.39517 cumulative IPC: 1.4627 (Simulation time: 0 hr 2 min 32 sec) 

Warmup complete CPU 0 instructions: 100000004 cycles: 68366491 (Simulation time: 0 hr 2 min 32 sec) 

Heartbeat CPU 0 instructions: 110000003 cycles: 95986232 heartbeat IPC: 0.36206 cumulative IPC: 0.36206 (Simulation time: 0 hr 3 min 0 sec) 
Heartbeat CPU 0 instructions: 120000000 cycles: 123432273 heartbeat IPC: 0.364351 cumulative IPC: 0.363202 (Simulation time: 0 hr 3 min 29 sec) 
Heartbeat CPU 0 instructions: 130000000 cycles: 148406428 heartbeat IPC: 0.400414 cumulative IPC: 0.374813 (Simulation time: 0 hr 3 min 57 sec) 
Heartbeat CPU 0 instructions: 140000000 cycles: 177990079 heartbeat IPC: 0.338025 cumulative IPC: 0.364885 (Simulation time: 0 hr 4 min 25 sec) 
Heartbeat CPU 0 instructions: 150000000 cycles: 207870213 heartbeat IPC: 0.334671 cumulative IPC: 0.358413 (Simulation time: 0 hr 4 min 54 sec) 
Heartbeat CPU 0 instructions: 160000000 cycles: 235294090 heartbeat IPC: 0.364646 cumulative IPC: 0.359437 (Simulation time: 0 hr 5 min 21 sec) 
Heartbeat CPU 0 instructions: 170000001 cycles: 263280559 heartbeat IPC: 0.357316 cumulative IPC: 0.359133 (Simulation time: 0 hr 5 min 51 sec) 
Heartbeat CPU 0 instructions: 180000000 cycles: 291723698 heartbeat IPC: 0.351579 cumulative IPC: 0.358171 (Simulation time: 0 hr 6 min 20 sec) 
Heartbeat CPU 0 instructions: 190000002 cycles: 319737130 heartbeat IPC: 0.356972 cumulative IPC: 0.358037 (Simulation time: 0 hr 6 min 49 sec) 
Heartbeat CPU 0 instructions: 200000000 cycles: 348097660 heartbeat IPC: 0.352603 cumulative IPC: 0.357486 (Simulation time: 0 hr 7 min 18 sec) 
Heartbeat CPU 0 instructions: 210000002 cycles: 375955310 heartbeat IPC: 0.358968 cumulative IPC: 0.35762 (Simulation time: 0 hr 7 min 47 sec) 
Heartbeat CPU 0 instructions: 220000000 cycles: 405177619 heartbeat IPC: 0.342204 cumulative IPC: 0.356283 (Simulation time: 0 hr 8 min 14 sec) 
Heartbeat CPU 0 instructions: 230000000 cycles: 432695835 heartbeat IPC: 0.363396 cumulative IPC: 0.35682 (Simulation time: 0 hr 8 min 42 sec) 
Heartbeat CPU 0 instructions: 240000000 cycles: 458613070 heartbeat IPC: 0.385844 cumulative IPC: 0.358748 (Simulation time: 0 hr 9 min 8 sec) 
Heartbeat CPU 0 instructions: 250000000 cycles: 488728363 heartbeat IPC: 0.332057 cumulative IPC: 0.356835 (Simulation time: 0 hr 9 min 38 sec) 
Heartbeat CPU 0 instructions: 260000000 cycles: 515807305 heartbeat IPC: 0.369291 cumulative IPC: 0.357589 (Simulation time: 0 hr 10 min 6 sec) 
Heartbeat CPU 0 instructions: 270000003 cycles: 544206199 heartbeat IPC: 0.352127 cumulative IPC: 0.357263 (Simulation time: 0 hr 10 min 35 sec) 
Heartbeat CPU 0 instructions: 280000000 cycles: 572388391 heartbeat IPC: 0.354834 cumulative IPC: 0.357127 (Simulation time: 0 hr 11 min 4 sec) 
Heartbeat CPU 0 instructions: 290000000 cycles: 601319362 heartbeat IPC: 0.34565 cumulative IPC: 0.356504 (Simulation time: 0 hr 11 min 33 sec) 
Heartbeat CPU 0 instructions: 300000000 cycles: 631375279 heartbeat IPC: 0.332713 cumulative IPC: 0.355234 (Simulation time: 0 hr 12 min 1 sec) 
Heartbeat CPU 0 instructions: 310000001 cycles: 660833642 heartbeat IPC: 0.339462 cumulative IPC: 0.35445 (Simulation time: 0 hr 12 min 29 sec) 
Heartbeat CPU 0 instructions: 320000000 cycles: 689083357 heartbeat IPC: 0.353986 cumulative IPC: 0.354429 (Simulation time: 0 hr 12 min 56 sec) 
Heartbeat CPU 0 instructions: 330000000 cycles: 717735537 heartbeat IPC: 0.349014 cumulative IPC: 0.35419 (Simulation time: 0 hr 13 min 23 sec) 
Heartbeat CPU 0 instructions: 340000000 cycles: 747005011 heartbeat IPC: 0.341653 cumulative IPC: 0.353649 (Simulation time: 0 hr 13 min 51 sec) 
Heartbeat CPU 0 instructions: 350000003 cycles: 774071607 heartbeat IPC: 0.369459 cumulative IPC: 0.354256 (Simulation time: 0 hr 14 min 18 sec) 
Heartbeat CPU 0 instructions: 360000000 cycles: 802233704 heartbeat IPC: 0.355087 cumulative IPC: 0.354288 (Simulation time: 0 hr 14 min 44 sec) 
Heartbeat CPU 0 instructions: 370000000 cycles: 830418302 heartbeat IPC: 0.354804 cumulative IPC: 0.354307 (Simulation time: 0 hr 15 min 10 sec) 
Heartbeat CPU 0 instructions: 380000000 cycles: 858910626 heartbeat IPC: 0.350972 cumulative IPC: 0.354186 (Simulation time: 0 hr 15 min 36 sec) 
Heartbeat CPU 0 instructions: 390000001 cycles: 886515900 heartbeat IPC: 0.36225 cumulative IPC: 0.354458 (Simulation time: 0 hr 16 min 2 sec) 
Heartbeat CPU 0 instructions: 400000000 cycles: 915149227 heartbeat IPC: 0.349243 cumulative IPC: 0.354282 (Simulation time: 0 hr 16 min 28 sec) 
Heartbeat CPU 0 instructions: 410000001 cycles: 942451339 heartbeat IPC: 0.366272 cumulative IPC: 0.354657 (Simulation time: 0 hr 16 min 53 sec) 
Heartbeat CPU 0 instructions: 420000000 cycles: 969767154 heartbeat IPC: 0.366088 cumulative IPC: 0.355003 (Simulation time: 0 hr 17 min 19 sec) 
Heartbeat CPU 0 instructions: 430000002 cycles: 997476665 heartbeat IPC: 0.360887 cumulative IPC: 0.355179 (Simulation time: 0 hr 17 min 44 sec) 
Heartbeat CPU 0 instructions: 440000000 cycles: 1027018992 heartbeat IPC: 0.338497 cumulative IPC: 0.354664 (Simulation time: 0 hr 18 min 10 sec) 
Heartbeat CPU 0 instructions: 450000002 cycles: 1056258724 heartbeat IPC: 0.342 cumulative IPC: 0.35429 (Simulation time: 0 hr 18 min 35 sec) 
Heartbeat CPU 0 instructions: 460000000 cycles: 1083958317 heartbeat IPC: 0.361016 cumulative IPC: 0.354473 (Simulation time: 0 hr 19 min 0 sec) 
Heartbeat CPU 0 instructions: 470000000 cycles: 1111589017 heartbeat IPC: 0.361916 cumulative IPC: 0.35467 (Simulation time: 0 hr 19 min 25 sec) 
Heartbeat CPU 0 instructions: 480000000 cycles: 1139462859 heartbeat IPC: 0.358759 cumulative IPC: 0.354777 (Simulation time: 0 hr 19 min 50 sec) 
Heartbeat CPU 0 instructions: 490000000 cycles: 1167054227 heartbeat IPC: 0.362432 cumulative IPC: 0.354969 (Simulation time: 0 hr 20 min 15 sec) 
Heartbeat CPU 0 instructions: 500000000 cycles: 1195367649 heartbeat IPC: 0.353189 cumulative IPC: 0.354924 (Simulation time: 0 hr 20 min 41 sec) 
Heartbeat CPU 0 instructions: 510000000 cycles: 1229465421 heartbeat IPC: 0.293274 cumulative IPC: 0.353114 (Simulation time: 0 hr 21 min 10 sec) 
Heartbeat CPU 0 instructions: 520000000 cycles: 1257497424 heartbeat IPC: 0.356735 cumulative IPC: 0.353199 (Simulation time: 0 hr 21 min 36 sec) 
Heartbeat CPU 0 instructions: 530000001 cycles: 1287092590 heartbeat IPC: 0.337893 cumulative IPC: 0.352827 (Simulation time: 0 hr 22 min 2 sec) 
Heartbeat CPU 0 instructions: 540000000 cycles: 1315184648 heartbeat IPC: 0.355972 cumulative IPC: 0.352898 (Simulation time: 0 hr 22 min 28 sec) 
Heartbeat CPU 0 instructions: 550000001 cycles: 1344352739 heartbeat IPC: 0.34284 cumulative IPC: 0.352668 (Simulation time: 0 hr 22 min 56 sec) 
Heartbeat CPU 0 instructions: 560000000 cycles: 1369748281 heartbeat IPC: 0.39377 cumulative IPC: 0.35347 (Simulation time: 0 hr 23 min 22 sec) 
Heartbeat CPU 0 instructions: 570000000 cycles: 1399245626 heartbeat IPC: 0.339014 cumulative IPC: 0.35315 (Simulation time: 0 hr 23 min 48 sec) 
Heartbeat CPU 0 instructions: 580000000 cycles: 1427198917 heartbeat IPC: 0.35774 cumulative IPC: 0.353244 (Simulation time: 0 hr 24 min 15 sec) 
Heartbeat CPU 0 instructions: 590000001 cycles: 1451922408 heartbeat IPC: 0.404474 cumulative IPC: 0.35416 (Simulation time: 0 hr 24 min 39 sec) 
Heartbeat CPU 0 instructions: 600000000 cycles: 1477965654 heartbeat IPC: 0.383977 cumulative IPC: 0.354711 (Simulation time: 0 hr 25 min 5 sec) 
Finished CPU 0 instructions: 500000000 cycles: 1409599185 cumulative IPC: 0.354711 (Simulation time: 0 hr 25 min 5 sec) 

CPU 0 Branch Prediction Accuracy: 86.4311% MPKI: 26.2662
Number of Branches: 96788573 Number of Mispredictions: 13133102
Number of LOAD Instructions: 164682285
Number of LOAD Instructions (ROI): 164682285
Number of STORE Instructions: 78194750
Number of STORE Instructions (ROI): 78194750
Total Destination Memory Operands: 83268534
Total Destination Memory Operands (ROI): 83268534
Total Source Memory Operands: 164712438
Total Source Memory Operands (ROI): 164712438
Number of DEPENDED LOADS: 7057086
Number of DEPENDED LOADS (ROI): 7057086
Number of SQ_ADDED: 83268522
Number of SQ_ADDED (ROI): 83268522
Number of LQ_ADDED: 236716179
Number of LQ_ADDED (ROI): 236716179
Number of Instructions read from trace: 600000066

ChampSim completed all CPUs

Region of Interest Statistics

CPU 0 cumulative IPC: 0.354711 instructions: 500000000 cycles: 1409599185
ITLB TOTAL     ACCESS:  100519012  HIT:  100314566  MISS:     204446
ITLB LOAD      ACCESS:  100519012  HIT:  100314566  MISS:     204446
ITLB RFO       ACCESS:          0  HIT:          0  MISS:          0
ITLB PREFETCH  ACCESS:          0  HIT:          0  MISS:          0
ITLB WRITEBACK ACCESS:          0  HIT:          0  MISS:          0
ITLB PREFETCH  REQUESTED:          0  ISSUED:          0  USEFUL:          0  USELESS:          0
ITLB TOTAL MSHR MERGED:     172424
ITLB LOAD MSHR MERGED:     172424
ITLB RFO MSHR MERGED:          0
ITLB PREFETCH MSHR MERGED:          0
ITLB WRITEBACK MSHR MERGED:          0
ITLB TOTAL ACCESSES:  100691436 HITS:  100314566 MISSES:     376870
ITLB LOAD ACCESSES:  100691436 HITS:  100314566 MISSES:     376870
ITLB RFO ACCESSES:          0 HITS:          0 MISSES:          0
ITLB PREFETCH ACCESSES:          0 HITS:          0 MISSES:          0
ITLB WRITEBACK ACCESSES:          0 HITS:          0 MISSES:          0
ITLB RQ ACCESS:  500000057
ITLB RQ TO_CACHE:  100691436
ITLB RQ MERGED:  399308621
ITLB RQ FORWARD:          0
ITLB WQ ACCESS:          0
ITLB WQ TO_CACHE:          0
ITLB WQ MERGED:          0
ITLB WQ FORWARD:          0
DTLB TOTAL     ACCESS:  165339456  HIT:  164705107  MISS:     634349
DTLB LOAD      ACCESS:  106294146  HIT:  105724232  MISS:     569914
DTLB RFO       ACCESS:   59045310  HIT:   58980875  MISS:      64435
DTLB PREFETCH  ACCESS:          0  HIT:          0  MISS:          0
DTLB WRITEBACK ACCESS:          0  HIT:          0  MISS:          0
DTLB PREFETCH  REQUESTED:          0  ISSUED:          0  USEFUL:          0  USELESS:          0
DTLB TOTAL MSHR MERGED:      99978
DTLB LOAD MSHR MERGED:      59450
DTLB RFO MSHR MERGED:      40528
DTLB PREFETCH MSHR MERGED:          0
DTLB WRITEBACK MSHR MERGED:          0
DTLB TOTAL ACCESSES:  165439434 HITS:  164705107 MISSES:     734327
DTLB LOAD ACCESSES:  106353596 HITS:  105724232 MISSES:     629364
DTLB RFO ACCESSES:   59085838 HITS:   58980875 MISSES:     104963
DTLB PREFETCH ACCESSES:          0 HITS:          0 MISSES:          0
DTLB WRITEBACK ACCESSES:          0 HITS:          0 MISSES:          0
DTLB RQ ACCESS:  200313794
DTLB RQ TO_CACHE:  165439434
DTLB RQ MERGED:   34874360
DTLB RQ FORWARD:          0
DTLB WQ ACCESS:          0
DTLB WQ TO_CACHE:          0
DTLB WQ MERGED:          0
DTLB WQ FORWARD:          0
L1D TOTAL     ACCESS:  281858474  HIT:  273949099  MISS:    7909375
L1D LOAD      ACCESS:  110421790  HIT:  107144328  MISS:    3277462
L1D RFO       ACCESS:   67131175  HIT:   66241124  MISS:     890051
L1D PREFETCH  ACCESS:  104305509  HIT:  100563647  MISS:    3741862
L1D WRITEBACK ACCESS:          0  HIT:          0  MISS:          0
L1D PREFETCH  REQUESTED:  110819763  ISSUED:  109120451  USEFUL:    1662465  USELESS:    2079361
L1D TOTAL MSHR MERGED:    2850812
L1D LOAD MSHR MERGED:     494928
L1D RFO MSHR MERGED:    1854276
L1D PREFETCH MSHR MERGED:     501608
L1D WRITEBACK MSHR MERGED:          0
L1D TOTAL ACCESSES:  284736681 HITS:  273976494 MISSES:   10760187
L1D LOAD ACCESSES:  110821169 HITS:  107145734 MISSES:    3675435
L1D RFO ACCESSES:   68974193 HITS:   66241124 MISSES:    2733069
L1D PREFETCH ACCESSES:  104941319 HITS:  100589636 MISSES:    4351683
L1D WRITEBACK ACCESSES:          0 HITS:          0 MISSES:          0
L1D RQ ACCESS:  130761191
L1D RQ TO_CACHE:  110819766
L1D RQ MERGED:   19940019
L1D RQ FORWARD:          0
L1D WQ ACCESS:   69552603
L1D WQ TO_CACHE:   68974194
L1D WQ MERGED:     578409
L1D WQ FORWARD:      27395
L1I TOTAL     ACCESS:  126566213  HIT:  122327659  MISS:    4238554
L1I LOAD      ACCESS:  126566213  HIT:  122327659  MISS:    4238554
L1I RFO       ACCESS:          0  HIT:          0  MISS:          0
L1I PREFETCH  ACCESS:          0  HIT:          0  MISS:          0
L1I WRITEBACK ACCESS:          0  HIT:          0  MISS:          0
L1I PREFETCH  REQUESTED:          0  ISSUED:          0  USEFUL:          0  USELESS:          0
L1I TOTAL MSHR MERGED:    1834687
L1I LOAD MSHR MERGED:    1834687
L1I RFO MSHR MERGED:          0
L1I PREFETCH MSHR MERGED:          0
L1I WRITEBACK MSHR MERGED:          0
L1I TOTAL ACCESSES:  128400903 HITS:  122327659 MISSES:    6073244
L1I LOAD ACCESSES:  128400903 HITS:  122327659 MISSES:    6073244
L1I RFO ACCESSES:          0 HITS:          0 MISSES:          0
L1I PREFETCH ACCESSES:          0 HITS:          0 MISSES:          0
L1I WRITEBACK ACCESSES:          0 HITS:          0 MISSES:          0
L1I RQ ACCESS:  500000057
L1I RQ TO_CACHE:  128400903
L1I RQ MERGED:  371599154
L1I RQ FORWARD:          0
L1I WQ ACCESS:          0
L1I WQ TO_CACHE:          0
L1I WQ MERGED:          0
L1I WQ FORWARD:          0
L2C TOTAL     ACCESS:   14905563  HIT:   11159158  MISS:    3746405
L2C LOAD      ACCESS:    7418853  HIT:    5098991  MISS:    2319862
L2C RFO       ACCESS:     878696  HIT:     409910  MISS:     468786
L2C PREFETCH  ACCESS:    4568769  HIT:    3628268  MISS:     940501
L2C WRITEBACK ACCESS:    2039245  HIT:    2021989  MISS:      17256
L2C PREFETCH  REQUESTED:     842792  ISSUED:     842792  USEFUL:     203461  USELESS:     736746
L2C TOTAL MSHR MERGED:       6802
L2C LOAD MSHR MERGED:        715
L2C RFO MSHR MERGED:          0
L2C PREFETCH MSHR MERGED:       6087
L2C WRITEBACK MSHR MERGED:          0
L2C TOTAL ACCESSES:   14913239 HITS:   11159608 MISSES:    3753631
L2C LOAD ACCESSES:    7419061 HITS:    5099199 MISSES:    2319862
L2C RFO ACCESSES:     878793 HITS:     410007 MISSES:     468786
L2C PREFETCH ACCESSES:    4576140 HITS:    3628413 MISSES:     947727
L2C WRITEBACK ACCESSES:    2039245 HITS:    2021989 MISSES:      17256
L2C RQ ACCESS:    8297857
L2C RQ TO_CACHE:    8297552
L2C RQ MERGED:          0
L2C RQ FORWARD:          0
L2C WQ ACCESS:    2039245
L2C WQ TO_CACHE:    2039245
L2C WQ MERGED:          0
L2C WQ FORWARD:        450
LLC TOTAL     ACCESS:    4609696  HIT:    4019873  MISS:     589823
LLC LOAD      ACCESS:    2319131  HIT:    2064816  MISS:     254315
LLC RFO       ACCESS:     468775  HIT:     424579  MISS:      44196
LLC PREFETCH  ACCESS:     941526  HIT:     674210  MISS:     267316
LLC WRITEBACK ACCESS:     880264  HIT:     856268  MISS:      23996
LLC PREFETCH  REQUESTED:          0  ISSUED:          0  USEFUL:      13939  USELESS:     253636
LLC TOTAL MSHR MERGED:         96
LLC LOAD MSHR MERGED:         31
LLC RFO MSHR MERGED:          0
LLC PREFETCH MSHR MERGED:         65
LLC WRITEBACK MSHR MERGED:          0
LLC TOTAL ACCESSES:    4609832 HITS:    4019913 MISSES:     589919
LLC LOAD ACCESSES:    2319147 HITS:    2064832 MISSES:     254315
LLC RFO ACCESSES:     468786 HITS:     424590 MISSES:      44196
LLC PREFETCH ACCESSES:     941635 HITS:     674223 MISSES:     267412
LLC WRITEBACK ACCESSES:     880264 HITS:     856268 MISSES:      23996
LLC 0 RQ ACCESS:    2787933
LLC 0 RQ TO_CACHE:    2787906
LLC 0 RQ MERGED:          0
LLC 0 RQ FORWARD:          0
LLC WQ ACCESS:     880264
LLC WQ TO_CACHE:     880264
LLC WQ MERGED:          0
LLC WQ FORWARD:         40
Major fault: 0 Minor fault: 12862
CPU 0 L1D next line prefetcher final stats
CPU 0 L2C PC-based stride prefetcher final stats
All Misses: 703962
All Hits: 4722740
SD Algo Stats - Switches: 0 SRR-Repls: 301373 BRR-Repls: 0

DRAM Statistics
 CHANNEL 0
 RQ ROW_BUFFER_HIT:     117110  ROW_BUFFER_MISS:     448320
 DBUS_CONGESTED:     302286
 WQ ROW_BUFFER_HIT:       9013  ROW_BUFFER_MISS:     136870  FULL:          0

 AVG_CONGESTED_CYCLE: 13
LOADS RETIRED: 136549171
INSTR RETIRED: 500000000
