
*** ChampSim Multicore Out-of-Order Simulator ***

Warmup Instructions: 100000000
Simulation Instructions: 500000000
Number of CPUs: 1
LLC sets: 2048
LLC ways: 16
Clean RRIP Policies: 2123101121231011 Dirty RRIP Policies: 103001101030011 PSEL Width: 10 Track Set: 4294967295 PSEL Mask: 1 Demote Mask: 1233220312332203DS Algo: 0Window size: 0
Off-chip DRAM Size: 4096 MB Channels: 1 Width: 64-bit Data Rate: 1600 MT/s

CPU 0 runs /mnt/beegfs/iconst01/spec2017/Parest.trace.gz
NOT SORTED
TRACE STRING: /mnt/beegfs/iconst01/spec2017/Parest.trace.gz
SORTED
TRACE STRING: /mnt/beegfs/iconst01/spec2017/Parest.trace.gz
INITIAL
TRACE STRING: /mnt/beegfs/iconst01/spec2017/Parest.trace.gz

champsim_seed used: 623

CPU 0 L1D next line prefetcher
CPU 0 L2C IP-based stride prefetcher
Initialize DRRIP state
Assign rand_sets[0]: 454  LLC: 2048
rand_sets[0]: 454
Assign rand_sets[1]: 1662  LLC: 2048
rand_sets[1]: 1662
Assign rand_sets[2]: 1921  LLC: 2048
rand_sets[2]: 1921
Assign rand_sets[3]: 1131  LLC: 2048
rand_sets[3]: 1131
Assign rand_sets[4]: 331  LLC: 2048
rand_sets[4]: 331
Assign rand_sets[5]: 1531  LLC: 2048
rand_sets[5]: 1531
Assign rand_sets[6]: 482  LLC: 2048
rand_sets[6]: 482
Assign rand_sets[7]: 1275  LLC: 2048
rand_sets[7]: 1275
Assign rand_sets[8]: 1876  LLC: 2048
rand_sets[8]: 1876
Assign rand_sets[9]: 2038  LLC: 2048
rand_sets[9]: 2038
Assign rand_sets[10]: 701  LLC: 2048
rand_sets[10]: 701
Assign rand_sets[11]: 479  LLC: 2048
rand_sets[11]: 479
Assign rand_sets[12]: 892  LLC: 2048
rand_sets[12]: 892
Assign rand_sets[13]: 1820  LLC: 2048
rand_sets[13]: 1820
Assign rand_sets[14]: 1505  LLC: 2048
rand_sets[14]: 1505
Assign rand_sets[15]: 1159  LLC: 2048
rand_sets[15]: 1159
Assign rand_sets[16]: 513  LLC: 2048
rand_sets[16]: 513
Assign rand_sets[17]: 703  LLC: 2048
rand_sets[17]: 703
Assign rand_sets[18]: 561  LLC: 2048
rand_sets[18]: 561
Assign rand_sets[19]: 990  LLC: 2048
rand_sets[19]: 990
Assign rand_sets[20]: 342  LLC: 2048
rand_sets[20]: 342
Assign rand_sets[21]: 882  LLC: 2048
rand_sets[21]: 882
Assign rand_sets[22]: 15  LLC: 2048
rand_sets[22]: 15
Assign rand_sets[23]: 71  LLC: 2048
rand_sets[23]: 71
Assign rand_sets[24]: 1127  LLC: 2048
rand_sets[24]: 1127
Assign rand_sets[25]: 1382  LLC: 2048
rand_sets[25]: 1382
Assign rand_sets[26]: 647  LLC: 2048
rand_sets[26]: 647
Assign rand_sets[27]: 857  LLC: 2048
rand_sets[27]: 857
Assign rand_sets[28]: 1450  LLC: 2048
rand_sets[28]: 1450
Assign rand_sets[29]: 1160  LLC: 2048
rand_sets[29]: 1160
Assign rand_sets[30]: 1852  LLC: 2048
rand_sets[30]: 1852
Assign rand_sets[31]: 1881  LLC: 2048
rand_sets[31]: 1881
Assign rand_sets[32]: 1770  LLC: 2048
rand_sets[32]: 1770
Assign rand_sets[33]: 1622  LLC: 2048
rand_sets[33]: 1622
Assign rand_sets[34]: 275  LLC: 2048
rand_sets[34]: 275
Assign rand_sets[35]: 635  LLC: 2048
rand_sets[35]: 635
Assign rand_sets[36]: 466  LLC: 2048
rand_sets[36]: 466
Assign rand_sets[37]: 1413  LLC: 2048
rand_sets[37]: 1413
Assign rand_sets[38]: 417  LLC: 2048
rand_sets[38]: 417
Assign rand_sets[39]: 472  LLC: 2048
rand_sets[39]: 472
Assign rand_sets[40]: 1340  LLC: 2048
rand_sets[40]: 1340
Assign rand_sets[41]: 852  LLC: 2048
rand_sets[41]: 852
Assign rand_sets[42]: 1365  LLC: 2048
rand_sets[42]: 1365
Assign rand_sets[43]: 47  LLC: 2048
rand_sets[43]: 47
Assign rand_sets[44]: 823  LLC: 2048
rand_sets[44]: 823
Assign rand_sets[45]: 686  LLC: 2048
rand_sets[45]: 686
Assign rand_sets[46]: 1637  LLC: 2048
rand_sets[46]: 1637
Assign rand_sets[47]: 1115  LLC: 2048
rand_sets[47]: 1115
Assign rand_sets[48]: 986  LLC: 2048
rand_sets[48]: 986
Assign rand_sets[49]: 258  LLC: 2048
rand_sets[49]: 258
Assign rand_sets[50]: 633  LLC: 2048
rand_sets[50]: 633
Assign rand_sets[51]: 920  LLC: 2048
rand_sets[51]: 920
Assign rand_sets[52]: 204  LLC: 2048
rand_sets[52]: 204
Assign rand_sets[53]: 227  LLC: 2048
rand_sets[53]: 227
Assign rand_sets[54]: 1818  LLC: 2048
rand_sets[54]: 1818
Assign rand_sets[55]: 886  LLC: 2048
rand_sets[55]: 886
Assign rand_sets[56]: 1422  LLC: 2048
rand_sets[56]: 1422
Assign rand_sets[57]: 607  LLC: 2048
rand_sets[57]: 607
Assign rand_sets[58]: 217  LLC: 2048
rand_sets[58]: 217
Assign rand_sets[59]: 1945  LLC: 2048
rand_sets[59]: 1945
Assign rand_sets[60]: 143  LLC: 2048
rand_sets[60]: 143
Assign rand_sets[61]: 1311  LLC: 2048
rand_sets[61]: 1311
Assign rand_sets[62]: 319  LLC: 2048
rand_sets[62]: 319
Assign rand_sets[63]: 1846  LLC: 2048
rand_sets[63]: 1846
 CLEAN-RRIP-POLICY-1: 2-1-2-3-1-0-1-1- CLEAN-RRIP-POLICY-2: 2-1-2-3-1-0-1-1-
 DIRTY-RRIP-POLICY-1: 0-1-0-3-0-0-1-1- DIRTY-RRIP-POLICY-2: 0-1-0-3-0-0-1-1-
 PSEL width: 10
Heartbeat CPU 0 instructions: 10000001 cycles: 4387236 heartbeat IPC: 2.27934 cumulative IPC: 2.27934 (Simulation time: 0 hr 0 min 15 sec) 
Heartbeat CPU 0 instructions: 20000000 cycles: 8781578 heartbeat IPC: 2.27565 cumulative IPC: 2.27749 (Simulation time: 0 hr 0 min 30 sec) 
Heartbeat CPU 0 instructions: 30000003 cycles: 13213692 heartbeat IPC: 2.25626 cumulative IPC: 2.27037 (Simulation time: 0 hr 0 min 45 sec) 
Heartbeat CPU 0 instructions: 40000000 cycles: 17644439 heartbeat IPC: 2.25696 cumulative IPC: 2.267 (Simulation time: 0 hr 1 min 0 sec) 
Heartbeat CPU 0 instructions: 50000000 cycles: 22052911 heartbeat IPC: 2.26836 cumulative IPC: 2.26727 (Simulation time: 0 hr 1 min 14 sec) 
Heartbeat CPU 0 instructions: 60000000 cycles: 26458916 heartbeat IPC: 2.26963 cumulative IPC: 2.26767 (Simulation time: 0 hr 1 min 29 sec) 
Heartbeat CPU 0 instructions: 70000000 cycles: 30860012 heartbeat IPC: 2.27216 cumulative IPC: 2.26831 (Simulation time: 0 hr 1 min 43 sec) 
Heartbeat CPU 0 instructions: 80000000 cycles: 35255794 heartbeat IPC: 2.27491 cumulative IPC: 2.26913 (Simulation time: 0 hr 1 min 58 sec) 
Heartbeat CPU 0 instructions: 90000000 cycles: 39650316 heartbeat IPC: 2.27556 cumulative IPC: 2.26984 (Simulation time: 0 hr 2 min 13 sec) 
Heartbeat CPU 0 instructions: 100000000 cycles: 44047878 heartbeat IPC: 2.27399 cumulative IPC: 2.27026 (Simulation time: 0 hr 2 min 28 sec) 

Warmup complete CPU 0 instructions: 100000002 cycles: 44047888 (Simulation time: 0 hr 2 min 28 sec) 

Heartbeat CPU 0 instructions: 110000000 cycles: 54257245 heartbeat IPC: 0.979493 cumulative IPC: 0.979493 (Simulation time: 0 hr 2 min 47 sec) 
Heartbeat CPU 0 instructions: 120000000 cycles: 63728528 heartbeat IPC: 1.05582 cumulative IPC: 1.01623 (Simulation time: 0 hr 3 min 6 sec) 
Heartbeat CPU 0 instructions: 130000000 cycles: 73226061 heartbeat IPC: 1.0529 cumulative IPC: 1.02817 (Simulation time: 0 hr 3 min 25 sec) 
Heartbeat CPU 0 instructions: 140000000 cycles: 82869491 heartbeat IPC: 1.03698 cumulative IPC: 1.03035 (Simulation time: 0 hr 3 min 44 sec) 
Heartbeat CPU 0 instructions: 150000000 cycles: 94069635 heartbeat IPC: 0.892846 cumulative IPC: 0.999565 (Simulation time: 0 hr 4 min 4 sec) 
Heartbeat CPU 0 instructions: 160000000 cycles: 104593055 heartbeat IPC: 0.950261 cumulative IPC: 0.990996 (Simulation time: 0 hr 4 min 23 sec) 
Heartbeat CPU 0 instructions: 170000000 cycles: 114906218 heartbeat IPC: 0.969635 cumulative IPC: 0.987887 (Simulation time: 0 hr 4 min 42 sec) 
Heartbeat CPU 0 instructions: 180000000 cycles: 125109535 heartbeat IPC: 0.980073 cumulative IPC: 0.986903 (Simulation time: 0 hr 5 min 1 sec) 
Heartbeat CPU 0 instructions: 190000002 cycles: 135382132 heartbeat IPC: 0.973464 cumulative IPC: 0.985392 (Simulation time: 0 hr 5 min 21 sec) 
Heartbeat CPU 0 instructions: 200000000 cycles: 145123577 heartbeat IPC: 1.02654 cumulative IPC: 0.989358 (Simulation time: 0 hr 5 min 40 sec) 
Heartbeat CPU 0 instructions: 210000000 cycles: 155208050 heartbeat IPC: 0.991623 cumulative IPC: 0.989563 (Simulation time: 0 hr 5 min 59 sec) 
Heartbeat CPU 0 instructions: 220000000 cycles: 164589972 heartbeat IPC: 1.06588 cumulative IPC: 0.995503 (Simulation time: 0 hr 6 min 18 sec) 
Heartbeat CPU 0 instructions: 230000001 cycles: 176765978 heartbeat IPC: 0.821287 cumulative IPC: 0.97952 (Simulation time: 0 hr 6 min 38 sec) 
Heartbeat CPU 0 instructions: 240000000 cycles: 188694391 heartbeat IPC: 0.838334 cumulative IPC: 0.967877 (Simulation time: 0 hr 6 min 59 sec) 
Heartbeat CPU 0 instructions: 250000002 cycles: 199996894 heartbeat IPC: 0.88476 cumulative IPC: 0.961853 (Simulation time: 0 hr 7 min 19 sec) 
Heartbeat CPU 0 instructions: 260000000 cycles: 210988208 heartbeat IPC: 0.909809 cumulative IPC: 0.958426 (Simulation time: 0 hr 7 min 38 sec) 
Heartbeat CPU 0 instructions: 270000001 cycles: 221719363 heartbeat IPC: 0.931866 cumulative IPC: 0.956822 (Simulation time: 0 hr 7 min 58 sec) 
Heartbeat CPU 0 instructions: 280000000 cycles: 232655329 heartbeat IPC: 0.914414 cumulative IPC: 0.954363 (Simulation time: 0 hr 8 min 18 sec) 
Heartbeat CPU 0 instructions: 290000002 cycles: 242585974 heartbeat IPC: 1.00698 cumulative IPC: 0.956995 (Simulation time: 0 hr 8 min 37 sec) 
Heartbeat CPU 0 instructions: 300000000 cycles: 253086556 heartbeat IPC: 0.952328 cumulative IPC: 0.956761 (Simulation time: 0 hr 8 min 56 sec) 
Heartbeat CPU 0 instructions: 310000000 cycles: 262811419 heartbeat IPC: 1.02829 cumulative IPC: 0.959941 (Simulation time: 0 hr 9 min 16 sec) 
Heartbeat CPU 0 instructions: 320000000 cycles: 272572866 heartbeat IPC: 1.02444 cumulative IPC: 0.962696 (Simulation time: 0 hr 9 min 35 sec) 
Heartbeat CPU 0 instructions: 330000003 cycles: 282413579 heartbeat IPC: 1.01619 cumulative IPC: 0.964904 (Simulation time: 0 hr 9 min 54 sec) 
Heartbeat CPU 0 instructions: 340000000 cycles: 292858540 heartbeat IPC: 0.957399 cumulative IPC: 0.964589 (Simulation time: 0 hr 10 min 13 sec) 
Heartbeat CPU 0 instructions: 350000000 cycles: 303746294 heartbeat IPC: 0.918463 cumulative IPC: 0.962655 (Simulation time: 0 hr 10 min 33 sec) 
Heartbeat CPU 0 instructions: 360000000 cycles: 314312972 heartbeat IPC: 0.946371 cumulative IPC: 0.962018 (Simulation time: 0 hr 10 min 52 sec) 
Heartbeat CPU 0 instructions: 370000000 cycles: 324541358 heartbeat IPC: 0.977671 cumulative IPC: 0.962589 (Simulation time: 0 hr 11 min 11 sec) 
Heartbeat CPU 0 instructions: 380000000 cycles: 334533582 heartbeat IPC: 1.00078 cumulative IPC: 0.963903 (Simulation time: 0 hr 11 min 30 sec) 
Heartbeat CPU 0 instructions: 390000002 cycles: 344307666 heartbeat IPC: 1.02311 cumulative IPC: 0.96583 (Simulation time: 0 hr 11 min 49 sec) 
Heartbeat CPU 0 instructions: 400000000 cycles: 354460916 heartbeat IPC: 0.984906 cumulative IPC: 0.966454 (Simulation time: 0 hr 12 min 8 sec) 
Heartbeat CPU 0 instructions: 410000000 cycles: 363954152 heartbeat IPC: 1.05338 cumulative IPC: 0.969034 (Simulation time: 0 hr 12 min 27 sec) 
Heartbeat CPU 0 instructions: 420000000 cycles: 375045244 heartbeat IPC: 0.901625 cumulative IPC: 0.966775 (Simulation time: 0 hr 12 min 47 sec) 
Heartbeat CPU 0 instructions: 430000000 cycles: 387407654 heartbeat IPC: 0.808904 cumulative IPC: 0.961091 (Simulation time: 0 hr 13 min 7 sec) 
Heartbeat CPU 0 instructions: 440000000 cycles: 398753408 heartbeat IPC: 0.881387 cumulative IPC: 0.958542 (Simulation time: 0 hr 13 min 26 sec) 
Heartbeat CPU 0 instructions: 450000000 cycles: 409922427 heartbeat IPC: 0.895334 cumulative IPC: 0.956612 (Simulation time: 0 hr 13 min 46 sec) 
Heartbeat CPU 0 instructions: 460000000 cycles: 420964995 heartbeat IPC: 0.905586 cumulative IPC: 0.955117 (Simulation time: 0 hr 14 min 5 sec) 
Heartbeat CPU 0 instructions: 470000001 cycles: 431866723 heartbeat IPC: 0.917286 cumulative IPC: 0.954054 (Simulation time: 0 hr 14 min 25 sec) 
Heartbeat CPU 0 instructions: 480000000 cycles: 441980591 heartbeat IPC: 0.988741 cumulative IPC: 0.954935 (Simulation time: 0 hr 14 min 44 sec) 
Heartbeat CPU 0 instructions: 490000002 cycles: 452552281 heartbeat IPC: 0.945923 cumulative IPC: 0.954702 (Simulation time: 0 hr 15 min 3 sec) 
Heartbeat CPU 0 instructions: 500000000 cycles: 462644874 heartbeat IPC: 0.990825 cumulative IPC: 0.955573 (Simulation time: 0 hr 15 min 22 sec) 
Heartbeat CPU 0 instructions: 510000000 cycles: 472377401 heartbeat IPC: 1.02748 cumulative IPC: 0.957207 (Simulation time: 0 hr 15 min 41 sec) 
Heartbeat CPU 0 instructions: 520000000 cycles: 482313038 heartbeat IPC: 1.00648 cumulative IPC: 0.958324 (Simulation time: 0 hr 15 min 59 sec) 
Heartbeat CPU 0 instructions: 530000001 cycles: 492980603 heartbeat IPC: 0.937421 cumulative IPC: 0.957827 (Simulation time: 0 hr 16 min 18 sec) 
Heartbeat CPU 0 instructions: 540000000 cycles: 503970648 heartbeat IPC: 0.909914 cumulative IPC: 0.956682 (Simulation time: 0 hr 16 min 37 sec) 
Heartbeat CPU 0 instructions: 550000003 cycles: 514746352 heartbeat IPC: 0.928014 cumulative IPC: 0.956026 (Simulation time: 0 hr 16 min 56 sec) 
Heartbeat CPU 0 instructions: 560000000 cycles: 525175439 heartbeat IPC: 0.958856 cumulative IPC: 0.956087 (Simulation time: 0 hr 17 min 14 sec) 
Heartbeat CPU 0 instructions: 570000002 cycles: 535338482 heartbeat IPC: 0.983957 cumulative IPC: 0.956664 (Simulation time: 0 hr 17 min 33 sec) 
Heartbeat CPU 0 instructions: 580000000 cycles: 545322093 heartbeat IPC: 1.00164 cumulative IPC: 0.95756 (Simulation time: 0 hr 17 min 51 sec) 
Heartbeat CPU 0 instructions: 590000001 cycles: 555529482 heartbeat IPC: 0.979683 cumulative IPC: 0.958001 (Simulation time: 0 hr 18 min 10 sec) 
Heartbeat CPU 0 instructions: 600000000 cycles: 565305001 heartbeat IPC: 1.02296 cumulative IPC: 0.95922 (Simulation time: 0 hr 18 min 28 sec) 
Finished CPU 0 instructions: 500000000 cycles: 521257127 cumulative IPC: 0.95922 (Simulation time: 0 hr 18 min 28 sec) 

CPU 0 Branch Prediction Accuracy: 97.8526% MPKI: 2.66709
Number of Branches: 62099103 Number of Mispredictions: 1333545
Number of LOAD Instructions: 210576465
Number of LOAD Instructions (ROI): 210576465
Number of STORE Instructions: 16915507
Number of STORE Instructions (ROI): 16915507
Total Destination Memory Operands: 16918869
Total Destination Memory Operands (ROI): 16918869
Total Source Memory Operands: 210576465
Total Source Memory Operands (ROI): 210576465
Number of DEPENDED LOADS: 307060
Number of DEPENDED LOADS (ROI): 307060
Number of SQ_ADDED: 16918826
Number of SQ_ADDED (ROI): 16918826
Number of LQ_ADDED: 210602474
Number of LQ_ADDED (ROI): 210602474
Number of Instructions read from trace: 600000257

ChampSim completed all CPUs

Region of Interest Statistics

CPU 0 cumulative IPC: 0.95922 instructions: 500000000 cycles: 521257127
ITLB TOTAL     ACCESS:   76524178  HIT:   76524140  MISS:         38
ITLB LOAD      ACCESS:   76524178  HIT:   76524140  MISS:         38
ITLB RFO       ACCESS:          0  HIT:          0  MISS:          0
ITLB PREFETCH  ACCESS:          0  HIT:          0  MISS:          0
ITLB WRITEBACK ACCESS:          0  HIT:          0  MISS:          0
ITLB PREFETCH  REQUESTED:          0  ISSUED:          0  USEFUL:          0  USELESS:          0
ITLB TOTAL MSHR MERGED:         37
ITLB LOAD MSHR MERGED:         37
ITLB RFO MSHR MERGED:          0
ITLB PREFETCH MSHR MERGED:          0
ITLB WRITEBACK MSHR MERGED:          0
ITLB TOTAL ACCESSES:   76524215 HITS:   76524140 MISSES:         75
ITLB LOAD ACCESSES:   76524215 HITS:   76524140 MISSES:         75
ITLB RFO ACCESSES:          0 HITS:          0 MISSES:          0
ITLB PREFETCH ACCESSES:          0 HITS:          0 MISSES:          0
ITLB WRITEBACK ACCESSES:          0 HITS:          0 MISSES:          0
ITLB RQ ACCESS:  500000188
ITLB RQ TO_CACHE:   76524216
ITLB RQ MERGED:  423475972
ITLB RQ FORWARD:          0
ITLB WQ ACCESS:          0
ITLB WQ TO_CACHE:          0
ITLB WQ MERGED:          0
ITLB WQ FORWARD:          0
DTLB TOTAL     ACCESS:  136713980  HIT:  136511187  MISS:     202793
DTLB LOAD      ACCESS:  128650354  HIT:  128450282  MISS:     200072
DTLB RFO       ACCESS:    8063626  HIT:    8060905  MISS:       2721
DTLB PREFETCH  ACCESS:          0  HIT:          0  MISS:          0
DTLB WRITEBACK ACCESS:          0  HIT:          0  MISS:          0
DTLB PREFETCH  REQUESTED:          0  ISSUED:          0  USEFUL:          0  USELESS:          0
DTLB TOTAL MSHR MERGED:     440833
DTLB LOAD MSHR MERGED:     436827
DTLB RFO MSHR MERGED:       4006
DTLB PREFETCH MSHR MERGED:          0
DTLB WRITEBACK MSHR MERGED:          0
DTLB TOTAL ACCESSES:  137154813 HITS:  136511187 MISSES:     643626
DTLB LOAD ACCESSES:  129087181 HITS:  128450282 MISSES:     636899
DTLB RFO ACCESSES:    8067632 HITS:    8060905 MISSES:       6727
DTLB PREFETCH ACCESSES:          0 HITS:          0 MISSES:          0
DTLB WRITEBACK ACCESSES:          0 HITS:          0 MISSES:          0
DTLB RQ ACCESS:  189457465
DTLB RQ TO_CACHE:  137154813
DTLB RQ MERGED:   52302652
DTLB RQ FORWARD:          0
DTLB WQ ACCESS:          0
DTLB WQ TO_CACHE:          0
DTLB WQ MERGED:          0
DTLB WQ FORWARD:          0
L1D TOTAL     ACCESS:  125131007  HIT:  107574233  MISS:   17556774
L1D LOAD      ACCESS:   72248487  HIT:   61848169  MISS:   10400318
L1D RFO       ACCESS:   14015800  HIT:   13862975  MISS:     152825
L1D PREFETCH  ACCESS:   38866720  HIT:   31863089  MISS:    7003631
L1D WRITEBACK ACCESS:          0  HIT:          0  MISS:          0
L1D PREFETCH  REQUESTED:   85839051  ISSUED:   84512860  USEFUL:    5744381  USELESS:    1259261
L1D TOTAL MSHR MERGED:   32836873
L1D LOAD MSHR MERGED:   18927254
L1D RFO MSHR MERGED:     262878
L1D PREFETCH MSHR MERGED:   13646741
L1D WRITEBACK MSHR MERGED:          0
L1D TOTAL ACCESSES:  157968401 HITS:  107574755 MISSES:   50393646
L1D LOAD ACCESSES:   85839058 HITS:   61848176 MISSES:   23990882
L1D RFO ACCESSES:   14278665 HITS:   13862975 MISSES:     415690
L1D PREFETCH ACCESSES:   57850678 HITS:   31863604 MISSES:   25987074
L1D WRITEBACK ACCESSES:          0 HITS:          0 MISSES:          0
L1D RQ ACCESS:  175168443
L1D RQ TO_CACHE:   85839051
L1D RQ MERGED:   89329385
L1D RQ FORWARD:          0
L1D WQ ACCESS:   14289037
L1D WQ TO_CACHE:   14278665
L1D WQ MERGED:      10372
L1D WQ FORWARD:        522
L1I TOTAL     ACCESS:   93551585  HIT:   93549789  MISS:       1796
L1I LOAD      ACCESS:   93551585  HIT:   93549789  MISS:       1796
L1I RFO       ACCESS:          0  HIT:          0  MISS:          0
L1I PREFETCH  ACCESS:          0  HIT:          0  MISS:          0
L1I WRITEBACK ACCESS:          0  HIT:          0  MISS:          0
L1I PREFETCH  REQUESTED:          0  ISSUED:          0  USEFUL:          0  USELESS:          0
L1I TOTAL MSHR MERGED:       2264
L1I LOAD MSHR MERGED:       2264
L1I RFO MSHR MERGED:          0
L1I PREFETCH MSHR MERGED:          0
L1I WRITEBACK MSHR MERGED:          0
L1I TOTAL ACCESSES:   93553849 HITS:   93549789 MISSES:       4060
L1I LOAD ACCESSES:   93553849 HITS:   93549789 MISSES:       4060
L1I RFO ACCESSES:          0 HITS:          0 MISSES:          0
L1I PREFETCH ACCESSES:          0 HITS:          0 MISSES:          0
L1I WRITEBACK ACCESSES:          0 HITS:          0 MISSES:          0
L1I RQ ACCESS:  500000187
L1I RQ TO_CACHE:   93553849
L1I RQ MERGED:  406446338
L1I RQ FORWARD:          0
L1I WQ ACCESS:          0
L1I WQ TO_CACHE:          0
L1I WQ MERGED:          0
L1I WQ FORWARD:          0
L2C TOTAL     ACCESS:   20885685  HIT:    8659125  MISS:   12226560
L2C LOAD      ACCESS:    5065403  HIT:    2135892  MISS:    2929511
L2C RFO       ACCESS:     152812  HIT:       6512  MISS:     146300
L2C PREFETCH  ACCESS:   13894709  HIT:    4744069  MISS:    9150640
L2C WRITEBACK ACCESS:    1772761  HIT:    1772652  MISS:        109
L2C PREFETCH  REQUESTED:    1788105  ISSUED:    1788105  USEFUL:    1058682  USELESS:    8093614
L2C TOTAL MSHR MERGED:      95868
L2C LOAD MSHR MERGED:      22747
L2C RFO MSHR MERGED:          0
L2C PREFETCH MSHR MERGED:      73121
L2C WRITEBACK MSHR MERGED:          0
L2C TOTAL ACCESSES:   21006769 HITS:    8659161 MISSES:   12347608
L2C LOAD ACCESSES:    5065424 HITS:    2135913 MISSES:    2929511
L2C RFO ACCESSES:     152812 HITS:       6512 MISSES:     146300
L2C PREFETCH ACCESSES:   14015772 HITS:    4744084 MISSES:    9271688
L2C WRITEBACK ACCESSES:    1772761 HITS:    1772652 MISSES:        109
L2C RQ ACCESS:    5218236
L2C RQ TO_CACHE:    5218215
L2C RQ MERGED:          0
L2C RQ FORWARD:          0
L2C WQ ACCESS:    1772761
L2C WQ TO_CACHE:    1772761
L2C WQ MERGED:          0
L2C WQ FORWARD:         36
LLC TOTAL     ACCESS:   12532006  HIT:    4888490  MISS:    7643516
LLC LOAD      ACCESS:    2906750  HIT:    1712326  MISS:    1194424
LLC RFO       ACCESS:     146300  HIT:     106929  MISS:      39371
LLC PREFETCH  ACCESS:    9192970  HIT:    2791461  MISS:    6401509
LLC WRITEBACK ACCESS:     285986  HIT:     277774  MISS:       8212
LLC PREFETCH  REQUESTED:          0  ISSUED:          0  USEFUL:       8355  USELESS:    6393484
LLC TOTAL MSHR MERGED:       1505
LLC LOAD MSHR MERGED:        290
LLC RFO MSHR MERGED:          0
LLC PREFETCH MSHR MERGED:       1215
LLC WRITEBACK MSHR MERGED:          0
LLC TOTAL ACCESSES:   12533533 HITS:    4888512 MISSES:    7645021
LLC LOAD ACCESSES:    2906764 HITS:    1712340 MISSES:    1194424
LLC RFO ACCESSES:     146300 HITS:     106929 MISSES:      39371
LLC PREFETCH ACCESSES:    9194483 HITS:    2791469 MISSES:    6403014
LLC WRITEBACK ACCESSES:     285986 HITS:     277774 MISSES:       8212
LLC 0 RQ ACCESS:    3053064
LLC 0 RQ TO_CACHE:    3053050
LLC 0 RQ MERGED:          0
LLC 0 RQ FORWARD:          0
LLC WQ ACCESS:     285986
LLC WQ TO_CACHE:     285986
LLC WQ MERGED:          0
LLC WQ FORWARD:         22
Major fault: 0 Minor fault: 6524
CPU 0 L1D next line prefetcher final stats
CPU 0 L2C PC-based stride prefetcher final stats
All Misses: 9431919
All Hits: 5625098
SD Algo Stats - Switches: 0 SRR-Repls: 1200939 BRR-Repls: 0

DRAM Statistics
 CHANNEL 0
 RQ ROW_BUFFER_HIT:    6781113  ROW_BUFFER_MISS:     846883
 DBUS_CONGESTED:    3240784
 WQ ROW_BUFFER_HIT:       3969  ROW_BUFFER_MISS:      48746  FULL:          0

 AVG_CONGESTED_CYCLE: 12
LOADS RETIRED: 175418235
INSTR RETIRED: 500000000
