
*** ChampSim Multicore Out-of-Order Simulator ***

Warmup Instructions: 100000000
Simulation Instructions: 500000000
Number of CPUs: 1
LLC sets: 2048
LLC ways: 16
Clean RRIP Policies: 1122110111221101 Dirty RRIP Policies: 1112210111122101 PSEL Width: 10 Track Set: 4294967295 PSEL Mask: 1 Demote Mask: 3320210433202104DS Algo: 0Window size: 0
Off-chip DRAM Size: 4096 MB Channels: 1 Width: 64-bit Data Rate: 1600 MT/s

CPU 0 runs /mnt/beegfs/iconst01/spec2017/Gcc.trace.gz
NOT SORTED
TRACE STRING: /mnt/beegfs/iconst01/spec2017/Gcc.trace.gz
SORTED
TRACE STRING: /mnt/beegfs/iconst01/spec2017/Gcc.trace.gz
INITIAL
TRACE STRING: /mnt/beegfs/iconst01/spec2017/Gcc.trace.gz

champsim_seed used: 269

CPU 0 L1D next line prefetcher
CPU 0 L2C IP-based stride prefetcher
Initialize DRRIP state
Assign rand_sets[0]: 454  LLC: 2048
rand_sets[0]: 454
Assign rand_sets[1]: 1662  LLC: 2048
rand_sets[1]: 1662
Assign rand_sets[2]: 1921  LLC: 2048
rand_sets[2]: 1921
Assign rand_sets[3]: 1131  LLC: 2048
rand_sets[3]: 1131
Assign rand_sets[4]: 331  LLC: 2048
rand_sets[4]: 331
Assign rand_sets[5]: 1531  LLC: 2048
rand_sets[5]: 1531
Assign rand_sets[6]: 482  LLC: 2048
rand_sets[6]: 482
Assign rand_sets[7]: 1275  LLC: 2048
rand_sets[7]: 1275
Assign rand_sets[8]: 1876  LLC: 2048
rand_sets[8]: 1876
Assign rand_sets[9]: 2038  LLC: 2048
rand_sets[9]: 2038
Assign rand_sets[10]: 701  LLC: 2048
rand_sets[10]: 701
Assign rand_sets[11]: 479  LLC: 2048
rand_sets[11]: 479
Assign rand_sets[12]: 892  LLC: 2048
rand_sets[12]: 892
Assign rand_sets[13]: 1820  LLC: 2048
rand_sets[13]: 1820
Assign rand_sets[14]: 1505  LLC: 2048
rand_sets[14]: 1505
Assign rand_sets[15]: 1159  LLC: 2048
rand_sets[15]: 1159
Assign rand_sets[16]: 513  LLC: 2048
rand_sets[16]: 513
Assign rand_sets[17]: 703  LLC: 2048
rand_sets[17]: 703
Assign rand_sets[18]: 561  LLC: 2048
rand_sets[18]: 561
Assign rand_sets[19]: 990  LLC: 2048
rand_sets[19]: 990
Assign rand_sets[20]: 342  LLC: 2048
rand_sets[20]: 342
Assign rand_sets[21]: 882  LLC: 2048
rand_sets[21]: 882
Assign rand_sets[22]: 15  LLC: 2048
rand_sets[22]: 15
Assign rand_sets[23]: 71  LLC: 2048
rand_sets[23]: 71
Assign rand_sets[24]: 1127  LLC: 2048
rand_sets[24]: 1127
Assign rand_sets[25]: 1382  LLC: 2048
rand_sets[25]: 1382
Assign rand_sets[26]: 647  LLC: 2048
rand_sets[26]: 647
Assign rand_sets[27]: 857  LLC: 2048
rand_sets[27]: 857
Assign rand_sets[28]: 1450  LLC: 2048
rand_sets[28]: 1450
Assign rand_sets[29]: 1160  LLC: 2048
rand_sets[29]: 1160
Assign rand_sets[30]: 1852  LLC: 2048
rand_sets[30]: 1852
Assign rand_sets[31]: 1881  LLC: 2048
rand_sets[31]: 1881
Assign rand_sets[32]: 1770  LLC: 2048
rand_sets[32]: 1770
Assign rand_sets[33]: 1622  LLC: 2048
rand_sets[33]: 1622
Assign rand_sets[34]: 275  LLC: 2048
rand_sets[34]: 275
Assign rand_sets[35]: 635  LLC: 2048
rand_sets[35]: 635
Assign rand_sets[36]: 466  LLC: 2048
rand_sets[36]: 466
Assign rand_sets[37]: 1413  LLC: 2048
rand_sets[37]: 1413
Assign rand_sets[38]: 417  LLC: 2048
rand_sets[38]: 417
Assign rand_sets[39]: 472  LLC: 2048
rand_sets[39]: 472
Assign rand_sets[40]: 1340  LLC: 2048
rand_sets[40]: 1340
Assign rand_sets[41]: 852  LLC: 2048
rand_sets[41]: 852
Assign rand_sets[42]: 1365  LLC: 2048
rand_sets[42]: 1365
Assign rand_sets[43]: 47  LLC: 2048
rand_sets[43]: 47
Assign rand_sets[44]: 823  LLC: 2048
rand_sets[44]: 823
Assign rand_sets[45]: 686  LLC: 2048
rand_sets[45]: 686
Assign rand_sets[46]: 1637  LLC: 2048
rand_sets[46]: 1637
Assign rand_sets[47]: 1115  LLC: 2048
rand_sets[47]: 1115
Assign rand_sets[48]: 986  LLC: 2048
rand_sets[48]: 986
Assign rand_sets[49]: 258  LLC: 2048
rand_sets[49]: 258
Assign rand_sets[50]: 633  LLC: 2048
rand_sets[50]: 633
Assign rand_sets[51]: 920  LLC: 2048
rand_sets[51]: 920
Assign rand_sets[52]: 204  LLC: 2048
rand_sets[52]: 204
Assign rand_sets[53]: 227  LLC: 2048
rand_sets[53]: 227
Assign rand_sets[54]: 1818  LLC: 2048
rand_sets[54]: 1818
Assign rand_sets[55]: 886  LLC: 2048
rand_sets[55]: 886
Assign rand_sets[56]: 1422  LLC: 2048
rand_sets[56]: 1422
Assign rand_sets[57]: 607  LLC: 2048
rand_sets[57]: 607
Assign rand_sets[58]: 217  LLC: 2048
rand_sets[58]: 217
Assign rand_sets[59]: 1945  LLC: 2048
rand_sets[59]: 1945
Assign rand_sets[60]: 143  LLC: 2048
rand_sets[60]: 143
Assign rand_sets[61]: 1311  LLC: 2048
rand_sets[61]: 1311
Assign rand_sets[62]: 319  LLC: 2048
rand_sets[62]: 319
Assign rand_sets[63]: 1846  LLC: 2048
rand_sets[63]: 1846
 CLEAN-RRIP-POLICY-1: 1-1-2-2-1-1-0-1- CLEAN-RRIP-POLICY-2: 1-1-2-2-1-1-0-1-
 DIRTY-RRIP-POLICY-1: 1-1-1-2-2-1-0-1- DIRTY-RRIP-POLICY-2: 1-1-1-2-2-1-0-1-
 PSEL width: 10
Heartbeat CPU 0 instructions: 10000001 cycles: 7315914 heartbeat IPC: 1.36688 cumulative IPC: 1.36688 (Simulation time: 0 hr 0 min 15 sec) 
Heartbeat CPU 0 instructions: 20000000 cycles: 14307405 heartbeat IPC: 1.43031 cumulative IPC: 1.39788 (Simulation time: 0 hr 0 min 30 sec) 
Heartbeat CPU 0 instructions: 30000001 cycles: 21020237 heartbeat IPC: 1.48968 cumulative IPC: 1.4272 (Simulation time: 0 hr 0 min 46 sec) 
Heartbeat CPU 0 instructions: 40000000 cycles: 27480956 heartbeat IPC: 1.54782 cumulative IPC: 1.45555 (Simulation time: 0 hr 1 min 3 sec) 
Heartbeat CPU 0 instructions: 50000001 cycles: 33582661 heartbeat IPC: 1.63889 cumulative IPC: 1.48886 (Simulation time: 0 hr 1 min 19 sec) 
Heartbeat CPU 0 instructions: 60000000 cycles: 40063774 heartbeat IPC: 1.54294 cumulative IPC: 1.49761 (Simulation time: 0 hr 1 min 35 sec) 
Heartbeat CPU 0 instructions: 70000000 cycles: 47102152 heartbeat IPC: 1.42078 cumulative IPC: 1.48613 (Simulation time: 0 hr 1 min 51 sec) 
Heartbeat CPU 0 instructions: 80000000 cycles: 54191698 heartbeat IPC: 1.41053 cumulative IPC: 1.47624 (Simulation time: 0 hr 2 min 6 sec) 
Heartbeat CPU 0 instructions: 90000003 cycles: 61196030 heartbeat IPC: 1.42769 cumulative IPC: 1.47068 (Simulation time: 0 hr 2 min 21 sec) 
Heartbeat CPU 0 instructions: 100000000 cycles: 68363100 heartbeat IPC: 1.39527 cumulative IPC: 1.46278 (Simulation time: 0 hr 2 min 36 sec) 

Warmup complete CPU 0 instructions: 100000004 cycles: 68363101 (Simulation time: 0 hr 2 min 36 sec) 

Heartbeat CPU 0 instructions: 110000003 cycles: 95971064 heartbeat IPC: 0.362214 cumulative IPC: 0.362214 (Simulation time: 0 hr 3 min 5 sec) 
Heartbeat CPU 0 instructions: 120000000 cycles: 123414132 heartbeat IPC: 0.364391 cumulative IPC: 0.363299 (Simulation time: 0 hr 3 min 36 sec) 
Heartbeat CPU 0 instructions: 130000000 cycles: 148384060 heartbeat IPC: 0.400482 cumulative IPC: 0.374902 (Simulation time: 0 hr 4 min 5 sec) 
Heartbeat CPU 0 instructions: 140000000 cycles: 177808978 heartbeat IPC: 0.339848 cumulative IPC: 0.365477 (Simulation time: 0 hr 4 min 35 sec) 
Heartbeat CPU 0 instructions: 150000000 cycles: 207632276 heartbeat IPC: 0.335308 cumulative IPC: 0.359017 (Simulation time: 0 hr 5 min 5 sec) 
Heartbeat CPU 0 instructions: 160000000 cycles: 235034245 heartbeat IPC: 0.364937 cumulative IPC: 0.35999 (Simulation time: 0 hr 5 min 33 sec) 
Heartbeat CPU 0 instructions: 170000001 cycles: 263021944 heartbeat IPC: 0.3573 cumulative IPC: 0.359603 (Simulation time: 0 hr 6 min 5 sec) 
Heartbeat CPU 0 instructions: 180000000 cycles: 291442513 heartbeat IPC: 0.351858 cumulative IPC: 0.358617 (Simulation time: 0 hr 6 min 35 sec) 
Heartbeat CPU 0 instructions: 190000002 cycles: 319428419 heartbeat IPC: 0.357323 cumulative IPC: 0.358472 (Simulation time: 0 hr 7 min 5 sec) 
Heartbeat CPU 0 instructions: 200000000 cycles: 347747129 heartbeat IPC: 0.353123 cumulative IPC: 0.35793 (Simulation time: 0 hr 7 min 35 sec) 
Heartbeat CPU 0 instructions: 210000002 cycles: 375569369 heartbeat IPC: 0.359425 cumulative IPC: 0.358066 (Simulation time: 0 hr 8 min 5 sec) 
Heartbeat CPU 0 instructions: 220000000 cycles: 404655175 heartbeat IPC: 0.34381 cumulative IPC: 0.356833 (Simulation time: 0 hr 8 min 34 sec) 
Heartbeat CPU 0 instructions: 230000000 cycles: 432158416 heartbeat IPC: 0.363594 cumulative IPC: 0.357344 (Simulation time: 0 hr 9 min 3 sec) 
Heartbeat CPU 0 instructions: 240000000 cycles: 458069196 heartbeat IPC: 0.38594 cumulative IPC: 0.359245 (Simulation time: 0 hr 9 min 31 sec) 
Heartbeat CPU 0 instructions: 250000000 cycles: 488181384 heartbeat IPC: 0.332091 cumulative IPC: 0.357297 (Simulation time: 0 hr 10 min 3 sec) 
Heartbeat CPU 0 instructions: 260000000 cycles: 515265352 heartbeat IPC: 0.369222 cumulative IPC: 0.35802 (Simulation time: 0 hr 10 min 32 sec) 
Heartbeat CPU 0 instructions: 270000003 cycles: 543672250 heartbeat IPC: 0.352027 cumulative IPC: 0.357662 (Simulation time: 0 hr 11 min 3 sec) 
Heartbeat CPU 0 instructions: 280000000 cycles: 571840584 heartbeat IPC: 0.355008 cumulative IPC: 0.357513 (Simulation time: 0 hr 11 min 34 sec) 
Heartbeat CPU 0 instructions: 290000000 cycles: 600699875 heartbeat IPC: 0.346509 cumulative IPC: 0.356917 (Simulation time: 0 hr 12 min 5 sec) 
Heartbeat CPU 0 instructions: 300000000 cycles: 630551257 heartbeat IPC: 0.334993 cumulative IPC: 0.355753 (Simulation time: 0 hr 12 min 35 sec) 
Heartbeat CPU 0 instructions: 310000001 cycles: 659901917 heartbeat IPC: 0.340708 cumulative IPC: 0.355006 (Simulation time: 0 hr 13 min 4 sec) 
Heartbeat CPU 0 instructions: 320000000 cycles: 688057014 heartbeat IPC: 0.355175 cumulative IPC: 0.355014 (Simulation time: 0 hr 13 min 33 sec) 
Heartbeat CPU 0 instructions: 330000000 cycles: 716660048 heartbeat IPC: 0.349613 cumulative IPC: 0.354776 (Simulation time: 0 hr 14 min 3 sec) 
Heartbeat CPU 0 instructions: 340000000 cycles: 745898970 heartbeat IPC: 0.34201 cumulative IPC: 0.354225 (Simulation time: 0 hr 14 min 33 sec) 
Heartbeat CPU 0 instructions: 350000003 cycles: 772914766 heartbeat IPC: 0.370154 cumulative IPC: 0.354836 (Simulation time: 0 hr 15 min 2 sec) 
Heartbeat CPU 0 instructions: 360000000 cycles: 801004525 heartbeat IPC: 0.356002 cumulative IPC: 0.35488 (Simulation time: 0 hr 15 min 31 sec) 
Heartbeat CPU 0 instructions: 370000000 cycles: 829175207 heartbeat IPC: 0.354979 cumulative IPC: 0.354884 (Simulation time: 0 hr 15 min 59 sec) 
Heartbeat CPU 0 instructions: 380000000 cycles: 857669070 heartbeat IPC: 0.350953 cumulative IPC: 0.354742 (Simulation time: 0 hr 16 min 27 sec) 
Heartbeat CPU 0 instructions: 390000001 cycles: 885259633 heartbeat IPC: 0.362443 cumulative IPC: 0.355002 (Simulation time: 0 hr 16 min 56 sec) 
Heartbeat CPU 0 instructions: 400000000 cycles: 913875645 heartbeat IPC: 0.349455 cumulative IPC: 0.354814 (Simulation time: 0 hr 17 min 24 sec) 
Heartbeat CPU 0 instructions: 410000001 cycles: 941150141 heartbeat IPC: 0.366643 cumulative IPC: 0.355184 (Simulation time: 0 hr 17 min 53 sec) 
Heartbeat CPU 0 instructions: 420000000 cycles: 968436140 heartbeat IPC: 0.366488 cumulative IPC: 0.355527 (Simulation time: 0 hr 18 min 21 sec) 
Heartbeat CPU 0 instructions: 430000002 cycles: 996097451 heartbeat IPC: 0.361516 cumulative IPC: 0.355705 (Simulation time: 0 hr 18 min 49 sec) 
Heartbeat CPU 0 instructions: 440000000 cycles: 1025592799 heartbeat IPC: 0.339036 cumulative IPC: 0.355192 (Simulation time: 0 hr 19 min 18 sec) 
Heartbeat CPU 0 instructions: 450000002 cycles: 1054803607 heartbeat IPC: 0.342339 cumulative IPC: 0.354811 (Simulation time: 0 hr 19 min 47 sec) 
Heartbeat CPU 0 instructions: 460000000 cycles: 1082472921 heartbeat IPC: 0.361411 cumulative IPC: 0.354991 (Simulation time: 0 hr 20 min 15 sec) 
Heartbeat CPU 0 instructions: 470000000 cycles: 1110085925 heartbeat IPC: 0.362148 cumulative IPC: 0.355181 (Simulation time: 0 hr 20 min 44 sec) 
Heartbeat CPU 0 instructions: 480000000 cycles: 1137941378 heartbeat IPC: 0.358996 cumulative IPC: 0.35528 (Simulation time: 0 hr 21 min 12 sec) 
Heartbeat CPU 0 instructions: 490000000 cycles: 1165507255 heartbeat IPC: 0.362767 cumulative IPC: 0.355468 (Simulation time: 0 hr 21 min 40 sec) 
Heartbeat CPU 0 instructions: 500000000 cycles: 1193783169 heartbeat IPC: 0.353658 cumulative IPC: 0.355423 (Simulation time: 0 hr 22 min 9 sec) 
Heartbeat CPU 0 instructions: 510000000 cycles: 1229208101 heartbeat IPC: 0.282287 cumulative IPC: 0.353191 (Simulation time: 0 hr 22 min 42 sec) 
Heartbeat CPU 0 instructions: 520000000 cycles: 1257113452 heartbeat IPC: 0.358354 cumulative IPC: 0.353312 (Simulation time: 0 hr 23 min 11 sec) 
Heartbeat CPU 0 instructions: 530000001 cycles: 1286406368 heartbeat IPC: 0.341379 cumulative IPC: 0.353025 (Simulation time: 0 hr 23 min 41 sec) 
Heartbeat CPU 0 instructions: 540000000 cycles: 1314415184 heartbeat IPC: 0.35703 cumulative IPC: 0.353115 (Simulation time: 0 hr 24 min 10 sec) 
Heartbeat CPU 0 instructions: 550000001 cycles: 1343594727 heartbeat IPC: 0.342706 cumulative IPC: 0.352877 (Simulation time: 0 hr 24 min 41 sec) 
Heartbeat CPU 0 instructions: 560000000 cycles: 1368954771 heartbeat IPC: 0.394321 cumulative IPC: 0.353685 (Simulation time: 0 hr 25 min 10 sec) 
Heartbeat CPU 0 instructions: 570000000 cycles: 1398388124 heartbeat IPC: 0.339751 cumulative IPC: 0.353377 (Simulation time: 0 hr 25 min 40 sec) 
Heartbeat CPU 0 instructions: 580000000 cycles: 1426289282 heartbeat IPC: 0.358408 cumulative IPC: 0.35348 (Simulation time: 0 hr 26 min 10 sec) 
Heartbeat CPU 0 instructions: 590000001 cycles: 1451022580 heartbeat IPC: 0.404313 cumulative IPC: 0.354389 (Simulation time: 0 hr 26 min 38 sec) 
Heartbeat CPU 0 instructions: 600000000 cycles: 1477083939 heartbeat IPC: 0.38371 cumulative IPC: 0.354932 (Simulation time: 0 hr 27 min 7 sec) 
Finished CPU 0 instructions: 500000000 cycles: 1408720860 cumulative IPC: 0.354932 (Simulation time: 0 hr 27 min 7 sec) 

CPU 0 Branch Prediction Accuracy: 86.4311% MPKI: 26.2662
Number of Branches: 96788573 Number of Mispredictions: 13133102
Number of LOAD Instructions: 164682285
Number of LOAD Instructions (ROI): 164682285
Number of STORE Instructions: 78194750
Number of STORE Instructions (ROI): 78194750
Total Destination Memory Operands: 83268534
Total Destination Memory Operands (ROI): 83268534
Total Source Memory Operands: 164712438
Total Source Memory Operands (ROI): 164712438
Number of DEPENDED LOADS: 7060535
Number of DEPENDED LOADS (ROI): 7060535
Number of SQ_ADDED: 83268522
Number of SQ_ADDED (ROI): 83268522
Number of LQ_ADDED: 236579576
Number of LQ_ADDED (ROI): 236579576
Number of Instructions read from trace: 600000066

ChampSim completed all CPUs

Region of Interest Statistics

CPU 0 cumulative IPC: 0.354932 instructions: 500000000 cycles: 1408720860
ITLB TOTAL     ACCESS:  100512020  HIT:  100307574  MISS:     204446
ITLB LOAD      ACCESS:  100512020  HIT:  100307574  MISS:     204446
ITLB RFO       ACCESS:          0  HIT:          0  MISS:          0
ITLB PREFETCH  ACCESS:          0  HIT:          0  MISS:          0
ITLB WRITEBACK ACCESS:          0  HIT:          0  MISS:          0
ITLB PREFETCH  REQUESTED:          0  ISSUED:          0  USEFUL:          0  USELESS:          0
ITLB TOTAL MSHR MERGED:     172423
ITLB LOAD MSHR MERGED:     172423
ITLB RFO MSHR MERGED:          0
ITLB PREFETCH MSHR MERGED:          0
ITLB WRITEBACK MSHR MERGED:          0
ITLB TOTAL ACCESSES:  100684443 HITS:  100307574 MISSES:     376869
ITLB LOAD ACCESSES:  100684443 HITS:  100307574 MISSES:     376869
ITLB RFO ACCESSES:          0 HITS:          0 MISSES:          0
ITLB PREFETCH ACCESSES:          0 HITS:          0 MISSES:          0
ITLB WRITEBACK ACCESSES:          0 HITS:          0 MISSES:          0
ITLB RQ ACCESS:  500000057
ITLB RQ TO_CACHE:  100684443
ITLB RQ MERGED:  399315614
ITLB RQ FORWARD:          0
ITLB WQ ACCESS:          0
ITLB WQ TO_CACHE:          0
ITLB WQ MERGED:          0
ITLB WQ FORWARD:          0
DTLB TOTAL     ACCESS:  165335600  HIT:  164701254  MISS:     634346
DTLB LOAD      ACCESS:  106291515  HIT:  105721516  MISS:     569999
DTLB RFO       ACCESS:   59044085  HIT:   58979738  MISS:      64347
DTLB PREFETCH  ACCESS:          0  HIT:          0  MISS:          0
DTLB WRITEBACK ACCESS:          0  HIT:          0  MISS:          0
DTLB PREFETCH  REQUESTED:          0  ISSUED:          0  USEFUL:          0  USELESS:          0
DTLB TOTAL MSHR MERGED:      99991
DTLB LOAD MSHR MERGED:      59452
DTLB RFO MSHR MERGED:      40539
DTLB PREFETCH MSHR MERGED:          0
DTLB WRITEBACK MSHR MERGED:          0
DTLB TOTAL ACCESSES:  165435591 HITS:  164701254 MISSES:     734337
DTLB LOAD ACCESSES:  106350967 HITS:  105721516 MISSES:     629451
DTLB RFO ACCESSES:   59084624 HITS:   58979738 MISSES:     104886
DTLB PREFETCH ACCESSES:          0 HITS:          0 MISSES:          0
DTLB WRITEBACK ACCESSES:          0 HITS:          0 MISSES:          0
DTLB RQ ACCESS:  200310371
DTLB RQ TO_CACHE:  165435591
DTLB RQ MERGED:   34874780
DTLB RQ FORWARD:          0
DTLB WQ ACCESS:          0
DTLB WQ TO_CACHE:          0
DTLB WQ MERGED:          0
DTLB WQ FORWARD:          0
L1D TOTAL     ACCESS:  281837914  HIT:  273928582  MISS:    7909332
L1D LOAD      ACCESS:  110422519  HIT:  107145850  MISS:    3276669
L1D RFO       ACCESS:   67113949  HIT:   66223219  MISS:     890730
L1D PREFETCH  ACCESS:  104301446  HIT:  100559513  MISS:    3741933
L1D WRITEBACK ACCESS:          0  HIT:          0  MISS:          0
L1D PREFETCH  REQUESTED:  110815285  ISSUED:  109116034  USEFUL:    1662640  USELESS:    2079257
L1D TOTAL MSHR MERGED:    2862521
L1D LOAD MSHR MERGED:     488914
L1D RFO MSHR MERGED:    1872029
L1D PREFETCH MSHR MERGED:     501578
L1D WRITEBACK MSHR MERGED:          0
L1D TOTAL ACCESSES:  284727912 HITS:  273956059 MISSES:   10771853
L1D LOAD ACCESSES:  110816769 HITS:  107147334 MISSES:    3669435
L1D RFO ACCESSES:   68974053 HITS:   66223219 MISSES:    2750834
L1D PREFETCH ACCESSES:  104937090 HITS:  100585506 MISSES:    4351584
L1D WRITEBACK ACCESSES:          0 HITS:          0 MISSES:          0
L1D RQ ACCESS:  130757768
L1D RQ TO_CACHE:  110815288
L1D RQ MERGED:   19940996
L1D RQ FORWARD:          0
L1D WQ ACCESS:   69552603
L1D WQ TO_CACHE:   68974054
L1D WQ MERGED:     578549
L1D WQ FORWARD:      27477
L1I TOTAL     ACCESS:  126559758  HIT:  122321204  MISS:    4238554
L1I LOAD      ACCESS:  126559758  HIT:  122321204  MISS:    4238554
L1I RFO       ACCESS:          0  HIT:          0  MISS:          0
L1I PREFETCH  ACCESS:          0  HIT:          0  MISS:          0
L1I WRITEBACK ACCESS:          0  HIT:          0  MISS:          0
L1I PREFETCH  REQUESTED:          0  ISSUED:          0  USEFUL:          0  USELESS:          0
L1I TOTAL MSHR MERGED:    1834506
L1I LOAD MSHR MERGED:    1834506
L1I RFO MSHR MERGED:          0
L1I PREFETCH MSHR MERGED:          0
L1I WRITEBACK MSHR MERGED:          0
L1I TOTAL ACCESSES:  128394267 HITS:  122321204 MISSES:    6073063
L1I LOAD ACCESSES:  128394267 HITS:  122321204 MISSES:    6073063
L1I RFO ACCESSES:          0 HITS:          0 MISSES:          0
L1I PREFETCH ACCESSES:          0 HITS:          0 MISSES:          0
L1I WRITEBACK ACCESSES:          0 HITS:          0 MISSES:          0
L1I RQ ACCESS:  500000057
L1I RQ TO_CACHE:  128394267
L1I RQ MERGED:  371605790
L1I RQ FORWARD:          0
L1I WQ ACCESS:          0
L1I WQ TO_CACHE:          0
L1I WQ MERGED:          0
L1I WQ FORWARD:          0
L2C TOTAL     ACCESS:   14905234  HIT:   11158736  MISS:    3746498
L2C LOAD      ACCESS:    7418867  HIT:    5098855  MISS:    2320012
L2C RFO       ACCESS:     878708  HIT:     409906  MISS:     468802
L2C PREFETCH  ACCESS:    4568423  HIT:    3627995  MISS:     940428
L2C WRITEBACK ACCESS:    2039236  HIT:    2021980  MISS:      17256
L2C PREFETCH  REQUESTED:     842696  ISSUED:     842696  USEFUL:     203391  USELESS:     736743
L2C TOTAL MSHR MERGED:       7027
L2C LOAD MSHR MERGED:        789
L2C RFO MSHR MERGED:          0
L2C PREFETCH MSHR MERGED:       6238
L2C WRITEBACK MSHR MERGED:          0
L2C TOTAL ACCESSES:   14913127 HITS:   11159184 MISSES:    3753943
L2C LOAD ACCESSES:    7419075 HITS:    5099063 MISSES:    2320012
L2C RFO ACCESSES:     878805 HITS:     410003 MISSES:     468802
L2C PREFETCH ACCESSES:    4576011 HITS:    3628138 MISSES:     947873
L2C WRITEBACK ACCESSES:    2039236 HITS:    2021980 MISSES:      17256
L2C RQ ACCESS:    8297883
L2C RQ TO_CACHE:    8297578
L2C RQ MERGED:          0
L2C RQ FORWARD:          0
L2C WQ ACCESS:    2039236
L2C WQ TO_CACHE:    2039236
L2C WQ MERGED:          0
L2C WQ FORWARD:        448
LLC TOTAL     ACCESS:    4609824  HIT:    3990731  MISS:     619093
LLC LOAD      ACCESS:    2319210  HIT:    2083876  MISS:     235334
LLC RFO       ACCESS:     468792  HIT:     397182  MISS:      71610
LLC PREFETCH  ACCESS:     941524  HIT:     665003  MISS:     276521
LLC WRITEBACK ACCESS:     880298  HIT:     844670  MISS:      35628
LLC PREFETCH  REQUESTED:          0  ISSUED:          0  USEFUL:      23178  USELESS:     254184
LLC TOTAL MSHR MERGED:         93
LLC LOAD MSHR MERGED:         32
LLC RFO MSHR MERGED:          0
LLC PREFETCH MSHR MERGED:         61
LLC WRITEBACK MSHR MERGED:          0
LLC TOTAL ACCESSES:    4609952 HITS:    3990766 MISSES:     619186
LLC LOAD ACCESSES:    2319223 HITS:    2083889 MISSES:     235334
LLC RFO ACCESSES:     468802 HITS:     397192 MISSES:      71610
LLC PREFETCH ACCESSES:     941629 HITS:     665015 MISSES:     276614
LLC WRITEBACK ACCESSES:     880298 HITS:     844670 MISSES:      35628
LLC 0 RQ ACCESS:    2788025
LLC 0 RQ TO_CACHE:    2788002
LLC 0 RQ MERGED:          0
LLC 0 RQ FORWARD:          0
LLC WQ ACCESS:     880298
LLC WQ TO_CACHE:     880298
LLC WQ MERGED:          0
LLC WQ FORWARD:         35
Major fault: 0 Minor fault: 12862
CPU 0 L1D next line prefetcher final stats
CPU 0 L2C PC-based stride prefetcher final stats
All Misses: 727589
All Hits: 4699241
SD Algo Stats - Switches: 0 SRR-Repls: 275427 BRR-Repls: 0

DRAM Statistics
 CHANNEL 0
 RQ ROW_BUFFER_HIT:     111174  ROW_BUFFER_MISS:     471184
 DBUS_CONGESTED:     377639
 WQ ROW_BUFFER_HIT:      17500  ROW_BUFFER_MISS:     196985  FULL:          0

 AVG_CONGESTED_CYCLE: 13
LOADS RETIRED: 136549171
INSTR RETIRED: 500000000
