
*** ChampSim Multicore Out-of-Order Simulator ***

Warmup Instructions: 100000000
Simulation Instructions: 500000000
Number of CPUs: 1
LLC sets: 2048
LLC ways: 16
Clean RRIP Policies: 323030203230302 Dirty RRIP Policies: 2303132223031322 PSEL Width: 10 Track Set: 4294967295 PSEL Mask: 1 Demote Mask: 2313131023131310DS Algo: 0Window size: 0
Off-chip DRAM Size: 4096 MB Channels: 1 Width: 64-bit Data Rate: 1600 MT/s

CPU 0 runs /mnt/beegfs/iconst01/spec2017/Gcc.trace.gz
NOT SORTED
TRACE STRING: /mnt/beegfs/iconst01/spec2017/Gcc.trace.gz
SORTED
TRACE STRING: /mnt/beegfs/iconst01/spec2017/Gcc.trace.gz
INITIAL
TRACE STRING: /mnt/beegfs/iconst01/spec2017/Gcc.trace.gz

champsim_seed used: 269

CPU 0 L1D next line prefetcher
CPU 0 L2C IP-based stride prefetcher
Initialize DRRIP state
Assign rand_sets[0]: 454  LLC: 2048
rand_sets[0]: 454
Assign rand_sets[1]: 1662  LLC: 2048
rand_sets[1]: 1662
Assign rand_sets[2]: 1921  LLC: 2048
rand_sets[2]: 1921
Assign rand_sets[3]: 1131  LLC: 2048
rand_sets[3]: 1131
Assign rand_sets[4]: 331  LLC: 2048
rand_sets[4]: 331
Assign rand_sets[5]: 1531  LLC: 2048
rand_sets[5]: 1531
Assign rand_sets[6]: 482  LLC: 2048
rand_sets[6]: 482
Assign rand_sets[7]: 1275  LLC: 2048
rand_sets[7]: 1275
Assign rand_sets[8]: 1876  LLC: 2048
rand_sets[8]: 1876
Assign rand_sets[9]: 2038  LLC: 2048
rand_sets[9]: 2038
Assign rand_sets[10]: 701  LLC: 2048
rand_sets[10]: 701
Assign rand_sets[11]: 479  LLC: 2048
rand_sets[11]: 479
Assign rand_sets[12]: 892  LLC: 2048
rand_sets[12]: 892
Assign rand_sets[13]: 1820  LLC: 2048
rand_sets[13]: 1820
Assign rand_sets[14]: 1505  LLC: 2048
rand_sets[14]: 1505
Assign rand_sets[15]: 1159  LLC: 2048
rand_sets[15]: 1159
Assign rand_sets[16]: 513  LLC: 2048
rand_sets[16]: 513
Assign rand_sets[17]: 703  LLC: 2048
rand_sets[17]: 703
Assign rand_sets[18]: 561  LLC: 2048
rand_sets[18]: 561
Assign rand_sets[19]: 990  LLC: 2048
rand_sets[19]: 990
Assign rand_sets[20]: 342  LLC: 2048
rand_sets[20]: 342
Assign rand_sets[21]: 882  LLC: 2048
rand_sets[21]: 882
Assign rand_sets[22]: 15  LLC: 2048
rand_sets[22]: 15
Assign rand_sets[23]: 71  LLC: 2048
rand_sets[23]: 71
Assign rand_sets[24]: 1127  LLC: 2048
rand_sets[24]: 1127
Assign rand_sets[25]: 1382  LLC: 2048
rand_sets[25]: 1382
Assign rand_sets[26]: 647  LLC: 2048
rand_sets[26]: 647
Assign rand_sets[27]: 857  LLC: 2048
rand_sets[27]: 857
Assign rand_sets[28]: 1450  LLC: 2048
rand_sets[28]: 1450
Assign rand_sets[29]: 1160  LLC: 2048
rand_sets[29]: 1160
Assign rand_sets[30]: 1852  LLC: 2048
rand_sets[30]: 1852
Assign rand_sets[31]: 1881  LLC: 2048
rand_sets[31]: 1881
Assign rand_sets[32]: 1770  LLC: 2048
rand_sets[32]: 1770
Assign rand_sets[33]: 1622  LLC: 2048
rand_sets[33]: 1622
Assign rand_sets[34]: 275  LLC: 2048
rand_sets[34]: 275
Assign rand_sets[35]: 635  LLC: 2048
rand_sets[35]: 635
Assign rand_sets[36]: 466  LLC: 2048
rand_sets[36]: 466
Assign rand_sets[37]: 1413  LLC: 2048
rand_sets[37]: 1413
Assign rand_sets[38]: 417  LLC: 2048
rand_sets[38]: 417
Assign rand_sets[39]: 472  LLC: 2048
rand_sets[39]: 472
Assign rand_sets[40]: 1340  LLC: 2048
rand_sets[40]: 1340
Assign rand_sets[41]: 852  LLC: 2048
rand_sets[41]: 852
Assign rand_sets[42]: 1365  LLC: 2048
rand_sets[42]: 1365
Assign rand_sets[43]: 47  LLC: 2048
rand_sets[43]: 47
Assign rand_sets[44]: 823  LLC: 2048
rand_sets[44]: 823
Assign rand_sets[45]: 686  LLC: 2048
rand_sets[45]: 686
Assign rand_sets[46]: 1637  LLC: 2048
rand_sets[46]: 1637
Assign rand_sets[47]: 1115  LLC: 2048
rand_sets[47]: 1115
Assign rand_sets[48]: 986  LLC: 2048
rand_sets[48]: 986
Assign rand_sets[49]: 258  LLC: 2048
rand_sets[49]: 258
Assign rand_sets[50]: 633  LLC: 2048
rand_sets[50]: 633
Assign rand_sets[51]: 920  LLC: 2048
rand_sets[51]: 920
Assign rand_sets[52]: 204  LLC: 2048
rand_sets[52]: 204
Assign rand_sets[53]: 227  LLC: 2048
rand_sets[53]: 227
Assign rand_sets[54]: 1818  LLC: 2048
rand_sets[54]: 1818
Assign rand_sets[55]: 886  LLC: 2048
rand_sets[55]: 886
Assign rand_sets[56]: 1422  LLC: 2048
rand_sets[56]: 1422
Assign rand_sets[57]: 607  LLC: 2048
rand_sets[57]: 607
Assign rand_sets[58]: 217  LLC: 2048
rand_sets[58]: 217
Assign rand_sets[59]: 1945  LLC: 2048
rand_sets[59]: 1945
Assign rand_sets[60]: 143  LLC: 2048
rand_sets[60]: 143
Assign rand_sets[61]: 1311  LLC: 2048
rand_sets[61]: 1311
Assign rand_sets[62]: 319  LLC: 2048
rand_sets[62]: 319
Assign rand_sets[63]: 1846  LLC: 2048
rand_sets[63]: 1846
 CLEAN-RRIP-POLICY-1: 0-3-2-3-0-3-0-2- CLEAN-RRIP-POLICY-2: 0-3-2-3-0-3-0-2-
 DIRTY-RRIP-POLICY-1: 2-3-0-3-1-3-2-2- DIRTY-RRIP-POLICY-2: 2-3-0-3-1-3-2-2-
 PSEL width: 10
Heartbeat CPU 0 instructions: 10000001 cycles: 7316029 heartbeat IPC: 1.36686 cumulative IPC: 1.36686 (Simulation time: 0 hr 0 min 15 sec) 
Heartbeat CPU 0 instructions: 20000000 cycles: 14307733 heartbeat IPC: 1.43027 cumulative IPC: 1.39785 (Simulation time: 0 hr 0 min 30 sec) 
Heartbeat CPU 0 instructions: 30000001 cycles: 21021020 heartbeat IPC: 1.48958 cumulative IPC: 1.42714 (Simulation time: 0 hr 0 min 46 sec) 
Heartbeat CPU 0 instructions: 40000000 cycles: 27481989 heartbeat IPC: 1.54776 cumulative IPC: 1.4555 (Simulation time: 0 hr 1 min 2 sec) 
Heartbeat CPU 0 instructions: 50000001 cycles: 33583882 heartbeat IPC: 1.63884 cumulative IPC: 1.48881 (Simulation time: 0 hr 1 min 18 sec) 
Heartbeat CPU 0 instructions: 60000000 cycles: 40065298 heartbeat IPC: 1.54287 cumulative IPC: 1.49756 (Simulation time: 0 hr 1 min 34 sec) 
Heartbeat CPU 0 instructions: 70000000 cycles: 47105471 heartbeat IPC: 1.42042 cumulative IPC: 1.48603 (Simulation time: 0 hr 1 min 49 sec) 
Heartbeat CPU 0 instructions: 80000000 cycles: 54197358 heartbeat IPC: 1.41006 cumulative IPC: 1.47609 (Simulation time: 0 hr 2 min 4 sec) 
Heartbeat CPU 0 instructions: 90000003 cycles: 61204436 heartbeat IPC: 1.42713 cumulative IPC: 1.47048 (Simulation time: 0 hr 2 min 19 sec) 
Heartbeat CPU 0 instructions: 100000000 cycles: 68374689 heartbeat IPC: 1.39465 cumulative IPC: 1.46253 (Simulation time: 0 hr 2 min 34 sec) 

Warmup complete CPU 0 instructions: 100000004 cycles: 68374690 (Simulation time: 0 hr 2 min 34 sec) 

Heartbeat CPU 0 instructions: 110000003 cycles: 96524844 heartbeat IPC: 0.355238 cumulative IPC: 0.355238 (Simulation time: 0 hr 3 min 3 sec) 
Heartbeat CPU 0 instructions: 120000000 cycles: 124172098 heartbeat IPC: 0.361699 cumulative IPC: 0.35844 (Simulation time: 0 hr 3 min 33 sec) 
Heartbeat CPU 0 instructions: 130000000 cycles: 149313644 heartbeat IPC: 0.397748 cumulative IPC: 0.37065 (Simulation time: 0 hr 4 min 2 sec) 
Heartbeat CPU 0 instructions: 140000000 cycles: 179859138 heartbeat IPC: 0.327381 cumulative IPC: 0.358794 (Simulation time: 0 hr 4 min 31 sec) 
Heartbeat CPU 0 instructions: 150000000 cycles: 210425557 heartbeat IPC: 0.327156 cumulative IPC: 0.351987 (Simulation time: 0 hr 5 min 1 sec) 
Heartbeat CPU 0 instructions: 160000000 cycles: 238063714 heartbeat IPC: 0.361819 cumulative IPC: 0.353588 (Simulation time: 0 hr 5 min 29 sec) 
Heartbeat CPU 0 instructions: 170000001 cycles: 266416045 heartbeat IPC: 0.352705 cumulative IPC: 0.353462 (Simulation time: 0 hr 6 min 0 sec) 
Heartbeat CPU 0 instructions: 180000000 cycles: 295249597 heartbeat IPC: 0.346818 cumulative IPC: 0.352617 (Simulation time: 0 hr 6 min 30 sec) 
Heartbeat CPU 0 instructions: 190000002 cycles: 323749027 heartbeat IPC: 0.350884 cumulative IPC: 0.352424 (Simulation time: 0 hr 7 min 0 sec) 
Heartbeat CPU 0 instructions: 200000000 cycles: 352548347 heartbeat IPC: 0.34723 cumulative IPC: 0.351897 (Simulation time: 0 hr 7 min 30 sec) 
Heartbeat CPU 0 instructions: 210000002 cycles: 380877827 heartbeat IPC: 0.352989 cumulative IPC: 0.351996 (Simulation time: 0 hr 7 min 59 sec) 
Heartbeat CPU 0 instructions: 220000000 cycles: 411282611 heartbeat IPC: 0.328896 cumulative IPC: 0.349948 (Simulation time: 0 hr 8 min 28 sec) 
Heartbeat CPU 0 instructions: 230000000 cycles: 439430494 heartbeat IPC: 0.355267 cumulative IPC: 0.350352 (Simulation time: 0 hr 8 min 57 sec) 
Heartbeat CPU 0 instructions: 240000000 cycles: 465734188 heartbeat IPC: 0.380175 cumulative IPC: 0.352326 (Simulation time: 0 hr 9 min 25 sec) 
Heartbeat CPU 0 instructions: 250000000 cycles: 496241640 heartbeat IPC: 0.327789 cumulative IPC: 0.350576 (Simulation time: 0 hr 9 min 56 sec) 
Heartbeat CPU 0 instructions: 260000000 cycles: 523539374 heartbeat IPC: 0.366331 cumulative IPC: 0.351521 (Simulation time: 0 hr 10 min 25 sec) 
Heartbeat CPU 0 instructions: 270000003 cycles: 552371080 heartbeat IPC: 0.346841 cumulative IPC: 0.351242 (Simulation time: 0 hr 10 min 56 sec) 
Heartbeat CPU 0 instructions: 280000000 cycles: 581072701 heartbeat IPC: 0.348412 cumulative IPC: 0.351084 (Simulation time: 0 hr 11 min 26 sec) 
Heartbeat CPU 0 instructions: 290000000 cycles: 610396204 heartbeat IPC: 0.341023 cumulative IPC: 0.35054 (Simulation time: 0 hr 11 min 57 sec) 
Heartbeat CPU 0 instructions: 300000000 cycles: 641709662 heartbeat IPC: 0.319351 cumulative IPC: 0.348836 (Simulation time: 0 hr 12 min 26 sec) 
Heartbeat CPU 0 instructions: 310000001 cycles: 672051756 heartbeat IPC: 0.329575 cumulative IPC: 0.347868 (Simulation time: 0 hr 12 min 56 sec) 
Heartbeat CPU 0 instructions: 320000000 cycles: 701370569 heartbeat IPC: 0.341078 cumulative IPC: 0.347554 (Simulation time: 0 hr 13 min 25 sec) 
Heartbeat CPU 0 instructions: 330000000 cycles: 730836943 heartbeat IPC: 0.33937 cumulative IPC: 0.34719 (Simulation time: 0 hr 13 min 55 sec) 
Heartbeat CPU 0 instructions: 340000000 cycles: 761055597 heartbeat IPC: 0.330921 cumulative IPC: 0.34648 (Simulation time: 0 hr 14 min 24 sec) 
Heartbeat CPU 0 instructions: 350000003 cycles: 788631228 heartbeat IPC: 0.362639 cumulative IPC: 0.347099 (Simulation time: 0 hr 14 min 53 sec) 
Heartbeat CPU 0 instructions: 360000000 cycles: 819310231 heartbeat IPC: 0.325956 cumulative IPC: 0.346235 (Simulation time: 0 hr 15 min 22 sec) 
Heartbeat CPU 0 instructions: 370000000 cycles: 849981995 heartbeat IPC: 0.326033 cumulative IPC: 0.345442 (Simulation time: 0 hr 15 min 52 sec) 
Heartbeat CPU 0 instructions: 380000000 cycles: 880997449 heartbeat IPC: 0.32242 cumulative IPC: 0.344563 (Simulation time: 0 hr 16 min 21 sec) 
Heartbeat CPU 0 instructions: 390000001 cycles: 910957279 heartbeat IPC: 0.33378 cumulative IPC: 0.34418 (Simulation time: 0 hr 16 min 50 sec) 
Heartbeat CPU 0 instructions: 400000000 cycles: 942018192 heartbeat IPC: 0.321948 cumulative IPC: 0.343389 (Simulation time: 0 hr 17 min 19 sec) 
Heartbeat CPU 0 instructions: 410000001 cycles: 971596759 heartbeat IPC: 0.338083 cumulative IPC: 0.343216 (Simulation time: 0 hr 17 min 47 sec) 
Heartbeat CPU 0 instructions: 420000000 cycles: 1001138638 heartbeat IPC: 0.338502 cumulative IPC: 0.343066 (Simulation time: 0 hr 18 min 16 sec) 
Heartbeat CPU 0 instructions: 430000002 cycles: 1031211557 heartbeat IPC: 0.332525 cumulative IPC: 0.342737 (Simulation time: 0 hr 18 min 45 sec) 
Heartbeat CPU 0 instructions: 440000000 cycles: 1062897422 heartbeat IPC: 0.315598 cumulative IPC: 0.341873 (Simulation time: 0 hr 19 min 14 sec) 
Heartbeat CPU 0 instructions: 450000002 cycles: 1094389565 heartbeat IPC: 0.31754 cumulative IPC: 0.341126 (Simulation time: 0 hr 19 min 42 sec) 
Heartbeat CPU 0 instructions: 460000000 cycles: 1124363458 heartbeat IPC: 0.333624 cumulative IPC: 0.340913 (Simulation time: 0 hr 20 min 11 sec) 
Heartbeat CPU 0 instructions: 470000000 cycles: 1153938192 heartbeat IPC: 0.338126 cumulative IPC: 0.340837 (Simulation time: 0 hr 20 min 39 sec) 
Heartbeat CPU 0 instructions: 480000000 cycles: 1183731579 heartbeat IPC: 0.335645 cumulative IPC: 0.340698 (Simulation time: 0 hr 21 min 7 sec) 
Heartbeat CPU 0 instructions: 490000000 cycles: 1213231925 heartbeat IPC: 0.338979 cumulative IPC: 0.340654 (Simulation time: 0 hr 21 min 36 sec) 
Heartbeat CPU 0 instructions: 500000000 cycles: 1243308849 heartbeat IPC: 0.332481 cumulative IPC: 0.340445 (Simulation time: 0 hr 22 min 4 sec) 
Heartbeat CPU 0 instructions: 510000000 cycles: 1278727927 heartbeat IPC: 0.282334 cumulative IPC: 0.338744 (Simulation time: 0 hr 22 min 36 sec) 
Heartbeat CPU 0 instructions: 520000000 cycles: 1307268054 heartbeat IPC: 0.350384 cumulative IPC: 0.339012 (Simulation time: 0 hr 23 min 4 sec) 
Heartbeat CPU 0 instructions: 530000001 cycles: 1338446567 heartbeat IPC: 0.320734 cumulative IPC: 0.338564 (Simulation time: 0 hr 23 min 34 sec) 
Heartbeat CPU 0 instructions: 540000000 cycles: 1367800717 heartbeat IPC: 0.340667 cumulative IPC: 0.338611 (Simulation time: 0 hr 24 min 3 sec) 
Heartbeat CPU 0 instructions: 550000001 cycles: 1397606376 heartbeat IPC: 0.335507 cumulative IPC: 0.338541 (Simulation time: 0 hr 24 min 33 sec) 
Heartbeat CPU 0 instructions: 560000000 cycles: 1423481328 heartbeat IPC: 0.386474 cumulative IPC: 0.339457 (Simulation time: 0 hr 25 min 1 sec) 
Heartbeat CPU 0 instructions: 570000000 cycles: 1454412572 heartbeat IPC: 0.323298 cumulative IPC: 0.339096 (Simulation time: 0 hr 25 min 31 sec) 
Heartbeat CPU 0 instructions: 580000000 cycles: 1483459080 heartbeat IPC: 0.344275 cumulative IPC: 0.339202 (Simulation time: 0 hr 26 min 0 sec) 
Heartbeat CPU 0 instructions: 590000001 cycles: 1508785911 heartbeat IPC: 0.394838 cumulative IPC: 0.340181 (Simulation time: 0 hr 26 min 28 sec) 
Heartbeat CPU 0 instructions: 600000000 cycles: 1535999249 heartbeat IPC: 0.367467 cumulative IPC: 0.340687 (Simulation time: 0 hr 26 min 56 sec) 
Finished CPU 0 instructions: 500000000 cycles: 1467624581 cumulative IPC: 0.340687 (Simulation time: 0 hr 26 min 56 sec) 

CPU 0 Branch Prediction Accuracy: 86.4311% MPKI: 26.2662
Number of Branches: 96788573 Number of Mispredictions: 13133102
Number of LOAD Instructions: 164682285
Number of LOAD Instructions (ROI): 164682285
Number of STORE Instructions: 78194750
Number of STORE Instructions (ROI): 78194750
Total Destination Memory Operands: 83268534
Total Destination Memory Operands (ROI): 83268534
Total Source Memory Operands: 164712438
Total Source Memory Operands (ROI): 164712438
Number of DEPENDED LOADS: 7050321
Number of DEPENDED LOADS (ROI): 7050321
Number of SQ_ADDED: 83268522
Number of SQ_ADDED (ROI): 83268522
Number of LQ_ADDED: 236844122
Number of LQ_ADDED (ROI): 236844122
Number of Instructions read from trace: 600000066

ChampSim completed all CPUs

Region of Interest Statistics

CPU 0 cumulative IPC: 0.340687 instructions: 500000000 cycles: 1467624581
ITLB TOTAL     ACCESS:  100541467  HIT:  100337021  MISS:     204446
ITLB LOAD      ACCESS:  100541467  HIT:  100337021  MISS:     204446
ITLB RFO       ACCESS:          0  HIT:          0  MISS:          0
ITLB PREFETCH  ACCESS:          0  HIT:          0  MISS:          0
ITLB WRITEBACK ACCESS:          0  HIT:          0  MISS:          0
ITLB PREFETCH  REQUESTED:          0  ISSUED:          0  USEFUL:          0  USELESS:          0
ITLB TOTAL MSHR MERGED:     172421
ITLB LOAD MSHR MERGED:     172421
ITLB RFO MSHR MERGED:          0
ITLB PREFETCH MSHR MERGED:          0
ITLB WRITEBACK MSHR MERGED:          0
ITLB TOTAL ACCESSES:  100713888 HITS:  100337021 MISSES:     376867
ITLB LOAD ACCESSES:  100713888 HITS:  100337021 MISSES:     376867
ITLB RFO ACCESSES:          0 HITS:          0 MISSES:          0
ITLB PREFETCH ACCESSES:          0 HITS:          0 MISSES:          0
ITLB WRITEBACK ACCESSES:          0 HITS:          0 MISSES:          0
ITLB RQ ACCESS:  500000057
ITLB RQ TO_CACHE:  100713888
ITLB RQ MERGED:  399286169
ITLB RQ FORWARD:          0
ITLB WQ ACCESS:          0
ITLB WQ TO_CACHE:          0
ITLB WQ MERGED:          0
ITLB WQ FORWARD:          0
DTLB TOTAL     ACCESS:  165359947  HIT:  164725593  MISS:     634354
DTLB LOAD      ACCESS:  106308631  HIT:  105738588  MISS:     570043
DTLB RFO       ACCESS:   59051316  HIT:   58987005  MISS:      64311
DTLB PREFETCH  ACCESS:          0  HIT:          0  MISS:          0
DTLB WRITEBACK ACCESS:          0  HIT:          0  MISS:          0
DTLB PREFETCH  REQUESTED:          0  ISSUED:          0  USEFUL:          0  USELESS:          0
DTLB TOTAL MSHR MERGED:      99502
DTLB LOAD MSHR MERGED:      59174
DTLB RFO MSHR MERGED:      40328
DTLB PREFETCH MSHR MERGED:          0
DTLB WRITEBACK MSHR MERGED:          0
DTLB TOTAL ACCESSES:  165459449 HITS:  164725593 MISSES:     733856
DTLB LOAD ACCESSES:  106367805 HITS:  105738588 MISSES:     629217
DTLB RFO ACCESSES:   59091644 HITS:   58987005 MISSES:     104639
DTLB PREFETCH ACCESSES:          0 HITS:          0 MISSES:          0
DTLB WRITEBACK ACCESSES:          0 HITS:          0 MISSES:          0
DTLB RQ ACCESS:  200320604
DTLB RQ TO_CACHE:  165459449
DTLB RQ MERGED:   34861155
DTLB RQ FORWARD:          0
DTLB WQ ACCESS:          0
DTLB WQ TO_CACHE:          0
DTLB WQ MERGED:          0
DTLB WQ FORWARD:          0
L1D TOTAL     ACCESS:  281859800  HIT:  273950349  MISS:    7909451
L1D LOAD      ACCESS:  110435802  HIT:  107153075  MISS:    3282727
L1D RFO       ACCESS:   67135692  HIT:   66245874  MISS:     889818
L1D PREFETCH  ACCESS:  104288306  HIT:  100551400  MISS:    3736906
L1D WRITEBACK ACCESS:          0  HIT:          0  MISS:          0
L1D PREFETCH  REQUESTED:  110837926  ISSUED:  109138607  USEFUL:    1657462  USELESS:    2079408
L1D TOTAL MSHR MERGED:    2891524
L1D LOAD MSHR MERGED:     504659
L1D RFO MSHR MERGED:    1849346
L1D PREFETCH MSHR MERGED:     537519
L1D WRITEBACK MSHR MERGED:          0
L1D TOTAL ACCESSES:  284778715 HITS:  273977740 MISSES:   10800975
L1D LOAD ACCESSES:  110839360 HITS:  107154509 MISSES:    3684851
L1D RFO ACCESSES:   68973922 HITS:   66245874 MISSES:    2728048
L1D PREFETCH ACCESSES:  104965433 HITS:  100577357 MISSES:    4388076
L1D WRITEBACK ACCESSES:          0 HITS:          0 MISSES:          0
L1D RQ ACCESS:  130768001
L1D RQ TO_CACHE:  110837929
L1D RQ MERGED:   19928638
L1D RQ FORWARD:          0
L1D WQ ACCESS:   69552603
L1D WQ TO_CACHE:   68973923
L1D WQ MERGED:     578680
L1D WQ FORWARD:      27391
L1I TOTAL     ACCESS:  126586217  HIT:  122347670  MISS:    4238547
L1I LOAD      ACCESS:  126586217  HIT:  122347670  MISS:    4238547
L1I RFO       ACCESS:          0  HIT:          0  MISS:          0
L1I PREFETCH  ACCESS:          0  HIT:          0  MISS:          0
L1I WRITEBACK ACCESS:          0  HIT:          0  MISS:          0
L1I PREFETCH  REQUESTED:          0  ISSUED:          0  USEFUL:          0  USELESS:          0
L1I TOTAL MSHR MERGED:    1837082
L1I LOAD MSHR MERGED:    1837082
L1I RFO MSHR MERGED:          0
L1I PREFETCH MSHR MERGED:          0
L1I WRITEBACK MSHR MERGED:          0
L1I TOTAL ACCESSES:  128423302 HITS:  122347670 MISSES:    6075632
L1I LOAD ACCESSES:  128423302 HITS:  122347670 MISSES:    6075632
L1I RFO ACCESSES:          0 HITS:          0 MISSES:          0
L1I PREFETCH ACCESSES:          0 HITS:          0 MISSES:          0
L1I WRITEBACK ACCESSES:          0 HITS:          0 MISSES:          0
L1I RQ ACCESS:  500000057
L1I RQ TO_CACHE:  128423302
L1I RQ MERGED:  371576755
L1I RQ FORWARD:          0
L1I WQ ACCESS:          0
L1I WQ TO_CACHE:          0
L1I WQ MERGED:          0
L1I WQ FORWARD:          0
L2C TOTAL     ACCESS:   14905734  HIT:   11159254  MISS:    3746480
L2C LOAD      ACCESS:    7418529  HIT:    5098835  MISS:    2319694
L2C RFO       ACCESS:     878608  HIT:     409927  MISS:     468681
L2C PREFETCH  ACCESS:    4569345  HIT:    3628502  MISS:     940843
L2C WRITEBACK ACCESS:    2039252  HIT:    2021990  MISS:      17262
L2C PREFETCH  REQUESTED:     842791  ISSUED:     842791  USEFUL:     203558  USELESS:     736991
L2C TOTAL MSHR MERGED:       6649
L2C LOAD MSHR MERGED:        656
L2C RFO MSHR MERGED:          0
L2C PREFETCH MSHR MERGED:       5993
L2C WRITEBACK MSHR MERGED:          0
L2C TOTAL ACCESSES:   14913297 HITS:   11159698 MISSES:    3753599
L2C LOAD ACCESSES:    7418739 HITS:    5099045 MISSES:    2319694
L2C RFO ACCESSES:     878702 HITS:     410021 MISSES:     468681
L2C PREFETCH ACCESSES:    4576604 HITS:    3628642 MISSES:     947962
L2C WRITEBACK ACCESSES:    2039252 HITS:    2021990 MISSES:      17262
L2C RQ ACCESS:    8297444
L2C RQ TO_CACHE:    8297140
L2C RQ MERGED:          0
L2C RQ FORWARD:          0
L2C WQ ACCESS:    2039252
L2C WQ TO_CACHE:    2039252
L2C WQ MERGED:          0
L2C WQ FORWARD:        444
LLC TOTAL     ACCESS:    4609838  HIT:    3239107  MISS:    1370731
LLC LOAD      ACCESS:    2319023  HIT:    1504399  MISS:     814624
LLC RFO       ACCESS:     468673  HIT:     423002  MISS:      45671
LLC PREFETCH  ACCESS:     941849  HIT:     514556  MISS:     427293
LLC WRITEBACK ACCESS:     880293  HIT:     797150  MISS:      83143
LLC PREFETCH  REQUESTED:          0  ISSUED:          0  USEFUL:      10919  USELESS:     415284
LLC TOTAL MSHR MERGED:        103
LLC LOAD MSHR MERGED:         35
LLC RFO MSHR MERGED:          0
LLC PREFETCH MSHR MERGED:         68
LLC WRITEBACK MSHR MERGED:          0
LLC TOTAL ACCESSES:    4609974 HITS:    3239140 MISSES:    1370834
LLC LOAD ACCESSES:    2319038 HITS:    1504414 MISSES:     814624
LLC RFO ACCESSES:     468681 HITS:     423010 MISSES:      45671
LLC PREFETCH ACCESSES:     941962 HITS:     514566 MISSES:     427396
LLC WRITEBACK ACCESSES:     880293 HITS:     797150 MISSES:      83143
LLC 0 RQ ACCESS:    2787719
LLC 0 RQ TO_CACHE:    2787696
LLC 0 RQ MERGED:          0
LLC 0 RQ FORWARD:          0
LLC WQ ACCESS:     880293
LLC WQ TO_CACHE:     880293
LLC WQ MERGED:          0
LLC WQ FORWARD:         33
Major fault: 0 Minor fault: 12862
CPU 0 L1D next line prefetcher final stats
CPU 0 L2C PC-based stride prefetcher final stats
All Misses: 1535948
All Hits: 3890896
SD Algo Stats - Switches: 0 SRR-Repls: 860003 BRR-Repls: 0

DRAM Statistics
 CHANNEL 0
 RQ ROW_BUFFER_HIT:     359415  ROW_BUFFER_MISS:     924225
 DBUS_CONGESTED:     437477
 WQ ROW_BUFFER_HIT:       7964  ROW_BUFFER_MISS:     137450  FULL:          0

 AVG_CONGESTED_CYCLE: 13
LOADS RETIRED: 136549171
INSTR RETIRED: 500000000
