
*** ChampSim Multicore Out-of-Order Simulator ***

Warmup Instructions: 100000000
Simulation Instructions: 500000000
Number of CPUs: 1
LLC sets: 2048
LLC ways: 16
Clean RRIP Policies: 220000102200001 Dirty RRIP Policies: 2200202122002021 PSEL Width: 10 Track Set: 4294967295 PSEL Mask: 1 Demote Mask: 3234420432344204DS Algo: 0Window size: 0
Off-chip DRAM Size: 4096 MB Channels: 1 Width: 64-bit Data Rate: 1600 MT/s

CPU 0 runs /mnt/beegfs/iconst01/spec2017/Lbm.trace.gz
NOT SORTED
TRACE STRING: /mnt/beegfs/iconst01/spec2017/Lbm.trace.gz
SORTED
TRACE STRING: /mnt/beegfs/iconst01/spec2017/Lbm.trace.gz
INITIAL
TRACE STRING: /mnt/beegfs/iconst01/spec2017/Lbm.trace.gz

champsim_seed used: 283

CPU 0 L1D next line prefetcher
CPU 0 L2C IP-based stride prefetcher
Initialize DRRIP state
Assign rand_sets[0]: 454  LLC: 2048
rand_sets[0]: 454
Assign rand_sets[1]: 1662  LLC: 2048
rand_sets[1]: 1662
Assign rand_sets[2]: 1921  LLC: 2048
rand_sets[2]: 1921
Assign rand_sets[3]: 1131  LLC: 2048
rand_sets[3]: 1131
Assign rand_sets[4]: 331  LLC: 2048
rand_sets[4]: 331
Assign rand_sets[5]: 1531  LLC: 2048
rand_sets[5]: 1531
Assign rand_sets[6]: 482  LLC: 2048
rand_sets[6]: 482
Assign rand_sets[7]: 1275  LLC: 2048
rand_sets[7]: 1275
Assign rand_sets[8]: 1876  LLC: 2048
rand_sets[8]: 1876
Assign rand_sets[9]: 2038  LLC: 2048
rand_sets[9]: 2038
Assign rand_sets[10]: 701  LLC: 2048
rand_sets[10]: 701
Assign rand_sets[11]: 479  LLC: 2048
rand_sets[11]: 479
Assign rand_sets[12]: 892  LLC: 2048
rand_sets[12]: 892
Assign rand_sets[13]: 1820  LLC: 2048
rand_sets[13]: 1820
Assign rand_sets[14]: 1505  LLC: 2048
rand_sets[14]: 1505
Assign rand_sets[15]: 1159  LLC: 2048
rand_sets[15]: 1159
Assign rand_sets[16]: 513  LLC: 2048
rand_sets[16]: 513
Assign rand_sets[17]: 703  LLC: 2048
rand_sets[17]: 703
Assign rand_sets[18]: 561  LLC: 2048
rand_sets[18]: 561
Assign rand_sets[19]: 990  LLC: 2048
rand_sets[19]: 990
Assign rand_sets[20]: 342  LLC: 2048
rand_sets[20]: 342
Assign rand_sets[21]: 882  LLC: 2048
rand_sets[21]: 882
Assign rand_sets[22]: 15  LLC: 2048
rand_sets[22]: 15
Assign rand_sets[23]: 71  LLC: 2048
rand_sets[23]: 71
Assign rand_sets[24]: 1127  LLC: 2048
rand_sets[24]: 1127
Assign rand_sets[25]: 1382  LLC: 2048
rand_sets[25]: 1382
Assign rand_sets[26]: 647  LLC: 2048
rand_sets[26]: 647
Assign rand_sets[27]: 857  LLC: 2048
rand_sets[27]: 857
Assign rand_sets[28]: 1450  LLC: 2048
rand_sets[28]: 1450
Assign rand_sets[29]: 1160  LLC: 2048
rand_sets[29]: 1160
Assign rand_sets[30]: 1852  LLC: 2048
rand_sets[30]: 1852
Assign rand_sets[31]: 1881  LLC: 2048
rand_sets[31]: 1881
Assign rand_sets[32]: 1770  LLC: 2048
rand_sets[32]: 1770
Assign rand_sets[33]: 1622  LLC: 2048
rand_sets[33]: 1622
Assign rand_sets[34]: 275  LLC: 2048
rand_sets[34]: 275
Assign rand_sets[35]: 635  LLC: 2048
rand_sets[35]: 635
Assign rand_sets[36]: 466  LLC: 2048
rand_sets[36]: 466
Assign rand_sets[37]: 1413  LLC: 2048
rand_sets[37]: 1413
Assign rand_sets[38]: 417  LLC: 2048
rand_sets[38]: 417
Assign rand_sets[39]: 472  LLC: 2048
rand_sets[39]: 472
Assign rand_sets[40]: 1340  LLC: 2048
rand_sets[40]: 1340
Assign rand_sets[41]: 852  LLC: 2048
rand_sets[41]: 852
Assign rand_sets[42]: 1365  LLC: 2048
rand_sets[42]: 1365
Assign rand_sets[43]: 47  LLC: 2048
rand_sets[43]: 47
Assign rand_sets[44]: 823  LLC: 2048
rand_sets[44]: 823
Assign rand_sets[45]: 686  LLC: 2048
rand_sets[45]: 686
Assign rand_sets[46]: 1637  LLC: 2048
rand_sets[46]: 1637
Assign rand_sets[47]: 1115  LLC: 2048
rand_sets[47]: 1115
Assign rand_sets[48]: 986  LLC: 2048
rand_sets[48]: 986
Assign rand_sets[49]: 258  LLC: 2048
rand_sets[49]: 258
Assign rand_sets[50]: 633  LLC: 2048
rand_sets[50]: 633
Assign rand_sets[51]: 920  LLC: 2048
rand_sets[51]: 920
Assign rand_sets[52]: 204  LLC: 2048
rand_sets[52]: 204
Assign rand_sets[53]: 227  LLC: 2048
rand_sets[53]: 227
Assign rand_sets[54]: 1818  LLC: 2048
rand_sets[54]: 1818
Assign rand_sets[55]: 886  LLC: 2048
rand_sets[55]: 886
Assign rand_sets[56]: 1422  LLC: 2048
rand_sets[56]: 1422
Assign rand_sets[57]: 607  LLC: 2048
rand_sets[57]: 607
Assign rand_sets[58]: 217  LLC: 2048
rand_sets[58]: 217
Assign rand_sets[59]: 1945  LLC: 2048
rand_sets[59]: 1945
Assign rand_sets[60]: 143  LLC: 2048
rand_sets[60]: 143
Assign rand_sets[61]: 1311  LLC: 2048
rand_sets[61]: 1311
Assign rand_sets[62]: 319  LLC: 2048
rand_sets[62]: 319
Assign rand_sets[63]: 1846  LLC: 2048
rand_sets[63]: 1846
 CLEAN-RRIP-POLICY-1: 0-2-2-0-0-0-0-1- CLEAN-RRIP-POLICY-2: 0-2-2-0-0-0-0-1-
 DIRTY-RRIP-POLICY-1: 2-2-0-0-2-0-2-1- DIRTY-RRIP-POLICY-2: 2-2-0-0-2-0-2-1-
 PSEL width: 10
Heartbeat CPU 0 instructions: 10000000 cycles: 4321577 heartbeat IPC: 2.31397 cumulative IPC: 2.31397 (Simulation time: 0 hr 0 min 18 sec) 
Heartbeat CPU 0 instructions: 20000000 cycles: 8643694 heartbeat IPC: 2.31368 cumulative IPC: 2.31383 (Simulation time: 0 hr 0 min 35 sec) 
Heartbeat CPU 0 instructions: 30000000 cycles: 12965544 heartbeat IPC: 2.31382 cumulative IPC: 2.31383 (Simulation time: 0 hr 0 min 52 sec) 
Heartbeat CPU 0 instructions: 40000000 cycles: 17291441 heartbeat IPC: 2.31166 cumulative IPC: 2.31328 (Simulation time: 0 hr 1 min 10 sec) 
Heartbeat CPU 0 instructions: 50000000 cycles: 21613450 heartbeat IPC: 2.31374 cumulative IPC: 2.31337 (Simulation time: 0 hr 1 min 27 sec) 
Heartbeat CPU 0 instructions: 60000000 cycles: 25935396 heartbeat IPC: 2.31377 cumulative IPC: 2.31344 (Simulation time: 0 hr 1 min 45 sec) 
Heartbeat CPU 0 instructions: 70000000 cycles: 30256984 heartbeat IPC: 2.31396 cumulative IPC: 2.31352 (Simulation time: 0 hr 2 min 2 sec) 
Heartbeat CPU 0 instructions: 80000000 cycles: 34583234 heartbeat IPC: 2.31147 cumulative IPC: 2.31326 (Simulation time: 0 hr 2 min 20 sec) 
Heartbeat CPU 0 instructions: 90000003 cycles: 38905355 heartbeat IPC: 2.31368 cumulative IPC: 2.31331 (Simulation time: 0 hr 2 min 37 sec) 
Heartbeat CPU 0 instructions: 100000000 cycles: 43226916 heartbeat IPC: 2.31398 cumulative IPC: 2.31337 (Simulation time: 0 hr 2 min 55 sec) 

Warmup complete CPU 0 instructions: 100000001 cycles: 43226917 (Simulation time: 0 hr 2 min 55 sec) 

Heartbeat CPU 0 instructions: 110000000 cycles: 57866360 heartbeat IPC: 0.683086 cumulative IPC: 0.683086 (Simulation time: 0 hr 3 min 20 sec) 
Heartbeat CPU 0 instructions: 120000000 cycles: 72726422 heartbeat IPC: 0.672945 cumulative IPC: 0.677977 (Simulation time: 0 hr 3 min 45 sec) 
Heartbeat CPU 0 instructions: 130000000 cycles: 87502997 heartbeat IPC: 0.676747 cumulative IPC: 0.677567 (Simulation time: 0 hr 4 min 10 sec) 
Heartbeat CPU 0 instructions: 140000000 cycles: 102201625 heartbeat IPC: 0.680336 cumulative IPC: 0.678257 (Simulation time: 0 hr 4 min 36 sec) 
Heartbeat CPU 0 instructions: 150000003 cycles: 116742493 heartbeat IPC: 0.687717 cumulative IPC: 0.680128 (Simulation time: 0 hr 5 min 1 sec) 
Heartbeat CPU 0 instructions: 160000000 cycles: 131280774 heartbeat IPC: 0.687839 cumulative IPC: 0.681401 (Simulation time: 0 hr 5 min 26 sec) 
Heartbeat CPU 0 instructions: 170000002 cycles: 146110294 heartbeat IPC: 0.674331 cumulative IPC: 0.680382 (Simulation time: 0 hr 5 min 51 sec) 
Heartbeat CPU 0 instructions: 180000000 cycles: 160698955 heartbeat IPC: 0.685464 cumulative IPC: 0.681013 (Simulation time: 0 hr 6 min 16 sec) 
Heartbeat CPU 0 instructions: 190000003 cycles: 178570535 heartbeat IPC: 0.559548 cumulative IPC: 0.664974 (Simulation time: 0 hr 6 min 44 sec) 
Heartbeat CPU 0 instructions: 200000000 cycles: 199843766 heartbeat IPC: 0.470074 cumulative IPC: 0.638501 (Simulation time: 0 hr 7 min 16 sec) 
Heartbeat CPU 0 instructions: 210000001 cycles: 214503590 heartbeat IPC: 0.682136 cumulative IPC: 0.642236 (Simulation time: 0 hr 7 min 41 sec) 
Heartbeat CPU 0 instructions: 220000000 cycles: 228962833 heartbeat IPC: 0.691599 cumulative IPC: 0.646079 (Simulation time: 0 hr 8 min 6 sec) 
Heartbeat CPU 0 instructions: 230000001 cycles: 243803921 heartbeat IPC: 0.673805 cumulative IPC: 0.64813 (Simulation time: 0 hr 8 min 31 sec) 
Heartbeat CPU 0 instructions: 240000000 cycles: 258731007 heartbeat IPC: 0.669923 cumulative IPC: 0.64964 (Simulation time: 0 hr 8 min 57 sec) 
Heartbeat CPU 0 instructions: 250000000 cycles: 273846331 heartbeat IPC: 0.66158 cumulative IPC: 0.650422 (Simulation time: 0 hr 9 min 22 sec) 
Heartbeat CPU 0 instructions: 260000000 cycles: 288971552 heartbeat IPC: 0.661147 cumulative IPC: 0.651082 (Simulation time: 0 hr 9 min 48 sec) 
Heartbeat CPU 0 instructions: 270000002 cycles: 304743365 heartbeat IPC: 0.634043 cumulative IPC: 0.650055 (Simulation time: 0 hr 10 min 14 sec) 
Heartbeat CPU 0 instructions: 280000000 cycles: 320438591 heartbeat IPC: 0.637136 cumulative IPC: 0.649323 (Simulation time: 0 hr 10 min 40 sec) 
Heartbeat CPU 0 instructions: 290000003 cycles: 336853292 heartbeat IPC: 0.60921 cumulative IPC: 0.647081 (Simulation time: 0 hr 11 min 7 sec) 
Heartbeat CPU 0 instructions: 300000000 cycles: 352825868 heartbeat IPC: 0.626073 cumulative IPC: 0.645997 (Simulation time: 0 hr 11 min 33 sec) 
Heartbeat CPU 0 instructions: 310000000 cycles: 369354588 heartbeat IPC: 0.605008 cumulative IPC: 0.64392 (Simulation time: 0 hr 11 min 59 sec) 
Heartbeat CPU 0 instructions: 320000000 cycles: 385811699 heartbeat IPC: 0.60764 cumulative IPC: 0.642177 (Simulation time: 0 hr 12 min 26 sec) 
Heartbeat CPU 0 instructions: 330000002 cycles: 401412336 heartbeat IPC: 0.641 cumulative IPC: 0.642126 (Simulation time: 0 hr 12 min 51 sec) 
Heartbeat CPU 0 instructions: 340000000 cycles: 418028449 heartbeat IPC: 0.601825 cumulative IPC: 0.640339 (Simulation time: 0 hr 13 min 17 sec) 
Heartbeat CPU 0 instructions: 350000001 cycles: 433504955 heartbeat IPC: 0.646141 cumulative IPC: 0.640569 (Simulation time: 0 hr 13 min 43 sec) 
Heartbeat CPU 0 instructions: 360000000 cycles: 449677563 heartbeat IPC: 0.618329 cumulative IPC: 0.639684 (Simulation time: 0 hr 14 min 9 sec) 
Heartbeat CPU 0 instructions: 370000000 cycles: 465147635 heartbeat IPC: 0.646409 cumulative IPC: 0.639931 (Simulation time: 0 hr 14 min 34 sec) 
Heartbeat CPU 0 instructions: 380000000 cycles: 480790554 heartbeat IPC: 0.639267 cumulative IPC: 0.639907 (Simulation time: 0 hr 15 min 0 sec) 
Heartbeat CPU 0 instructions: 390000000 cycles: 495868667 heartbeat IPC: 0.663213 cumulative IPC: 0.640683 (Simulation time: 0 hr 15 min 25 sec) 
Heartbeat CPU 0 instructions: 400000000 cycles: 510936308 heartbeat IPC: 0.663674 cumulative IPC: 0.641424 (Simulation time: 0 hr 15 min 50 sec) 
Heartbeat CPU 0 instructions: 410000000 cycles: 525627036 heartbeat IPC: 0.680701 cumulative IPC: 0.64262 (Simulation time: 0 hr 16 min 14 sec) 
Heartbeat CPU 0 instructions: 420000000 cycles: 540355626 heartbeat IPC: 0.678952 cumulative IPC: 0.643696 (Simulation time: 0 hr 16 min 39 sec) 
Heartbeat CPU 0 instructions: 430000002 cycles: 554910078 heartbeat IPC: 0.687075 cumulative IPC: 0.64493 (Simulation time: 0 hr 17 min 4 sec) 
Heartbeat CPU 0 instructions: 440000000 cycles: 569321851 heartbeat IPC: 0.693877 cumulative IPC: 0.646271 (Simulation time: 0 hr 17 min 28 sec) 
Heartbeat CPU 0 instructions: 450000000 cycles: 583977199 heartbeat IPC: 0.682345 cumulative IPC: 0.647249 (Simulation time: 0 hr 17 min 53 sec) 
Heartbeat CPU 0 instructions: 460000000 cycles: 599092309 heartbeat IPC: 0.66159 cumulative IPC: 0.647639 (Simulation time: 0 hr 18 min 18 sec) 
Heartbeat CPU 0 instructions: 470000000 cycles: 613913604 heartbeat IPC: 0.674705 cumulative IPC: 0.648342 (Simulation time: 0 hr 18 min 42 sec) 
Heartbeat CPU 0 instructions: 480000000 cycles: 628496906 heartbeat IPC: 0.685716 cumulative IPC: 0.649273 (Simulation time: 0 hr 19 min 7 sec) 
Heartbeat CPU 0 instructions: 490000001 cycles: 643419639 heartbeat IPC: 0.670119 cumulative IPC: 0.649791 (Simulation time: 0 hr 19 min 32 sec) 
Heartbeat CPU 0 instructions: 500000000 cycles: 658063327 heartbeat IPC: 0.682888 cumulative IPC: 0.65058 (Simulation time: 0 hr 19 min 56 sec) 
Heartbeat CPU 0 instructions: 510000002 cycles: 672666401 heartbeat IPC: 0.684787 cumulative IPC: 0.651373 (Simulation time: 0 hr 20 min 21 sec) 
Heartbeat CPU 0 instructions: 520000000 cycles: 687304681 heartbeat IPC: 0.68314 cumulative IPC: 0.652095 (Simulation time: 0 hr 20 min 46 sec) 
Heartbeat CPU 0 instructions: 530000001 cycles: 701921085 heartbeat IPC: 0.684163 cumulative IPC: 0.652807 (Simulation time: 0 hr 21 min 10 sec) 
Heartbeat CPU 0 instructions: 540000000 cycles: 716618761 heartbeat IPC: 0.68038 cumulative IPC: 0.653409 (Simulation time: 0 hr 21 min 35 sec) 
Heartbeat CPU 0 instructions: 550000003 cycles: 730750214 heartbeat IPC: 0.707642 cumulative IPC: 0.654523 (Simulation time: 0 hr 21 min 59 sec) 
Heartbeat CPU 0 instructions: 560000000 cycles: 745486188 heartbeat IPC: 0.678611 cumulative IPC: 0.655029 (Simulation time: 0 hr 22 min 24 sec) 
Heartbeat CPU 0 instructions: 570000001 cycles: 760127857 heartbeat IPC: 0.682982 cumulative IPC: 0.6556 (Simulation time: 0 hr 22 min 49 sec) 
Heartbeat CPU 0 instructions: 580000000 cycles: 774662626 heartbeat IPC: 0.688005 cumulative IPC: 0.656244 (Simulation time: 0 hr 23 min 13 sec) 
Heartbeat CPU 0 instructions: 590000003 cycles: 788556805 heartbeat IPC: 0.719726 cumulative IPC: 0.657427 (Simulation time: 0 hr 23 min 37 sec) 
Heartbeat CPU 0 instructions: 600000000 cycles: 803439417 heartbeat IPC: 0.671925 cumulative IPC: 0.657711 (Simulation time: 0 hr 24 min 2 sec) 
Finished CPU 0 instructions: 500000000 cycles: 760212508 cumulative IPC: 0.657711 (Simulation time: 0 hr 24 min 2 sec) 

CPU 0 Branch Prediction Accuracy: 99.5915% MPKI: 0.037126
Number of Branches: 4544106 Number of Mispredictions: 18563
Number of LOAD Instructions: 149787067
Number of LOAD Instructions (ROI): 149787067
Number of STORE Instructions: 77239062
Number of STORE Instructions (ROI): 77239062
Total Destination Memory Operands: 77239062
Total Destination Memory Operands (ROI): 77239062
Total Source Memory Operands: 149787067
Total Source Memory Operands (ROI): 149787067
Number of DEPENDED LOADS: 19252211
Number of DEPENDED LOADS (ROI): 19252211
Number of SQ_ADDED: 77239036
Number of SQ_ADDED (ROI): 77239036
Number of LQ_ADDED: 149787020
Number of LQ_ADDED (ROI): 149787020
Number of Instructions read from trace: 600000256

ChampSim completed all CPUs

Region of Interest Statistics

CPU 0 cumulative IPC: 0.657711 instructions: 500000000 cycles: 760212508
ITLB TOTAL     ACCESS:   86466672  HIT:   86466671  MISS:          1
ITLB LOAD      ACCESS:   86466672  HIT:   86466671  MISS:          1
ITLB RFO       ACCESS:          0  HIT:          0  MISS:          0
ITLB PREFETCH  ACCESS:          0  HIT:          0  MISS:          0
ITLB WRITEBACK ACCESS:          0  HIT:          0  MISS:          0
ITLB PREFETCH  REQUESTED:          0  ISSUED:          0  USEFUL:          0  USELESS:          0
ITLB TOTAL MSHR MERGED:          1
ITLB LOAD MSHR MERGED:          1
ITLB RFO MSHR MERGED:          0
ITLB PREFETCH MSHR MERGED:          0
ITLB WRITEBACK MSHR MERGED:          0
ITLB TOTAL ACCESSES:   86466673 HITS:   86466671 MISSES:          2
ITLB LOAD ACCESSES:   86466673 HITS:   86466671 MISSES:          2
ITLB RFO ACCESSES:          0 HITS:          0 MISSES:          0
ITLB PREFETCH ACCESSES:          0 HITS:          0 MISSES:          0
ITLB WRITEBACK ACCESSES:          0 HITS:          0 MISSES:          0
ITLB RQ ACCESS:  500000002
ITLB RQ TO_CACHE:   86466673
ITLB RQ MERGED:  413533329
ITLB RQ FORWARD:          0
ITLB WQ ACCESS:          0
ITLB WQ TO_CACHE:          0
ITLB WQ MERGED:          0
ITLB WQ FORWARD:          0
DTLB TOTAL     ACCESS:   98099709  HIT:   97914448  MISS:     185261
DTLB LOAD      ACCESS:   55039280  HIT:   54992969  MISS:      46311
DTLB RFO       ACCESS:   43060429  HIT:   42921479  MISS:     138950
DTLB PREFETCH  ACCESS:          0  HIT:          0  MISS:          0
DTLB WRITEBACK ACCESS:          0  HIT:          0  MISS:          0
DTLB PREFETCH  REQUESTED:          0  ISSUED:          0  USEFUL:          0  USELESS:          0
DTLB TOTAL MSHR MERGED:      83543
DTLB LOAD MSHR MERGED:      83538
DTLB RFO MSHR MERGED:          5
DTLB PREFETCH MSHR MERGED:          0
DTLB WRITEBACK MSHR MERGED:          0
DTLB TOTAL ACCESSES:   98183252 HITS:   97914448 MISSES:     268804
DTLB LOAD ACCESSES:   55122818 HITS:   54992969 MISSES:     129849
DTLB RFO ACCESSES:   43060434 HITS:   42921479 MISSES:     138955
DTLB PREFETCH ACCESSES:          0 HITS:          0 MISSES:          0
DTLB WRITEBACK ACCESSES:          0 HITS:          0 MISSES:          0
DTLB RQ ACCESS:  173630316
DTLB RQ TO_CACHE:   98183252
DTLB RQ MERGED:   75447064
DTLB RQ FORWARD:          0
DTLB WQ ACCESS:          0
DTLB WQ TO_CACHE:          0
DTLB WQ MERGED:          0
DTLB WQ FORWARD:          0
L1D TOTAL     ACCESS:  164425385  HIT:  144852834  MISS:   19572551
L1D LOAD      ACCESS:   60426080  HIT:   58576185  MISS:    1849895
L1D RFO       ACCESS:   64511373  HIT:   47909235  MISS:   16602138
L1D PREFETCH  ACCESS:   39487932  HIT:   38367414  MISS:    1120518
L1D WRITEBACK ACCESS:          0  HIT:          0  MISS:          0
L1D PREFETCH  REQUESTED:   61544347  ISSUED:   61253586  USEFUL:    1118601  USELESS:       1918
L1D TOTAL MSHR MERGED:    3436822
L1D LOAD MSHR MERGED:    1185688
L1D RFO MSHR MERGED:      11054
L1D PREFETCH MSHR MERGED:    2240080
L1D WRITEBACK MSHR MERGED:          0
L1D TOTAL ACCESSES:  168486325 HITS:  145476952 MISSES:   23009373
L1D LOAD ACCESSES:   61862478 HITS:   58894316 MISSES:    2968162
L1D RFO ACCESSES:   64522387 HITS:   47909235 MISSES:   16613152
L1D PREFETCH ACCESSES:   42101460 HITS:   38673401 MISSES:    3428059
L1D WRITEBACK ACCESSES:          0 HITS:          0 MISSES:          0
L1D RQ ACCESS:  109089001
L1D RQ TO_CACHE:   61544347
L1D RQ MERGED:   47226523
L1D RQ FORWARD:          0
L1D WQ ACCESS:   64541313
L1D WQ TO_CACHE:   64522388
L1D WQ MERGED:      18925
L1D WQ FORWARD:     624118
L1I TOTAL     ACCESS:  107776934  HIT:  107776926  MISS:          8
L1I LOAD      ACCESS:  107776934  HIT:  107776926  MISS:          8
L1I RFO       ACCESS:          0  HIT:          0  MISS:          0
L1I PREFETCH  ACCESS:          0  HIT:          0  MISS:          0
L1I WRITEBACK ACCESS:          0  HIT:          0  MISS:          0
L1I PREFETCH  REQUESTED:          0  ISSUED:          0  USEFUL:          0  USELESS:          0
L1I TOTAL MSHR MERGED:          3
L1I LOAD MSHR MERGED:          3
L1I RFO MSHR MERGED:          0
L1I PREFETCH MSHR MERGED:          0
L1I WRITEBACK MSHR MERGED:          0
L1I TOTAL ACCESSES:  107776937 HITS:  107776926 MISSES:         11
L1I LOAD ACCESSES:  107776937 HITS:  107776926 MISSES:         11
L1I RFO ACCESSES:          0 HITS:          0 MISSES:          0
L1I PREFETCH ACCESSES:          0 HITS:          0 MISSES:          0
L1I WRITEBACK ACCESSES:          0 HITS:          0 MISSES:          0
L1I RQ ACCESS:  500000007
L1I RQ TO_CACHE:  107776937
L1I RQ MERGED:  392223070
L1I RQ FORWARD:          0
L1I WQ ACCESS:          0
L1I WQ TO_CACHE:          0
L1I WQ MERGED:          0
L1I WQ FORWARD:          0
L2C TOTAL     ACCESS:   36783319  HIT:   24825732  MISS:   11957587
L2C LOAD      ACCESS:    1782482  HIT:     246608  MISS:    1535874
L2C RFO       ACCESS:   16602097  HIT:    7610723  MISS:    8991374
L2C PREFETCH  ACCESS:    1796556  HIT:     367445  MISS:    1429111
L2C WRITEBACK ACCESS:   16602184  HIT:   16600956  MISS:       1228
L2C PREFETCH  REQUESTED:     816786  ISSUED:     816786  USEFUL:     244272  USELESS:    1185120
L2C TOTAL MSHR MERGED:       2534
L2C LOAD MSHR MERGED:        596
L2C RFO MSHR MERGED:          0
L2C PREFETCH MSHR MERGED:       1938
L2C WRITEBACK MSHR MERGED:          0
L2C TOTAL ACCESSES:   36991465 HITS:   24825734 MISSES:   12165731
L2C LOAD ACCESSES:    1782482 HITS:     246608 MISSES:    1535874
L2C RFO ACCESSES:   16602098 HITS:    7610725 MISSES:    8991373
L2C PREFETCH ACCESSES:    2004701 HITS:     367445 MISSES:    1637256
L2C WRITEBACK ACCESSES:   16602184 HITS:   16600956 MISSES:       1228
L2C RQ ACCESS:   18384580
L2C RQ TO_CACHE:   18384578
L2C RQ MERGED:          0
L2C RQ FORWARD:          0
L2C WQ ACCESS:   16602185
L2C WQ TO_CACHE:   16602185
L2C WQ MERGED:          0
L2C WQ FORWARD:          2
LLC TOTAL     ACCESS:   21150672  HIT:    8981746  MISS:   12168926
LLC LOAD      ACCESS:    1535278  HIT:      81189  MISS:    1454089
LLC RFO       ACCESS:    8991360  HIT:     193327  MISS:    8798033
LLC PREFETCH  ACCESS:    1631835  HIT:     134927  MISS:    1496908
LLC WRITEBACK ACCESS:    8992199  HIT:    8572303  MISS:     419896
LLC PREFETCH  REQUESTED:          0  ISSUED:          0  USEFUL:      74244  USELESS:    1423341
LLC TOTAL MSHR MERGED:       3060
LLC LOAD MSHR MERGED:        245
LLC RFO MSHR MERGED:          0
LLC PREFETCH MSHR MERGED:       2815
LLC WRITEBACK MSHR MERGED:          0
LLC TOTAL ACCESSES:   21153746 HITS:    8981761 MISSES:   12171985
LLC LOAD ACCESSES:    1535278 HITS:      81189 MISSES:    1454089
LLC RFO ACCESSES:    8991373 HITS:     193341 MISSES:    8798032
LLC PREFETCH ACCESSES:    1634896 HITS:     134928 MISSES:    1499968
LLC WRITEBACK ACCESSES:    8992199 HITS:    8572303 MISSES:     419896
LLC 0 RQ ACCESS:   10526651
LLC 0 RQ TO_CACHE:   10526637
LLC 0 RQ MERGED:          0
LLC 0 RQ FORWARD:          0
LLC WQ ACCESS:    8992200
LLC WQ TO_CACHE:    8992200
LLC WQ MERGED:          0
LLC WQ FORWARD:         15
Major fault: 0 Minor fault: 102360
CPU 0 L1D next line prefetcher final stats
CPU 0 L2C PC-based stride prefetcher final stats
All Misses: 14477106
All Hits: 10649077
SD Algo Stats - Switches: 0 SRR-Repls: 1632869 BRR-Repls: 0

DRAM Statistics
 CHANNEL 0
 RQ ROW_BUFFER_HIT:    3048142  ROW_BUFFER_MISS:    8700869
 DBUS_CONGESTED:   14421200
 WQ ROW_BUFFER_HIT:    1242091  ROW_BUFFER_MISS:    7613995  FULL:          0

 AVG_CONGESTED_CYCLE: 13
LOADS RETIRED: 124982196
INSTR RETIRED: 500000000
