
*** ChampSim Multicore Out-of-Order Simulator ***

Warmup Instructions: 100000000
Simulation Instructions: 500000000
Number of CPUs: 1
LLC sets: 2048
LLC ways: 16
Clean RRIP Policies: 220000102200001 Dirty RRIP Policies: 2200202122002021 PSEL Width: 10 Track Set: 4294967295 PSEL Mask: 1 Demote Mask: 3234420432344204DS Algo: 0Window size: 0
Off-chip DRAM Size: 4096 MB Channels: 1 Width: 64-bit Data Rate: 1600 MT/s

CPU 0 runs /mnt/beegfs/iconst01/spec2017/Omnetpp.trace.gz
NOT SORTED
TRACE STRING: /mnt/beegfs/iconst01/spec2017/Omnetpp.trace.gz
SORTED
TRACE STRING: /mnt/beegfs/iconst01/spec2017/Omnetpp.trace.gz
INITIAL
TRACE STRING: /mnt/beegfs/iconst01/spec2017/Omnetpp.trace.gz

champsim_seed used: 739

CPU 0 L1D next line prefetcher
CPU 0 L2C IP-based stride prefetcher
Initialize DRRIP state
Assign rand_sets[0]: 454  LLC: 2048
rand_sets[0]: 454
Assign rand_sets[1]: 1662  LLC: 2048
rand_sets[1]: 1662
Assign rand_sets[2]: 1921  LLC: 2048
rand_sets[2]: 1921
Assign rand_sets[3]: 1131  LLC: 2048
rand_sets[3]: 1131
Assign rand_sets[4]: 331  LLC: 2048
rand_sets[4]: 331
Assign rand_sets[5]: 1531  LLC: 2048
rand_sets[5]: 1531
Assign rand_sets[6]: 482  LLC: 2048
rand_sets[6]: 482
Assign rand_sets[7]: 1275  LLC: 2048
rand_sets[7]: 1275
Assign rand_sets[8]: 1876  LLC: 2048
rand_sets[8]: 1876
Assign rand_sets[9]: 2038  LLC: 2048
rand_sets[9]: 2038
Assign rand_sets[10]: 701  LLC: 2048
rand_sets[10]: 701
Assign rand_sets[11]: 479  LLC: 2048
rand_sets[11]: 479
Assign rand_sets[12]: 892  LLC: 2048
rand_sets[12]: 892
Assign rand_sets[13]: 1820  LLC: 2048
rand_sets[13]: 1820
Assign rand_sets[14]: 1505  LLC: 2048
rand_sets[14]: 1505
Assign rand_sets[15]: 1159  LLC: 2048
rand_sets[15]: 1159
Assign rand_sets[16]: 513  LLC: 2048
rand_sets[16]: 513
Assign rand_sets[17]: 703  LLC: 2048
rand_sets[17]: 703
Assign rand_sets[18]: 561  LLC: 2048
rand_sets[18]: 561
Assign rand_sets[19]: 990  LLC: 2048
rand_sets[19]: 990
Assign rand_sets[20]: 342  LLC: 2048
rand_sets[20]: 342
Assign rand_sets[21]: 882  LLC: 2048
rand_sets[21]: 882
Assign rand_sets[22]: 15  LLC: 2048
rand_sets[22]: 15
Assign rand_sets[23]: 71  LLC: 2048
rand_sets[23]: 71
Assign rand_sets[24]: 1127  LLC: 2048
rand_sets[24]: 1127
Assign rand_sets[25]: 1382  LLC: 2048
rand_sets[25]: 1382
Assign rand_sets[26]: 647  LLC: 2048
rand_sets[26]: 647
Assign rand_sets[27]: 857  LLC: 2048
rand_sets[27]: 857
Assign rand_sets[28]: 1450  LLC: 2048
rand_sets[28]: 1450
Assign rand_sets[29]: 1160  LLC: 2048
rand_sets[29]: 1160
Assign rand_sets[30]: 1852  LLC: 2048
rand_sets[30]: 1852
Assign rand_sets[31]: 1881  LLC: 2048
rand_sets[31]: 1881
Assign rand_sets[32]: 1770  LLC: 2048
rand_sets[32]: 1770
Assign rand_sets[33]: 1622  LLC: 2048
rand_sets[33]: 1622
Assign rand_sets[34]: 275  LLC: 2048
rand_sets[34]: 275
Assign rand_sets[35]: 635  LLC: 2048
rand_sets[35]: 635
Assign rand_sets[36]: 466  LLC: 2048
rand_sets[36]: 466
Assign rand_sets[37]: 1413  LLC: 2048
rand_sets[37]: 1413
Assign rand_sets[38]: 417  LLC: 2048
rand_sets[38]: 417
Assign rand_sets[39]: 472  LLC: 2048
rand_sets[39]: 472
Assign rand_sets[40]: 1340  LLC: 2048
rand_sets[40]: 1340
Assign rand_sets[41]: 852  LLC: 2048
rand_sets[41]: 852
Assign rand_sets[42]: 1365  LLC: 2048
rand_sets[42]: 1365
Assign rand_sets[43]: 47  LLC: 2048
rand_sets[43]: 47
Assign rand_sets[44]: 823  LLC: 2048
rand_sets[44]: 823
Assign rand_sets[45]: 686  LLC: 2048
rand_sets[45]: 686
Assign rand_sets[46]: 1637  LLC: 2048
rand_sets[46]: 1637
Assign rand_sets[47]: 1115  LLC: 2048
rand_sets[47]: 1115
Assign rand_sets[48]: 986  LLC: 2048
rand_sets[48]: 986
Assign rand_sets[49]: 258  LLC: 2048
rand_sets[49]: 258
Assign rand_sets[50]: 633  LLC: 2048
rand_sets[50]: 633
Assign rand_sets[51]: 920  LLC: 2048
rand_sets[51]: 920
Assign rand_sets[52]: 204  LLC: 2048
rand_sets[52]: 204
Assign rand_sets[53]: 227  LLC: 2048
rand_sets[53]: 227
Assign rand_sets[54]: 1818  LLC: 2048
rand_sets[54]: 1818
Assign rand_sets[55]: 886  LLC: 2048
rand_sets[55]: 886
Assign rand_sets[56]: 1422  LLC: 2048
rand_sets[56]: 1422
Assign rand_sets[57]: 607  LLC: 2048
rand_sets[57]: 607
Assign rand_sets[58]: 217  LLC: 2048
rand_sets[58]: 217
Assign rand_sets[59]: 1945  LLC: 2048
rand_sets[59]: 1945
Assign rand_sets[60]: 143  LLC: 2048
rand_sets[60]: 143
Assign rand_sets[61]: 1311  LLC: 2048
rand_sets[61]: 1311
Assign rand_sets[62]: 319  LLC: 2048
rand_sets[62]: 319
Assign rand_sets[63]: 1846  LLC: 2048
rand_sets[63]: 1846
 CLEAN-RRIP-POLICY-1: 0-2-2-0-0-0-0-1- CLEAN-RRIP-POLICY-2: 0-2-2-0-0-0-0-1-
 DIRTY-RRIP-POLICY-1: 2-2-0-0-2-0-2-1- DIRTY-RRIP-POLICY-2: 2-2-0-0-2-0-2-1-
 PSEL width: 10
Heartbeat CPU 0 instructions: 10000000 cycles: 7322197 heartbeat IPC: 1.36571 cumulative IPC: 1.36571 (Simulation time: 0 hr 0 min 19 sec) 
Heartbeat CPU 0 instructions: 20000000 cycles: 14628869 heartbeat IPC: 1.36861 cumulative IPC: 1.36716 (Simulation time: 0 hr 0 min 38 sec) 
Heartbeat CPU 0 instructions: 30000003 cycles: 21933140 heartbeat IPC: 1.36906 cumulative IPC: 1.36779 (Simulation time: 0 hr 0 min 57 sec) 
Heartbeat CPU 0 instructions: 40000000 cycles: 29224349 heartbeat IPC: 1.37151 cumulative IPC: 1.36872 (Simulation time: 0 hr 1 min 16 sec) 
Heartbeat CPU 0 instructions: 50000000 cycles: 36503894 heartbeat IPC: 1.37371 cumulative IPC: 1.36972 (Simulation time: 0 hr 1 min 35 sec) 
Heartbeat CPU 0 instructions: 60000000 cycles: 43786862 heartbeat IPC: 1.37307 cumulative IPC: 1.37027 (Simulation time: 0 hr 1 min 55 sec) 
Heartbeat CPU 0 instructions: 70000001 cycles: 51075118 heartbeat IPC: 1.37207 cumulative IPC: 1.37053 (Simulation time: 0 hr 2 min 14 sec) 
Heartbeat CPU 0 instructions: 80000000 cycles: 58353192 heartbeat IPC: 1.37399 cumulative IPC: 1.37096 (Simulation time: 0 hr 2 min 33 sec) 
Heartbeat CPU 0 instructions: 90000000 cycles: 65662165 heartbeat IPC: 1.36818 cumulative IPC: 1.37065 (Simulation time: 0 hr 2 min 53 sec) 
Heartbeat CPU 0 instructions: 100000000 cycles: 72956865 heartbeat IPC: 1.37086 cumulative IPC: 1.37067 (Simulation time: 0 hr 3 min 12 sec) 

Warmup complete CPU 0 instructions: 100000002 cycles: 72956866 (Simulation time: 0 hr 3 min 12 sec) 

Heartbeat CPU 0 instructions: 110000002 cycles: 114871346 heartbeat IPC: 0.238581 cumulative IPC: 0.238581 (Simulation time: 0 hr 3 min 51 sec) 
Heartbeat CPU 0 instructions: 120000000 cycles: 156503775 heartbeat IPC: 0.240197 cumulative IPC: 0.239386 (Simulation time: 0 hr 4 min 30 sec) 
Heartbeat CPU 0 instructions: 130000002 cycles: 198240403 heartbeat IPC: 0.239598 cumulative IPC: 0.239457 (Simulation time: 0 hr 5 min 8 sec) 
Heartbeat CPU 0 instructions: 140000000 cycles: 240206157 heartbeat IPC: 0.238289 cumulative IPC: 0.239164 (Simulation time: 0 hr 5 min 47 sec) 
Heartbeat CPU 0 instructions: 150000002 cycles: 281685207 heartbeat IPC: 0.241086 cumulative IPC: 0.239546 (Simulation time: 0 hr 6 min 26 sec) 
Heartbeat CPU 0 instructions: 160000000 cycles: 323186780 heartbeat IPC: 0.240955 cumulative IPC: 0.239779 (Simulation time: 0 hr 7 min 5 sec) 
Heartbeat CPU 0 instructions: 170000001 cycles: 363804949 heartbeat IPC: 0.246195 cumulative IPC: 0.240675 (Simulation time: 0 hr 7 min 43 sec) 
Heartbeat CPU 0 instructions: 180000000 cycles: 405202541 heartbeat IPC: 0.24156 cumulative IPC: 0.240786 (Simulation time: 0 hr 8 min 21 sec) 
Heartbeat CPU 0 instructions: 190000002 cycles: 446623418 heartbeat IPC: 0.241424 cumulative IPC: 0.240856 (Simulation time: 0 hr 8 min 59 sec) 
Heartbeat CPU 0 instructions: 200000000 cycles: 489504045 heartbeat IPC: 0.233205 cumulative IPC: 0.240069 (Simulation time: 0 hr 9 min 39 sec) 
Heartbeat CPU 0 instructions: 210000003 cycles: 530990803 heartbeat IPC: 0.241041 cumulative IPC: 0.240157 (Simulation time: 0 hr 10 min 17 sec) 
Heartbeat CPU 0 instructions: 220000000 cycles: 572779967 heartbeat IPC: 0.239296 cumulative IPC: 0.240085 (Simulation time: 0 hr 10 min 56 sec) 
Heartbeat CPU 0 instructions: 230000000 cycles: 614464731 heartbeat IPC: 0.239896 cumulative IPC: 0.24007 (Simulation time: 0 hr 11 min 35 sec) 
Heartbeat CPU 0 instructions: 240000000 cycles: 655813385 heartbeat IPC: 0.241846 cumulative IPC: 0.240196 (Simulation time: 0 hr 12 min 13 sec) 
Heartbeat CPU 0 instructions: 250000000 cycles: 697173866 heartbeat IPC: 0.241777 cumulative IPC: 0.240301 (Simulation time: 0 hr 12 min 50 sec) 
Heartbeat CPU 0 instructions: 260000000 cycles: 738784610 heartbeat IPC: 0.240323 cumulative IPC: 0.240302 (Simulation time: 0 hr 13 min 28 sec) 
Heartbeat CPU 0 instructions: 270000000 cycles: 780527341 heartbeat IPC: 0.239563 cumulative IPC: 0.240259 (Simulation time: 0 hr 14 min 7 sec) 
Heartbeat CPU 0 instructions: 280000000 cycles: 822614172 heartbeat IPC: 0.237604 cumulative IPC: 0.24011 (Simulation time: 0 hr 14 min 45 sec) 
Heartbeat CPU 0 instructions: 290000001 cycles: 863720421 heartbeat IPC: 0.243272 cumulative IPC: 0.240274 (Simulation time: 0 hr 15 min 22 sec) 
Heartbeat CPU 0 instructions: 300000000 cycles: 905629319 heartbeat IPC: 0.238613 cumulative IPC: 0.24019 (Simulation time: 0 hr 16 min 0 sec) 
Heartbeat CPU 0 instructions: 310000000 cycles: 947568205 heartbeat IPC: 0.238442 cumulative IPC: 0.240107 (Simulation time: 0 hr 16 min 38 sec) 
Heartbeat CPU 0 instructions: 320000000 cycles: 989245250 heartbeat IPC: 0.23994 cumulative IPC: 0.240099 (Simulation time: 0 hr 17 min 16 sec) 
Heartbeat CPU 0 instructions: 330000000 cycles: 1030944743 heartbeat IPC: 0.239811 cumulative IPC: 0.240087 (Simulation time: 0 hr 17 min 54 sec) 
Heartbeat CPU 0 instructions: 340000000 cycles: 1073342270 heartbeat IPC: 0.235863 cumulative IPC: 0.239908 (Simulation time: 0 hr 18 min 32 sec) 
Heartbeat CPU 0 instructions: 350000001 cycles: 1115035106 heartbeat IPC: 0.239849 cumulative IPC: 0.239905 (Simulation time: 0 hr 19 min 10 sec) 
Heartbeat CPU 0 instructions: 360000000 cycles: 1156930012 heartbeat IPC: 0.238692 cumulative IPC: 0.239858 (Simulation time: 0 hr 19 min 47 sec) 
Heartbeat CPU 0 instructions: 370000000 cycles: 1197807658 heartbeat IPC: 0.244632 cumulative IPC: 0.240032 (Simulation time: 0 hr 20 min 24 sec) 
Heartbeat CPU 0 instructions: 380000000 cycles: 1239754516 heartbeat IPC: 0.238397 cumulative IPC: 0.239973 (Simulation time: 0 hr 21 min 2 sec) 
Heartbeat CPU 0 instructions: 390000001 cycles: 1281148791 heartbeat IPC: 0.241579 cumulative IPC: 0.240028 (Simulation time: 0 hr 21 min 39 sec) 
Heartbeat CPU 0 instructions: 400000000 cycles: 1322670612 heartbeat IPC: 0.240837 cumulative IPC: 0.240055 (Simulation time: 0 hr 22 min 17 sec) 
Heartbeat CPU 0 instructions: 410000000 cycles: 1363896317 heartbeat IPC: 0.242567 cumulative IPC: 0.240135 (Simulation time: 0 hr 22 min 54 sec) 
Heartbeat CPU 0 instructions: 420000000 cycles: 1405203670 heartbeat IPC: 0.242088 cumulative IPC: 0.240196 (Simulation time: 0 hr 23 min 32 sec) 
Heartbeat CPU 0 instructions: 430000000 cycles: 1446614416 heartbeat IPC: 0.241483 cumulative IPC: 0.240235 (Simulation time: 0 hr 24 min 9 sec) 
Heartbeat CPU 0 instructions: 440000000 cycles: 1488000984 heartbeat IPC: 0.241624 cumulative IPC: 0.240275 (Simulation time: 0 hr 24 min 46 sec) 
Heartbeat CPU 0 instructions: 450000002 cycles: 1529311581 heartbeat IPC: 0.242069 cumulative IPC: 0.240326 (Simulation time: 0 hr 25 min 24 sec) 
Heartbeat CPU 0 instructions: 460000000 cycles: 1570024612 heartbeat IPC: 0.245622 cumulative IPC: 0.24047 (Simulation time: 0 hr 26 min 1 sec) 
Heartbeat CPU 0 instructions: 470000000 cycles: 1611690415 heartbeat IPC: 0.240005 cumulative IPC: 0.240457 (Simulation time: 0 hr 26 min 38 sec) 
Heartbeat CPU 0 instructions: 480000000 cycles: 1653066679 heartbeat IPC: 0.241684 cumulative IPC: 0.24049 (Simulation time: 0 hr 27 min 16 sec) 
Heartbeat CPU 0 instructions: 490000001 cycles: 1694510408 heartbeat IPC: 0.241291 cumulative IPC: 0.24051 (Simulation time: 0 hr 27 min 53 sec) 
Heartbeat CPU 0 instructions: 500000000 cycles: 1736158156 heartbeat IPC: 0.240109 cumulative IPC: 0.2405 (Simulation time: 0 hr 28 min 30 sec) 
Heartbeat CPU 0 instructions: 510000000 cycles: 1777187291 heartbeat IPC: 0.243729 cumulative IPC: 0.240578 (Simulation time: 0 hr 29 min 6 sec) 
Heartbeat CPU 0 instructions: 520000000 cycles: 1819112764 heartbeat IPC: 0.238518 cumulative IPC: 0.240528 (Simulation time: 0 hr 29 min 42 sec) 
Heartbeat CPU 0 instructions: 530000000 cycles: 1860467287 heartbeat IPC: 0.241812 cumulative IPC: 0.240558 (Simulation time: 0 hr 30 min 17 sec) 
Heartbeat CPU 0 instructions: 540000000 cycles: 1901596079 heartbeat IPC: 0.243139 cumulative IPC: 0.240616 (Simulation time: 0 hr 30 min 52 sec) 
Heartbeat CPU 0 instructions: 550000001 cycles: 1943475317 heartbeat IPC: 0.238782 cumulative IPC: 0.240575 (Simulation time: 0 hr 31 min 28 sec) 
Heartbeat CPU 0 instructions: 560000000 cycles: 1985465403 heartbeat IPC: 0.238151 cumulative IPC: 0.240522 (Simulation time: 0 hr 32 min 4 sec) 
Heartbeat CPU 0 instructions: 570000003 cycles: 2027308586 heartbeat IPC: 0.238988 cumulative IPC: 0.240489 (Simulation time: 0 hr 32 min 40 sec) 
Heartbeat CPU 0 instructions: 580000000 cycles: 2069049689 heartbeat IPC: 0.239572 cumulative IPC: 0.24047 (Simulation time: 0 hr 33 min 15 sec) 
Heartbeat CPU 0 instructions: 590000001 cycles: 2111363627 heartbeat IPC: 0.236329 cumulative IPC: 0.240384 (Simulation time: 0 hr 33 min 52 sec) 
Heartbeat CPU 0 instructions: 600000000 cycles: 2153389614 heartbeat IPC: 0.237948 cumulative IPC: 0.240335 (Simulation time: 0 hr 34 min 28 sec) 
Finished CPU 0 instructions: 500000000 cycles: 2080432756 cumulative IPC: 0.240335 (Simulation time: 0 hr 34 min 28 sec) 

CPU 0 Branch Prediction Accuracy: 96.2429% MPKI: 5.85335
Number of Branches: 77897976 Number of Mispredictions: 2926674
Number of LOAD Instructions: 193081861
Number of LOAD Instructions (ROI): 193081861
Number of STORE Instructions: 97310749
Number of STORE Instructions (ROI): 97310749
Total Destination Memory Operands: 106368027
Total Destination Memory Operands (ROI): 106368027
Total Source Memory Operands: 193081861
Total Source Memory Operands (ROI): 193081861
Number of DEPENDED LOADS: 6505940
Number of DEPENDED LOADS (ROI): 6505940
Number of SQ_ADDED: 106367982
Number of SQ_ADDED (ROI): 106367982
Number of LQ_ADDED: 438599320
Number of LQ_ADDED (ROI): 438599320
Number of Instructions read from trace: 600000256

ChampSim completed all CPUs

Region of Interest Statistics

CPU 0 cumulative IPC: 0.240335 instructions: 500000000 cycles: 2080432756
ITLB TOTAL     ACCESS:  151027495  HIT:  151011664  MISS:      15831
ITLB LOAD      ACCESS:  151027495  HIT:  151011664  MISS:      15831
ITLB RFO       ACCESS:          0  HIT:          0  MISS:          0
ITLB PREFETCH  ACCESS:          0  HIT:          0  MISS:          0
ITLB WRITEBACK ACCESS:          0  HIT:          0  MISS:          0
ITLB PREFETCH  REQUESTED:          0  ISSUED:          0  USEFUL:          0  USELESS:          0
ITLB TOTAL MSHR MERGED:      18093
ITLB LOAD MSHR MERGED:      18093
ITLB RFO MSHR MERGED:          0
ITLB PREFETCH MSHR MERGED:          0
ITLB WRITEBACK MSHR MERGED:          0
ITLB TOTAL ACCESSES:  151045588 HITS:  151011664 MISSES:      33924
ITLB LOAD ACCESSES:  151045588 HITS:  151011664 MISSES:      33924
ITLB RFO ACCESSES:          0 HITS:          0 MISSES:          0
ITLB PREFETCH ACCESSES:          0 HITS:          0 MISSES:          0
ITLB WRITEBACK ACCESSES:          0 HITS:          0 MISSES:          0
ITLB RQ ACCESS:  500000242
ITLB RQ TO_CACHE:  151045588
ITLB RQ MERGED:  348954654
ITLB RQ FORWARD:          0
ITLB WQ ACCESS:          0
ITLB WQ TO_CACHE:          0
ITLB WQ MERGED:          0
ITLB WQ FORWARD:          0
DTLB TOTAL     ACCESS:  199519973  HIT:  194140910  MISS:    5379063
DTLB LOAD      ACCESS:  123100095  HIT:  118081496  MISS:    5018599
DTLB RFO       ACCESS:   76419878  HIT:   76059414  MISS:     360464
DTLB PREFETCH  ACCESS:          0  HIT:          0  MISS:          0
DTLB WRITEBACK ACCESS:          0  HIT:          0  MISS:          0
DTLB PREFETCH  REQUESTED:          0  ISSUED:          0  USEFUL:          0  USELESS:          0
DTLB TOTAL MSHR MERGED:     916105
DTLB LOAD MSHR MERGED:     807232
DTLB RFO MSHR MERGED:     108873
DTLB PREFETCH MSHR MERGED:          0
DTLB WRITEBACK MSHR MERGED:          0
DTLB TOTAL ACCESSES:  200436078 HITS:  194140910 MISSES:    6295168
DTLB LOAD ACCESSES:  123907327 HITS:  118081496 MISSES:    5825831
DTLB RFO ACCESSES:   76528751 HITS:   76059414 MISSES:     469337
DTLB PREFETCH ACCESSES:          0 HITS:          0 MISSES:          0
DTLB WRITEBACK ACCESSES:          0 HITS:          0 MISSES:          0
DTLB RQ ACCESS:  243821904
DTLB RQ TO_CACHE:  200436078
DTLB RQ MERGED:   43385826
DTLB RQ FORWARD:          0
DTLB WQ ACCESS:          0
DTLB WQ TO_CACHE:          0
DTLB WQ MERGED:          0
DTLB WQ FORWARD:          0
L1D TOTAL     ACCESS:  335503191  HIT:  317407011  MISS:   18096180
L1D LOAD      ACCESS:  127614325  HIT:  118669236  MISS:    8945089
L1D RFO       ACCESS:   87034726  HIT:   86241298  MISS:     793428
L1D PREFETCH  ACCESS:  120854140  HIT:  112496477  MISS:    8357663
L1D WRITEBACK ACCESS:          0  HIT:          0  MISS:          0
L1D PREFETCH  REQUESTED:  128438409  ISSUED:  126840247  USEFUL:    1737719  USELESS:    6619955
L1D TOTAL MSHR MERGED:    3850178
L1D LOAD MSHR MERGED:     989023
L1D RFO MSHR MERGED:    1099835
L1D PREFETCH MSHR MERGED:    1761320
L1D WRITEBACK MSHR MERGED:          0
L1D TOTAL ACCESSES:  339447747 HITS:  317501389 MISSES:   21946358
L1D LOAD ACCESSES:  128438937 HITS:  118669764 MISSES:    9769173
L1D RFO ACCESSES:   88060343 HITS:   86241298 MISSES:    1819045
L1D PREFETCH ACCESSES:  122948467 HITS:  112590327 MISSES:   10358140
L1D WRITEBACK ACCESSES:          0 HITS:          0 MISSES:          0
L1D RQ ACCESS:  155190519
L1D RQ TO_CACHE:  128438409
L1D RQ MERGED:   26751582
L1D RQ FORWARD:          0
L1D WQ ACCESS:   88631385
L1D WQ TO_CACHE:   88060342
L1D WQ MERGED:     571043
L1D WQ FORWARD:      94378
L1I TOTAL     ACCESS:  175334780  HIT:  175068478  MISS:     266302
L1I LOAD      ACCESS:  175334780  HIT:  175068478  MISS:     266302
L1I RFO       ACCESS:          0  HIT:          0  MISS:          0
L1I PREFETCH  ACCESS:          0  HIT:          0  MISS:          0
L1I WRITEBACK ACCESS:          0  HIT:          0  MISS:          0
L1I PREFETCH  REQUESTED:          0  ISSUED:          0  USEFUL:          0  USELESS:          0
L1I TOTAL MSHR MERGED:     219907
L1I LOAD MSHR MERGED:     219907
L1I RFO MSHR MERGED:          0
L1I PREFETCH MSHR MERGED:          0
L1I WRITEBACK MSHR MERGED:          0
L1I TOTAL ACCESSES:  175554687 HITS:  175068478 MISSES:     486209
L1I LOAD ACCESSES:  175554687 HITS:  175068478 MISSES:     486209
L1I RFO ACCESSES:          0 HITS:          0 MISSES:          0
L1I PREFETCH ACCESSES:          0 HITS:          0 MISSES:          0
L1I WRITEBACK ACCESSES:          0 HITS:          0 MISSES:          0
L1I RQ ACCESS:  500000242
L1I RQ TO_CACHE:  175554687
L1I RQ MERGED:  324445555
L1I RQ FORWARD:          0
L1I WQ ACCESS:          0
L1I WQ TO_CACHE:          0
L1I WQ MERGED:          0
L1I WQ FORWARD:          0
L2C TOTAL     ACCESS:   23738427  HIT:   12112571  MISS:   11625856
L2C LOAD      ACCESS:    9045291  HIT:    3565346  MISS:    5479945
L2C RFO       ACCESS:     719147  HIT:     129390  MISS:     589757
L2C PREFETCH  ACCESS:    8613834  HIT:    3086385  MISS:    5527449
L2C WRITEBACK ACCESS:    5360155  HIT:    5331450  MISS:      28705
L2C PREFETCH  REQUESTED:      18048  ISSUED:      18048  USEFUL:     322886  USELESS:    5204738
L2C TOTAL MSHR MERGED:         21
L2C LOAD MSHR MERGED:          2
L2C RFO MSHR MERGED:          0
L2C PREFETCH MSHR MERGED:         19
L2C WRITEBACK MSHR MERGED:          0
L2C TOTAL ACCESSES:   23740226 HITS:   12114343 MISSES:   11625883
L2C LOAD ACCESSES:    9046452 HITS:    3566507 MISSES:    5479945
L2C RFO ACCESSES:     719210 HITS:     129453 MISSES:     589757
L2C PREFETCH ACCESSES:    8614409 HITS:    3086933 MISSES:    5527476
L2C WRITEBACK ACCESSES:    5360155 HITS:    5331450 MISSES:      28705
L2C RQ ACCESS:    9765662
L2C RQ TO_CACHE:    9764438
L2C RQ MERGED:          0
L2C RQ FORWARD:          0
L2C WQ ACCESS:    5360155
L2C WQ TO_CACHE:    5360155
L2C WQ MERGED:          0
L2C WQ FORWARD:       1772
LLC TOTAL     ACCESS:   15448809  HIT:    6307129  MISS:    9141680
LLC LOAD      ACCESS:    5479913  HIT:    1458587  MISS:    4021326
LLC RFO       ACCESS:     589755  HIT:     214245  MISS:     375510
LLC PREFETCH  ACCESS:    5527447  HIT:    1224981  MISS:    4302466
LLC WRITEBACK ACCESS:    3851694  HIT:    3409316  MISS:     442378
LLC PREFETCH  REQUESTED:          0  ISSUED:          0  USEFUL:     146520  USELESS:    4158146
LLC TOTAL MSHR MERGED:          0
LLC LOAD MSHR MERGED:          0
LLC RFO MSHR MERGED:          0
LLC PREFETCH MSHR MERGED:          0
LLC WRITEBACK MSHR MERGED:          0
LLC TOTAL ACCESSES:   15448851 HITS:    6307171 MISSES:    9141680
LLC LOAD ACCESSES:    5479943 HITS:    1458617 MISSES:    4021326
LLC RFO ACCESSES:     589757 HITS:     214247 MISSES:     375510
LLC PREFETCH ACCESSES:    5527457 HITS:    1224991 MISSES:    4302466
LLC WRITEBACK ACCESSES:    3851694 HITS:    3409316 MISSES:     442378
LLC 0 RQ ACCESS:    6069700
LLC 0 RQ TO_CACHE:    6069668
LLC 0 RQ MERGED:          0
LLC 0 RQ FORWARD:          0
LLC WQ ACCESS:    3851694
LLC WQ TO_CACHE:    3851694
LLC WQ MERGED:          0
LLC WQ FORWARD:         42
Major fault: 0 Minor fault: 44814
CPU 0 L1D next line prefetcher final stats
CPU 0 L2C PC-based stride prefetcher final stats
All Misses: 11045813
All Hits: 7575501
SD Algo Stats - Switches: 0 SRR-Repls: 4615363 BRR-Repls: 0

DRAM Statistics
 CHANNEL 0
 RQ ROW_BUFFER_HIT:    1498139  ROW_BUFFER_MISS:    7196988
 DBUS_CONGESTED:    6366908
 WQ ROW_BUFFER_HIT:     258203  ROW_BUFFER_MISS:    2595144  FULL:          0

 AVG_CONGESTED_CYCLE: 13
LOADS RETIRED: 160808997
INSTR RETIRED: 500000000
