
*** ChampSim Multicore Out-of-Order Simulator ***

Warmup Instructions: 100000000
Simulation Instructions: 500000000
Number of CPUs: 1
LLC sets: 2048
LLC ways: 16
Clean RRIP Policies: 1323022013230220 Dirty RRIP Policies: 2303021023030210 PSEL Width: 10 Track Set: 4294967295 PSEL Mask: 1 Demote Mask: 2300101323001013DS Algo: 0Window size: 0
Off-chip DRAM Size: 4096 MB Channels: 1 Width: 64-bit Data Rate: 1600 MT/s

CPU 0 runs /mnt/beegfs/iconst01/spec2017/Gcc.trace.gz
NOT SORTED
TRACE STRING: /mnt/beegfs/iconst01/spec2017/Gcc.trace.gz
SORTED
TRACE STRING: /mnt/beegfs/iconst01/spec2017/Gcc.trace.gz
INITIAL
TRACE STRING: /mnt/beegfs/iconst01/spec2017/Gcc.trace.gz

champsim_seed used: 269

CPU 0 L1D next line prefetcher
CPU 0 L2C IP-based stride prefetcher
Initialize DRRIP state
Assign rand_sets[0]: 454  LLC: 2048
rand_sets[0]: 454
Assign rand_sets[1]: 1662  LLC: 2048
rand_sets[1]: 1662
Assign rand_sets[2]: 1921  LLC: 2048
rand_sets[2]: 1921
Assign rand_sets[3]: 1131  LLC: 2048
rand_sets[3]: 1131
Assign rand_sets[4]: 331  LLC: 2048
rand_sets[4]: 331
Assign rand_sets[5]: 1531  LLC: 2048
rand_sets[5]: 1531
Assign rand_sets[6]: 482  LLC: 2048
rand_sets[6]: 482
Assign rand_sets[7]: 1275  LLC: 2048
rand_sets[7]: 1275
Assign rand_sets[8]: 1876  LLC: 2048
rand_sets[8]: 1876
Assign rand_sets[9]: 2038  LLC: 2048
rand_sets[9]: 2038
Assign rand_sets[10]: 701  LLC: 2048
rand_sets[10]: 701
Assign rand_sets[11]: 479  LLC: 2048
rand_sets[11]: 479
Assign rand_sets[12]: 892  LLC: 2048
rand_sets[12]: 892
Assign rand_sets[13]: 1820  LLC: 2048
rand_sets[13]: 1820
Assign rand_sets[14]: 1505  LLC: 2048
rand_sets[14]: 1505
Assign rand_sets[15]: 1159  LLC: 2048
rand_sets[15]: 1159
Assign rand_sets[16]: 513  LLC: 2048
rand_sets[16]: 513
Assign rand_sets[17]: 703  LLC: 2048
rand_sets[17]: 703
Assign rand_sets[18]: 561  LLC: 2048
rand_sets[18]: 561
Assign rand_sets[19]: 990  LLC: 2048
rand_sets[19]: 990
Assign rand_sets[20]: 342  LLC: 2048
rand_sets[20]: 342
Assign rand_sets[21]: 882  LLC: 2048
rand_sets[21]: 882
Assign rand_sets[22]: 15  LLC: 2048
rand_sets[22]: 15
Assign rand_sets[23]: 71  LLC: 2048
rand_sets[23]: 71
Assign rand_sets[24]: 1127  LLC: 2048
rand_sets[24]: 1127
Assign rand_sets[25]: 1382  LLC: 2048
rand_sets[25]: 1382
Assign rand_sets[26]: 647  LLC: 2048
rand_sets[26]: 647
Assign rand_sets[27]: 857  LLC: 2048
rand_sets[27]: 857
Assign rand_sets[28]: 1450  LLC: 2048
rand_sets[28]: 1450
Assign rand_sets[29]: 1160  LLC: 2048
rand_sets[29]: 1160
Assign rand_sets[30]: 1852  LLC: 2048
rand_sets[30]: 1852
Assign rand_sets[31]: 1881  LLC: 2048
rand_sets[31]: 1881
Assign rand_sets[32]: 1770  LLC: 2048
rand_sets[32]: 1770
Assign rand_sets[33]: 1622  LLC: 2048
rand_sets[33]: 1622
Assign rand_sets[34]: 275  LLC: 2048
rand_sets[34]: 275
Assign rand_sets[35]: 635  LLC: 2048
rand_sets[35]: 635
Assign rand_sets[36]: 466  LLC: 2048
rand_sets[36]: 466
Assign rand_sets[37]: 1413  LLC: 2048
rand_sets[37]: 1413
Assign rand_sets[38]: 417  LLC: 2048
rand_sets[38]: 417
Assign rand_sets[39]: 472  LLC: 2048
rand_sets[39]: 472
Assign rand_sets[40]: 1340  LLC: 2048
rand_sets[40]: 1340
Assign rand_sets[41]: 852  LLC: 2048
rand_sets[41]: 852
Assign rand_sets[42]: 1365  LLC: 2048
rand_sets[42]: 1365
Assign rand_sets[43]: 47  LLC: 2048
rand_sets[43]: 47
Assign rand_sets[44]: 823  LLC: 2048
rand_sets[44]: 823
Assign rand_sets[45]: 686  LLC: 2048
rand_sets[45]: 686
Assign rand_sets[46]: 1637  LLC: 2048
rand_sets[46]: 1637
Assign rand_sets[47]: 1115  LLC: 2048
rand_sets[47]: 1115
Assign rand_sets[48]: 986  LLC: 2048
rand_sets[48]: 986
Assign rand_sets[49]: 258  LLC: 2048
rand_sets[49]: 258
Assign rand_sets[50]: 633  LLC: 2048
rand_sets[50]: 633
Assign rand_sets[51]: 920  LLC: 2048
rand_sets[51]: 920
Assign rand_sets[52]: 204  LLC: 2048
rand_sets[52]: 204
Assign rand_sets[53]: 227  LLC: 2048
rand_sets[53]: 227
Assign rand_sets[54]: 1818  LLC: 2048
rand_sets[54]: 1818
Assign rand_sets[55]: 886  LLC: 2048
rand_sets[55]: 886
Assign rand_sets[56]: 1422  LLC: 2048
rand_sets[56]: 1422
Assign rand_sets[57]: 607  LLC: 2048
rand_sets[57]: 607
Assign rand_sets[58]: 217  LLC: 2048
rand_sets[58]: 217
Assign rand_sets[59]: 1945  LLC: 2048
rand_sets[59]: 1945
Assign rand_sets[60]: 143  LLC: 2048
rand_sets[60]: 143
Assign rand_sets[61]: 1311  LLC: 2048
rand_sets[61]: 1311
Assign rand_sets[62]: 319  LLC: 2048
rand_sets[62]: 319
Assign rand_sets[63]: 1846  LLC: 2048
rand_sets[63]: 1846
 CLEAN-RRIP-POLICY-1: 1-3-2-3-0-2-2-0- CLEAN-RRIP-POLICY-2: 1-3-2-3-0-2-2-0-
 DIRTY-RRIP-POLICY-1: 2-3-0-3-0-2-1-0- DIRTY-RRIP-POLICY-2: 2-3-0-3-0-2-1-0-
 PSEL width: 10
Heartbeat CPU 0 instructions: 10000001 cycles: 7316001 heartbeat IPC: 1.36687 cumulative IPC: 1.36687 (Simulation time: 0 hr 0 min 15 sec) 
Heartbeat CPU 0 instructions: 20000000 cycles: 14308032 heartbeat IPC: 1.4302 cumulative IPC: 1.39782 (Simulation time: 0 hr 0 min 29 sec) 
Heartbeat CPU 0 instructions: 30000001 cycles: 21021364 heartbeat IPC: 1.48957 cumulative IPC: 1.42712 (Simulation time: 0 hr 0 min 45 sec) 
Heartbeat CPU 0 instructions: 40000000 cycles: 27482297 heartbeat IPC: 1.54776 cumulative IPC: 1.45548 (Simulation time: 0 hr 1 min 1 sec) 
Heartbeat CPU 0 instructions: 50000001 cycles: 33584237 heartbeat IPC: 1.63882 cumulative IPC: 1.48879 (Simulation time: 0 hr 1 min 17 sec) 
Heartbeat CPU 0 instructions: 60000000 cycles: 40065547 heartbeat IPC: 1.5429 cumulative IPC: 1.49755 (Simulation time: 0 hr 1 min 33 sec) 
Heartbeat CPU 0 instructions: 70000000 cycles: 47105208 heartbeat IPC: 1.42052 cumulative IPC: 1.48604 (Simulation time: 0 hr 1 min 48 sec) 
Heartbeat CPU 0 instructions: 80000000 cycles: 54195507 heartbeat IPC: 1.41038 cumulative IPC: 1.47614 (Simulation time: 0 hr 2 min 2 sec) 
Heartbeat CPU 0 instructions: 90000003 cycles: 61200597 heartbeat IPC: 1.42753 cumulative IPC: 1.47057 (Simulation time: 0 hr 2 min 17 sec) 
Heartbeat CPU 0 instructions: 100000000 cycles: 68368565 heartbeat IPC: 1.3951 cumulative IPC: 1.46266 (Simulation time: 0 hr 2 min 31 sec) 

Warmup complete CPU 0 instructions: 100000004 cycles: 68368566 (Simulation time: 0 hr 2 min 31 sec) 

Heartbeat CPU 0 instructions: 110000003 cycles: 96201674 heartbeat IPC: 0.359284 cumulative IPC: 0.359284 (Simulation time: 0 hr 3 min 0 sec) 
Heartbeat CPU 0 instructions: 120000000 cycles: 123733823 heartbeat IPC: 0.363212 cumulative IPC: 0.361237 (Simulation time: 0 hr 3 min 29 sec) 
Heartbeat CPU 0 instructions: 130000000 cycles: 148787539 heartbeat IPC: 0.399142 cumulative IPC: 0.373046 (Simulation time: 0 hr 3 min 57 sec) 
Heartbeat CPU 0 instructions: 140000000 cycles: 178575927 heartbeat IPC: 0.335701 cumulative IPC: 0.362952 (Simulation time: 0 hr 4 min 25 sec) 
Heartbeat CPU 0 instructions: 150000000 cycles: 208612995 heartbeat IPC: 0.332922 cumulative IPC: 0.35652 (Simulation time: 0 hr 4 min 54 sec) 
Heartbeat CPU 0 instructions: 160000000 cycles: 236081974 heartbeat IPC: 0.364047 cumulative IPC: 0.357753 (Simulation time: 0 hr 5 min 21 sec) 
Heartbeat CPU 0 instructions: 170000001 cycles: 264251684 heartbeat IPC: 0.354991 cumulative IPC: 0.357356 (Simulation time: 0 hr 5 min 51 sec) 
Heartbeat CPU 0 instructions: 180000000 cycles: 292827698 heartbeat IPC: 0.349944 cumulative IPC: 0.356412 (Simulation time: 0 hr 6 min 20 sec) 
Heartbeat CPU 0 instructions: 190000002 cycles: 321019865 heartbeat IPC: 0.354709 cumulative IPC: 0.356222 (Simulation time: 0 hr 6 min 48 sec) 
Heartbeat CPU 0 instructions: 200000000 cycles: 349463967 heartbeat IPC: 0.351567 cumulative IPC: 0.355751 (Simulation time: 0 hr 7 min 17 sec) 
Heartbeat CPU 0 instructions: 210000002 cycles: 377405207 heartbeat IPC: 0.357894 cumulative IPC: 0.355945 (Simulation time: 0 hr 7 min 46 sec) 
Heartbeat CPU 0 instructions: 220000000 cycles: 406770464 heartbeat IPC: 0.340538 cumulative IPC: 0.354608 (Simulation time: 0 hr 8 min 13 sec) 
Heartbeat CPU 0 instructions: 230000000 cycles: 434453357 heartbeat IPC: 0.361234 cumulative IPC: 0.355109 (Simulation time: 0 hr 8 min 41 sec) 
Heartbeat CPU 0 instructions: 240000000 cycles: 460434424 heartbeat IPC: 0.384896 cumulative IPC: 0.357083 (Simulation time: 0 hr 9 min 8 sec) 
Heartbeat CPU 0 instructions: 250000000 cycles: 490640204 heartbeat IPC: 0.331062 cumulative IPC: 0.355222 (Simulation time: 0 hr 9 min 38 sec) 
Heartbeat CPU 0 instructions: 260000000 cycles: 517806465 heartbeat IPC: 0.368104 cumulative IPC: 0.356 (Simulation time: 0 hr 10 min 6 sec) 
Heartbeat CPU 0 instructions: 270000003 cycles: 546402131 heartbeat IPC: 0.349703 cumulative IPC: 0.355624 (Simulation time: 0 hr 10 min 35 sec) 
Heartbeat CPU 0 instructions: 280000000 cycles: 574756807 heartbeat IPC: 0.352675 cumulative IPC: 0.355458 (Simulation time: 0 hr 11 min 5 sec) 
Heartbeat CPU 0 instructions: 290000000 cycles: 603687249 heartbeat IPC: 0.345657 cumulative IPC: 0.354929 (Simulation time: 0 hr 11 min 34 sec) 
Heartbeat CPU 0 instructions: 300000000 cycles: 633829606 heartbeat IPC: 0.331759 cumulative IPC: 0.353694 (Simulation time: 0 hr 12 min 2 sec) 
Heartbeat CPU 0 instructions: 310000001 cycles: 663344933 heartbeat IPC: 0.338807 cumulative IPC: 0.352955 (Simulation time: 0 hr 12 min 31 sec) 
Heartbeat CPU 0 instructions: 320000000 cycles: 691756771 heartbeat IPC: 0.351966 cumulative IPC: 0.35291 (Simulation time: 0 hr 12 min 59 sec) 
Heartbeat CPU 0 instructions: 330000000 cycles: 720523634 heartbeat IPC: 0.347622 cumulative IPC: 0.352677 (Simulation time: 0 hr 13 min 27 sec) 
Heartbeat CPU 0 instructions: 340000000 cycles: 749946755 heartbeat IPC: 0.339869 cumulative IPC: 0.352124 (Simulation time: 0 hr 13 min 55 sec) 
Heartbeat CPU 0 instructions: 350000003 cycles: 777038614 heartbeat IPC: 0.369115 cumulative IPC: 0.352773 (Simulation time: 0 hr 14 min 23 sec) 
Heartbeat CPU 0 instructions: 360000000 cycles: 805388458 heartbeat IPC: 0.352736 cumulative IPC: 0.352772 (Simulation time: 0 hr 14 min 50 sec) 
Heartbeat CPU 0 instructions: 370000000 cycles: 833709011 heartbeat IPC: 0.3531 cumulative IPC: 0.352784 (Simulation time: 0 hr 15 min 17 sec) 
Heartbeat CPU 0 instructions: 380000000 cycles: 862403361 heartbeat IPC: 0.348501 cumulative IPC: 0.352629 (Simulation time: 0 hr 15 min 45 sec) 
Heartbeat CPU 0 instructions: 390000001 cycles: 890118533 heartbeat IPC: 0.360813 cumulative IPC: 0.352905 (Simulation time: 0 hr 16 min 12 sec) 
Heartbeat CPU 0 instructions: 400000000 cycles: 918884326 heartbeat IPC: 0.347635 cumulative IPC: 0.352727 (Simulation time: 0 hr 16 min 39 sec) 
Heartbeat CPU 0 instructions: 410000001 cycles: 946228333 heartbeat IPC: 0.365711 cumulative IPC: 0.353132 (Simulation time: 0 hr 17 min 6 sec) 
Heartbeat CPU 0 instructions: 420000000 cycles: 973589818 heartbeat IPC: 0.365477 cumulative IPC: 0.353505 (Simulation time: 0 hr 17 min 33 sec) 
Heartbeat CPU 0 instructions: 430000002 cycles: 1001404052 heartbeat IPC: 0.359528 cumulative IPC: 0.353684 (Simulation time: 0 hr 18 min 0 sec) 
Heartbeat CPU 0 instructions: 440000000 cycles: 1031198822 heartbeat IPC: 0.335629 cumulative IPC: 0.353126 (Simulation time: 0 hr 18 min 27 sec) 
Heartbeat CPU 0 instructions: 450000002 cycles: 1060571888 heartbeat IPC: 0.340448 cumulative IPC: 0.35275 (Simulation time: 0 hr 18 min 55 sec) 
Heartbeat CPU 0 instructions: 460000000 cycles: 1088345499 heartbeat IPC: 0.360054 cumulative IPC: 0.352949 (Simulation time: 0 hr 19 min 22 sec) 
Heartbeat CPU 0 instructions: 470000000 cycles: 1116036390 heartbeat IPC: 0.36113 cumulative IPC: 0.353165 (Simulation time: 0 hr 19 min 49 sec) 
Heartbeat CPU 0 instructions: 480000000 cycles: 1143973761 heartbeat IPC: 0.357943 cumulative IPC: 0.353289 (Simulation time: 0 hr 20 min 16 sec) 
Heartbeat CPU 0 instructions: 490000000 cycles: 1171607714 heartbeat IPC: 0.361874 cumulative IPC: 0.353504 (Simulation time: 0 hr 20 min 43 sec) 
Heartbeat CPU 0 instructions: 500000000 cycles: 1199993776 heartbeat IPC: 0.352286 cumulative IPC: 0.353474 (Simulation time: 0 hr 21 min 10 sec) 
Heartbeat CPU 0 instructions: 510000000 cycles: 1234893547 heartbeat IPC: 0.286535 cumulative IPC: 0.351471 (Simulation time: 0 hr 21 min 41 sec) 
Heartbeat CPU 0 instructions: 520000000 cycles: 1263023707 heartbeat IPC: 0.35549 cumulative IPC: 0.351566 (Simulation time: 0 hr 22 min 9 sec) 
Heartbeat CPU 0 instructions: 530000001 cycles: 1292534845 heartbeat IPC: 0.338855 cumulative IPC: 0.351259 (Simulation time: 0 hr 22 min 37 sec) 
Heartbeat CPU 0 instructions: 540000000 cycles: 1320715117 heartbeat IPC: 0.354858 cumulative IPC: 0.35134 (Simulation time: 0 hr 23 min 5 sec) 
Heartbeat CPU 0 instructions: 550000001 cycles: 1349981169 heartbeat IPC: 0.341693 cumulative IPC: 0.35112 (Simulation time: 0 hr 23 min 35 sec) 
Heartbeat CPU 0 instructions: 560000000 cycles: 1375416173 heartbeat IPC: 0.393159 cumulative IPC: 0.351938 (Simulation time: 0 hr 24 min 3 sec) 
Heartbeat CPU 0 instructions: 570000000 cycles: 1405182257 heartbeat IPC: 0.335953 cumulative IPC: 0.351582 (Simulation time: 0 hr 24 min 31 sec) 
Heartbeat CPU 0 instructions: 580000000 cycles: 1433291761 heartbeat IPC: 0.355752 cumulative IPC: 0.351668 (Simulation time: 0 hr 25 min 0 sec) 
Heartbeat CPU 0 instructions: 590000001 cycles: 1458070783 heartbeat IPC: 0.403567 cumulative IPC: 0.352594 (Simulation time: 0 hr 25 min 26 sec) 
Heartbeat CPU 0 instructions: 600000000 cycles: 1484215071 heartbeat IPC: 0.382493 cumulative IPC: 0.353146 (Simulation time: 0 hr 25 min 54 sec) 
Finished CPU 0 instructions: 500000000 cycles: 1415846527 cumulative IPC: 0.353146 (Simulation time: 0 hr 25 min 54 sec) 

CPU 0 Branch Prediction Accuracy: 86.4311% MPKI: 26.2662
Number of Branches: 96788573 Number of Mispredictions: 13133102
Number of LOAD Instructions: 164682285
Number of LOAD Instructions (ROI): 164682285
Number of STORE Instructions: 78194750
Number of STORE Instructions (ROI): 78194750
Total Destination Memory Operands: 83268534
Total Destination Memory Operands (ROI): 83268534
Total Source Memory Operands: 164712438
Total Source Memory Operands (ROI): 164712438
Number of DEPENDED LOADS: 7056515
Number of DEPENDED LOADS (ROI): 7056515
Number of SQ_ADDED: 83268522
Number of SQ_ADDED (ROI): 83268522
Number of LQ_ADDED: 236788606
Number of LQ_ADDED (ROI): 236788606
Number of Instructions read from trace: 600000066

ChampSim completed all CPUs

Region of Interest Statistics

CPU 0 cumulative IPC: 0.353146 instructions: 500000000 cycles: 1415846527
ITLB TOTAL     ACCESS:  100522512  HIT:  100318066  MISS:     204446
ITLB LOAD      ACCESS:  100522512  HIT:  100318066  MISS:     204446
ITLB RFO       ACCESS:          0  HIT:          0  MISS:          0
ITLB PREFETCH  ACCESS:          0  HIT:          0  MISS:          0
ITLB WRITEBACK ACCESS:          0  HIT:          0  MISS:          0
ITLB PREFETCH  REQUESTED:          0  ISSUED:          0  USEFUL:          0  USELESS:          0
ITLB TOTAL MSHR MERGED:     172424
ITLB LOAD MSHR MERGED:     172424
ITLB RFO MSHR MERGED:          0
ITLB PREFETCH MSHR MERGED:          0
ITLB WRITEBACK MSHR MERGED:          0
ITLB TOTAL ACCESSES:  100694936 HITS:  100318066 MISSES:     376870
ITLB LOAD ACCESSES:  100694936 HITS:  100318066 MISSES:     376870
ITLB RFO ACCESSES:          0 HITS:          0 MISSES:          0
ITLB PREFETCH ACCESSES:          0 HITS:          0 MISSES:          0
ITLB WRITEBACK ACCESSES:          0 HITS:          0 MISSES:          0
ITLB RQ ACCESS:  500000057
ITLB RQ TO_CACHE:  100694936
ITLB RQ MERGED:  399305121
ITLB RQ FORWARD:          0
ITLB WQ ACCESS:          0
ITLB WQ TO_CACHE:          0
ITLB WQ MERGED:          0
ITLB WQ FORWARD:          0
DTLB TOTAL     ACCESS:  165340739  HIT:  164706388  MISS:     634351
DTLB LOAD      ACCESS:  106295454  HIT:  105725468  MISS:     569986
DTLB RFO       ACCESS:   59045285  HIT:   58980920  MISS:      64365
DTLB PREFETCH  ACCESS:          0  HIT:          0  MISS:          0
DTLB WRITEBACK ACCESS:          0  HIT:          0  MISS:          0
DTLB PREFETCH  REQUESTED:          0  ISSUED:          0  USEFUL:          0  USELESS:          0
DTLB TOTAL MSHR MERGED:      99933
DTLB LOAD MSHR MERGED:      59397
DTLB RFO MSHR MERGED:      40536
DTLB PREFETCH MSHR MERGED:          0
DTLB WRITEBACK MSHR MERGED:          0
DTLB TOTAL ACCESSES:  165440672 HITS:  164706388 MISSES:     734284
DTLB LOAD ACCESSES:  106354851 HITS:  105725468 MISSES:     629383
DTLB RFO ACCESSES:   59085821 HITS:   58980920 MISSES:     104901
DTLB PREFETCH ACCESSES:          0 HITS:          0 MISSES:          0
DTLB WRITEBACK ACCESSES:          0 HITS:          0 MISSES:          0
DTLB RQ ACCESS:  200314401
DTLB RQ TO_CACHE:  165440672
DTLB RQ MERGED:   34873729
DTLB RQ FORWARD:          0
DTLB WQ ACCESS:          0
DTLB WQ TO_CACHE:          0
DTLB WQ MERGED:          0
DTLB WQ FORWARD:          0
L1D TOTAL     ACCESS:  281837743  HIT:  273928415  MISS:    7909328
L1D LOAD      ACCESS:  110420560  HIT:  107142057  MISS:    3278503
L1D RFO       ACCESS:   67118323  HIT:   66227656  MISS:     890667
L1D PREFETCH  ACCESS:  104298860  HIT:  100558702  MISS:    3740158
L1D WRITEBACK ACCESS:          0  HIT:          0  MISS:          0
L1D PREFETCH  REQUESTED:  110821385  ISSUED:  109122015  USEFUL:    1660873  USELESS:    2079249
L1D TOTAL MSHR MERGED:    2875545
L1D LOAD MSHR MERGED:     498879
L1D RFO MSHR MERGED:    1867570
L1D PREFETCH MSHR MERGED:     509096
L1D WRITEBACK MSHR MERGED:          0
L1D TOTAL ACCESSES:  284740806 HITS:  273955933 MISSES:   10784873
L1D LOAD ACCESSES:  110822904 HITS:  107143576 MISSES:    3679328
L1D RFO ACCESSES:   68974018 HITS:   66227656 MISSES:    2746362
L1D PREFETCH ACCESSES:  104943884 HITS:  100584701 MISSES:    4359183
L1D WRITEBACK ACCESSES:          0 HITS:          0 MISSES:          0
L1D RQ ACCESS:  130761798
L1D RQ TO_CACHE:  110821388
L1D RQ MERGED:   19938891
L1D RQ FORWARD:          0
L1D WQ ACCESS:   69552603
L1D WQ TO_CACHE:   68974019
L1D WQ MERGED:     578584
L1D WQ FORWARD:      27518
L1I TOTAL     ACCESS:  126569487  HIT:  122330935  MISS:    4238552
L1I LOAD      ACCESS:  126569487  HIT:  122330935  MISS:    4238552
L1I RFO       ACCESS:          0  HIT:          0  MISS:          0
L1I PREFETCH  ACCESS:          0  HIT:          0  MISS:          0
L1I WRITEBACK ACCESS:          0  HIT:          0  MISS:          0
L1I PREFETCH  REQUESTED:          0  ISSUED:          0  USEFUL:          0  USELESS:          0
L1I TOTAL MSHR MERGED:    1834855
L1I LOAD MSHR MERGED:    1834855
L1I RFO MSHR MERGED:          0
L1I PREFETCH MSHR MERGED:          0
L1I WRITEBACK MSHR MERGED:          0
L1I TOTAL ACCESSES:  128404345 HITS:  122330935 MISSES:    6073410
L1I LOAD ACCESSES:  128404345 HITS:  122330935 MISSES:    6073410
L1I RFO ACCESSES:          0 HITS:          0 MISSES:          0
L1I PREFETCH ACCESSES:          0 HITS:          0 MISSES:          0
L1I WRITEBACK ACCESSES:          0 HITS:          0 MISSES:          0
L1I RQ ACCESS:  500000057
L1I RQ TO_CACHE:  128404345
L1I RQ MERGED:  371595712
L1I RQ FORWARD:          0
L1I WQ ACCESS:          0
L1I WQ TO_CACHE:          0
L1I WQ MERGED:          0
L1I WQ FORWARD:          0
L2C TOTAL     ACCESS:   14905124  HIT:   11158732  MISS:    3746392
L2C LOAD      ACCESS:    7418793  HIT:    5098849  MISS:    2319944
L2C RFO       ACCESS:     878695  HIT:     409922  MISS:     468773
L2C PREFETCH  ACCESS:    4568406  HIT:    3627992  MISS:     940414
L2C WRITEBACK ACCESS:    2039230  HIT:    2021969  MISS:      17261
L2C PREFETCH  REQUESTED:     842696  ISSUED:     842696  USEFUL:     203360  USELESS:     736761
L2C TOTAL MSHR MERGED:       7117
L2C LOAD MSHR MERGED:        808
L2C RFO MSHR MERGED:          0
L2C PREFETCH MSHR MERGED:       6309
L2C WRITEBACK MSHR MERGED:          0
L2C TOTAL ACCESSES:   14913103 HITS:   11159182 MISSES:    3753921
L2C LOAD ACCESSES:    7419001 HITS:    5099057 MISSES:    2319944
L2C RFO ACCESSES:     878792 HITS:     410019 MISSES:     468773
L2C PREFETCH ACCESSES:    4576080 HITS:    3628137 MISSES:     947943
L2C WRITEBACK ACCESSES:    2039230 HITS:    2021969 MISSES:      17261
L2C RQ ACCESS:    8297796
L2C RQ TO_CACHE:    8297491
L2C RQ MERGED:          0
L2C RQ FORWARD:          0
L2C WQ ACCESS:    2039230
L2C WQ TO_CACHE:    2039230
L2C WQ MERGED:          0
L2C WQ FORWARD:        450
LLC TOTAL     ACCESS:    4609671  HIT:    3924781  MISS:     684890
LLC LOAD      ACCESS:    2319122  HIT:    2026838  MISS:     292284
LLC RFO       ACCESS:     468762  HIT:     403480  MISS:      65282
LLC PREFETCH  ACCESS:     941533  HIT:     646921  MISS:     294612
LLC WRITEBACK ACCESS:     880254  HIT:     847542  MISS:      32712
LLC PREFETCH  REQUESTED:          0  ISSUED:          0  USEFUL:      15829  USELESS:     278553
LLC TOTAL MSHR MERGED:         81
LLC LOAD MSHR MERGED:         30
LLC RFO MSHR MERGED:          0
LLC PREFETCH MSHR MERGED:         51
LLC WRITEBACK MSHR MERGED:          0
LLC TOTAL ACCESSES:    4609788 HITS:    3924817 MISSES:     684971
LLC LOAD ACCESSES:    2319136 HITS:    2026852 MISSES:     292284
LLC RFO ACCESSES:     468773 HITS:     403491 MISSES:      65282
LLC PREFETCH ACCESSES:     941625 HITS:     646932 MISSES:     294693
LLC WRITEBACK ACCESSES:     880254 HITS:     847542 MISSES:      32712
LLC 0 RQ ACCESS:    2787909
LLC 0 RQ TO_CACHE:    2787884
LLC 0 RQ MERGED:          0
LLC 0 RQ FORWARD:          0
LLC WQ ACCESS:     880254
LLC WQ TO_CACHE:     880254
LLC WQ MERGED:          0
LLC WQ FORWARD:         36
Major fault: 0 Minor fault: 12862
CPU 0 L1D next line prefetcher final stats
CPU 0 L2C PC-based stride prefetcher final stats
All Misses: 812426
All Hits: 4614249
SD Algo Stats - Switches: 0 SRR-Repls: 342889 BRR-Repls: 0

DRAM Statistics
 CHANNEL 0
 RQ ROW_BUFFER_HIT:     133436  ROW_BUFFER_MISS:     517177
 DBUS_CONGESTED:     342211
 WQ ROW_BUFFER_HIT:      11909  ROW_BUFFER_MISS:     167425  FULL:          0

 AVG_CONGESTED_CYCLE: 13
LOADS RETIRED: 136549171
INSTR RETIRED: 500000000
