
*** ChampSim Multicore Out-of-Order Simulator ***

Warmup Instructions: 100000000
Simulation Instructions: 500000000
Number of CPUs: 1
LLC sets: 2048
LLC ways: 16
Clean RRIP Policies: 13130300131303 Dirty RRIP Policies: 2013232320132323 PSEL Width: 10 Track Set: 4294967295 PSEL Mask: 1 Demote Mask: 4140000041400000DS Algo: 0Window size: 0
Off-chip DRAM Size: 4096 MB Channels: 1 Width: 64-bit Data Rate: 1600 MT/s

CPU 0 runs /mnt/beegfs/iconst01/spec2017/Gcc.trace.gz
NOT SORTED
TRACE STRING: /mnt/beegfs/iconst01/spec2017/Gcc.trace.gz
SORTED
TRACE STRING: /mnt/beegfs/iconst01/spec2017/Gcc.trace.gz
INITIAL
TRACE STRING: /mnt/beegfs/iconst01/spec2017/Gcc.trace.gz

champsim_seed used: 269

CPU 0 L1D next line prefetcher
CPU 0 L2C IP-based stride prefetcher
Initialize DRRIP state
Assign rand_sets[0]: 454  LLC: 2048
rand_sets[0]: 454
Assign rand_sets[1]: 1662  LLC: 2048
rand_sets[1]: 1662
Assign rand_sets[2]: 1921  LLC: 2048
rand_sets[2]: 1921
Assign rand_sets[3]: 1131  LLC: 2048
rand_sets[3]: 1131
Assign rand_sets[4]: 331  LLC: 2048
rand_sets[4]: 331
Assign rand_sets[5]: 1531  LLC: 2048
rand_sets[5]: 1531
Assign rand_sets[6]: 482  LLC: 2048
rand_sets[6]: 482
Assign rand_sets[7]: 1275  LLC: 2048
rand_sets[7]: 1275
Assign rand_sets[8]: 1876  LLC: 2048
rand_sets[8]: 1876
Assign rand_sets[9]: 2038  LLC: 2048
rand_sets[9]: 2038
Assign rand_sets[10]: 701  LLC: 2048
rand_sets[10]: 701
Assign rand_sets[11]: 479  LLC: 2048
rand_sets[11]: 479
Assign rand_sets[12]: 892  LLC: 2048
rand_sets[12]: 892
Assign rand_sets[13]: 1820  LLC: 2048
rand_sets[13]: 1820
Assign rand_sets[14]: 1505  LLC: 2048
rand_sets[14]: 1505
Assign rand_sets[15]: 1159  LLC: 2048
rand_sets[15]: 1159
Assign rand_sets[16]: 513  LLC: 2048
rand_sets[16]: 513
Assign rand_sets[17]: 703  LLC: 2048
rand_sets[17]: 703
Assign rand_sets[18]: 561  LLC: 2048
rand_sets[18]: 561
Assign rand_sets[19]: 990  LLC: 2048
rand_sets[19]: 990
Assign rand_sets[20]: 342  LLC: 2048
rand_sets[20]: 342
Assign rand_sets[21]: 882  LLC: 2048
rand_sets[21]: 882
Assign rand_sets[22]: 15  LLC: 2048
rand_sets[22]: 15
Assign rand_sets[23]: 71  LLC: 2048
rand_sets[23]: 71
Assign rand_sets[24]: 1127  LLC: 2048
rand_sets[24]: 1127
Assign rand_sets[25]: 1382  LLC: 2048
rand_sets[25]: 1382
Assign rand_sets[26]: 647  LLC: 2048
rand_sets[26]: 647
Assign rand_sets[27]: 857  LLC: 2048
rand_sets[27]: 857
Assign rand_sets[28]: 1450  LLC: 2048
rand_sets[28]: 1450
Assign rand_sets[29]: 1160  LLC: 2048
rand_sets[29]: 1160
Assign rand_sets[30]: 1852  LLC: 2048
rand_sets[30]: 1852
Assign rand_sets[31]: 1881  LLC: 2048
rand_sets[31]: 1881
Assign rand_sets[32]: 1770  LLC: 2048
rand_sets[32]: 1770
Assign rand_sets[33]: 1622  LLC: 2048
rand_sets[33]: 1622
Assign rand_sets[34]: 275  LLC: 2048
rand_sets[34]: 275
Assign rand_sets[35]: 635  LLC: 2048
rand_sets[35]: 635
Assign rand_sets[36]: 466  LLC: 2048
rand_sets[36]: 466
Assign rand_sets[37]: 1413  LLC: 2048
rand_sets[37]: 1413
Assign rand_sets[38]: 417  LLC: 2048
rand_sets[38]: 417
Assign rand_sets[39]: 472  LLC: 2048
rand_sets[39]: 472
Assign rand_sets[40]: 1340  LLC: 2048
rand_sets[40]: 1340
Assign rand_sets[41]: 852  LLC: 2048
rand_sets[41]: 852
Assign rand_sets[42]: 1365  LLC: 2048
rand_sets[42]: 1365
Assign rand_sets[43]: 47  LLC: 2048
rand_sets[43]: 47
Assign rand_sets[44]: 823  LLC: 2048
rand_sets[44]: 823
Assign rand_sets[45]: 686  LLC: 2048
rand_sets[45]: 686
Assign rand_sets[46]: 1637  LLC: 2048
rand_sets[46]: 1637
Assign rand_sets[47]: 1115  LLC: 2048
rand_sets[47]: 1115
Assign rand_sets[48]: 986  LLC: 2048
rand_sets[48]: 986
Assign rand_sets[49]: 258  LLC: 2048
rand_sets[49]: 258
Assign rand_sets[50]: 633  LLC: 2048
rand_sets[50]: 633
Assign rand_sets[51]: 920  LLC: 2048
rand_sets[51]: 920
Assign rand_sets[52]: 204  LLC: 2048
rand_sets[52]: 204
Assign rand_sets[53]: 227  LLC: 2048
rand_sets[53]: 227
Assign rand_sets[54]: 1818  LLC: 2048
rand_sets[54]: 1818
Assign rand_sets[55]: 886  LLC: 2048
rand_sets[55]: 886
Assign rand_sets[56]: 1422  LLC: 2048
rand_sets[56]: 1422
Assign rand_sets[57]: 607  LLC: 2048
rand_sets[57]: 607
Assign rand_sets[58]: 217  LLC: 2048
rand_sets[58]: 217
Assign rand_sets[59]: 1945  LLC: 2048
rand_sets[59]: 1945
Assign rand_sets[60]: 143  LLC: 2048
rand_sets[60]: 143
Assign rand_sets[61]: 1311  LLC: 2048
rand_sets[61]: 1311
Assign rand_sets[62]: 319  LLC: 2048
rand_sets[62]: 319
Assign rand_sets[63]: 1846  LLC: 2048
rand_sets[63]: 1846
 CLEAN-RRIP-POLICY-1: 0-0-1-3-1-3-0-3- CLEAN-RRIP-POLICY-2: 0-0-1-3-1-3-0-3-
 DIRTY-RRIP-POLICY-1: 2-0-1-3-2-3-2-3- DIRTY-RRIP-POLICY-2: 2-0-1-3-2-3-2-3-
 PSEL width: 10
Heartbeat CPU 0 instructions: 10000001 cycles: 7321461 heartbeat IPC: 1.36585 cumulative IPC: 1.36585 (Simulation time: 0 hr 0 min 15 sec) 
Heartbeat CPU 0 instructions: 20000000 cycles: 14327738 heartbeat IPC: 1.42729 cumulative IPC: 1.39589 (Simulation time: 0 hr 0 min 30 sec) 
Heartbeat CPU 0 instructions: 30000001 cycles: 21044927 heartbeat IPC: 1.48872 cumulative IPC: 1.42552 (Simulation time: 0 hr 0 min 46 sec) 
Heartbeat CPU 0 instructions: 40000000 cycles: 27507149 heartbeat IPC: 1.54746 cumulative IPC: 1.45417 (Simulation time: 0 hr 1 min 2 sec) 
Heartbeat CPU 0 instructions: 50000001 cycles: 33610087 heartbeat IPC: 1.63856 cumulative IPC: 1.48765 (Simulation time: 0 hr 1 min 17 sec) 
Heartbeat CPU 0 instructions: 60000000 cycles: 40092386 heartbeat IPC: 1.54266 cumulative IPC: 1.49654 (Simulation time: 0 hr 1 min 33 sec) 
Heartbeat CPU 0 instructions: 70000000 cycles: 47135808 heartbeat IPC: 1.41976 cumulative IPC: 1.48507 (Simulation time: 0 hr 1 min 48 sec) 
Heartbeat CPU 0 instructions: 80000000 cycles: 54231382 heartbeat IPC: 1.40933 cumulative IPC: 1.47516 (Simulation time: 0 hr 2 min 2 sec) 
Heartbeat CPU 0 instructions: 90000003 cycles: 61241775 heartbeat IPC: 1.42645 cumulative IPC: 1.46959 (Simulation time: 0 hr 2 min 17 sec) 
Heartbeat CPU 0 instructions: 100000000 cycles: 68414824 heartbeat IPC: 1.39411 cumulative IPC: 1.46167 (Simulation time: 0 hr 2 min 31 sec) 

Warmup complete CPU 0 instructions: 100000004 cycles: 68414825 (Simulation time: 0 hr 2 min 31 sec) 

Heartbeat CPU 0 instructions: 110000003 cycles: 96903754 heartbeat IPC: 0.351014 cumulative IPC: 0.351014 (Simulation time: 0 hr 3 min 0 sec) 
Heartbeat CPU 0 instructions: 120000000 cycles: 124592985 heartbeat IPC: 0.361151 cumulative IPC: 0.35601 (Simulation time: 0 hr 3 min 29 sec) 
Heartbeat CPU 0 instructions: 130000000 cycles: 149799419 heartbeat IPC: 0.396724 cumulative IPC: 0.36862 (Simulation time: 0 hr 3 min 57 sec) 
Heartbeat CPU 0 instructions: 140000000 cycles: 180731531 heartbeat IPC: 0.323289 cumulative IPC: 0.356136 (Simulation time: 0 hr 4 min 25 sec) 
Heartbeat CPU 0 instructions: 150000000 cycles: 211508229 heartbeat IPC: 0.324921 cumulative IPC: 0.349422 (Simulation time: 0 hr 4 min 54 sec) 
Heartbeat CPU 0 instructions: 160000000 cycles: 239200334 heartbeat IPC: 0.361114 cumulative IPC: 0.351318 (Simulation time: 0 hr 5 min 22 sec) 
Heartbeat CPU 0 instructions: 170000001 cycles: 267553928 heartbeat IPC: 0.352689 cumulative IPC: 0.351513 (Simulation time: 0 hr 5 min 51 sec) 
Heartbeat CPU 0 instructions: 180000000 cycles: 296369318 heartbeat IPC: 0.347037 cumulative IPC: 0.350947 (Simulation time: 0 hr 6 min 20 sec) 
Heartbeat CPU 0 instructions: 190000002 cycles: 324835686 heartbeat IPC: 0.351292 cumulative IPC: 0.350985 (Simulation time: 0 hr 6 min 49 sec) 
Heartbeat CPU 0 instructions: 200000000 cycles: 353601034 heartbeat IPC: 0.34764 cumulative IPC: 0.350648 (Simulation time: 0 hr 7 min 18 sec) 
Heartbeat CPU 0 instructions: 210000002 cycles: 381879921 heartbeat IPC: 0.353621 cumulative IPC: 0.350916 (Simulation time: 0 hr 7 min 46 sec) 
Heartbeat CPU 0 instructions: 220000000 cycles: 412213186 heartbeat IPC: 0.329671 cumulative IPC: 0.349042 (Simulation time: 0 hr 8 min 14 sec) 
Heartbeat CPU 0 instructions: 230000000 cycles: 440285574 heartbeat IPC: 0.356222 cumulative IPC: 0.349584 (Simulation time: 0 hr 8 min 42 sec) 
Heartbeat CPU 0 instructions: 240000000 cycles: 466548680 heartbeat IPC: 0.380762 cumulative IPC: 0.351641 (Simulation time: 0 hr 9 min 10 sec) 
Heartbeat CPU 0 instructions: 250000000 cycles: 496814557 heartbeat IPC: 0.330405 cumulative IPC: 0.35014 (Simulation time: 0 hr 9 min 40 sec) 
Heartbeat CPU 0 instructions: 260000000 cycles: 524040201 heartbeat IPC: 0.367301 cumulative IPC: 0.351166 (Simulation time: 0 hr 10 min 8 sec) 
Heartbeat CPU 0 instructions: 270000003 cycles: 552674802 heartbeat IPC: 0.349228 cumulative IPC: 0.351051 (Simulation time: 0 hr 10 min 38 sec) 
Heartbeat CPU 0 instructions: 280000000 cycles: 581110358 heartbeat IPC: 0.351672 cumulative IPC: 0.351086 (Simulation time: 0 hr 11 min 8 sec) 
Heartbeat CPU 0 instructions: 290000000 cycles: 610223021 heartbeat IPC: 0.343493 cumulative IPC: 0.350678 (Simulation time: 0 hr 11 min 38 sec) 
Heartbeat CPU 0 instructions: 300000000 cycles: 640998246 heartbeat IPC: 0.324937 cumulative IPC: 0.349294 (Simulation time: 0 hr 12 min 6 sec) 
Heartbeat CPU 0 instructions: 310000001 cycles: 670974829 heartbeat IPC: 0.333594 cumulative IPC: 0.348513 (Simulation time: 0 hr 12 min 35 sec) 
