
*** ChampSim Multicore Out-of-Order Simulator ***

Warmup Instructions: 100000000
Simulation Instructions: 500000000
Number of CPUs: 1
LLC sets: 2048
LLC ways: 16
Clean RRIP Policies: 122000201220002 Dirty RRIP Policies: 1112100211121002 PSEL Width: 10 Track Set: 4294967295 PSEL Mask: 1 Demote Mask: 1011313410113134DS Algo: 0Window size: 0
Off-chip DRAM Size: 4096 MB Channels: 1 Width: 64-bit Data Rate: 1600 MT/s

CPU 0 runs /mnt/beegfs/iconst01/spec2017/Gcc.trace.gz
NOT SORTED
TRACE STRING: /mnt/beegfs/iconst01/spec2017/Gcc.trace.gz
SORTED
TRACE STRING: /mnt/beegfs/iconst01/spec2017/Gcc.trace.gz
INITIAL
TRACE STRING: /mnt/beegfs/iconst01/spec2017/Gcc.trace.gz

champsim_seed used: 269

CPU 0 L1D next line prefetcher
CPU 0 L2C IP-based stride prefetcher
Initialize DRRIP state
Assign rand_sets[0]: 454  LLC: 2048
rand_sets[0]: 454
Assign rand_sets[1]: 1662  LLC: 2048
rand_sets[1]: 1662
Assign rand_sets[2]: 1921  LLC: 2048
rand_sets[2]: 1921
Assign rand_sets[3]: 1131  LLC: 2048
rand_sets[3]: 1131
Assign rand_sets[4]: 331  LLC: 2048
rand_sets[4]: 331
Assign rand_sets[5]: 1531  LLC: 2048
rand_sets[5]: 1531
Assign rand_sets[6]: 482  LLC: 2048
rand_sets[6]: 482
Assign rand_sets[7]: 1275  LLC: 2048
rand_sets[7]: 1275
Assign rand_sets[8]: 1876  LLC: 2048
rand_sets[8]: 1876
Assign rand_sets[9]: 2038  LLC: 2048
rand_sets[9]: 2038
Assign rand_sets[10]: 701  LLC: 2048
rand_sets[10]: 701
Assign rand_sets[11]: 479  LLC: 2048
rand_sets[11]: 479
Assign rand_sets[12]: 892  LLC: 2048
rand_sets[12]: 892
Assign rand_sets[13]: 1820  LLC: 2048
rand_sets[13]: 1820
Assign rand_sets[14]: 1505  LLC: 2048
rand_sets[14]: 1505
Assign rand_sets[15]: 1159  LLC: 2048
rand_sets[15]: 1159
Assign rand_sets[16]: 513  LLC: 2048
rand_sets[16]: 513
Assign rand_sets[17]: 703  LLC: 2048
rand_sets[17]: 703
Assign rand_sets[18]: 561  LLC: 2048
rand_sets[18]: 561
Assign rand_sets[19]: 990  LLC: 2048
rand_sets[19]: 990
Assign rand_sets[20]: 342  LLC: 2048
rand_sets[20]: 342
Assign rand_sets[21]: 882  LLC: 2048
rand_sets[21]: 882
Assign rand_sets[22]: 15  LLC: 2048
rand_sets[22]: 15
Assign rand_sets[23]: 71  LLC: 2048
rand_sets[23]: 71
Assign rand_sets[24]: 1127  LLC: 2048
rand_sets[24]: 1127
Assign rand_sets[25]: 1382  LLC: 2048
rand_sets[25]: 1382
Assign rand_sets[26]: 647  LLC: 2048
rand_sets[26]: 647
Assign rand_sets[27]: 857  LLC: 2048
rand_sets[27]: 857
Assign rand_sets[28]: 1450  LLC: 2048
rand_sets[28]: 1450
Assign rand_sets[29]: 1160  LLC: 2048
rand_sets[29]: 1160
Assign rand_sets[30]: 1852  LLC: 2048
rand_sets[30]: 1852
Assign rand_sets[31]: 1881  LLC: 2048
rand_sets[31]: 1881
Assign rand_sets[32]: 1770  LLC: 2048
rand_sets[32]: 1770
Assign rand_sets[33]: 1622  LLC: 2048
rand_sets[33]: 1622
Assign rand_sets[34]: 275  LLC: 2048
rand_sets[34]: 275
Assign rand_sets[35]: 635  LLC: 2048
rand_sets[35]: 635
Assign rand_sets[36]: 466  LLC: 2048
rand_sets[36]: 466
Assign rand_sets[37]: 1413  LLC: 2048
rand_sets[37]: 1413
Assign rand_sets[38]: 417  LLC: 2048
rand_sets[38]: 417
Assign rand_sets[39]: 472  LLC: 2048
rand_sets[39]: 472
Assign rand_sets[40]: 1340  LLC: 2048
rand_sets[40]: 1340
Assign rand_sets[41]: 852  LLC: 2048
rand_sets[41]: 852
Assign rand_sets[42]: 1365  LLC: 2048
rand_sets[42]: 1365
Assign rand_sets[43]: 47  LLC: 2048
rand_sets[43]: 47
Assign rand_sets[44]: 823  LLC: 2048
rand_sets[44]: 823
Assign rand_sets[45]: 686  LLC: 2048
rand_sets[45]: 686
Assign rand_sets[46]: 1637  LLC: 2048
rand_sets[46]: 1637
Assign rand_sets[47]: 1115  LLC: 2048
rand_sets[47]: 1115
Assign rand_sets[48]: 986  LLC: 2048
rand_sets[48]: 986
Assign rand_sets[49]: 258  LLC: 2048
rand_sets[49]: 258
Assign rand_sets[50]: 633  LLC: 2048
rand_sets[50]: 633
Assign rand_sets[51]: 920  LLC: 2048
rand_sets[51]: 920
Assign rand_sets[52]: 204  LLC: 2048
rand_sets[52]: 204
Assign rand_sets[53]: 227  LLC: 2048
rand_sets[53]: 227
Assign rand_sets[54]: 1818  LLC: 2048
rand_sets[54]: 1818
Assign rand_sets[55]: 886  LLC: 2048
rand_sets[55]: 886
Assign rand_sets[56]: 1422  LLC: 2048
rand_sets[56]: 1422
Assign rand_sets[57]: 607  LLC: 2048
rand_sets[57]: 607
Assign rand_sets[58]: 217  LLC: 2048
rand_sets[58]: 217
Assign rand_sets[59]: 1945  LLC: 2048
rand_sets[59]: 1945
Assign rand_sets[60]: 143  LLC: 2048
rand_sets[60]: 143
Assign rand_sets[61]: 1311  LLC: 2048
rand_sets[61]: 1311
Assign rand_sets[62]: 319  LLC: 2048
rand_sets[62]: 319
Assign rand_sets[63]: 1846  LLC: 2048
rand_sets[63]: 1846
 CLEAN-RRIP-POLICY-1: 0-1-2-2-0-0-0-2- CLEAN-RRIP-POLICY-2: 0-1-2-2-0-0-0-2-
 DIRTY-RRIP-POLICY-1: 1-1-1-2-1-0-0-2- DIRTY-RRIP-POLICY-2: 1-1-1-2-1-0-0-2-
 PSEL width: 10
Heartbeat CPU 0 instructions: 10000001 cycles: 7315928 heartbeat IPC: 1.36688 cumulative IPC: 1.36688 (Simulation time: 0 hr 0 min 15 sec) 
Heartbeat CPU 0 instructions: 20000000 cycles: 14308467 heartbeat IPC: 1.4301 cumulative IPC: 1.39777 (Simulation time: 0 hr 0 min 29 sec) 
Heartbeat CPU 0 instructions: 30000001 cycles: 21021945 heartbeat IPC: 1.48954 cumulative IPC: 1.42708 (Simulation time: 0 hr 0 min 45 sec) 
Heartbeat CPU 0 instructions: 40000000 cycles: 27482787 heartbeat IPC: 1.54779 cumulative IPC: 1.45546 (Simulation time: 0 hr 1 min 2 sec) 
Heartbeat CPU 0 instructions: 50000001 cycles: 33584319 heartbeat IPC: 1.63893 cumulative IPC: 1.48879 (Simulation time: 0 hr 1 min 17 sec) 
Heartbeat CPU 0 instructions: 60000000 cycles: 40065405 heartbeat IPC: 1.54295 cumulative IPC: 1.49755 (Simulation time: 0 hr 1 min 33 sec) 
Heartbeat CPU 0 instructions: 70000000 cycles: 47104967 heartbeat IPC: 1.42054 cumulative IPC: 1.48604 (Simulation time: 0 hr 1 min 48 sec) 
Heartbeat CPU 0 instructions: 80000000 cycles: 54196395 heartbeat IPC: 1.41015 cumulative IPC: 1.47611 (Simulation time: 0 hr 2 min 3 sec) 
Heartbeat CPU 0 instructions: 90000003 cycles: 61202090 heartbeat IPC: 1.42741 cumulative IPC: 1.47054 (Simulation time: 0 hr 2 min 18 sec) 
Heartbeat CPU 0 instructions: 100000000 cycles: 68370677 heartbeat IPC: 1.39497 cumulative IPC: 1.46262 (Simulation time: 0 hr 2 min 32 sec) 

Warmup complete CPU 0 instructions: 100000004 cycles: 68370678 (Simulation time: 0 hr 2 min 32 sec) 

Heartbeat CPU 0 instructions: 110000003 cycles: 96285445 heartbeat IPC: 0.358233 cumulative IPC: 0.358233 (Simulation time: 0 hr 3 min 1 sec) 
Heartbeat CPU 0 instructions: 120000000 cycles: 123792230 heartbeat IPC: 0.363547 cumulative IPC: 0.36087 (Simulation time: 0 hr 3 min 30 sec) 
Heartbeat CPU 0 instructions: 130000000 cycles: 148753823 heartbeat IPC: 0.400615 cumulative IPC: 0.373213 (Simulation time: 0 hr 3 min 59 sec) 
Heartbeat CPU 0 instructions: 140000000 cycles: 178727766 heartbeat IPC: 0.333623 cumulative IPC: 0.36246 (Simulation time: 0 hr 4 min 27 sec) 
Heartbeat CPU 0 instructions: 150000000 cycles: 208940809 heartbeat IPC: 0.330983 cumulative IPC: 0.355694 (Simulation time: 0 hr 4 min 56 sec) 
Heartbeat CPU 0 instructions: 160000000 cycles: 236408787 heartbeat IPC: 0.36406 cumulative IPC: 0.357062 (Simulation time: 0 hr 5 min 24 sec) 
Heartbeat CPU 0 instructions: 170000001 cycles: 264502460 heartbeat IPC: 0.355952 cumulative IPC: 0.356903 (Simulation time: 0 hr 5 min 54 sec) 
Heartbeat CPU 0 instructions: 180000000 cycles: 293152038 heartbeat IPC: 0.349045 cumulative IPC: 0.355901 (Simulation time: 0 hr 6 min 23 sec) 
Heartbeat CPU 0 instructions: 190000002 cycles: 321288687 heartbeat IPC: 0.355408 cumulative IPC: 0.355847 (Simulation time: 0 hr 6 min 52 sec) 
Heartbeat CPU 0 instructions: 200000000 cycles: 349901683 heartbeat IPC: 0.349491 cumulative IPC: 0.355201 (Simulation time: 0 hr 7 min 21 sec) 
Heartbeat CPU 0 instructions: 210000002 cycles: 377849963 heartbeat IPC: 0.357804 cumulative IPC: 0.355436 (Simulation time: 0 hr 7 min 50 sec) 
Heartbeat CPU 0 instructions: 220000000 cycles: 407430833 heartbeat IPC: 0.338056 cumulative IPC: 0.353919 (Simulation time: 0 hr 8 min 18 sec) 
Heartbeat CPU 0 instructions: 230000000 cycles: 435175160 heartbeat IPC: 0.360434 cumulative IPC: 0.354412 (Simulation time: 0 hr 8 min 46 sec) 
Heartbeat CPU 0 instructions: 240000000 cycles: 461389523 heartbeat IPC: 0.38147 cumulative IPC: 0.356217 (Simulation time: 0 hr 9 min 13 sec) 
Heartbeat CPU 0 instructions: 250000000 cycles: 491635580 heartbeat IPC: 0.330622 cumulative IPC: 0.354388 (Simulation time: 0 hr 9 min 43 sec) 
Heartbeat CPU 0 instructions: 260000000 cycles: 518723385 heartbeat IPC: 0.36917 cumulative IPC: 0.355277 (Simulation time: 0 hr 10 min 11 sec) 
Heartbeat CPU 0 instructions: 270000003 cycles: 547184157 heartbeat IPC: 0.351361 cumulative IPC: 0.355044 (Simulation time: 0 hr 10 min 41 sec) 
Heartbeat CPU 0 instructions: 280000000 cycles: 575610769 heartbeat IPC: 0.351783 cumulative IPC: 0.354862 (Simulation time: 0 hr 11 min 10 sec) 
Heartbeat CPU 0 instructions: 290000000 cycles: 604540859 heartbeat IPC: 0.345661 cumulative IPC: 0.354365 (Simulation time: 0 hr 11 min 40 sec) 
Heartbeat CPU 0 instructions: 300000000 cycles: 634886332 heartbeat IPC: 0.329538 cumulative IPC: 0.353035 (Simulation time: 0 hr 12 min 9 sec) 
Heartbeat CPU 0 instructions: 310000001 cycles: 664646435 heartbeat IPC: 0.33602 cumulative IPC: 0.352186 (Simulation time: 0 hr 12 min 37 sec) 
Heartbeat CPU 0 instructions: 320000000 cycles: 693157379 heartbeat IPC: 0.350742 cumulative IPC: 0.35212 (Simulation time: 0 hr 13 min 5 sec) 
Heartbeat CPU 0 instructions: 330000000 cycles: 721935707 heartbeat IPC: 0.347484 cumulative IPC: 0.351916 (Simulation time: 0 hr 13 min 34 sec) 
Heartbeat CPU 0 instructions: 340000000 cycles: 751531718 heartbeat IPC: 0.337883 cumulative IPC: 0.351308 (Simulation time: 0 hr 14 min 3 sec) 
Heartbeat CPU 0 instructions: 350000003 cycles: 778649641 heartbeat IPC: 0.36876 cumulative IPC: 0.351974 (Simulation time: 0 hr 14 min 31 sec) 
Heartbeat CPU 0 instructions: 360000000 cycles: 807498185 heartbeat IPC: 0.346638 cumulative IPC: 0.351766 (Simulation time: 0 hr 14 min 58 sec) 
Heartbeat CPU 0 instructions: 370000000 cycles: 836256100 heartbeat IPC: 0.34773 cumulative IPC: 0.351615 (Simulation time: 0 hr 15 min 26 sec) 
Heartbeat CPU 0 instructions: 380000000 cycles: 865316601 heartbeat IPC: 0.34411 cumulative IPC: 0.351341 (Simulation time: 0 hr 15 min 53 sec) 
Heartbeat CPU 0 instructions: 390000001 cycles: 893360594 heartbeat IPC: 0.356583 cumulative IPC: 0.351519 (Simulation time: 0 hr 16 min 21 sec) 
Heartbeat CPU 0 instructions: 400000000 cycles: 922427631 heartbeat IPC: 0.344032 cumulative IPC: 0.351265 (Simulation time: 0 hr 16 min 48 sec) 
Heartbeat CPU 0 instructions: 410000001 cycles: 950077733 heartbeat IPC: 0.361662 cumulative IPC: 0.351591 (Simulation time: 0 hr 17 min 15 sec) 
Heartbeat CPU 0 instructions: 420000000 cycles: 977704055 heartbeat IPC: 0.361974 cumulative IPC: 0.351906 (Simulation time: 0 hr 17 min 43 sec) 
Heartbeat CPU 0 instructions: 430000002 cycles: 1005715326 heartbeat IPC: 0.356999 cumulative IPC: 0.352058 (Simulation time: 0 hr 18 min 10 sec) 
Heartbeat CPU 0 instructions: 440000000 cycles: 1035584015 heartbeat IPC: 0.334799 cumulative IPC: 0.351525 (Simulation time: 0 hr 18 min 38 sec) 
Heartbeat CPU 0 instructions: 450000002 cycles: 1065202972 heartbeat IPC: 0.337622 cumulative IPC: 0.351112 (Simulation time: 0 hr 19 min 5 sec) 
Heartbeat CPU 0 instructions: 460000000 cycles: 1093198357 heartbeat IPC: 0.357202 cumulative IPC: 0.351279 (Simulation time: 0 hr 19 min 33 sec) 
Heartbeat CPU 0 instructions: 470000000 cycles: 1121071747 heartbeat IPC: 0.358765 cumulative IPC: 0.351477 (Simulation time: 0 hr 20 min 0 sec) 
Heartbeat CPU 0 instructions: 480000000 cycles: 1149172152 heartbeat IPC: 0.355867 cumulative IPC: 0.351591 (Simulation time: 0 hr 20 min 27 sec) 
Heartbeat CPU 0 instructions: 490000000 cycles: 1176962711 heartbeat IPC: 0.359834 cumulative IPC: 0.351798 (Simulation time: 0 hr 20 min 55 sec) 
Heartbeat CPU 0 instructions: 500000000 cycles: 1205428231 heartbeat IPC: 0.351302 cumulative IPC: 0.351785 (Simulation time: 0 hr 21 min 22 sec) 
Heartbeat CPU 0 instructions: 510000000 cycles: 1240790491 heartbeat IPC: 0.282787 cumulative IPC: 0.349704 (Simulation time: 0 hr 21 min 53 sec) 
Heartbeat CPU 0 instructions: 520000000 cycles: 1268552807 heartbeat IPC: 0.3602 cumulative IPC: 0.349947 (Simulation time: 0 hr 22 min 22 sec) 
Heartbeat CPU 0 instructions: 530000001 cycles: 1298370506 heartbeat IPC: 0.335371 cumulative IPC: 0.349594 (Simulation time: 0 hr 22 min 50 sec) 
Heartbeat CPU 0 instructions: 540000000 cycles: 1326932293 heartbeat IPC: 0.350118 cumulative IPC: 0.349605 (Simulation time: 0 hr 23 min 19 sec) 
Heartbeat CPU 0 instructions: 550000001 cycles: 1356280106 heartbeat IPC: 0.340741 cumulative IPC: 0.349403 (Simulation time: 0 hr 23 min 49 sec) 
Heartbeat CPU 0 instructions: 560000000 cycles: 1381731145 heartbeat IPC: 0.392911 cumulative IPC: 0.350247 (Simulation time: 0 hr 24 min 16 sec) 
Heartbeat CPU 0 instructions: 570000000 cycles: 1411641015 heartbeat IPC: 0.334338 cumulative IPC: 0.349892 (Simulation time: 0 hr 24 min 46 sec) 
Heartbeat CPU 0 instructions: 580000000 cycles: 1439943308 heartbeat IPC: 0.353328 cumulative IPC: 0.349963 (Simulation time: 0 hr 25 min 14 sec) 
Heartbeat CPU 0 instructions: 590000001 cycles: 1464914414 heartbeat IPC: 0.400463 cumulative IPC: 0.350866 (Simulation time: 0 hr 25 min 41 sec) 
Heartbeat CPU 0 instructions: 600000000 cycles: 1491609964 heartbeat IPC: 0.374594 cumulative IPC: 0.351311 (Simulation time: 0 hr 26 min 9 sec) 
Finished CPU 0 instructions: 500000000 cycles: 1423239308 cumulative IPC: 0.351311 (Simulation time: 0 hr 26 min 9 sec) 

CPU 0 Branch Prediction Accuracy: 86.4311% MPKI: 26.2662
Number of Branches: 96788573 Number of Mispredictions: 13133102
Number of LOAD Instructions: 164682285
Number of LOAD Instructions (ROI): 164682285
Number of STORE Instructions: 78194750
Number of STORE Instructions (ROI): 78194750
Total Destination Memory Operands: 83268534
Total Destination Memory Operands (ROI): 83268534
Total Source Memory Operands: 164712438
Total Source Memory Operands (ROI): 164712438
Number of DEPENDED LOADS: 7062519
Number of DEPENDED LOADS (ROI): 7062519
Number of SQ_ADDED: 83268522
Number of SQ_ADDED (ROI): 83268522
Number of LQ_ADDED: 236541403
Number of LQ_ADDED (ROI): 236541403
Number of Instructions read from trace: 600000066

ChampSim completed all CPUs

Region of Interest Statistics

CPU 0 cumulative IPC: 0.351311 instructions: 500000000 cycles: 1423239308
ITLB TOTAL     ACCESS:  100509164  HIT:  100304718  MISS:     204446
ITLB LOAD      ACCESS:  100509164  HIT:  100304718  MISS:     204446
ITLB RFO       ACCESS:          0  HIT:          0  MISS:          0
ITLB PREFETCH  ACCESS:          0  HIT:          0  MISS:          0
ITLB WRITEBACK ACCESS:          0  HIT:          0  MISS:          0
ITLB PREFETCH  REQUESTED:          0  ISSUED:          0  USEFUL:          0  USELESS:          0
ITLB TOTAL MSHR MERGED:     172424
ITLB LOAD MSHR MERGED:     172424
ITLB RFO MSHR MERGED:          0
ITLB PREFETCH MSHR MERGED:          0
ITLB WRITEBACK MSHR MERGED:          0
ITLB TOTAL ACCESSES:  100681588 HITS:  100304718 MISSES:     376870
ITLB LOAD ACCESSES:  100681588 HITS:  100304718 MISSES:     376870
ITLB RFO ACCESSES:          0 HITS:          0 MISSES:          0
ITLB PREFETCH ACCESSES:          0 HITS:          0 MISSES:          0
ITLB WRITEBACK ACCESSES:          0 HITS:          0 MISSES:          0
ITLB RQ ACCESS:  500000057
ITLB RQ TO_CACHE:  100681588
ITLB RQ MERGED:  399318469
ITLB RQ FORWARD:          0
ITLB WQ ACCESS:          0
ITLB WQ TO_CACHE:          0
ITLB WQ MERGED:          0
ITLB WQ FORWARD:          0
DTLB TOTAL     ACCESS:  165336491  HIT:  164702139  MISS:     634352
DTLB LOAD      ACCESS:  106291231  HIT:  105721236  MISS:     569995
DTLB RFO       ACCESS:   59045260  HIT:   58980903  MISS:      64357
DTLB PREFETCH  ACCESS:          0  HIT:          0  MISS:          0
DTLB WRITEBACK ACCESS:          0  HIT:          0  MISS:          0
DTLB PREFETCH  REQUESTED:          0  ISSUED:          0  USEFUL:          0  USELESS:          0
DTLB TOTAL MSHR MERGED:      99778
DTLB LOAD MSHR MERGED:      59320
DTLB RFO MSHR MERGED:      40458
DTLB PREFETCH MSHR MERGED:          0
DTLB WRITEBACK MSHR MERGED:          0
DTLB TOTAL ACCESSES:  165436269 HITS:  164702139 MISSES:     734130
DTLB LOAD ACCESSES:  106350551 HITS:  105721236 MISSES:     629315
DTLB RFO ACCESSES:   59085718 HITS:   58980903 MISSES:     104815
DTLB PREFETCH ACCESSES:          0 HITS:          0 MISSES:          0
DTLB WRITEBACK ACCESSES:          0 HITS:          0 MISSES:          0
DTLB RQ ACCESS:  200308393
DTLB RQ TO_CACHE:  165436269
DTLB RQ MERGED:   34872124
DTLB RQ FORWARD:          0
DTLB WQ ACCESS:          0
DTLB WQ TO_CACHE:          0
DTLB WQ MERGED:          0
DTLB WQ FORWARD:          0
L1D TOTAL     ACCESS:  281845540  HIT:  273936202  MISS:    7909338
L1D LOAD      ACCESS:  110425188  HIT:  107149228  MISS:    3275960
L1D RFO       ACCESS:   67112645  HIT:   66221843  MISS:     890802
L1D PREFETCH  ACCESS:  104307707  HIT:  100565131  MISS:    3742576
L1D WRITEBACK ACCESS:          0  HIT:          0  MISS:          0
L1D PREFETCH  REQUESTED:  110816209  ISSUED:  109116802  USEFUL:    1663293  USELESS:    2079247
L1D TOTAL MSHR MERGED:    2858099
L1D LOAD MSHR MERGED:     486558
L1D RFO MSHR MERGED:    1873370
L1D PREFETCH MSHR MERGED:     498171
L1D WRITEBACK MSHR MERGED:          0
L1D TOTAL ACCESSES:  284731130 HITS:  273963693 MISSES:   10767437
L1D LOAD ACCESSES:  110817726 HITS:  107150745 MISSES:    3666981
L1D RFO ACCESSES:   68974010 HITS:   66221843 MISSES:    2752167
L1D PREFETCH ACCESSES:  104939394 HITS:  100591105 MISSES:    4348289
L1D WRITEBACK ACCESSES:          0 HITS:          0 MISSES:          0
L1D RQ ACCESS:  130755790
L1D RQ TO_CACHE:  110816212
L1D RQ MERGED:   19938061
L1D RQ FORWARD:          0
L1D WQ ACCESS:   69552603
L1D WQ TO_CACHE:   68974011
L1D WQ MERGED:     578592
L1D WQ FORWARD:      27491
L1I TOTAL     ACCESS:  126556690  HIT:  122318140  MISS:    4238550
L1I LOAD      ACCESS:  126556690  HIT:  122318140  MISS:    4238550
L1I RFO       ACCESS:          0  HIT:          0  MISS:          0
L1I PREFETCH  ACCESS:          0  HIT:          0  MISS:          0
L1I WRITEBACK ACCESS:          0  HIT:          0  MISS:          0
L1I PREFETCH  REQUESTED:          0  ISSUED:          0  USEFUL:          0  USELESS:          0
L1I TOTAL MSHR MERGED:    1834705
L1I LOAD MSHR MERGED:    1834705
L1I RFO MSHR MERGED:          0
L1I PREFETCH MSHR MERGED:          0
L1I WRITEBACK MSHR MERGED:          0
L1I TOTAL ACCESSES:  128391398 HITS:  122318140 MISSES:    6073258
L1I LOAD ACCESSES:  128391398 HITS:  122318140 MISSES:    6073258
L1I RFO ACCESSES:          0 HITS:          0 MISSES:          0
L1I PREFETCH ACCESSES:          0 HITS:          0 MISSES:          0
L1I WRITEBACK ACCESSES:          0 HITS:          0 MISSES:          0
L1I RQ ACCESS:  500000057
L1I RQ TO_CACHE:  128391398
L1I RQ MERGED:  371608659
L1I RQ FORWARD:          0
L1I WQ ACCESS:          0
L1I WQ TO_CACHE:          0
L1I WQ MERGED:          0
L1I WQ FORWARD:          0
L2C TOTAL     ACCESS:   14905204  HIT:   11158701  MISS:    3746503
L2C LOAD      ACCESS:    7418769  HIT:    5098772  MISS:    2319997
L2C RFO       ACCESS:     878698  HIT:     409922  MISS:     468776
L2C PREFETCH  ACCESS:    4568496  HIT:    3628023  MISS:     940473
L2C WRITEBACK ACCESS:    2039241  HIT:    2021984  MISS:      17257
L2C PREFETCH  REQUESTED:     842693  ISSUED:     842693  USEFUL:     203367  USELESS:     736812
L2C TOTAL MSHR MERGED:       7049
L2C LOAD MSHR MERGED:        783
L2C RFO MSHR MERGED:          0
L2C PREFETCH MSHR MERGED:       6266
L2C WRITEBACK MSHR MERGED:          0
L2C TOTAL ACCESSES:   14913126 HITS:   11159148 MISSES:    3753978
L2C LOAD ACCESSES:    7418973 HITS:    5098976 MISSES:    2319997
L2C RFO ACCESSES:     878797 HITS:     410021 MISSES:     468776
L2C PREFETCH ACCESSES:    4576115 HITS:    3628167 MISSES:     947948
L2C WRITEBACK ACCESSES:    2039241 HITS:    2021984 MISSES:      17257
L2C RQ ACCESS:    8297773
L2C RQ TO_CACHE:    8297470
L2C RQ MERGED:          0
L2C RQ FORWARD:          0
L2C WQ ACCESS:    2039241
L2C WQ TO_CACHE:    2039241
L2C WQ MERGED:          0
L2C WQ FORWARD:        447
LLC TOTAL     ACCESS:    4609816  HIT:    3870400  MISS:     739416
LLC LOAD      ACCESS:    2319200  HIT:    1973382  MISS:     345818
LLC RFO       ACCESS:     468766  HIT:     391838  MISS:      76928
LLC PREFETCH  ACCESS:     941561  HIT:     670792  MISS:     270769
LLC WRITEBACK ACCESS:     880289  HIT:     834388  MISS:      45901
LLC PREFETCH  REQUESTED:          0  ISSUED:          0  USEFUL:      29325  USELESS:     241746
LLC TOTAL MSHR MERGED:        105
LLC LOAD MSHR MERGED:         33
LLC RFO MSHR MERGED:          0
LLC PREFETCH MSHR MERGED:         72
LLC WRITEBACK MSHR MERGED:          0
LLC TOTAL ACCESSES:    4609954 HITS:    3870433 MISSES:     739521
LLC LOAD ACCESSES:    2319214 HITS:    1973396 MISSES:     345818
LLC RFO ACCESSES:     468776 HITS:     391848 MISSES:      76928
LLC PREFETCH ACCESSES:     941675 HITS:     670801 MISSES:     270874
LLC WRITEBACK ACCESSES:     880289 HITS:     834388 MISSES:      45901
LLC 0 RQ ACCESS:    2787990
LLC 0 RQ TO_CACHE:    2787966
LLC 0 RQ MERGED:          0
LLC 0 RQ FORWARD:          0
LLC WQ ACCESS:     880289
LLC WQ TO_CACHE:     880289
LLC WQ MERGED:          0
LLC WQ FORWARD:         33
Major fault: 0 Minor fault: 12862
CPU 0 L1D next line prefetcher final stats
CPU 0 L2C PC-based stride prefetcher final stats
All Misses: 860516
All Hits: 4566306
SD Algo Stats - Switches: 17 SRR-Repls: 234276 BRR-Repls: 165202

DRAM Statistics
 CHANNEL 0
 RQ ROW_BUFFER_HIT:     133650  ROW_BUFFER_MISS:     558549
 DBUS_CONGESTED:     385631
 WQ ROW_BUFFER_HIT:      15971  ROW_BUFFER_MISS:     197873  FULL:          0

 AVG_CONGESTED_CYCLE: 13
LOADS RETIRED: 136549171
INSTR RETIRED: 500000000
