
*** ChampSim Multicore Out-of-Order Simulator ***

Warmup Instructions: 100000000
Simulation Instructions: 500000000
Number of CPUs: 1
LLC sets: 2048
LLC ways: 16
Clean RRIP Policies: 1213230112132301 Dirty RRIP Policies: 2213031122130311 PSEL Width: 10 Track Set: 4294967295 PSEL Mask: 1 Demote Mask: 1340011013400110DS Algo: 0Window size: 0
Off-chip DRAM Size: 4096 MB Channels: 1 Width: 64-bit Data Rate: 1600 MT/s

CPU 0 runs /mnt/beegfs/iconst01/spec2017/Xalancbmk.trace.gz
NOT SORTED
TRACE STRING: /mnt/beegfs/iconst01/spec2017/Xalancbmk.trace.gz
SORTED
TRACE STRING: /mnt/beegfs/iconst01/spec2017/Xalancbmk.trace.gz
INITIAL
TRACE STRING: /mnt/beegfs/iconst01/spec2017/Xalancbmk.trace.gz

champsim_seed used: 913

CPU 0 L1D next line prefetcher
CPU 0 L2C IP-based stride prefetcher
Initialize DRRIP state
Assign rand_sets[0]: 454  LLC: 2048
rand_sets[0]: 454
Assign rand_sets[1]: 1662  LLC: 2048
rand_sets[1]: 1662
Assign rand_sets[2]: 1921  LLC: 2048
rand_sets[2]: 1921
Assign rand_sets[3]: 1131  LLC: 2048
rand_sets[3]: 1131
Assign rand_sets[4]: 331  LLC: 2048
rand_sets[4]: 331
Assign rand_sets[5]: 1531  LLC: 2048
rand_sets[5]: 1531
Assign rand_sets[6]: 482  LLC: 2048
rand_sets[6]: 482
Assign rand_sets[7]: 1275  LLC: 2048
rand_sets[7]: 1275
Assign rand_sets[8]: 1876  LLC: 2048
rand_sets[8]: 1876
Assign rand_sets[9]: 2038  LLC: 2048
rand_sets[9]: 2038
Assign rand_sets[10]: 701  LLC: 2048
rand_sets[10]: 701
Assign rand_sets[11]: 479  LLC: 2048
rand_sets[11]: 479
Assign rand_sets[12]: 892  LLC: 2048
rand_sets[12]: 892
Assign rand_sets[13]: 1820  LLC: 2048
rand_sets[13]: 1820
Assign rand_sets[14]: 1505  LLC: 2048
rand_sets[14]: 1505
Assign rand_sets[15]: 1159  LLC: 2048
rand_sets[15]: 1159
Assign rand_sets[16]: 513  LLC: 2048
rand_sets[16]: 513
Assign rand_sets[17]: 703  LLC: 2048
rand_sets[17]: 703
Assign rand_sets[18]: 561  LLC: 2048
rand_sets[18]: 561
Assign rand_sets[19]: 990  LLC: 2048
rand_sets[19]: 990
Assign rand_sets[20]: 342  LLC: 2048
rand_sets[20]: 342
Assign rand_sets[21]: 882  LLC: 2048
rand_sets[21]: 882
Assign rand_sets[22]: 15  LLC: 2048
rand_sets[22]: 15
Assign rand_sets[23]: 71  LLC: 2048
rand_sets[23]: 71
Assign rand_sets[24]: 1127  LLC: 2048
rand_sets[24]: 1127
Assign rand_sets[25]: 1382  LLC: 2048
rand_sets[25]: 1382
Assign rand_sets[26]: 647  LLC: 2048
rand_sets[26]: 647
Assign rand_sets[27]: 857  LLC: 2048
rand_sets[27]: 857
Assign rand_sets[28]: 1450  LLC: 2048
rand_sets[28]: 1450
Assign rand_sets[29]: 1160  LLC: 2048
rand_sets[29]: 1160
Assign rand_sets[30]: 1852  LLC: 2048
rand_sets[30]: 1852
Assign rand_sets[31]: 1881  LLC: 2048
rand_sets[31]: 1881
Assign rand_sets[32]: 1770  LLC: 2048
rand_sets[32]: 1770
Assign rand_sets[33]: 1622  LLC: 2048
rand_sets[33]: 1622
Assign rand_sets[34]: 275  LLC: 2048
rand_sets[34]: 275
Assign rand_sets[35]: 635  LLC: 2048
rand_sets[35]: 635
Assign rand_sets[36]: 466  LLC: 2048
rand_sets[36]: 466
Assign rand_sets[37]: 1413  LLC: 2048
rand_sets[37]: 1413
Assign rand_sets[38]: 417  LLC: 2048
rand_sets[38]: 417
Assign rand_sets[39]: 472  LLC: 2048
rand_sets[39]: 472
Assign rand_sets[40]: 1340  LLC: 2048
rand_sets[40]: 1340
Assign rand_sets[41]: 852  LLC: 2048
rand_sets[41]: 852
Assign rand_sets[42]: 1365  LLC: 2048
rand_sets[42]: 1365
Assign rand_sets[43]: 47  LLC: 2048
rand_sets[43]: 47
Assign rand_sets[44]: 823  LLC: 2048
rand_sets[44]: 823
Assign rand_sets[45]: 686  LLC: 2048
rand_sets[45]: 686
Assign rand_sets[46]: 1637  LLC: 2048
rand_sets[46]: 1637
Assign rand_sets[47]: 1115  LLC: 2048
rand_sets[47]: 1115
Assign rand_sets[48]: 986  LLC: 2048
rand_sets[48]: 986
Assign rand_sets[49]: 258  LLC: 2048
rand_sets[49]: 258
Assign rand_sets[50]: 633  LLC: 2048
rand_sets[50]: 633
Assign rand_sets[51]: 920  LLC: 2048
rand_sets[51]: 920
Assign rand_sets[52]: 204  LLC: 2048
rand_sets[52]: 204
Assign rand_sets[53]: 227  LLC: 2048
rand_sets[53]: 227
Assign rand_sets[54]: 1818  LLC: 2048
rand_sets[54]: 1818
Assign rand_sets[55]: 886  LLC: 2048
rand_sets[55]: 886
Assign rand_sets[56]: 1422  LLC: 2048
rand_sets[56]: 1422
Assign rand_sets[57]: 607  LLC: 2048
rand_sets[57]: 607
Assign rand_sets[58]: 217  LLC: 2048
rand_sets[58]: 217
Assign rand_sets[59]: 1945  LLC: 2048
rand_sets[59]: 1945
Assign rand_sets[60]: 143  LLC: 2048
rand_sets[60]: 143
Assign rand_sets[61]: 1311  LLC: 2048
rand_sets[61]: 1311
Assign rand_sets[62]: 319  LLC: 2048
rand_sets[62]: 319
Assign rand_sets[63]: 1846  LLC: 2048
rand_sets[63]: 1846
 CLEAN-RRIP-POLICY-1: 1-2-1-3-2-3-0-1- CLEAN-RRIP-POLICY-2: 1-2-1-3-2-3-0-1-
 DIRTY-RRIP-POLICY-1: 2-2-1-3-0-3-1-1- DIRTY-RRIP-POLICY-2: 2-2-1-3-0-3-1-1-
 PSEL width: 10
Heartbeat CPU 0 instructions: 10000003 cycles: 4586133 heartbeat IPC: 2.18049 cumulative IPC: 2.18049 (Simulation time: 0 hr 0 min 15 sec) 
Heartbeat CPU 0 instructions: 20000000 cycles: 8976952 heartbeat IPC: 2.27748 cumulative IPC: 2.22793 (Simulation time: 0 hr 0 min 29 sec) 
Heartbeat CPU 0 instructions: 30000000 cycles: 13385286 heartbeat IPC: 2.26843 cumulative IPC: 2.24127 (Simulation time: 0 hr 0 min 43 sec) 
Heartbeat CPU 0 instructions: 40000000 cycles: 18009657 heartbeat IPC: 2.16246 cumulative IPC: 2.22103 (Simulation time: 0 hr 0 min 59 sec) 
Heartbeat CPU 0 instructions: 50000002 cycles: 22422486 heartbeat IPC: 2.26612 cumulative IPC: 2.2299 (Simulation time: 0 hr 1 min 13 sec) 
Heartbeat CPU 0 instructions: 60000000 cycles: 27073871 heartbeat IPC: 2.1499 cumulative IPC: 2.21616 (Simulation time: 0 hr 1 min 28 sec) 
Heartbeat CPU 0 instructions: 70000003 cycles: 31477064 heartbeat IPC: 2.27108 cumulative IPC: 2.22384 (Simulation time: 0 hr 1 min 42 sec) 
Heartbeat CPU 0 instructions: 80000000 cycles: 35901138 heartbeat IPC: 2.26036 cumulative IPC: 2.22834 (Simulation time: 0 hr 1 min 56 sec) 
Heartbeat CPU 0 instructions: 90000002 cycles: 40357162 heartbeat IPC: 2.24415 cumulative IPC: 2.23009 (Simulation time: 0 hr 2 min 11 sec) 
Heartbeat CPU 0 instructions: 100000000 cycles: 44831169 heartbeat IPC: 2.23513 cumulative IPC: 2.23059 (Simulation time: 0 hr 2 min 25 sec) 

Warmup complete CPU 0 instructions: 100000003 cycles: 44831170 (Simulation time: 0 hr 2 min 25 sec) 

Heartbeat CPU 0 instructions: 110000000 cycles: 71218573 heartbeat IPC: 0.378969 cumulative IPC: 0.378969 (Simulation time: 0 hr 2 min 56 sec) 
Heartbeat CPU 0 instructions: 120000000 cycles: 98937665 heartbeat IPC: 0.360762 cumulative IPC: 0.369641 (Simulation time: 0 hr 3 min 28 sec) 
Heartbeat CPU 0 instructions: 130000000 cycles: 122372126 heartbeat IPC: 0.426722 cumulative IPC: 0.386892 (Simulation time: 0 hr 3 min 57 sec) 
Heartbeat CPU 0 instructions: 140000000 cycles: 144880121 heartbeat IPC: 0.444287 cumulative IPC: 0.399804 (Simulation time: 0 hr 4 min 25 sec) 
Heartbeat CPU 0 instructions: 150000000 cycles: 169250745 heartbeat IPC: 0.41033 cumulative IPC: 0.401866 (Simulation time: 0 hr 4 min 55 sec) 
Heartbeat CPU 0 instructions: 160000000 cycles: 193936021 heartbeat IPC: 0.4051 cumulative IPC: 0.402401 (Simulation time: 0 hr 5 min 25 sec) 
Heartbeat CPU 0 instructions: 170000002 cycles: 215119977 heartbeat IPC: 0.472055 cumulative IPC: 0.411066 (Simulation time: 0 hr 5 min 52 sec) 
Heartbeat CPU 0 instructions: 180000000 cycles: 238069540 heartbeat IPC: 0.435738 cumulative IPC: 0.413996 (Simulation time: 0 hr 6 min 20 sec) 
Heartbeat CPU 0 instructions: 190000000 cycles: 257084875 heartbeat IPC: 0.525891 cumulative IPC: 0.424021 (Simulation time: 0 hr 6 min 46 sec) 
Heartbeat CPU 0 instructions: 200000000 cycles: 278348531 heartbeat IPC: 0.470286 cumulative IPC: 0.428234 (Simulation time: 0 hr 7 min 13 sec) 
Heartbeat CPU 0 instructions: 210000001 cycles: 304533361 heartbeat IPC: 0.381901 cumulative IPC: 0.423562 (Simulation time: 0 hr 7 min 44 sec) 
Heartbeat CPU 0 instructions: 220000000 cycles: 330208316 heartbeat IPC: 0.389485 cumulative IPC: 0.420496 (Simulation time: 0 hr 8 min 14 sec) 
Heartbeat CPU 0 instructions: 230000000 cycles: 352277051 heartbeat IPC: 0.45313 cumulative IPC: 0.422839 (Simulation time: 0 hr 8 min 42 sec) 
Heartbeat CPU 0 instructions: 240000000 cycles: 377752632 heartbeat IPC: 0.392533 cumulative IPC: 0.42052 (Simulation time: 0 hr 9 min 13 sec) 
Heartbeat CPU 0 instructions: 250000001 cycles: 402441234 heartbeat IPC: 0.405045 cumulative IPC: 0.419451 (Simulation time: 0 hr 9 min 43 sec) 
Heartbeat CPU 0 instructions: 260000000 cycles: 423482502 heartbeat IPC: 0.475256 cumulative IPC: 0.422552 (Simulation time: 0 hr 10 min 10 sec) 
Heartbeat CPU 0 instructions: 270000000 cycles: 445429409 heartbeat IPC: 0.455645 cumulative IPC: 0.424365 (Simulation time: 0 hr 10 min 37 sec) 
Heartbeat CPU 0 instructions: 280000000 cycles: 472629269 heartbeat IPC: 0.367649 cumulative IPC: 0.420759 (Simulation time: 0 hr 11 min 9 sec) 
Heartbeat CPU 0 instructions: 290000000 cycles: 493861511 heartbeat IPC: 0.470982 cumulative IPC: 0.423134 (Simulation time: 0 hr 11 min 36 sec) 
Heartbeat CPU 0 instructions: 300000000 cycles: 514516181 heartbeat IPC: 0.484152 cumulative IPC: 0.425817 (Simulation time: 0 hr 12 min 3 sec) 
Heartbeat CPU 0 instructions: 310000000 cycles: 533777657 heartbeat IPC: 0.519171 cumulative IPC: 0.429495 (Simulation time: 0 hr 12 min 29 sec) 
Heartbeat CPU 0 instructions: 320000000 cycles: 562660646 heartbeat IPC: 0.346225 cumulative IPC: 0.42485 (Simulation time: 0 hr 13 min 1 sec) 
Heartbeat CPU 0 instructions: 330000001 cycles: 582024605 heartbeat IPC: 0.516423 cumulative IPC: 0.428151 (Simulation time: 0 hr 13 min 26 sec) 
Heartbeat CPU 0 instructions: 340000000 cycles: 601366581 heartbeat IPC: 0.51701 cumulative IPC: 0.431239 (Simulation time: 0 hr 13 min 52 sec) 
Heartbeat CPU 0 instructions: 350000001 cycles: 626045065 heartbeat IPC: 0.405211 cumulative IPC: 0.430134 (Simulation time: 0 hr 14 min 21 sec) 
Heartbeat CPU 0 instructions: 360000000 cycles: 648333212 heartbeat IPC: 0.448669 cumulative IPC: 0.430819 (Simulation time: 0 hr 14 min 49 sec) 
Heartbeat CPU 0 instructions: 370000001 cycles: 673340124 heartbeat IPC: 0.399889 cumulative IPC: 0.429588 (Simulation time: 0 hr 15 min 18 sec) 
Heartbeat CPU 0 instructions: 380000000 cycles: 696266066 heartbeat IPC: 0.436187 cumulative IPC: 0.42982 (Simulation time: 0 hr 15 min 46 sec) 
Heartbeat CPU 0 instructions: 390000000 cycles: 715042995 heartbeat IPC: 0.532568 cumulative IPC: 0.432699 (Simulation time: 0 hr 16 min 12 sec) 
Heartbeat CPU 0 instructions: 400000000 cycles: 734891546 heartbeat IPC: 0.503815 cumulative IPC: 0.434745 (Simulation time: 0 hr 16 min 37 sec) 
Heartbeat CPU 0 instructions: 410000001 cycles: 760634141 heartbeat IPC: 0.388461 cumulative IPC: 0.43308 (Simulation time: 0 hr 17 min 7 sec) 
Heartbeat CPU 0 instructions: 420000000 cycles: 785121976 heartbeat IPC: 0.408366 cumulative IPC: 0.432263 (Simulation time: 0 hr 17 min 36 sec) 
Heartbeat CPU 0 instructions: 430000002 cycles: 806496178 heartbeat IPC: 0.467854 cumulative IPC: 0.433261 (Simulation time: 0 hr 18 min 3 sec) 
Heartbeat CPU 0 instructions: 440000000 cycles: 826938882 heartbeat IPC: 0.489172 cumulative IPC: 0.434723 (Simulation time: 0 hr 18 min 29 sec) 
Heartbeat CPU 0 instructions: 450000002 cycles: 853300385 heartbeat IPC: 0.379341 cumulative IPC: 0.432917 (Simulation time: 0 hr 18 min 59 sec) 
Heartbeat CPU 0 instructions: 460000000 cycles: 878904663 heartbeat IPC: 0.39056 cumulative IPC: 0.431617 (Simulation time: 0 hr 19 min 29 sec) 
Heartbeat CPU 0 instructions: 470000002 cycles: 904641226 heartbeat IPC: 0.388552 cumulative IPC: 0.430328 (Simulation time: 0 hr 19 min 59 sec) 
Heartbeat CPU 0 instructions: 480000000 cycles: 929233155 heartbeat IPC: 0.406637 cumulative IPC: 0.429669 (Simulation time: 0 hr 20 min 28 sec) 
Heartbeat CPU 0 instructions: 490000000 cycles: 950119910 heartbeat IPC: 0.478772 cumulative IPC: 0.430802 (Simulation time: 0 hr 20 min 54 sec) 
Heartbeat CPU 0 instructions: 500000000 cycles: 974755500 heartbeat IPC: 0.405917 cumulative IPC: 0.430143 (Simulation time: 0 hr 21 min 23 sec) 
Heartbeat CPU 0 instructions: 510000000 cycles: 999718560 heartbeat IPC: 0.400592 cumulative IPC: 0.42937 (Simulation time: 0 hr 21 min 52 sec) 
Heartbeat CPU 0 instructions: 520000000 cycles: 1020854735 heartbeat IPC: 0.473123 cumulative IPC: 0.430317 (Simulation time: 0 hr 22 min 19 sec) 
Heartbeat CPU 0 instructions: 530000003 cycles: 1046285941 heartbeat IPC: 0.393218 cumulative IPC: 0.429375 (Simulation time: 0 hr 22 min 49 sec) 
Heartbeat CPU 0 instructions: 540000000 cycles: 1069080219 heartbeat IPC: 0.438706 cumulative IPC: 0.429583 (Simulation time: 0 hr 23 min 16 sec) 
Heartbeat CPU 0 instructions: 550000000 cycles: 1094242722 heartbeat IPC: 0.397417 cumulative IPC: 0.428812 (Simulation time: 0 hr 23 min 46 sec) 
Heartbeat CPU 0 instructions: 560000000 cycles: 1117875343 heartbeat IPC: 0.423144 cumulative IPC: 0.428687 (Simulation time: 0 hr 24 min 14 sec) 
Heartbeat CPU 0 instructions: 570000002 cycles: 1141247473 heartbeat IPC: 0.42786 cumulative IPC: 0.428669 (Simulation time: 0 hr 24 min 42 sec) 
Heartbeat CPU 0 instructions: 580000000 cycles: 1162393632 heartbeat IPC: 0.472899 cumulative IPC: 0.429506 (Simulation time: 0 hr 25 min 9 sec) 
Heartbeat CPU 0 instructions: 590000001 cycles: 1186239864 heartbeat IPC: 0.419354 cumulative IPC: 0.429294 (Simulation time: 0 hr 25 min 37 sec) 
Heartbeat CPU 0 instructions: 600000000 cycles: 1205411845 heartbeat IPC: 0.521594 cumulative IPC: 0.430819 (Simulation time: 0 hr 26 min 2 sec) 
Finished CPU 0 instructions: 500000000 cycles: 1160580696 cumulative IPC: 0.430819 (Simulation time: 0 hr 26 min 2 sec) 

CPU 0 Branch Prediction Accuracy: 99.5434% MPKI: 1.33026
Number of Branches: 145676990 Number of Mispredictions: 665128
Number of LOAD Instructions: 188863207
Number of LOAD Instructions (ROI): 188863207
Number of STORE Instructions: 7332002
Number of STORE Instructions (ROI): 7332002
Total Destination Memory Operands: 10029285
Total Destination Memory Operands (ROI): 10029285
Total Source Memory Operands: 188863207
Total Source Memory Operands (ROI): 188863207
Number of DEPENDED LOADS: 292592
Number of DEPENDED LOADS (ROI): 292592
Number of SQ_ADDED: 10029285
Number of SQ_ADDED (ROI): 10029285
Number of LQ_ADDED: 200750735
Number of LQ_ADDED (ROI): 200750735
Number of Instructions read from trace: 600000010

ChampSim completed all CPUs

Region of Interest Statistics

CPU 0 cumulative IPC: 0.430819 instructions: 500000000 cycles: 1160580696
ITLB TOTAL     ACCESS:  145795140  HIT:  145755611  MISS:      39529
ITLB LOAD      ACCESS:  145795140  HIT:  145755611  MISS:      39529
ITLB RFO       ACCESS:          0  HIT:          0  MISS:          0
ITLB PREFETCH  ACCESS:          0  HIT:          0  MISS:          0
ITLB WRITEBACK ACCESS:          0  HIT:          0  MISS:          0
ITLB PREFETCH  REQUESTED:          0  ISSUED:          0  USEFUL:          0  USELESS:          0
ITLB TOTAL MSHR MERGED:      57373
ITLB LOAD MSHR MERGED:      57373
ITLB RFO MSHR MERGED:          0
ITLB PREFETCH MSHR MERGED:          0
ITLB WRITEBACK MSHR MERGED:          0
ITLB TOTAL ACCESSES:  145852513 HITS:  145755611 MISSES:      96902
ITLB LOAD ACCESSES:  145852513 HITS:  145755611 MISSES:      96902
ITLB RFO ACCESSES:          0 HITS:          0 MISSES:          0
ITLB PREFETCH ACCESSES:          0 HITS:          0 MISSES:          0
ITLB WRITEBACK ACCESSES:          0 HITS:          0 MISSES:          0
ITLB RQ ACCESS:  499999754
ITLB RQ TO_CACHE:  145852513
ITLB RQ MERGED:  354147241
ITLB RQ FORWARD:          0
ITLB WQ ACCESS:          0
ITLB WQ TO_CACHE:          0
ITLB WQ MERGED:          0
ITLB WQ FORWARD:          0
DTLB TOTAL     ACCESS:  135178083  HIT:  134009722  MISS:    1168361
DTLB LOAD      ACCESS:  127137056  HIT:  125977801  MISS:    1159255
DTLB RFO       ACCESS:    8041027  HIT:    8031921  MISS:       9106
DTLB PREFETCH  ACCESS:          0  HIT:          0  MISS:          0
DTLB WRITEBACK ACCESS:          0  HIT:          0  MISS:          0
DTLB PREFETCH  REQUESTED:          0  ISSUED:          0  USEFUL:          0  USELESS:          0
DTLB TOTAL MSHR MERGED:     582891
DTLB LOAD MSHR MERGED:     578509
DTLB RFO MSHR MERGED:       4382
DTLB PREFETCH MSHR MERGED:          0
DTLB WRITEBACK MSHR MERGED:          0
DTLB TOTAL ACCESSES:  135760974 HITS:  134009722 MISSES:    1751252
DTLB LOAD ACCESSES:  127715565 HITS:  125977801 MISSES:    1737764
DTLB RFO ACCESSES:    8045409 HITS:    8031921 MISSES:      13488
DTLB PREFETCH ACCESSES:          0 HITS:          0 MISSES:          0
DTLB WRITEBACK ACCESSES:          0 HITS:          0 MISSES:          0
DTLB RQ ACCESS:  165761739
DTLB RQ TO_CACHE:  135760974
DTLB RQ MERGED:   30000765
DTLB RQ FORWARD:          0
DTLB WQ ACCESS:          0
DTLB WQ TO_CACHE:          0
DTLB WQ MERGED:          0
DTLB WQ FORWARD:          0
L1D TOTAL     ACCESS:  156915704  HIT:  139600027  MISS:   17315677
L1D LOAD      ACCESS:   89979198  HIT:   78831242  MISS:   11147956
L1D RFO       ACCESS:    8495968  HIT:    8408742  MISS:      87226
L1D PREFETCH  ACCESS:   58440538  HIT:   52360043  MISS:    6080495
L1D WRITEBACK ACCESS:          0  HIT:          0  MISS:          0
L1D PREFETCH  REQUESTED:   93711362  ISSUED:   92843978  USEFUL:    1999067  USELESS:    4081502
L1D TOTAL MSHR MERGED:   15134762
L1D LOAD MSHR MERGED:    7133297
L1D RFO MSHR MERGED:     128722
L1D PREFETCH MSHR MERGED:    7872743
L1D WRITEBACK MSHR MERGED:          0
L1D TOTAL ACCESSES:  172050624 HITS:  139600184 MISSES:   32450440
L1D LOAD ACCESSES:   93711365 HITS:   78831245 MISSES:   14880120
L1D RFO ACCESSES:    8622775 HITS:    8408742 MISSES:     214033
L1D PREFETCH ACCESSES:   69716484 HITS:   52360197 MISSES:   17356287
L1D WRITEBACK ACCESSES:          0 HITS:          0 MISSES:          0
L1D RQ ACCESS:  157122533
L1D RQ TO_CACHE:   93711362
L1D RQ MERGED:   63411168
L1D RQ FORWARD:          0
L1D WQ ACCESS:    8639208
L1D WQ TO_CACHE:    8622775
L1D WQ MERGED:      16433
L1D WQ FORWARD:        157
L1I TOTAL     ACCESS:  178789345  HIT:  178125666  MISS:     663679
L1I LOAD      ACCESS:  178789345  HIT:  178125666  MISS:     663679
L1I RFO       ACCESS:          0  HIT:          0  MISS:          0
L1I PREFETCH  ACCESS:          0  HIT:          0  MISS:          0
L1I WRITEBACK ACCESS:          0  HIT:          0  MISS:          0
L1I PREFETCH  REQUESTED:          0  ISSUED:          0  USEFUL:          0  USELESS:          0
L1I TOTAL MSHR MERGED:     597865
L1I LOAD MSHR MERGED:     597865
L1I RFO MSHR MERGED:          0
L1I PREFETCH MSHR MERGED:          0
L1I WRITEBACK MSHR MERGED:          0
L1I TOTAL ACCESSES:  179387210 HITS:  178125666 MISSES:    1261544
L1I LOAD ACCESSES:  179387210 HITS:  178125666 MISSES:    1261544
L1I RFO ACCESSES:          0 HITS:          0 MISSES:          0
L1I PREFETCH ACCESSES:          0 HITS:          0 MISSES:          0
L1I WRITEBACK ACCESSES:          0 HITS:          0 MISSES:          0
L1I RQ ACCESS:  499999757
L1I RQ TO_CACHE:  179387210
L1I RQ MERGED:  320612547
L1I RQ FORWARD:          0
L1I WQ ACCESS:          0
L1I WQ TO_CACHE:          0
L1I WQ MERGED:          0
L1I WQ FORWARD:          0
L2C TOTAL     ACCESS:   19276491  HIT:    2056950  MISS:   17219541
L2C LOAD      ACCESS:    8410400  HIT:     951041  MISS:    7459359
L2C RFO       ACCESS:      85287  HIT:      53729  MISS:      31558
L2C PREFETCH  ACCESS:   10495796  HIT:     769983  MISS:    9725813
L2C WRITEBACK ACCESS:     285008  HIT:     282197  MISS:       2811
L2C PREFETCH  REQUESTED:    1016743  ISSUED:    1016743  USEFUL:     274704  USELESS:    9450208
L2C TOTAL MSHR MERGED:       1118
L2C LOAD MSHR MERGED:        242
L2C RFO MSHR MERGED:          1
L2C PREFETCH MSHR MERGED:        875
L2C WRITEBACK MSHR MERGED:          0
L2C TOTAL ACCESSES:   19279843 HITS:    2057140 MISSES:   17222703
L2C LOAD ACCESSES:    8410502 HITS:     951143 MISSES:    7459359
L2C RFO ACCESSES:      85311 HITS:      53753 MISSES:      31558
L2C PREFETCH ACCESSES:   10499022 HITS:     770047 MISSES:    9728975
L2C WRITEBACK ACCESSES:     285008 HITS:     282197 MISSES:       2811
L2C RQ ACCESS:    8495813
L2C RQ TO_CACHE:    8495687
L2C RQ MERGED:          0
L2C RQ FORWARD:          0
L2C WQ ACCESS:     285008
L2C WQ TO_CACHE:     285008
L2C WQ MERGED:          0
L2C WQ FORWARD:        190
LLC TOTAL     ACCESS:   17324831  HIT:    4974799  MISS:   12350032
LLC LOAD      ACCESS:    7459117  HIT:    4124976  MISS:    3334141
LLC RFO       ACCESS:      31557  HIT:      10589  MISS:      20968
LLC PREFETCH  ACCESS:    9728097  HIT:     765820  MISS:    8962277
LLC WRITEBACK ACCESS:     106060  HIT:      73414  MISS:      32646
LLC PREFETCH  REQUESTED:          0  ISSUED:          0  USEFUL:       1886  USELESS:    8959644
LLC TOTAL MSHR MERGED:          2
LLC LOAD MSHR MERGED:          0
LLC RFO MSHR MERGED:          0
LLC PREFETCH MSHR MERGED:          2
LLC WRITEBACK MSHR MERGED:          0
LLC TOTAL ACCESSES:   17324834 HITS:    4974799 MISSES:   12350035
LLC LOAD ACCESSES:    7459117 HITS:    4124976 MISSES:    3334141
LLC RFO ACCESSES:      31557 HITS:      10589 MISSES:      20968
LLC PREFETCH ACCESSES:    9728100 HITS:     765820 MISSES:    8962280
LLC WRITEBACK ACCESSES:     106060 HITS:      73414 MISSES:      32646
LLC 0 RQ ACCESS:    7490674
LLC 0 RQ TO_CACHE:    7490674
LLC 0 RQ MERGED:          0
LLC 0 RQ FORWARD:          0
LLC WQ ACCESS:     106060
LLC WQ TO_CACHE:     106060
LLC WQ MERGED:          0
LLC WQ FORWARD:          0
Major fault: 0 Minor fault: 6432
CPU 0 L1D next line prefetcher final stats
CPU 0 L2C PC-based stride prefetcher final stats
All Misses: 14586560
All Hits: 5957980
SD Algo Stats - Switches: 0 SRR-Repls: 3561088 BRR-Repls: 0

DRAM Statistics
 CHANNEL 0
 RQ ROW_BUFFER_HIT:    9273908  ROW_BUFFER_MISS:    3036348
 DBUS_CONGESTED:    5697325
 WQ ROW_BUFFER_HIT:       1883  ROW_BUFFER_MISS:      59715  FULL:          0

 AVG_CONGESTED_CYCLE: 12
LOADS RETIRED: 157382665
INSTR RETIRED: 500000000
