
*** ChampSim Multicore Out-of-Order Simulator ***

Warmup Instructions: 100000000
Simulation Instructions: 500000000
Number of CPUs: 1
LLC sets: 2048
LLC ways: 16
Clean RRIP Policies: 1112210011122100 Dirty RRIP Policies: 1112011011120110 PSEL Width: 10 Track Set: 4294967295 PSEL Mask: 1 Demote Mask: 1432043314320433DS Algo: 0Window size: 0
Off-chip DRAM Size: 4096 MB Channels: 1 Width: 64-bit Data Rate: 1600 MT/s

CPU 0 runs /mnt/beegfs/iconst01/spec2017/Gcc.trace.gz
NOT SORTED
TRACE STRING: /mnt/beegfs/iconst01/spec2017/Gcc.trace.gz
SORTED
TRACE STRING: /mnt/beegfs/iconst01/spec2017/Gcc.trace.gz
INITIAL
TRACE STRING: /mnt/beegfs/iconst01/spec2017/Gcc.trace.gz

champsim_seed used: 269

CPU 0 L1D next line prefetcher
CPU 0 L2C IP-based stride prefetcher
Initialize DRRIP state
Assign rand_sets[0]: 454  LLC: 2048
rand_sets[0]: 454
Assign rand_sets[1]: 1662  LLC: 2048
rand_sets[1]: 1662
Assign rand_sets[2]: 1921  LLC: 2048
rand_sets[2]: 1921
Assign rand_sets[3]: 1131  LLC: 2048
rand_sets[3]: 1131
Assign rand_sets[4]: 331  LLC: 2048
rand_sets[4]: 331
Assign rand_sets[5]: 1531  LLC: 2048
rand_sets[5]: 1531
Assign rand_sets[6]: 482  LLC: 2048
rand_sets[6]: 482
Assign rand_sets[7]: 1275  LLC: 2048
rand_sets[7]: 1275
Assign rand_sets[8]: 1876  LLC: 2048
rand_sets[8]: 1876
Assign rand_sets[9]: 2038  LLC: 2048
rand_sets[9]: 2038
Assign rand_sets[10]: 701  LLC: 2048
rand_sets[10]: 701
Assign rand_sets[11]: 479  LLC: 2048
rand_sets[11]: 479
Assign rand_sets[12]: 892  LLC: 2048
rand_sets[12]: 892
Assign rand_sets[13]: 1820  LLC: 2048
rand_sets[13]: 1820
Assign rand_sets[14]: 1505  LLC: 2048
rand_sets[14]: 1505
Assign rand_sets[15]: 1159  LLC: 2048
rand_sets[15]: 1159
Assign rand_sets[16]: 513  LLC: 2048
rand_sets[16]: 513
Assign rand_sets[17]: 703  LLC: 2048
rand_sets[17]: 703
Assign rand_sets[18]: 561  LLC: 2048
rand_sets[18]: 561
Assign rand_sets[19]: 990  LLC: 2048
rand_sets[19]: 990
Assign rand_sets[20]: 342  LLC: 2048
rand_sets[20]: 342
Assign rand_sets[21]: 882  LLC: 2048
rand_sets[21]: 882
Assign rand_sets[22]: 15  LLC: 2048
rand_sets[22]: 15
Assign rand_sets[23]: 71  LLC: 2048
rand_sets[23]: 71
Assign rand_sets[24]: 1127  LLC: 2048
rand_sets[24]: 1127
Assign rand_sets[25]: 1382  LLC: 2048
rand_sets[25]: 1382
Assign rand_sets[26]: 647  LLC: 2048
rand_sets[26]: 647
Assign rand_sets[27]: 857  LLC: 2048
rand_sets[27]: 857
Assign rand_sets[28]: 1450  LLC: 2048
rand_sets[28]: 1450
Assign rand_sets[29]: 1160  LLC: 2048
rand_sets[29]: 1160
Assign rand_sets[30]: 1852  LLC: 2048
rand_sets[30]: 1852
Assign rand_sets[31]: 1881  LLC: 2048
rand_sets[31]: 1881
Assign rand_sets[32]: 1770  LLC: 2048
rand_sets[32]: 1770
Assign rand_sets[33]: 1622  LLC: 2048
rand_sets[33]: 1622
Assign rand_sets[34]: 275  LLC: 2048
rand_sets[34]: 275
Assign rand_sets[35]: 635  LLC: 2048
rand_sets[35]: 635
Assign rand_sets[36]: 466  LLC: 2048
rand_sets[36]: 466
Assign rand_sets[37]: 1413  LLC: 2048
rand_sets[37]: 1413
Assign rand_sets[38]: 417  LLC: 2048
rand_sets[38]: 417
Assign rand_sets[39]: 472  LLC: 2048
rand_sets[39]: 472
Assign rand_sets[40]: 1340  LLC: 2048
rand_sets[40]: 1340
Assign rand_sets[41]: 852  LLC: 2048
rand_sets[41]: 852
Assign rand_sets[42]: 1365  LLC: 2048
rand_sets[42]: 1365
Assign rand_sets[43]: 47  LLC: 2048
rand_sets[43]: 47
Assign rand_sets[44]: 823  LLC: 2048
rand_sets[44]: 823
Assign rand_sets[45]: 686  LLC: 2048
rand_sets[45]: 686
Assign rand_sets[46]: 1637  LLC: 2048
rand_sets[46]: 1637
Assign rand_sets[47]: 1115  LLC: 2048
rand_sets[47]: 1115
Assign rand_sets[48]: 986  LLC: 2048
rand_sets[48]: 986
Assign rand_sets[49]: 258  LLC: 2048
rand_sets[49]: 258
Assign rand_sets[50]: 633  LLC: 2048
rand_sets[50]: 633
Assign rand_sets[51]: 920  LLC: 2048
rand_sets[51]: 920
Assign rand_sets[52]: 204  LLC: 2048
rand_sets[52]: 204
Assign rand_sets[53]: 227  LLC: 2048
rand_sets[53]: 227
Assign rand_sets[54]: 1818  LLC: 2048
rand_sets[54]: 1818
Assign rand_sets[55]: 886  LLC: 2048
rand_sets[55]: 886
Assign rand_sets[56]: 1422  LLC: 2048
rand_sets[56]: 1422
Assign rand_sets[57]: 607  LLC: 2048
rand_sets[57]: 607
Assign rand_sets[58]: 217  LLC: 2048
rand_sets[58]: 217
Assign rand_sets[59]: 1945  LLC: 2048
rand_sets[59]: 1945
Assign rand_sets[60]: 143  LLC: 2048
rand_sets[60]: 143
Assign rand_sets[61]: 1311  LLC: 2048
rand_sets[61]: 1311
Assign rand_sets[62]: 319  LLC: 2048
rand_sets[62]: 319
Assign rand_sets[63]: 1846  LLC: 2048
rand_sets[63]: 1846
 CLEAN-RRIP-POLICY-1: 1-1-1-2-2-1-0-0- CLEAN-RRIP-POLICY-2: 1-1-1-2-2-1-0-0-
 DIRTY-RRIP-POLICY-1: 1-1-1-2-0-1-1-0- DIRTY-RRIP-POLICY-2: 1-1-1-2-0-1-1-0-
 PSEL width: 10
Heartbeat CPU 0 instructions: 10000001 cycles: 7315906 heartbeat IPC: 1.36688 cumulative IPC: 1.36688 (Simulation time: 0 hr 0 min 15 sec) 
Heartbeat CPU 0 instructions: 20000000 cycles: 14307796 heartbeat IPC: 1.43023 cumulative IPC: 1.39784 (Simulation time: 0 hr 0 min 30 sec) 
Heartbeat CPU 0 instructions: 30000001 cycles: 21021391 heartbeat IPC: 1.48952 cumulative IPC: 1.42712 (Simulation time: 0 hr 0 min 45 sec) 
Heartbeat CPU 0 instructions: 40000000 cycles: 27482353 heartbeat IPC: 1.54776 cumulative IPC: 1.45548 (Simulation time: 0 hr 1 min 1 sec) 
Heartbeat CPU 0 instructions: 50000001 cycles: 33584196 heartbeat IPC: 1.63885 cumulative IPC: 1.4888 (Simulation time: 0 hr 1 min 17 sec) 
Heartbeat CPU 0 instructions: 60000000 cycles: 40065426 heartbeat IPC: 1.54292 cumulative IPC: 1.49755 (Simulation time: 0 hr 1 min 33 sec) 
Heartbeat CPU 0 instructions: 70000000 cycles: 47105220 heartbeat IPC: 1.4205 cumulative IPC: 1.48603 (Simulation time: 0 hr 1 min 47 sec) 
Heartbeat CPU 0 instructions: 80000000 cycles: 54196650 heartbeat IPC: 1.41015 cumulative IPC: 1.47611 (Simulation time: 0 hr 2 min 2 sec) 
Heartbeat CPU 0 instructions: 90000003 cycles: 61202901 heartbeat IPC: 1.4273 cumulative IPC: 1.47052 (Simulation time: 0 hr 2 min 16 sec) 
Heartbeat CPU 0 instructions: 100000000 cycles: 68372149 heartbeat IPC: 1.39485 cumulative IPC: 1.46258 (Simulation time: 0 hr 2 min 31 sec) 

Warmup complete CPU 0 instructions: 100000004 cycles: 68372150 (Simulation time: 0 hr 2 min 31 sec) 

Heartbeat CPU 0 instructions: 110000003 cycles: 96371688 heartbeat IPC: 0.357149 cumulative IPC: 0.357149 (Simulation time: 0 hr 2 min 59 sec) 
Heartbeat CPU 0 instructions: 120000000 cycles: 123918973 heartbeat IPC: 0.363012 cumulative IPC: 0.360057 (Simulation time: 0 hr 3 min 28 sec) 
Heartbeat CPU 0 instructions: 130000000 cycles: 148985714 heartbeat IPC: 0.398935 cumulative IPC: 0.372146 (Simulation time: 0 hr 3 min 56 sec) 
Heartbeat CPU 0 instructions: 140000000 cycles: 179102125 heartbeat IPC: 0.332045 cumulative IPC: 0.361239 (Simulation time: 0 hr 4 min 24 sec) 
Heartbeat CPU 0 instructions: 150000000 cycles: 209358907 heartbeat IPC: 0.330504 cumulative IPC: 0.354643 (Simulation time: 0 hr 4 min 53 sec) 
Heartbeat CPU 0 instructions: 160000000 cycles: 236879624 heartbeat IPC: 0.363363 cumulative IPC: 0.356067 (Simulation time: 0 hr 5 min 20 sec) 
Heartbeat CPU 0 instructions: 170000001 cycles: 265114355 heartbeat IPC: 0.354174 cumulative IPC: 0.355796 (Simulation time: 0 hr 5 min 49 sec) 
Heartbeat CPU 0 instructions: 180000000 cycles: 293762341 heartbeat IPC: 0.349065 cumulative IPC: 0.35494 (Simulation time: 0 hr 6 min 18 sec) 
Heartbeat CPU 0 instructions: 190000002 cycles: 322098167 heartbeat IPC: 0.35291 cumulative IPC: 0.354713 (Simulation time: 0 hr 6 min 47 sec) 
Heartbeat CPU 0 instructions: 200000000 cycles: 350683860 heartbeat IPC: 0.349825 cumulative IPC: 0.354218 (Simulation time: 0 hr 7 min 15 sec) 
Heartbeat CPU 0 instructions: 210000002 cycles: 378788692 heartbeat IPC: 0.355811 cumulative IPC: 0.354363 (Simulation time: 0 hr 7 min 44 sec) 
Heartbeat CPU 0 instructions: 220000000 cycles: 408531556 heartbeat IPC: 0.336215 cumulative IPC: 0.352776 (Simulation time: 0 hr 8 min 11 sec) 
Heartbeat CPU 0 instructions: 230000000 cycles: 436380043 heartbeat IPC: 0.359086 cumulative IPC: 0.353253 (Simulation time: 0 hr 8 min 39 sec) 
Heartbeat CPU 0 instructions: 240000000 cycles: 462477853 heartbeat IPC: 0.383174 cumulative IPC: 0.355235 (Simulation time: 0 hr 9 min 6 sec) 
Heartbeat CPU 0 instructions: 250000000 cycles: 492766514 heartbeat IPC: 0.330157 cumulative IPC: 0.353445 (Simulation time: 0 hr 9 min 35 sec) 
Heartbeat CPU 0 instructions: 260000000 cycles: 519951475 heartbeat IPC: 0.36785 cumulative IPC: 0.354312 (Simulation time: 0 hr 10 min 3 sec) 
Heartbeat CPU 0 instructions: 270000003 cycles: 548575977 heartbeat IPC: 0.349351 cumulative IPC: 0.354016 (Simulation time: 0 hr 10 min 32 sec) 
Heartbeat CPU 0 instructions: 280000000 cycles: 577014150 heartbeat IPC: 0.35164 cumulative IPC: 0.353883 (Simulation time: 0 hr 11 min 1 sec) 
Heartbeat CPU 0 instructions: 290000000 cycles: 606089482 heartbeat IPC: 0.343934 cumulative IPC: 0.353345 (Simulation time: 0 hr 11 min 31 sec) 
Heartbeat CPU 0 instructions: 300000000 cycles: 636769551 heartbeat IPC: 0.325945 cumulative IPC: 0.351866 (Simulation time: 0 hr 11 min 59 sec) 
Heartbeat CPU 0 instructions: 310000001 cycles: 666648608 heartbeat IPC: 0.334683 cumulative IPC: 0.351008 (Simulation time: 0 hr 12 min 27 sec) 
Heartbeat CPU 0 instructions: 320000000 cycles: 695442070 heartbeat IPC: 0.347301 cumulative IPC: 0.350838 (Simulation time: 0 hr 12 min 55 sec) 
Heartbeat CPU 0 instructions: 330000000 cycles: 724505513 heartbeat IPC: 0.344075 cumulative IPC: 0.350538 (Simulation time: 0 hr 13 min 23 sec) 
Heartbeat CPU 0 instructions: 340000000 cycles: 754219561 heartbeat IPC: 0.336541 cumulative IPC: 0.349932 (Simulation time: 0 hr 13 min 51 sec) 
Heartbeat CPU 0 instructions: 350000003 cycles: 781532957 heartbeat IPC: 0.366121 cumulative IPC: 0.350552 (Simulation time: 0 hr 14 min 19 sec) 
Heartbeat CPU 0 instructions: 360000000 cycles: 810780421 heartbeat IPC: 0.34191 cumulative IPC: 0.350212 (Simulation time: 0 hr 14 min 46 sec) 
Heartbeat CPU 0 instructions: 370000000 cycles: 839811621 heartbeat IPC: 0.344457 cumulative IPC: 0.349995 (Simulation time: 0 hr 15 min 13 sec) 
Heartbeat CPU 0 instructions: 380000000 cycles: 869015935 heartbeat IPC: 0.342415 cumulative IPC: 0.349719 (Simulation time: 0 hr 15 min 41 sec) 
Heartbeat CPU 0 instructions: 390000001 cycles: 897168997 heartbeat IPC: 0.355201 cumulative IPC: 0.349905 (Simulation time: 0 hr 16 min 8 sec) 
Heartbeat CPU 0 instructions: 400000000 cycles: 926378570 heartbeat IPC: 0.342353 cumulative IPC: 0.349648 (Simulation time: 0 hr 16 min 35 sec) 
Heartbeat CPU 0 instructions: 410000001 cycles: 954051125 heartbeat IPC: 0.361369 cumulative IPC: 0.350014 (Simulation time: 0 hr 17 min 2 sec) 
Heartbeat CPU 0 instructions: 420000000 cycles: 981676987 heartbeat IPC: 0.36198 cumulative IPC: 0.350376 (Simulation time: 0 hr 17 min 28 sec) 
Heartbeat CPU 0 instructions: 430000002 cycles: 1009722504 heartbeat IPC: 0.356563 cumulative IPC: 0.35056 (Simulation time: 0 hr 17 min 55 sec) 
Heartbeat CPU 0 instructions: 440000000 cycles: 1039796718 heartbeat IPC: 0.332511 cumulative IPC: 0.350001 (Simulation time: 0 hr 18 min 23 sec) 
Heartbeat CPU 0 instructions: 450000002 cycles: 1069597167 heartbeat IPC: 0.335565 cumulative IPC: 0.349572 (Simulation time: 0 hr 18 min 50 sec) 
Heartbeat CPU 0 instructions: 460000000 cycles: 1097647784 heartbeat IPC: 0.356498 cumulative IPC: 0.349761 (Simulation time: 0 hr 19 min 17 sec) 
Heartbeat CPU 0 instructions: 470000000 cycles: 1125484561 heartbeat IPC: 0.359237 cumulative IPC: 0.35001 (Simulation time: 0 hr 19 min 44 sec) 
Heartbeat CPU 0 instructions: 480000000 cycles: 1153542640 heartbeat IPC: 0.356404 cumulative IPC: 0.350175 (Simulation time: 0 hr 20 min 11 sec) 
Heartbeat CPU 0 instructions: 490000000 cycles: 1181274276 heartbeat IPC: 0.360599 cumulative IPC: 0.350435 (Simulation time: 0 hr 20 min 38 sec) 
Heartbeat CPU 0 instructions: 500000000 cycles: 1209742470 heartbeat IPC: 0.351269 cumulative IPC: 0.350456 (Simulation time: 0 hr 21 min 5 sec) 
Heartbeat CPU 0 instructions: 510000000 cycles: 1244308231 heartbeat IPC: 0.289304 cumulative IPC: 0.348658 (Simulation time: 0 hr 21 min 35 sec) 
Heartbeat CPU 0 instructions: 520000000 cycles: 1272558763 heartbeat IPC: 0.353976 cumulative IPC: 0.348783 (Simulation time: 0 hr 22 min 3 sec) 
Heartbeat CPU 0 instructions: 530000001 cycles: 1303121096 heartbeat IPC: 0.3272 cumulative IPC: 0.348249 (Simulation time: 0 hr 22 min 31 sec) 
Heartbeat CPU 0 instructions: 540000000 cycles: 1331924394 heartbeat IPC: 0.347182 cumulative IPC: 0.348225 (Simulation time: 0 hr 22 min 59 sec) 
Heartbeat CPU 0 instructions: 550000001 cycles: 1361405203 heartbeat IPC: 0.339204 cumulative IPC: 0.348019 (Simulation time: 0 hr 23 min 29 sec) 
Heartbeat CPU 0 instructions: 560000000 cycles: 1387044443 heartbeat IPC: 0.390027 cumulative IPC: 0.348836 (Simulation time: 0 hr 23 min 56 sec) 
Heartbeat CPU 0 instructions: 570000000 cycles: 1417385946 heartbeat IPC: 0.329582 cumulative IPC: 0.348403 (Simulation time: 0 hr 24 min 25 sec) 
Heartbeat CPU 0 instructions: 580000000 cycles: 1445903029 heartbeat IPC: 0.350667 cumulative IPC: 0.34845 (Simulation time: 0 hr 24 min 53 sec) 
Heartbeat CPU 0 instructions: 590000001 cycles: 1470826109 heartbeat IPC: 0.401235 cumulative IPC: 0.349388 (Simulation time: 0 hr 25 min 20 sec) 
Heartbeat CPU 0 instructions: 600000000 cycles: 1497260524 heartbeat IPC: 0.378295 cumulative IPC: 0.349922 (Simulation time: 0 hr 25 min 47 sec) 
Finished CPU 0 instructions: 500000000 cycles: 1428888396 cumulative IPC: 0.349922 (Simulation time: 0 hr 25 min 47 sec) 

CPU 0 Branch Prediction Accuracy: 86.4311% MPKI: 26.2662
Number of Branches: 96788573 Number of Mispredictions: 13133102
Number of LOAD Instructions: 164682285
Number of LOAD Instructions (ROI): 164682285
Number of STORE Instructions: 78194750
Number of STORE Instructions (ROI): 78194750
Total Destination Memory Operands: 83268534
Total Destination Memory Operands (ROI): 83268534
Total Source Memory Operands: 164712438
Total Source Memory Operands (ROI): 164712438
Number of DEPENDED LOADS: 7054422
Number of DEPENDED LOADS (ROI): 7054422
Number of SQ_ADDED: 83268522
Number of SQ_ADDED (ROI): 83268522
Number of LQ_ADDED: 236696229
Number of LQ_ADDED (ROI): 236696229
Number of Instructions read from trace: 600000066

ChampSim completed all CPUs

Region of Interest Statistics

CPU 0 cumulative IPC: 0.349922 instructions: 500000000 cycles: 1428888396
ITLB TOTAL     ACCESS:  100525987  HIT:  100321541  MISS:     204446
ITLB LOAD      ACCESS:  100525987  HIT:  100321541  MISS:     204446
ITLB RFO       ACCESS:          0  HIT:          0  MISS:          0
ITLB PREFETCH  ACCESS:          0  HIT:          0  MISS:          0
ITLB WRITEBACK ACCESS:          0  HIT:          0  MISS:          0
ITLB PREFETCH  REQUESTED:          0  ISSUED:          0  USEFUL:          0  USELESS:          0
ITLB TOTAL MSHR MERGED:     172423
ITLB LOAD MSHR MERGED:     172423
ITLB RFO MSHR MERGED:          0
ITLB PREFETCH MSHR MERGED:          0
ITLB WRITEBACK MSHR MERGED:          0
ITLB TOTAL ACCESSES:  100698410 HITS:  100321541 MISSES:     376869
ITLB LOAD ACCESSES:  100698410 HITS:  100321541 MISSES:     376869
ITLB RFO ACCESSES:          0 HITS:          0 MISSES:          0
ITLB PREFETCH ACCESSES:          0 HITS:          0 MISSES:          0
ITLB WRITEBACK ACCESSES:          0 HITS:          0 MISSES:          0
ITLB RQ ACCESS:  500000057
ITLB RQ TO_CACHE:  100698410
ITLB RQ MERGED:  399301647
ITLB RQ FORWARD:          0
ITLB WQ ACCESS:          0
ITLB WQ TO_CACHE:          0
ITLB WQ MERGED:          0
ITLB WQ FORWARD:          0
DTLB TOTAL     ACCESS:  165346694  HIT:  164712342  MISS:     634352
DTLB LOAD      ACCESS:  106299561  HIT:  105729610  MISS:     569951
DTLB RFO       ACCESS:   59047133  HIT:   58982732  MISS:      64401
DTLB PREFETCH  ACCESS:          0  HIT:          0  MISS:          0
DTLB WRITEBACK ACCESS:          0  HIT:          0  MISS:          0
DTLB PREFETCH  REQUESTED:          0  ISSUED:          0  USEFUL:          0  USELESS:          0
DTLB TOTAL MSHR MERGED:      99797
DTLB LOAD MSHR MERGED:      59295
DTLB RFO MSHR MERGED:      40502
DTLB PREFETCH MSHR MERGED:          0
DTLB WRITEBACK MSHR MERGED:          0
DTLB TOTAL ACCESSES:  165446491 HITS:  164712342 MISSES:     734149
DTLB LOAD ACCESSES:  106358856 HITS:  105729610 MISSES:     629246
DTLB RFO ACCESSES:   59087635 HITS:   58982732 MISSES:     104903
DTLB PREFETCH ACCESSES:          0 HITS:          0 MISSES:          0
DTLB WRITEBACK ACCESSES:          0 HITS:          0 MISSES:          0
DTLB RQ ACCESS:  200316484
DTLB RQ TO_CACHE:  165446491
DTLB RQ MERGED:   34869993
DTLB RQ FORWARD:          0
DTLB WQ ACCESS:          0
DTLB WQ TO_CACHE:          0
DTLB WQ MERGED:          0
DTLB WQ FORWARD:          0
L1D TOTAL     ACCESS:  281868637  HIT:  273959230  MISS:    7909407
L1D LOAD      ACCESS:  110431003  HIT:  107153596  MISS:    3277407
L1D RFO       ACCESS:   67126953  HIT:   66236757  MISS:     890196
L1D PREFETCH  ACCESS:  104310681  HIT:  100568877  MISS:    3741804
L1D WRITEBACK ACCESS:          0  HIT:          0  MISS:          0
L1D PREFETCH  REQUESTED:  110825872  ISSUED:  109126484  USEFUL:    1662419  USELESS:    2079349
L1D TOTAL MSHR MERGED:    2855092
L1D LOAD MSHR MERGED:     491931
L1D RFO MSHR MERGED:    1858543
L1D PREFETCH MSHR MERGED:     504618
L1D WRITEBACK MSHR MERGED:          0
L1D TOTAL ACCESSES:  284751138 HITS:  273986639 MISSES:   10764499
L1D LOAD ACCESSES:  110827307 HITS:  107155031 MISSES:    3672276
L1D RFO ACCESSES:   68974060 HITS:   66236757 MISSES:    2737303
L1D PREFETCH ACCESSES:  104949771 HITS:  100594851 MISSES:    4354920
L1D WRITEBACK ACCESSES:          0 HITS:          0 MISSES:          0
L1D RQ ACCESS:  130763881
L1D RQ TO_CACHE:  110825875
L1D RQ MERGED:   19936571
L1D RQ FORWARD:          0
L1D WQ ACCESS:   69552603
L1D WQ TO_CACHE:   68974061
L1D WQ MERGED:     578542
L1D WQ FORWARD:      27409
L1I TOTAL     ACCESS:  126572578  HIT:  122334026  MISS:    4238552
L1I LOAD      ACCESS:  126572578  HIT:  122334026  MISS:    4238552
L1I RFO       ACCESS:          0  HIT:          0  MISS:          0
L1I PREFETCH  ACCESS:          0  HIT:          0  MISS:          0
L1I WRITEBACK ACCESS:          0  HIT:          0  MISS:          0
L1I PREFETCH  REQUESTED:          0  ISSUED:          0  USEFUL:          0  USELESS:          0
L1I TOTAL MSHR MERGED:    1835372
L1I LOAD MSHR MERGED:    1835372
L1I RFO MSHR MERGED:          0
L1I PREFETCH MSHR MERGED:          0
L1I WRITEBACK MSHR MERGED:          0
L1I TOTAL ACCESSES:  128407953 HITS:  122334026 MISSES:    6073927
L1I LOAD ACCESSES:  128407953 HITS:  122334026 MISSES:    6073927
L1I RFO ACCESSES:          0 HITS:          0 MISSES:          0
L1I PREFETCH ACCESSES:          0 HITS:          0 MISSES:          0
L1I WRITEBACK ACCESSES:          0 HITS:          0 MISSES:          0
L1I RQ ACCESS:  500000057
L1I RQ TO_CACHE:  128407953
L1I RQ MERGED:  371592104
L1I RQ FORWARD:          0
L1I WQ ACCESS:          0
L1I WQ TO_CACHE:          0
L1I WQ MERGED:          0
L1I WQ FORWARD:          0
L2C TOTAL     ACCESS:   14906061  HIT:   11159546  MISS:    3746515
L2C LOAD      ACCESS:    7418688  HIT:    5098985  MISS:    2319703
L2C RFO       ACCESS:     878664  HIT:     409908  MISS:     468756
L2C PREFETCH  ACCESS:    4569461  HIT:    3628664  MISS:     940797
L2C WRITEBACK ACCESS:    2039248  HIT:    2021989  MISS:      17259
L2C PREFETCH  REQUESTED:     842767  ISSUED:     842767  USEFUL:     203612  USELESS:     736892
L2C TOTAL MSHR MERGED:       6287
L2C LOAD MSHR MERGED:        588
L2C RFO MSHR MERGED:          0
L2C PREFETCH MSHR MERGED:       5699
L2C WRITEBACK MSHR MERGED:          0
L2C TOTAL ACCESSES:   14913240 HITS:   11159993 MISSES:    3753247
L2C LOAD ACCESSES:    7418897 HITS:    5099194 MISSES:    2319703
L2C RFO ACCESSES:     878760 HITS:     410004 MISSES:     468756
L2C PREFETCH ACCESSES:    4576335 HITS:    3628806 MISSES:     947529
L2C WRITEBACK ACCESSES:    2039248 HITS:    2021989 MISSES:      17259
L2C RQ ACCESS:    8297660
L2C RQ TO_CACHE:    8297355
L2C RQ MERGED:          0
L2C RQ FORWARD:          0
L2C WQ ACCESS:    2039248
L2C WQ TO_CACHE:    2039248
L2C WQ MERGED:          0
L2C WQ FORWARD:        447
LLC TOTAL     ACCESS:    4609846  HIT:    3809666  MISS:     800180
LLC LOAD      ACCESS:    2319101  HIT:    1896973  MISS:     422128
LLC RFO       ACCESS:     468747  HIT:     414768  MISS:      53979
LLC PREFETCH  ACCESS:     941710  HIT:     653087  MISS:     288623
LLC WRITEBACK ACCESS:     880288  HIT:     844838  MISS:      35450
LLC PREFETCH  REQUESTED:          0  ISSUED:          0  USEFUL:      17501  USELESS:     270354
LLC TOTAL MSHR MERGED:         99
LLC LOAD MSHR MERGED:         29
LLC RFO MSHR MERGED:          0
LLC PREFETCH MSHR MERGED:         70
LLC WRITEBACK MSHR MERGED:          0
LLC TOTAL ACCESSES:    4609980 HITS:    3809701 MISSES:     800279
LLC LOAD ACCESSES:    2319115 HITS:    1896987 MISSES:     422128
LLC RFO ACCESSES:     468756 HITS:     414777 MISSES:      53979
LLC PREFETCH ACCESSES:     941821 HITS:     653099 MISSES:     288722
LLC WRITEBACK ACCESSES:     880288 HITS:     844838 MISSES:      35450
LLC 0 RQ ACCESS:    2787871
LLC 0 RQ TO_CACHE:    2787848
LLC 0 RQ MERGED:          0
LLC 0 RQ FORWARD:          0
LLC WQ ACCESS:     880288
LLC WQ TO_CACHE:     880288
LLC WQ MERGED:          0
LLC WQ FORWARD:         35
Major fault: 0 Minor fault: 12862
CPU 0 L1D next line prefetcher final stats
CPU 0 L2C PC-based stride prefetcher final stats
All Misses: 925525
All Hits: 4501327
SD Algo Stats - Switches: 0 SRR-Repls: 475419 BRR-Repls: 0

DRAM Statistics
 CHANNEL 0
 RQ ROW_BUFFER_HIT:     171874  ROW_BUFFER_MISS:     591445
 DBUS_CONGESTED:     340623
 WQ ROW_BUFFER_HIT:       9309  ROW_BUFFER_MISS:     150221  FULL:          0

 AVG_CONGESTED_CYCLE: 13
LOADS RETIRED: 136549171
INSTR RETIRED: 500000000
