
*** ChampSim Multicore Out-of-Order Simulator ***

Warmup Instructions: 100000000
Simulation Instructions: 500000000
Number of CPUs: 1
LLC sets: 2048
LLC ways: 16
Clean RRIP Policies: 2213230222132302 Dirty RRIP Policies: 1203230212032302 PSEL Width: 10 Track Set: 4294967295 PSEL Mask: 1 Demote Mask: 1040100010401000DS Algo: 0Window size: 0
Off-chip DRAM Size: 4096 MB Channels: 1 Width: 64-bit Data Rate: 1600 MT/s

CPU 0 runs /mnt/beegfs/iconst01/spec2017/Xz.trace.gz
NOT SORTED
TRACE STRING: /mnt/beegfs/iconst01/spec2017/Xz.trace.gz
SORTED
TRACE STRING: /mnt/beegfs/iconst01/spec2017/Xz.trace.gz
INITIAL
TRACE STRING: /mnt/beegfs/iconst01/spec2017/Xz.trace.gz

champsim_seed used: 210

CPU 0 L1D next line prefetcher
CPU 0 L2C IP-based stride prefetcher
Initialize DRRIP state
Assign rand_sets[0]: 454  LLC: 2048
rand_sets[0]: 454
Assign rand_sets[1]: 1662  LLC: 2048
rand_sets[1]: 1662
Assign rand_sets[2]: 1921  LLC: 2048
rand_sets[2]: 1921
Assign rand_sets[3]: 1131  LLC: 2048
rand_sets[3]: 1131
Assign rand_sets[4]: 331  LLC: 2048
rand_sets[4]: 331
Assign rand_sets[5]: 1531  LLC: 2048
rand_sets[5]: 1531
Assign rand_sets[6]: 482  LLC: 2048
rand_sets[6]: 482
Assign rand_sets[7]: 1275  LLC: 2048
rand_sets[7]: 1275
Assign rand_sets[8]: 1876  LLC: 2048
rand_sets[8]: 1876
Assign rand_sets[9]: 2038  LLC: 2048
rand_sets[9]: 2038
Assign rand_sets[10]: 701  LLC: 2048
rand_sets[10]: 701
Assign rand_sets[11]: 479  LLC: 2048
rand_sets[11]: 479
Assign rand_sets[12]: 892  LLC: 2048
rand_sets[12]: 892
Assign rand_sets[13]: 1820  LLC: 2048
rand_sets[13]: 1820
Assign rand_sets[14]: 1505  LLC: 2048
rand_sets[14]: 1505
Assign rand_sets[15]: 1159  LLC: 2048
rand_sets[15]: 1159
Assign rand_sets[16]: 513  LLC: 2048
rand_sets[16]: 513
Assign rand_sets[17]: 703  LLC: 2048
rand_sets[17]: 703
Assign rand_sets[18]: 561  LLC: 2048
rand_sets[18]: 561
Assign rand_sets[19]: 990  LLC: 2048
rand_sets[19]: 990
Assign rand_sets[20]: 342  LLC: 2048
rand_sets[20]: 342
Assign rand_sets[21]: 882  LLC: 2048
rand_sets[21]: 882
Assign rand_sets[22]: 15  LLC: 2048
rand_sets[22]: 15
Assign rand_sets[23]: 71  LLC: 2048
rand_sets[23]: 71
Assign rand_sets[24]: 1127  LLC: 2048
rand_sets[24]: 1127
Assign rand_sets[25]: 1382  LLC: 2048
rand_sets[25]: 1382
Assign rand_sets[26]: 647  LLC: 2048
rand_sets[26]: 647
Assign rand_sets[27]: 857  LLC: 2048
rand_sets[27]: 857
Assign rand_sets[28]: 1450  LLC: 2048
rand_sets[28]: 1450
Assign rand_sets[29]: 1160  LLC: 2048
rand_sets[29]: 1160
Assign rand_sets[30]: 1852  LLC: 2048
rand_sets[30]: 1852
Assign rand_sets[31]: 1881  LLC: 2048
rand_sets[31]: 1881
Assign rand_sets[32]: 1770  LLC: 2048
rand_sets[32]: 1770
Assign rand_sets[33]: 1622  LLC: 2048
rand_sets[33]: 1622
Assign rand_sets[34]: 275  LLC: 2048
rand_sets[34]: 275
Assign rand_sets[35]: 635  LLC: 2048
rand_sets[35]: 635
Assign rand_sets[36]: 466  LLC: 2048
rand_sets[36]: 466
Assign rand_sets[37]: 1413  LLC: 2048
rand_sets[37]: 1413
Assign rand_sets[38]: 417  LLC: 2048
rand_sets[38]: 417
Assign rand_sets[39]: 472  LLC: 2048
rand_sets[39]: 472
Assign rand_sets[40]: 1340  LLC: 2048
rand_sets[40]: 1340
Assign rand_sets[41]: 852  LLC: 2048
rand_sets[41]: 852
Assign rand_sets[42]: 1365  LLC: 2048
rand_sets[42]: 1365
Assign rand_sets[43]: 47  LLC: 2048
rand_sets[43]: 47
Assign rand_sets[44]: 823  LLC: 2048
rand_sets[44]: 823
Assign rand_sets[45]: 686  LLC: 2048
rand_sets[45]: 686
Assign rand_sets[46]: 1637  LLC: 2048
rand_sets[46]: 1637
Assign rand_sets[47]: 1115  LLC: 2048
rand_sets[47]: 1115
Assign rand_sets[48]: 986  LLC: 2048
rand_sets[48]: 986
Assign rand_sets[49]: 258  LLC: 2048
rand_sets[49]: 258
Assign rand_sets[50]: 633  LLC: 2048
rand_sets[50]: 633
Assign rand_sets[51]: 920  LLC: 2048
rand_sets[51]: 920
Assign rand_sets[52]: 204  LLC: 2048
rand_sets[52]: 204
Assign rand_sets[53]: 227  LLC: 2048
rand_sets[53]: 227
Assign rand_sets[54]: 1818  LLC: 2048
rand_sets[54]: 1818
Assign rand_sets[55]: 886  LLC: 2048
rand_sets[55]: 886
Assign rand_sets[56]: 1422  LLC: 2048
rand_sets[56]: 1422
Assign rand_sets[57]: 607  LLC: 2048
rand_sets[57]: 607
Assign rand_sets[58]: 217  LLC: 2048
rand_sets[58]: 217
Assign rand_sets[59]: 1945  LLC: 2048
rand_sets[59]: 1945
Assign rand_sets[60]: 143  LLC: 2048
rand_sets[60]: 143
Assign rand_sets[61]: 1311  LLC: 2048
rand_sets[61]: 1311
Assign rand_sets[62]: 319  LLC: 2048
rand_sets[62]: 319
Assign rand_sets[63]: 1846  LLC: 2048
rand_sets[63]: 1846
 CLEAN-RRIP-POLICY-1: 2-2-1-3-2-3-0-2- CLEAN-RRIP-POLICY-2: 2-2-1-3-2-3-0-2-
 DIRTY-RRIP-POLICY-1: 1-2-0-3-2-3-0-2- DIRTY-RRIP-POLICY-2: 1-2-0-3-2-3-0-2-
 PSEL width: 10
Heartbeat CPU 0 instructions: 10000000 cycles: 4305270 heartbeat IPC: 2.32273 cumulative IPC: 2.32273 (Simulation time: 0 hr 0 min 12 sec) 
Heartbeat CPU 0 instructions: 20000000 cycles: 8617101 heartbeat IPC: 2.3192 cumulative IPC: 2.32097 (Simulation time: 0 hr 0 min 24 sec) 
Heartbeat CPU 0 instructions: 30000003 cycles: 13160977 heartbeat IPC: 2.20076 cumulative IPC: 2.27947 (Simulation time: 0 hr 0 min 36 sec) 
Heartbeat CPU 0 instructions: 40000000 cycles: 17515455 heartbeat IPC: 2.29649 cumulative IPC: 2.2837 (Simulation time: 0 hr 0 min 48 sec) 
Heartbeat CPU 0 instructions: 50000001 cycles: 21878231 heartbeat IPC: 2.29212 cumulative IPC: 2.28538 (Simulation time: 0 hr 1 min 0 sec) 
Heartbeat CPU 0 instructions: 60000000 cycles: 26178394 heartbeat IPC: 2.32549 cumulative IPC: 2.29197 (Simulation time: 0 hr 1 min 11 sec) 
Heartbeat CPU 0 instructions: 70000001 cycles: 30244263 heartbeat IPC: 2.4595 cumulative IPC: 2.31449 (Simulation time: 0 hr 1 min 22 sec) 
Heartbeat CPU 0 instructions: 80000000 cycles: 34523013 heartbeat IPC: 2.33713 cumulative IPC: 2.31729 (Simulation time: 0 hr 1 min 34 sec) 
Heartbeat CPU 0 instructions: 90000001 cycles: 38739605 heartbeat IPC: 2.37158 cumulative IPC: 2.3232 (Simulation time: 0 hr 1 min 45 sec) 
Heartbeat CPU 0 instructions: 100000000 cycles: 42979951 heartbeat IPC: 2.3583 cumulative IPC: 2.32667 (Simulation time: 0 hr 1 min 56 sec) 

Warmup complete CPU 0 instructions: 100000001 cycles: 42979952 (Simulation time: 0 hr 1 min 56 sec) 

Heartbeat CPU 0 instructions: 110000000 cycles: 53087799 heartbeat IPC: 0.98933 cumulative IPC: 0.98933 (Simulation time: 0 hr 2 min 13 sec) 
Heartbeat CPU 0 instructions: 120000000 cycles: 63677517 heartbeat IPC: 0.944312 cumulative IPC: 0.966297 (Simulation time: 0 hr 2 min 31 sec) 
Heartbeat CPU 0 instructions: 130000001 cycles: 74239652 heartbeat IPC: 0.946778 cumulative IPC: 0.959702 (Simulation time: 0 hr 2 min 48 sec) 
Heartbeat CPU 0 instructions: 140000000 cycles: 83912459 heartbeat IPC: 1.03383 cumulative IPC: 0.977218 (Simulation time: 0 hr 3 min 5 sec) 
Heartbeat CPU 0 instructions: 150000001 cycles: 94196817 heartbeat IPC: 0.972351 cumulative IPC: 0.976241 (Simulation time: 0 hr 3 min 22 sec) 
Heartbeat CPU 0 instructions: 160000000 cycles: 104227956 heartbeat IPC: 0.996896 cumulative IPC: 0.979624 (Simulation time: 0 hr 3 min 39 sec) 
Heartbeat CPU 0 instructions: 170000000 cycles: 113870299 heartbeat IPC: 1.03709 cumulative IPC: 0.98744 (Simulation time: 0 hr 3 min 55 sec) 
Heartbeat CPU 0 instructions: 180000000 cycles: 124381147 heartbeat IPC: 0.951398 cumulative IPC: 0.982787 (Simulation time: 0 hr 4 min 13 sec) 
Heartbeat CPU 0 instructions: 190000001 cycles: 134610342 heartbeat IPC: 0.977594 cumulative IPC: 0.982207 (Simulation time: 0 hr 4 min 30 sec) 
Heartbeat CPU 0 instructions: 200000000 cycles: 145140258 heartbeat IPC: 0.949675 cumulative IPC: 0.978854 (Simulation time: 0 hr 4 min 47 sec) 
Heartbeat CPU 0 instructions: 210000002 cycles: 157537461 heartbeat IPC: 0.806634 cumulative IPC: 0.960216 (Simulation time: 0 hr 5 min 5 sec) 
Heartbeat CPU 0 instructions: 220000000 cycles: 170020810 heartbeat IPC: 0.801067 cumulative IPC: 0.944578 (Simulation time: 0 hr 5 min 24 sec) 
Heartbeat CPU 0 instructions: 230000000 cycles: 182138163 heartbeat IPC: 0.825263 cumulative IPC: 0.934188 (Simulation time: 0 hr 5 min 42 sec) 
Heartbeat CPU 0 instructions: 240000000 cycles: 194207826 heartbeat IPC: 0.828524 cumulative IPC: 0.925755 (Simulation time: 0 hr 6 min 0 sec) 
Heartbeat CPU 0 instructions: 250000000 cycles: 206124385 heartbeat IPC: 0.839168 cumulative IPC: 0.919431 (Simulation time: 0 hr 6 min 19 sec) 
Heartbeat CPU 0 instructions: 260000000 cycles: 217622814 heartbeat IPC: 0.869684 cumulative IPC: 0.916155 (Simulation time: 0 hr 6 min 37 sec) 
Heartbeat CPU 0 instructions: 270000003 cycles: 229438983 heartbeat IPC: 0.846298 cumulative IPC: 0.911728 (Simulation time: 0 hr 6 min 55 sec) 
Heartbeat CPU 0 instructions: 280000000 cycles: 240929743 heartbeat IPC: 0.870264 cumulative IPC: 0.909321 (Simulation time: 0 hr 7 min 13 sec) 
Heartbeat CPU 0 instructions: 290000002 cycles: 252380326 heartbeat IPC: 0.873318 cumulative IPC: 0.907353 (Simulation time: 0 hr 7 min 31 sec) 
Heartbeat CPU 0 instructions: 300000000 cycles: 264770665 heartbeat IPC: 0.80708 cumulative IPC: 0.901751 (Simulation time: 0 hr 7 min 49 sec) 
Heartbeat CPU 0 instructions: 310000000 cycles: 276845800 heartbeat IPC: 0.828148 cumulative IPC: 0.897951 (Simulation time: 0 hr 8 min 7 sec) 
Heartbeat CPU 0 instructions: 320000000 cycles: 289428820 heartbeat IPC: 0.794722 cumulative IPC: 0.89268 (Simulation time: 0 hr 8 min 26 sec) 
Heartbeat CPU 0 instructions: 330000003 cycles: 301295667 heartbeat IPC: 0.842684 cumulative IPC: 0.890383 (Simulation time: 0 hr 8 min 44 sec) 
Heartbeat CPU 0 instructions: 340000000 cycles: 313322749 heartbeat IPC: 0.831457 cumulative IPC: 0.887762 (Simulation time: 0 hr 9 min 2 sec) 
Heartbeat CPU 0 instructions: 350000001 cycles: 324274760 heartbeat IPC: 0.913074 cumulative IPC: 0.888747 (Simulation time: 0 hr 9 min 19 sec) 
Heartbeat CPU 0 instructions: 360000000 cycles: 335993186 heartbeat IPC: 0.853357 cumulative IPC: 0.887332 (Simulation time: 0 hr 9 min 37 sec) 
Heartbeat CPU 0 instructions: 370000001 cycles: 347389297 heartbeat IPC: 0.877492 cumulative IPC: 0.886964 (Simulation time: 0 hr 9 min 55 sec) 
Heartbeat CPU 0 instructions: 380000000 cycles: 358363073 heartbeat IPC: 0.911263 cumulative IPC: 0.887809 (Simulation time: 0 hr 10 min 13 sec) 
Heartbeat CPU 0 instructions: 390000003 cycles: 368951433 heartbeat IPC: 0.944434 cumulative IPC: 0.889648 (Simulation time: 0 hr 10 min 31 sec) 
Heartbeat CPU 0 instructions: 400000000 cycles: 379149450 heartbeat IPC: 0.980582 cumulative IPC: 0.892407 (Simulation time: 0 hr 10 min 48 sec) 
Heartbeat CPU 0 instructions: 410000000 cycles: 389642848 heartbeat IPC: 0.95298 cumulative IPC: 0.89424 (Simulation time: 0 hr 11 min 6 sec) 
Heartbeat CPU 0 instructions: 420000000 cycles: 399021093 heartbeat IPC: 1.0663 cumulative IPC: 0.898773 (Simulation time: 0 hr 11 min 23 sec) 
Heartbeat CPU 0 instructions: 430000002 cycles: 408106887 heartbeat IPC: 1.10062 cumulative IPC: 0.903795 (Simulation time: 0 hr 11 min 39 sec) 
Heartbeat CPU 0 instructions: 440000000 cycles: 418336986 heartbeat IPC: 0.977507 cumulative IPC: 0.905804 (Simulation time: 0 hr 11 min 57 sec) 
Heartbeat CPU 0 instructions: 450000002 cycles: 429378164 heartbeat IPC: 0.905701 cumulative IPC: 0.905801 (Simulation time: 0 hr 12 min 14 sec) 
Heartbeat CPU 0 instructions: 460000000 cycles: 440879836 heartbeat IPC: 0.869439 cumulative IPC: 0.90475 (Simulation time: 0 hr 12 min 32 sec) 
Heartbeat CPU 0 instructions: 470000003 cycles: 451054023 heartbeat IPC: 0.98288 cumulative IPC: 0.906698 (Simulation time: 0 hr 12 min 49 sec) 
Heartbeat CPU 0 instructions: 480000000 cycles: 461560261 heartbeat IPC: 0.951815 cumulative IPC: 0.907831 (Simulation time: 0 hr 13 min 7 sec) 
Heartbeat CPU 0 instructions: 490000000 cycles: 471502576 heartbeat IPC: 1.0058 cumulative IPC: 0.910104 (Simulation time: 0 hr 13 min 24 sec) 
Heartbeat CPU 0 instructions: 500000000 cycles: 483241579 heartbeat IPC: 0.851861 cumulative IPC: 0.908551 (Simulation time: 0 hr 13 min 42 sec) 
Heartbeat CPU 0 instructions: 510000002 cycles: 495621412 heartbeat IPC: 0.807765 cumulative IPC: 0.905794 (Simulation time: 0 hr 14 min 0 sec) 
Heartbeat CPU 0 instructions: 520000000 cycles: 507461131 heartbeat IPC: 0.844614 cumulative IPC: 0.904235 (Simulation time: 0 hr 14 min 18 sec) 
Heartbeat CPU 0 instructions: 530000001 cycles: 519267989 heartbeat IPC: 0.846965 cumulative IPC: 0.902815 (Simulation time: 0 hr 14 min 36 sec) 
Heartbeat CPU 0 instructions: 540000000 cycles: 530819795 heartbeat IPC: 0.865665 cumulative IPC: 0.901935 (Simulation time: 0 hr 14 min 54 sec) 
Heartbeat CPU 0 instructions: 550000001 cycles: 542153096 heartbeat IPC: 0.882356 cumulative IPC: 0.901491 (Simulation time: 0 hr 15 min 12 sec) 
Heartbeat CPU 0 instructions: 560000000 cycles: 553668317 heartbeat IPC: 0.868416 cumulative IPC: 0.900745 (Simulation time: 0 hr 15 min 30 sec) 
Heartbeat CPU 0 instructions: 570000000 cycles: 565031218 heartbeat IPC: 0.880057 cumulative IPC: 0.900295 (Simulation time: 0 hr 15 min 48 sec) 
Heartbeat CPU 0 instructions: 580000000 cycles: 575755839 heartbeat IPC: 0.932434 cumulative IPC: 0.900942 (Simulation time: 0 hr 16 min 5 sec) 
Heartbeat CPU 0 instructions: 590000003 cycles: 587097446 heartbeat IPC: 0.88171 cumulative IPC: 0.900541 (Simulation time: 0 hr 16 min 23 sec) 
Heartbeat CPU 0 instructions: 600000000 cycles: 597647481 heartbeat IPC: 0.947864 cumulative IPC: 0.901441 (Simulation time: 0 hr 16 min 40 sec) 
Finished CPU 0 instructions: 500000001 cycles: 554667537 cumulative IPC: 0.901441 (Simulation time: 0 hr 16 min 40 sec) 

CPU 0 Branch Prediction Accuracy: 93.0095% MPKI: 10.0046
Number of Branches: 71558147 Number of Mispredictions: 5002285
Number of LOAD Instructions: 145708893
Number of LOAD Instructions (ROI): 145708893
Number of STORE Instructions: 40463820
Number of STORE Instructions (ROI): 40463820
Total Destination Memory Operands: 45240498
Total Destination Memory Operands (ROI): 45240498
Total Source Memory Operands: 145708893
Total Source Memory Operands (ROI): 145708893
Number of DEPENDED LOADS: 10669987
Number of DEPENDED LOADS (ROI): 10669987
Number of SQ_ADDED: 45240498
Number of SQ_ADDED (ROI): 45240498
Number of LQ_ADDED: 193319406
Number of LQ_ADDED (ROI): 193319406
Number of Instructions read from trace: 600000002

ChampSim completed all CPUs

Region of Interest Statistics

CPU 0 cumulative IPC: 0.901441 instructions: 500000001 cycles: 554667537
ITLB TOTAL     ACCESS:   77992815  HIT:   77992814  MISS:          1
ITLB LOAD      ACCESS:   77992815  HIT:   77992814  MISS:          1
ITLB RFO       ACCESS:          0  HIT:          0  MISS:          0
ITLB PREFETCH  ACCESS:          0  HIT:          0  MISS:          0
ITLB WRITEBACK ACCESS:          0  HIT:          0  MISS:          0
ITLB PREFETCH  REQUESTED:          0  ISSUED:          0  USEFUL:          0  USELESS:          0
ITLB TOTAL MSHR MERGED:          0
ITLB LOAD MSHR MERGED:          0
ITLB RFO MSHR MERGED:          0
ITLB PREFETCH MSHR MERGED:          0
ITLB WRITEBACK MSHR MERGED:          0
ITLB TOTAL ACCESSES:   77992815 HITS:   77992814 MISSES:          1
ITLB LOAD ACCESSES:   77992815 HITS:   77992814 MISSES:          1
ITLB RFO ACCESSES:          0 HITS:          0 MISSES:          0
ITLB PREFETCH ACCESSES:          0 HITS:          0 MISSES:          0
ITLB WRITEBACK ACCESSES:          0 HITS:          0 MISSES:          0
ITLB RQ ACCESS:  499999995
ITLB RQ TO_CACHE:   77992815
ITLB RQ MERGED:  422007180
ITLB RQ FORWARD:          0
ITLB WQ ACCESS:          0
ITLB WQ TO_CACHE:          0
ITLB WQ MERGED:          0
ITLB WQ FORWARD:          0
DTLB TOTAL     ACCESS:   98669854  HIT:   97788518  MISS:     881336
DTLB LOAD      ACCESS:   70889972  HIT:   70028439  MISS:     861533
DTLB RFO       ACCESS:   27779882  HIT:   27760079  MISS:      19803
DTLB PREFETCH  ACCESS:          0  HIT:          0  MISS:          0
DTLB WRITEBACK ACCESS:          0  HIT:          0  MISS:          0
DTLB PREFETCH  REQUESTED:          0  ISSUED:          0  USEFUL:          0  USELESS:          0
DTLB TOTAL MSHR MERGED:      87424
DTLB LOAD MSHR MERGED:      65685
DTLB RFO MSHR MERGED:      21739
DTLB PREFETCH MSHR MERGED:          0
DTLB WRITEBACK MSHR MERGED:          0
DTLB TOTAL ACCESSES:   98757278 HITS:   97788518 MISSES:     968760
DTLB LOAD ACCESSES:   70955657 HITS:   70028439 MISSES:     927218
DTLB RFO ACCESSES:   27801621 HITS:   27760079 MISSES:      41542
DTLB PREFETCH ACCESSES:          0 HITS:          0 MISSES:          0
DTLB WRITEBACK ACCESSES:          0 HITS:          0 MISSES:          0
DTLB RQ ACCESS:  150275067
DTLB RQ TO_CACHE:   98757278
DTLB RQ MERGED:   51517789
DTLB RQ FORWARD:          0
DTLB WQ ACCESS:          0
DTLB WQ TO_CACHE:          0
DTLB WQ MERGED:          0
DTLB WQ FORWARD:          0
L1D TOTAL     ACCESS:  173333016  HIT:  169164394  MISS:    4168622
L1D LOAD      ACCESS:   75283243  HIT:   73401946  MISS:    1881297
L1D RFO       ACCESS:   36778561  HIT:   36571964  MISS:     206597
L1D PREFETCH  ACCESS:   61271212  HIT:   59190484  MISS:    2080728
L1D WRITEBACK ACCESS:          0  HIT:          0  MISS:          0
L1D PREFETCH  REQUESTED:   75386550  ISSUED:   74822363  USEFUL:     415175  USELESS:    1665542
L1D TOTAL MSHR MERGED:     373199
L1D LOAD MSHR MERGED:     112036
L1D RFO MSHR MERGED:     132897
L1D PREFETCH MSHR MERGED:     128266
L1D WRITEBACK MSHR MERGED:          0
L1D TOTAL ACCESSES:  173857842 HITS:  169316021 MISSES:    4541821
L1D LOAD ACCESSES:   75389532 HITS:   73404928 MISSES:    1984604
L1D RFO ACCESSES:   36910070 HITS:   36571964 MISSES:     338106
L1D PREFETCH ACCESSES:   61558240 HITS:   59339129 MISSES:    2219111
L1D WRITEBACK ACCESSES:          0 HITS:          0 MISSES:          0
L1D RQ ACCESS:  112612664
L1D RQ TO_CACHE:   75386550
L1D RQ MERGED:   37223132
L1D RQ FORWARD:          0
L1D WQ ACCESS:   37662403
L1D WQ TO_CACHE:   36910070
L1D WQ MERGED:     752333
L1D WQ FORWARD:     151627
L1I TOTAL     ACCESS:  100700751  HIT:  100700726  MISS:         25
L1I LOAD      ACCESS:  100700751  HIT:  100700726  MISS:         25
L1I RFO       ACCESS:          0  HIT:          0  MISS:          0
L1I PREFETCH  ACCESS:          0  HIT:          0  MISS:          0
L1I WRITEBACK ACCESS:          0  HIT:          0  MISS:          0
L1I PREFETCH  REQUESTED:          0  ISSUED:          0  USEFUL:          0  USELESS:          0
L1I TOTAL MSHR MERGED:         10
L1I LOAD MSHR MERGED:         10
L1I RFO MSHR MERGED:          0
L1I PREFETCH MSHR MERGED:          0
L1I WRITEBACK MSHR MERGED:          0
L1I TOTAL ACCESSES:  100700761 HITS:  100700726 MISSES:         35
L1I LOAD ACCESSES:  100700761 HITS:  100700726 MISSES:         35
L1I RFO ACCESSES:          0 HITS:          0 MISSES:          0
L1I PREFETCH ACCESSES:          0 HITS:          0 MISSES:          0
L1I WRITEBACK ACCESSES:          0 HITS:          0 MISSES:          0
L1I RQ ACCESS:  499999995
L1I RQ TO_CACHE:  100700761
L1I RQ MERGED:  399299234
L1I RQ FORWARD:          0
L1I WQ ACCESS:          0
L1I WQ TO_CACHE:          0
L1I WQ MERGED:          0
L1I WQ FORWARD:          0
L2C TOTAL     ACCESS:    5852592  HIT:    4009394  MISS:    1843198
L2C LOAD      ACCESS:    1872469  HIT:    1061510  MISS:     810959
L2C RFO       ACCESS:     205203  HIT:     100564  MISS:     104639
L2C PREFETCH  ACCESS:    2169289  HIT:    1246111  MISS:     923178
L2C WRITEBACK ACCESS:    1605631  HIT:    1601209  MISS:       4422
L2C PREFETCH  REQUESTED:      91709  ISSUED:      91709  USEFUL:      86461  USELESS:     836740
L2C TOTAL MSHR MERGED:        992
L2C LOAD MSHR MERGED:        250
L2C RFO MSHR MERGED:          0
L2C PREFETCH MSHR MERGED:        742
L2C WRITEBACK MSHR MERGED:          0
L2C TOTAL ACCESSES:    5853922 HITS:    4009561 MISSES:    1844361
L2C LOAD ACCESSES:    1872593 HITS:    1061634 MISSES:     810959
L2C RFO ACCESSES:     205209 HITS:     100570 MISSES:     104639
L2C PREFETCH ACCESSES:    2170489 HITS:    1246148 MISSES:     924341
L2C WRITEBACK ACCESSES:    1605631 HITS:    1601209 MISSES:       4422
L2C RQ ACCESS:    2077802
L2C RQ TO_CACHE:    2077672
L2C RQ MERGED:          0
L2C RQ FORWARD:          0
L2C WQ ACCESS:    1605631
L2C WQ TO_CACHE:    1605631
L2C WQ MERGED:          0
L2C WQ FORWARD:        167
LLC TOTAL     ACCESS:    2673585  HIT:    2211020  MISS:     462565
LLC LOAD      ACCESS:     810700  HIT:     649491  MISS:     161209
LLC RFO       ACCESS:     104639  HIT:      60720  MISS:      43919
LLC PREFETCH  ACCESS:     923571  HIT:     694151  MISS:     229420
LLC WRITEBACK ACCESS:     834675  HIT:     806658  MISS:      28017
LLC PREFETCH  REQUESTED:          0  ISSUED:          0  USEFUL:       7081  USELESS:     222639
LLC TOTAL MSHR MERGED:          6
LLC LOAD MSHR MERGED:          1
LLC RFO MSHR MERGED:          0
LLC PREFETCH MSHR MERGED:          5
LLC WRITEBACK MSHR MERGED:          0
LLC TOTAL ACCESSES:    2673602 HITS:    2211031 MISSES:     462571
LLC LOAD ACCESSES:     810709 HITS:     649500 MISSES:     161209
LLC RFO ACCESSES:     104639 HITS:      60720 MISSES:      43919
LLC PREFETCH ACCESSES:     923579 HITS:     694153 MISSES:     229426
LLC WRITEBACK ACCESSES:     834675 HITS:     806658 MISSES:      28017
LLC 0 RQ ACCESS:     915348
LLC 0 RQ TO_CACHE:     915339
LLC 0 RQ MERGED:          0
LLC 0 RQ FORWARD:          0
LLC WQ ACCESS:     834675
LLC WQ TO_CACHE:     834675
LLC WQ MERGED:          0
LLC WQ FORWARD:         11
Major fault: 0 Minor fault: 11278
CPU 0 L1D next line prefetcher final stats
CPU 0 L2C PC-based stride prefetcher final stats
All Misses: 572659
All Hits: 2481944
SD Algo Stats - Switches: 0 SRR-Repls: 193584 BRR-Repls: 0

DRAM Statistics
 CHANNEL 0
 RQ ROW_BUFFER_HIT:      28915  ROW_BUFFER_MISS:     405373
 DBUS_CONGESTED:     331978
 WQ ROW_BUFFER_HIT:      12891  ROW_BUFFER_MISS:     191155  FULL:          0

 AVG_CONGESTED_CYCLE: 13
LOADS RETIRED: 121769268
INSTR RETIRED: 500000000
