
*** ChampSim Multicore Out-of-Order Simulator ***

Warmup Instructions: 100000000
Simulation Instructions: 500000000
Number of CPUs: 1
LLC sets: 2048
LLC ways: 16
Clean RRIP Policies: 1213220112132201 Dirty RRIP Policies: 2213021122130211 PSEL Width: 10 Track Set: 4294967295 PSEL Mask: 1 Demote Mask: 3340011033400110DS Algo: 0Window size: 0
Off-chip DRAM Size: 4096 MB Channels: 1 Width: 64-bit Data Rate: 1600 MT/s

CPU 0 runs /mnt/beegfs/iconst01/spec2017/Fotonik3d.trace.gz
NOT SORTED
TRACE STRING: /mnt/beegfs/iconst01/spec2017/Fotonik3d.trace.gz
SORTED
TRACE STRING: /mnt/beegfs/iconst01/spec2017/Fotonik3d.trace.gz
INITIAL
TRACE STRING: /mnt/beegfs/iconst01/spec2017/Fotonik3d.trace.gz

champsim_seed used: 881

CPU 0 L1D next line prefetcher
CPU 0 L2C IP-based stride prefetcher
Initialize DRRIP state
Assign rand_sets[0]: 454  LLC: 2048
rand_sets[0]: 454
Assign rand_sets[1]: 1662  LLC: 2048
rand_sets[1]: 1662
Assign rand_sets[2]: 1921  LLC: 2048
rand_sets[2]: 1921
Assign rand_sets[3]: 1131  LLC: 2048
rand_sets[3]: 1131
Assign rand_sets[4]: 331  LLC: 2048
rand_sets[4]: 331
Assign rand_sets[5]: 1531  LLC: 2048
rand_sets[5]: 1531
Assign rand_sets[6]: 482  LLC: 2048
rand_sets[6]: 482
Assign rand_sets[7]: 1275  LLC: 2048
rand_sets[7]: 1275
Assign rand_sets[8]: 1876  LLC: 2048
rand_sets[8]: 1876
Assign rand_sets[9]: 2038  LLC: 2048
rand_sets[9]: 2038
Assign rand_sets[10]: 701  LLC: 2048
rand_sets[10]: 701
Assign rand_sets[11]: 479  LLC: 2048
rand_sets[11]: 479
Assign rand_sets[12]: 892  LLC: 2048
rand_sets[12]: 892
Assign rand_sets[13]: 1820  LLC: 2048
rand_sets[13]: 1820
Assign rand_sets[14]: 1505  LLC: 2048
rand_sets[14]: 1505
Assign rand_sets[15]: 1159  LLC: 2048
rand_sets[15]: 1159
Assign rand_sets[16]: 513  LLC: 2048
rand_sets[16]: 513
Assign rand_sets[17]: 703  LLC: 2048
rand_sets[17]: 703
Assign rand_sets[18]: 561  LLC: 2048
rand_sets[18]: 561
Assign rand_sets[19]: 990  LLC: 2048
rand_sets[19]: 990
Assign rand_sets[20]: 342  LLC: 2048
rand_sets[20]: 342
Assign rand_sets[21]: 882  LLC: 2048
rand_sets[21]: 882
Assign rand_sets[22]: 15  LLC: 2048
rand_sets[22]: 15
Assign rand_sets[23]: 71  LLC: 2048
rand_sets[23]: 71
Assign rand_sets[24]: 1127  LLC: 2048
rand_sets[24]: 1127
Assign rand_sets[25]: 1382  LLC: 2048
rand_sets[25]: 1382
Assign rand_sets[26]: 647  LLC: 2048
rand_sets[26]: 647
Assign rand_sets[27]: 857  LLC: 2048
rand_sets[27]: 857
Assign rand_sets[28]: 1450  LLC: 2048
rand_sets[28]: 1450
Assign rand_sets[29]: 1160  LLC: 2048
rand_sets[29]: 1160
Assign rand_sets[30]: 1852  LLC: 2048
rand_sets[30]: 1852
Assign rand_sets[31]: 1881  LLC: 2048
rand_sets[31]: 1881
Assign rand_sets[32]: 1770  LLC: 2048
rand_sets[32]: 1770
Assign rand_sets[33]: 1622  LLC: 2048
rand_sets[33]: 1622
Assign rand_sets[34]: 275  LLC: 2048
rand_sets[34]: 275
Assign rand_sets[35]: 635  LLC: 2048
rand_sets[35]: 635
Assign rand_sets[36]: 466  LLC: 2048
rand_sets[36]: 466
Assign rand_sets[37]: 1413  LLC: 2048
rand_sets[37]: 1413
Assign rand_sets[38]: 417  LLC: 2048
rand_sets[38]: 417
Assign rand_sets[39]: 472  LLC: 2048
rand_sets[39]: 472
Assign rand_sets[40]: 1340  LLC: 2048
rand_sets[40]: 1340
Assign rand_sets[41]: 852  LLC: 2048
rand_sets[41]: 852
Assign rand_sets[42]: 1365  LLC: 2048
rand_sets[42]: 1365
Assign rand_sets[43]: 47  LLC: 2048
rand_sets[43]: 47
Assign rand_sets[44]: 823  LLC: 2048
rand_sets[44]: 823
Assign rand_sets[45]: 686  LLC: 2048
rand_sets[45]: 686
Assign rand_sets[46]: 1637  LLC: 2048
rand_sets[46]: 1637
Assign rand_sets[47]: 1115  LLC: 2048
rand_sets[47]: 1115
Assign rand_sets[48]: 986  LLC: 2048
rand_sets[48]: 986
Assign rand_sets[49]: 258  LLC: 2048
rand_sets[49]: 258
Assign rand_sets[50]: 633  LLC: 2048
rand_sets[50]: 633
Assign rand_sets[51]: 920  LLC: 2048
rand_sets[51]: 920
Assign rand_sets[52]: 204  LLC: 2048
rand_sets[52]: 204
Assign rand_sets[53]: 227  LLC: 2048
rand_sets[53]: 227
Assign rand_sets[54]: 1818  LLC: 2048
rand_sets[54]: 1818
Assign rand_sets[55]: 886  LLC: 2048
rand_sets[55]: 886
Assign rand_sets[56]: 1422  LLC: 2048
rand_sets[56]: 1422
Assign rand_sets[57]: 607  LLC: 2048
rand_sets[57]: 607
Assign rand_sets[58]: 217  LLC: 2048
rand_sets[58]: 217
Assign rand_sets[59]: 1945  LLC: 2048
rand_sets[59]: 1945
Assign rand_sets[60]: 143  LLC: 2048
rand_sets[60]: 143
Assign rand_sets[61]: 1311  LLC: 2048
rand_sets[61]: 1311
Assign rand_sets[62]: 319  LLC: 2048
rand_sets[62]: 319
Assign rand_sets[63]: 1846  LLC: 2048
rand_sets[63]: 1846
 CLEAN-RRIP-POLICY-1: 1-2-1-3-2-2-0-1- CLEAN-RRIP-POLICY-2: 1-2-1-3-2-2-0-1-
 DIRTY-RRIP-POLICY-1: 2-2-1-3-0-2-1-1- DIRTY-RRIP-POLICY-2: 2-2-1-3-0-2-1-1-
 PSEL width: 10
Heartbeat CPU 0 instructions: 10000002 cycles: 7306725 heartbeat IPC: 1.3686 cumulative IPC: 1.3686 (Simulation time: 0 hr 0 min 25 sec) 
Heartbeat CPU 0 instructions: 20000000 cycles: 14613583 heartbeat IPC: 1.36858 cumulative IPC: 1.36859 (Simulation time: 0 hr 0 min 49 sec) 
Heartbeat CPU 0 instructions: 30000001 cycles: 21920329 heartbeat IPC: 1.3686 cumulative IPC: 1.36859 (Simulation time: 0 hr 1 min 14 sec) 
Heartbeat CPU 0 instructions: 40000000 cycles: 29226937 heartbeat IPC: 1.36862 cumulative IPC: 1.3686 (Simulation time: 0 hr 1 min 39 sec) 
Heartbeat CPU 0 instructions: 50000001 cycles: 36533513 heartbeat IPC: 1.36863 cumulative IPC: 1.36861 (Simulation time: 0 hr 2 min 4 sec) 
Heartbeat CPU 0 instructions: 60000000 cycles: 43840355 heartbeat IPC: 1.36858 cumulative IPC: 1.3686 (Simulation time: 0 hr 2 min 28 sec) 
Heartbeat CPU 0 instructions: 70000002 cycles: 51147014 heartbeat IPC: 1.36861 cumulative IPC: 1.3686 (Simulation time: 0 hr 2 min 53 sec) 
Heartbeat CPU 0 instructions: 80000000 cycles: 58453662 heartbeat IPC: 1.36862 cumulative IPC: 1.36861 (Simulation time: 0 hr 3 min 18 sec) 
Heartbeat CPU 0 instructions: 90000003 cycles: 65764073 heartbeat IPC: 1.36791 cumulative IPC: 1.36853 (Simulation time: 0 hr 3 min 43 sec) 
Heartbeat CPU 0 instructions: 100000000 cycles: 73074552 heartbeat IPC: 1.3679 cumulative IPC: 1.36847 (Simulation time: 0 hr 4 min 8 sec) 

Warmup complete CPU 0 instructions: 100000002 cycles: 73074564 (Simulation time: 0 hr 4 min 8 sec) 

Heartbeat CPU 0 instructions: 110000001 cycles: 85495271 heartbeat IPC: 0.805106 cumulative IPC: 0.805107 (Simulation time: 0 hr 4 min 38 sec) 
Heartbeat CPU 0 instructions: 120000000 cycles: 97855468 heartbeat IPC: 0.809049 cumulative IPC: 0.807073 (Simulation time: 0 hr 5 min 8 sec) 
Heartbeat CPU 0 instructions: 130000000 cycles: 110287635 heartbeat IPC: 0.804365 cumulative IPC: 0.806168 (Simulation time: 0 hr 5 min 37 sec) 
Heartbeat CPU 0 instructions: 140000000 cycles: 122673766 heartbeat IPC: 0.807355 cumulative IPC: 0.806465 (Simulation time: 0 hr 6 min 7 sec) 
Heartbeat CPU 0 instructions: 150000000 cycles: 135024041 heartbeat IPC: 0.809699 cumulative IPC: 0.807109 (Simulation time: 0 hr 6 min 37 sec) 
Heartbeat CPU 0 instructions: 160000000 cycles: 147413000 heartbeat IPC: 0.80717 cumulative IPC: 0.807119 (Simulation time: 0 hr 7 min 7 sec) 
Heartbeat CPU 0 instructions: 170000001 cycles: 159806448 heartbeat IPC: 0.806878 cumulative IPC: 0.807085 (Simulation time: 0 hr 7 min 36 sec) 
Heartbeat CPU 0 instructions: 180000000 cycles: 172204791 heartbeat IPC: 0.806559 cumulative IPC: 0.807019 (Simulation time: 0 hr 8 min 6 sec) 
Heartbeat CPU 0 instructions: 190000000 cycles: 184615016 heartbeat IPC: 0.805787 cumulative IPC: 0.806882 (Simulation time: 0 hr 8 min 36 sec) 
Heartbeat CPU 0 instructions: 200000000 cycles: 197004143 heartbeat IPC: 0.807159 cumulative IPC: 0.80691 (Simulation time: 0 hr 9 min 6 sec) 
Heartbeat CPU 0 instructions: 210000002 cycles: 209424889 heartbeat IPC: 0.805105 cumulative IPC: 0.806745 (Simulation time: 0 hr 9 min 35 sec) 
Heartbeat CPU 0 instructions: 220000000 cycles: 221851247 heartbeat IPC: 0.804741 cumulative IPC: 0.806578 (Simulation time: 0 hr 10 min 5 sec) 
Heartbeat CPU 0 instructions: 230000002 cycles: 234224744 heartbeat IPC: 0.808179 cumulative IPC: 0.806701 (Simulation time: 0 hr 10 min 35 sec) 
Heartbeat CPU 0 instructions: 240000000 cycles: 247335701 heartbeat IPC: 0.762721 cumulative IPC: 0.803392 (Simulation time: 0 hr 11 min 5 sec) 
Heartbeat CPU 0 instructions: 250000001 cycles: 264563291 heartbeat IPC: 0.580464 cumulative IPC: 0.783336 (Simulation time: 0 hr 11 min 37 sec) 
Heartbeat CPU 0 instructions: 260000000 cycles: 281732883 heartbeat IPC: 0.582425 cumulative IPC: 0.766804 (Simulation time: 0 hr 12 min 10 sec) 
Heartbeat CPU 0 instructions: 270000000 cycles: 298967971 heartbeat IPC: 0.580212 cumulative IPC: 0.752567 (Simulation time: 0 hr 12 min 42 sec) 
Heartbeat CPU 0 instructions: 280000000 cycles: 316170964 heartbeat IPC: 0.581294 cumulative IPC: 0.740447 (Simulation time: 0 hr 13 min 14 sec) 
Heartbeat CPU 0 instructions: 290000000 cycles: 344588072 heartbeat IPC: 0.351901 cumulative IPC: 0.699781 (Simulation time: 0 hr 13 min 54 sec) 
Heartbeat CPU 0 instructions: 300000000 cycles: 381498202 heartbeat IPC: 0.270928 cumulative IPC: 0.648459 (Simulation time: 0 hr 14 min 39 sec) 
Heartbeat CPU 0 instructions: 310000000 cycles: 398052324 heartbeat IPC: 0.604079 cumulative IPC: 0.646198 (Simulation time: 0 hr 15 min 11 sec) 
Heartbeat CPU 0 instructions: 320000000 cycles: 414595839 heartbeat IPC: 0.604466 cumulative IPC: 0.644177 (Simulation time: 0 hr 15 min 42 sec) 
Heartbeat CPU 0 instructions: 330000003 cycles: 431197287 heartbeat IPC: 0.602357 cumulative IPC: 0.642238 (Simulation time: 0 hr 16 min 13 sec) 
Heartbeat CPU 0 instructions: 340000000 cycles: 447728705 heartbeat IPC: 0.604909 cumulative IPC: 0.640591 (Simulation time: 0 hr 16 min 44 sec) 
Heartbeat CPU 0 instructions: 350000001 cycles: 462476870 heartbeat IPC: 0.678051 cumulative IPC: 0.64201 (Simulation time: 0 hr 17 min 14 sec) 
Heartbeat CPU 0 instructions: 360000000 cycles: 474347623 heartbeat IPC: 0.842406 cumulative IPC: 0.647938 (Simulation time: 0 hr 17 min 41 sec) 
Heartbeat CPU 0 instructions: 370000002 cycles: 486029450 heartbeat IPC: 0.856031 cumulative IPC: 0.653824 (Simulation time: 0 hr 18 min 8 sec) 
Heartbeat CPU 0 instructions: 380000000 cycles: 497904282 heartbeat IPC: 0.842117 cumulative IPC: 0.659088 (Simulation time: 0 hr 18 min 35 sec) 
Heartbeat CPU 0 instructions: 390000003 cycles: 511235014 heartbeat IPC: 0.750147 cumulative IPC: 0.661858 (Simulation time: 0 hr 19 min 3 sec) 
Heartbeat CPU 0 instructions: 400000000 cycles: 523476626 heartbeat IPC: 0.816886 cumulative IPC: 0.666072 (Simulation time: 0 hr 19 min 31 sec) 
Heartbeat CPU 0 instructions: 410000001 cycles: 535458505 heartbeat IPC: 0.834594 cumulative IPC: 0.670439 (Simulation time: 0 hr 19 min 59 sec) 
Heartbeat CPU 0 instructions: 420000000 cycles: 548315735 heartbeat IPC: 0.777772 cumulative IPC: 0.673342 (Simulation time: 0 hr 20 min 27 sec) 
Heartbeat CPU 0 instructions: 430000003 cycles: 566939083 heartbeat IPC: 0.536961 cumulative IPC: 0.668199 (Simulation time: 0 hr 20 min 52 sec) 
Heartbeat CPU 0 instructions: 440000000 cycles: 585565040 heartbeat IPC: 0.536885 cumulative IPC: 0.663427 (Simulation time: 0 hr 21 min 17 sec) 
Heartbeat CPU 0 instructions: 450000003 cycles: 604236879 heartbeat IPC: 0.535566 cumulative IPC: 0.658932 (Simulation time: 0 hr 21 min 43 sec) 
Heartbeat CPU 0 instructions: 460000000 cycles: 622863707 heartbeat IPC: 0.53686 cumulative IPC: 0.654796 (Simulation time: 0 hr 22 min 8 sec) 
Heartbeat CPU 0 instructions: 470000003 cycles: 641527010 heartbeat IPC: 0.535811 cumulative IPC: 0.65089 (Simulation time: 0 hr 22 min 33 sec) 
Heartbeat CPU 0 instructions: 480000000 cycles: 660180290 heartbeat IPC: 0.536099 cumulative IPC: 0.647243 (Simulation time: 0 hr 22 min 58 sec) 
Heartbeat CPU 0 instructions: 490000003 cycles: 678860521 heartbeat IPC: 0.535325 cumulative IPC: 0.643792 (Simulation time: 0 hr 23 min 24 sec) 
Heartbeat CPU 0 instructions: 500000000 cycles: 697470016 heartbeat IPC: 0.53736 cumulative IPC: 0.64062 (Simulation time: 0 hr 23 min 49 sec) 
Heartbeat CPU 0 instructions: 510000003 cycles: 716118226 heartbeat IPC: 0.536245 cumulative IPC: 0.637593 (Simulation time: 0 hr 24 min 14 sec) 
Heartbeat CPU 0 instructions: 520000000 cycles: 734746191 heartbeat IPC: 0.536827 cumulative IPC: 0.634756 (Simulation time: 0 hr 24 min 40 sec) 
Heartbeat CPU 0 instructions: 530000001 cycles: 753405246 heartbeat IPC: 0.535933 cumulative IPC: 0.632046 (Simulation time: 0 hr 25 min 5 sec) 
Heartbeat CPU 0 instructions: 540000000 cycles: 772000476 heartbeat IPC: 0.537772 cumulative IPC: 0.629537 (Simulation time: 0 hr 25 min 30 sec) 
Heartbeat CPU 0 instructions: 550000001 cycles: 790618342 heartbeat IPC: 0.537119 cumulative IPC: 0.627139 (Simulation time: 0 hr 25 min 56 sec) 
Heartbeat CPU 0 instructions: 560000000 cycles: 809224108 heartbeat IPC: 0.537468 cumulative IPC: 0.624873 (Simulation time: 0 hr 26 min 21 sec) 
Heartbeat CPU 0 instructions: 570000001 cycles: 827827943 heartbeat IPC: 0.537524 cumulative IPC: 0.62272 (Simulation time: 0 hr 26 min 46 sec) 
Heartbeat CPU 0 instructions: 580000000 cycles: 846331446 heartbeat IPC: 0.540438 cumulative IPC: 0.620751 (Simulation time: 0 hr 27 min 11 sec) 
Heartbeat CPU 0 instructions: 590000001 cycles: 864928587 heartbeat IPC: 0.537717 cumulative IPC: 0.618801 (Simulation time: 0 hr 27 min 37 sec) 
Heartbeat CPU 0 instructions: 600000000 cycles: 883518698 heartbeat IPC: 0.53792 cumulative IPC: 0.616946 (Simulation time: 0 hr 28 min 2 sec) 
Finished CPU 0 instructions: 500000002 cycles: 810444148 cumulative IPC: 0.616946 (Simulation time: 0 hr 28 min 2 sec) 

CPU 0 Branch Prediction Accuracy: 99.5931% MPKI: 0.08288
Number of Branches: 10184133 Number of Mispredictions: 41440
Number of LOAD Instructions: 261155957
Number of LOAD Instructions (ROI): 261155957
Number of STORE Instructions: 57884062
Number of STORE Instructions (ROI): 57884062
Total Destination Memory Operands: 83293336
Total Destination Memory Operands (ROI): 83293336
Total Source Memory Operands: 261155957
Total Source Memory Operands (ROI): 261155957
Number of DEPENDED LOADS: 22255199
Number of DEPENDED LOADS (ROI): 22255199
Number of SQ_ADDED: 83293300
Number of SQ_ADDED (ROI): 83293300
Number of LQ_ADDED: 1765949619
Number of LQ_ADDED (ROI): 1765949619
Number of Instructions read from trace: 600000257

ChampSim completed all CPUs

Region of Interest Statistics

CPU 0 cumulative IPC: 0.616946 instructions: 500000002 cycles: 810444148
ITLB TOTAL     ACCESS:   94649664  HIT:   94649626  MISS:         38
ITLB LOAD      ACCESS:   94649664  HIT:   94649626  MISS:         38
ITLB RFO       ACCESS:          0  HIT:          0  MISS:          0
ITLB PREFETCH  ACCESS:          0  HIT:          0  MISS:          0
ITLB WRITEBACK ACCESS:          0  HIT:          0  MISS:          0
ITLB PREFETCH  REQUESTED:          0  ISSUED:          0  USEFUL:          0  USELESS:          0
ITLB TOTAL MSHR MERGED:         93
ITLB LOAD MSHR MERGED:         93
ITLB RFO MSHR MERGED:          0
ITLB PREFETCH MSHR MERGED:          0
ITLB WRITEBACK MSHR MERGED:          0
ITLB TOTAL ACCESSES:   94649757 HITS:   94649626 MISSES:        131
ITLB LOAD ACCESSES:   94649757 HITS:   94649626 MISSES:        131
ITLB RFO ACCESSES:          0 HITS:          0 MISSES:          0
ITLB PREFETCH ACCESSES:          0 HITS:          0 MISSES:          0
ITLB WRITEBACK ACCESSES:          0 HITS:          0 MISSES:          0
ITLB RQ ACCESS:  500000001
ITLB RQ TO_CACHE:   94649758
ITLB RQ MERGED:  405350243
ITLB RQ FORWARD:          0
ITLB WQ ACCESS:          0
ITLB WQ TO_CACHE:          0
ITLB WQ MERGED:          0
ITLB WQ FORWARD:          0
DTLB TOTAL     ACCESS:  149174678  HIT:  148577718  MISS:     596960
DTLB LOAD      ACCESS:  107301539  HIT:  106704590  MISS:     596949
DTLB RFO       ACCESS:   41873139  HIT:   41873128  MISS:         11
DTLB PREFETCH  ACCESS:          0  HIT:          0  MISS:          0
DTLB WRITEBACK ACCESS:          0  HIT:          0  MISS:          0
DTLB PREFETCH  REQUESTED:          0  ISSUED:          0  USEFUL:          0  USELESS:          0
DTLB TOTAL MSHR MERGED:     134230
DTLB LOAD MSHR MERGED:     134230
DTLB RFO MSHR MERGED:          0
DTLB PREFETCH MSHR MERGED:          0
DTLB WRITEBACK MSHR MERGED:          0
DTLB TOTAL ACCESSES:  149308908 HITS:  148577718 MISSES:     731190
DTLB LOAD ACCESSES:  107435769 HITS:  106704590 MISSES:     731179
DTLB RFO ACCESSES:   41873139 HITS:   41873128 MISSES:         11
DTLB PREFETCH ACCESSES:          0 HITS:          0 MISSES:          0
DTLB WRITEBACK ACCESSES:          0 HITS:          0 MISSES:          0
DTLB RQ ACCESS:  259760695
DTLB RQ TO_CACHE:  149308908
DTLB RQ MERGED:  110451787
DTLB RQ FORWARD:          0
DTLB WQ ACCESS:          0
DTLB WQ TO_CACHE:          0
DTLB WQ MERGED:          0
DTLB WQ FORWARD:          0
L1D TOTAL     ACCESS:  261022843  HIT:  245626121  MISS:   15396722
L1D LOAD      ACCESS:  118068912  HIT:  112566351  MISS:    5502561
L1D RFO       ACCESS:   68946678  HIT:   68932273  MISS:      14405
L1D PREFETCH  ACCESS:   74007253  HIT:   64127497  MISS:    9879756
L1D WRITEBACK ACCESS:          0  HIT:          0  MISS:          0
L1D PREFETCH  REQUESTED:  120656394  ISSUED:  119078809  USEFUL:    8010060  USELESS:    1869718
L1D TOTAL MSHR MERGED:   16525366
L1D LOAD MSHR MERGED:    4999734
L1D RFO MSHR MERGED:      21889
L1D PREFETCH MSHR MERGED:   11503743
L1D WRITEBACK MSHR MERGED:          0
L1D TOTAL ACCESSES:  277658486 HITS:  245736398 MISSES:   31922088
L1D LOAD ACCESSES:  120663913 HITS:  112573870 MISSES:    8090043
L1D RFO ACCESSES:   68968566 HITS:   68932273 MISSES:      36293
L1D PREFETCH ACCESSES:   88026007 HITS:   64230255 MISSES:   23795752
L1D WRITEBACK ACCESSES:          0 HITS:          0 MISSES:          0
L1D RQ ACCESS:  190686379
L1D RQ TO_CACHE:  120656394
L1D RQ MERGED:   70022466
L1D RQ FORWARD:          0
L1D WQ ACCESS:   69074336
L1D WQ TO_CACHE:   68968568
L1D WQ MERGED:     105768
L1D WQ FORWARD:     110277
L1I TOTAL     ACCESS:  121564679  HIT:  121563606  MISS:       1073
L1I LOAD      ACCESS:  121564679  HIT:  121563606  MISS:       1073
L1I RFO       ACCESS:          0  HIT:          0  MISS:          0
L1I PREFETCH  ACCESS:          0  HIT:          0  MISS:          0
L1I WRITEBACK ACCESS:          0  HIT:          0  MISS:          0
L1I PREFETCH  REQUESTED:          0  ISSUED:          0  USEFUL:          0  USELESS:          0
L1I TOTAL MSHR MERGED:       1092
L1I LOAD MSHR MERGED:       1092
L1I RFO MSHR MERGED:          0
L1I PREFETCH MSHR MERGED:          0
L1I WRITEBACK MSHR MERGED:          0
L1I TOTAL ACCESSES:  121565771 HITS:  121563606 MISSES:       2165
L1I LOAD ACCESSES:  121565771 HITS:  121563606 MISSES:       2165
L1I RFO ACCESSES:          0 HITS:          0 MISSES:          0
L1I PREFETCH ACCESSES:          0 HITS:          0 MISSES:          0
L1I WRITEBACK ACCESSES:          0 HITS:          0 MISSES:          0
L1I RQ ACCESS:  500000000
L1I RQ TO_CACHE:  121565771
L1I RQ MERGED:  378434229
L1I RQ FORWARD:          0
L1I WQ ACCESS:          0
L1I WQ TO_CACHE:          0
L1I WQ MERGED:          0
L1I WQ FORWARD:          0
L2C TOTAL     ACCESS:   22469319  HIT:    9151687  MISS:   13317632
L2C LOAD      ACCESS:    3091350  HIT:     416939  MISS:    2674411
L2C RFO       ACCESS:      14404  HIT:      13990  MISS:        414
L2C PREFETCH  ACCESS:   12733619  HIT:    2092612  MISS:   10641007
L2C WRITEBACK ACCESS:    6629946  HIT:    6628146  MISS:       1800
L2C PREFETCH  REQUESTED:     695075  ISSUED:     695075  USEFUL:     186208  USELESS:   10455597
L2C TOTAL MSHR MERGED:      71726
L2C LOAD MSHR MERGED:      22439
L2C RFO MSHR MERGED:          0
L2C PREFETCH MSHR MERGED:      49287
L2C WRITEBACK MSHR MERGED:          0
L2C TOTAL ACCESSES:   22682688 HITS:    9151731 MISSES:   13530957
L2C LOAD ACCESSES:    3091382 HITS:     416971 MISSES:    2674411
L2C RFO ACCESSES:      14404 HITS:      13990 MISSES:        414
L2C PREFETCH ACCESSES:   12946956 HITS:    2092624 MISSES:   10854332
L2C WRITEBACK ACCESSES:    6629946 HITS:    6628146 MISSES:       1800
L2C RQ ACCESS:    3105786
L2C RQ TO_CACHE:    3105754
L2C RQ MERGED:          0
L2C RQ FORWARD:          0
L2C WQ ACCESS:    6629946
L2C WQ TO_CACHE:    6629946
L2C WQ MERGED:          0
L2C WQ FORWARD:         44
LLC TOTAL     ACCESS:   20025846  HIT:    1953559  MISS:   18072287
LLC LOAD      ACCESS:    2651972  HIT:     426925  MISS:    2225047
LLC RFO       ACCESS:        414  HIT:         15  MISS:        399
LLC PREFETCH  ACCESS:   10782213  HIT:     112134  MISS:   10670079
LLC WRITEBACK ACCESS:    6591247  HIT:    1414485  MISS:    5176762
LLC PREFETCH  REQUESTED:          0  ISSUED:          0  USEFUL:      46272  USELESS:   10624822
LLC TOTAL MSHR MERGED:      21442
LLC LOAD MSHR MERGED:       9973
LLC RFO MSHR MERGED:          0
LLC PREFETCH MSHR MERGED:      11469
LLC WRITEBACK MSHR MERGED:          0
LLC TOTAL ACCESSES:   20047289 HITS:    1953560 MISSES:   18093729
LLC LOAD ACCESSES:    2651972 HITS:     426925 MISSES:    2225047
LLC RFO ACCESSES:        414 HITS:         15 MISSES:        399
LLC PREFETCH ACCESSES:   10803656 HITS:     112135 MISSES:   10691521
LLC WRITEBACK ACCESSES:    6591247 HITS:    1414485 MISSES:    5176762
LLC 0 RQ ACCESS:    2652386
LLC 0 RQ TO_CACHE:    2652386
LLC 0 RQ MERGED:          0
LLC 0 RQ FORWARD:          0
LLC WQ ACCESS:    6591247
LLC WQ TO_CACHE:    6591247
LLC WQ MERGED:          0
LLC WQ FORWARD:          1
Major fault: 0 Minor fault: 183991
CPU 0 L1D next line prefetcher final stats
CPU 0 L2C PC-based stride prefetcher final stats
All Misses: 20932260
All Hits: 2024632
SD Algo Stats - Switches: 0 SRR-Repls: 2277172 BRR-Repls: 0

DRAM Statistics
 CHANNEL 0
 RQ ROW_BUFFER_HIT:    7163013  ROW_BUFFER_MISS:    5732511
 DBUS_CONGESTED:   11224374
 WQ ROW_BUFFER_HIT:     925766  ROW_BUFFER_MISS:    5658815  FULL:          0

 AVG_CONGESTED_CYCLE: 13
LOADS RETIRED: 204440772
INSTR RETIRED: 500000000
