
*** ChampSim Multicore Out-of-Order Simulator ***

Warmup Instructions: 100000000
Simulation Instructions: 500000000
Number of CPUs: 1
LLC sets: 2048
LLC ways: 16
Clean RRIP Policies: 2213230222132302 Dirty RRIP Policies: 1223130212231302 PSEL Width: 10 Track Set: 4294967295 PSEL Mask: 1 Demote Mask: 1040100010401000DS Algo: 0Window size: 0
Off-chip DRAM Size: 4096 MB Channels: 1 Width: 64-bit Data Rate: 1600 MT/s

CPU 0 runs /mnt/beegfs/iconst01/spec2017/Lbm.trace.gz
NOT SORTED
TRACE STRING: /mnt/beegfs/iconst01/spec2017/Lbm.trace.gz
SORTED
TRACE STRING: /mnt/beegfs/iconst01/spec2017/Lbm.trace.gz
INITIAL
TRACE STRING: /mnt/beegfs/iconst01/spec2017/Lbm.trace.gz

champsim_seed used: 283

CPU 0 L1D next line prefetcher
CPU 0 L2C IP-based stride prefetcher
Initialize DRRIP state
Assign rand_sets[0]: 454  LLC: 2048
rand_sets[0]: 454
Assign rand_sets[1]: 1662  LLC: 2048
rand_sets[1]: 1662
Assign rand_sets[2]: 1921  LLC: 2048
rand_sets[2]: 1921
Assign rand_sets[3]: 1131  LLC: 2048
rand_sets[3]: 1131
Assign rand_sets[4]: 331  LLC: 2048
rand_sets[4]: 331
Assign rand_sets[5]: 1531  LLC: 2048
rand_sets[5]: 1531
Assign rand_sets[6]: 482  LLC: 2048
rand_sets[6]: 482
Assign rand_sets[7]: 1275  LLC: 2048
rand_sets[7]: 1275
Assign rand_sets[8]: 1876  LLC: 2048
rand_sets[8]: 1876
Assign rand_sets[9]: 2038  LLC: 2048
rand_sets[9]: 2038
Assign rand_sets[10]: 701  LLC: 2048
rand_sets[10]: 701
Assign rand_sets[11]: 479  LLC: 2048
rand_sets[11]: 479
Assign rand_sets[12]: 892  LLC: 2048
rand_sets[12]: 892
Assign rand_sets[13]: 1820  LLC: 2048
rand_sets[13]: 1820
Assign rand_sets[14]: 1505  LLC: 2048
rand_sets[14]: 1505
Assign rand_sets[15]: 1159  LLC: 2048
rand_sets[15]: 1159
Assign rand_sets[16]: 513  LLC: 2048
rand_sets[16]: 513
Assign rand_sets[17]: 703  LLC: 2048
rand_sets[17]: 703
Assign rand_sets[18]: 561  LLC: 2048
rand_sets[18]: 561
Assign rand_sets[19]: 990  LLC: 2048
rand_sets[19]: 990
Assign rand_sets[20]: 342  LLC: 2048
rand_sets[20]: 342
Assign rand_sets[21]: 882  LLC: 2048
rand_sets[21]: 882
Assign rand_sets[22]: 15  LLC: 2048
rand_sets[22]: 15
Assign rand_sets[23]: 71  LLC: 2048
rand_sets[23]: 71
Assign rand_sets[24]: 1127  LLC: 2048
rand_sets[24]: 1127
Assign rand_sets[25]: 1382  LLC: 2048
rand_sets[25]: 1382
Assign rand_sets[26]: 647  LLC: 2048
rand_sets[26]: 647
Assign rand_sets[27]: 857  LLC: 2048
rand_sets[27]: 857
Assign rand_sets[28]: 1450  LLC: 2048
rand_sets[28]: 1450
Assign rand_sets[29]: 1160  LLC: 2048
rand_sets[29]: 1160
Assign rand_sets[30]: 1852  LLC: 2048
rand_sets[30]: 1852
Assign rand_sets[31]: 1881  LLC: 2048
rand_sets[31]: 1881
Assign rand_sets[32]: 1770  LLC: 2048
rand_sets[32]: 1770
Assign rand_sets[33]: 1622  LLC: 2048
rand_sets[33]: 1622
Assign rand_sets[34]: 275  LLC: 2048
rand_sets[34]: 275
Assign rand_sets[35]: 635  LLC: 2048
rand_sets[35]: 635
Assign rand_sets[36]: 466  LLC: 2048
rand_sets[36]: 466
Assign rand_sets[37]: 1413  LLC: 2048
rand_sets[37]: 1413
Assign rand_sets[38]: 417  LLC: 2048
rand_sets[38]: 417
Assign rand_sets[39]: 472  LLC: 2048
rand_sets[39]: 472
Assign rand_sets[40]: 1340  LLC: 2048
rand_sets[40]: 1340
Assign rand_sets[41]: 852  LLC: 2048
rand_sets[41]: 852
Assign rand_sets[42]: 1365  LLC: 2048
rand_sets[42]: 1365
Assign rand_sets[43]: 47  LLC: 2048
rand_sets[43]: 47
Assign rand_sets[44]: 823  LLC: 2048
rand_sets[44]: 823
Assign rand_sets[45]: 686  LLC: 2048
rand_sets[45]: 686
Assign rand_sets[46]: 1637  LLC: 2048
rand_sets[46]: 1637
Assign rand_sets[47]: 1115  LLC: 2048
rand_sets[47]: 1115
Assign rand_sets[48]: 986  LLC: 2048
rand_sets[48]: 986
Assign rand_sets[49]: 258  LLC: 2048
rand_sets[49]: 258
Assign rand_sets[50]: 633  LLC: 2048
rand_sets[50]: 633
Assign rand_sets[51]: 920  LLC: 2048
rand_sets[51]: 920
Assign rand_sets[52]: 204  LLC: 2048
rand_sets[52]: 204
Assign rand_sets[53]: 227  LLC: 2048
rand_sets[53]: 227
Assign rand_sets[54]: 1818  LLC: 2048
rand_sets[54]: 1818
Assign rand_sets[55]: 886  LLC: 2048
rand_sets[55]: 886
Assign rand_sets[56]: 1422  LLC: 2048
rand_sets[56]: 1422
Assign rand_sets[57]: 607  LLC: 2048
rand_sets[57]: 607
Assign rand_sets[58]: 217  LLC: 2048
rand_sets[58]: 217
Assign rand_sets[59]: 1945  LLC: 2048
rand_sets[59]: 1945
Assign rand_sets[60]: 143  LLC: 2048
rand_sets[60]: 143
Assign rand_sets[61]: 1311  LLC: 2048
rand_sets[61]: 1311
Assign rand_sets[62]: 319  LLC: 2048
rand_sets[62]: 319
Assign rand_sets[63]: 1846  LLC: 2048
rand_sets[63]: 1846
 CLEAN-RRIP-POLICY-1: 2-2-1-3-2-3-0-2- CLEAN-RRIP-POLICY-2: 2-2-1-3-2-3-0-2-
 DIRTY-RRIP-POLICY-1: 1-2-2-3-1-3-0-2- DIRTY-RRIP-POLICY-2: 1-2-2-3-1-3-0-2-
 PSEL width: 10
Heartbeat CPU 0 instructions: 10000000 cycles: 4321583 heartbeat IPC: 2.31397 cumulative IPC: 2.31397 (Simulation time: 0 hr 0 min 17 sec) 
Heartbeat CPU 0 instructions: 20000000 cycles: 8643655 heartbeat IPC: 2.31371 cumulative IPC: 2.31384 (Simulation time: 0 hr 0 min 35 sec) 
Heartbeat CPU 0 instructions: 30000000 cycles: 12965468 heartbeat IPC: 2.31384 cumulative IPC: 2.31384 (Simulation time: 0 hr 0 min 52 sec) 
Heartbeat CPU 0 instructions: 40000000 cycles: 17291290 heartbeat IPC: 2.3117 cumulative IPC: 2.3133 (Simulation time: 0 hr 1 min 9 sec) 
Heartbeat CPU 0 instructions: 50000000 cycles: 21613193 heartbeat IPC: 2.3138 cumulative IPC: 2.3134 (Simulation time: 0 hr 1 min 27 sec) 
Heartbeat CPU 0 instructions: 60000000 cycles: 25935081 heartbeat IPC: 2.3138 cumulative IPC: 2.31347 (Simulation time: 0 hr 1 min 44 sec) 
Heartbeat CPU 0 instructions: 70000000 cycles: 30256562 heartbeat IPC: 2.31402 cumulative IPC: 2.31355 (Simulation time: 0 hr 2 min 2 sec) 
Heartbeat CPU 0 instructions: 80000000 cycles: 34582828 heartbeat IPC: 2.31146 cumulative IPC: 2.31329 (Simulation time: 0 hr 2 min 19 sec) 
Heartbeat CPU 0 instructions: 90000003 cycles: 38904968 heartbeat IPC: 2.31367 cumulative IPC: 2.31333 (Simulation time: 0 hr 2 min 37 sec) 
Heartbeat CPU 0 instructions: 100000000 cycles: 43226466 heartbeat IPC: 2.31401 cumulative IPC: 2.3134 (Simulation time: 0 hr 2 min 54 sec) 

Warmup complete CPU 0 instructions: 100000001 cycles: 43226467 (Simulation time: 0 hr 2 min 54 sec) 

Heartbeat CPU 0 instructions: 110000000 cycles: 57371546 heartbeat IPC: 0.70696 cumulative IPC: 0.70696 (Simulation time: 0 hr 3 min 19 sec) 
Heartbeat CPU 0 instructions: 120000000 cycles: 71615965 heartbeat IPC: 0.702029 cumulative IPC: 0.704486 (Simulation time: 0 hr 3 min 43 sec) 
Heartbeat CPU 0 instructions: 130000000 cycles: 85732575 heartbeat IPC: 0.708385 cumulative IPC: 0.705781 (Simulation time: 0 hr 4 min 8 sec) 
Heartbeat CPU 0 instructions: 140000000 cycles: 99914270 heartbeat IPC: 0.705134 cumulative IPC: 0.705619 (Simulation time: 0 hr 4 min 33 sec) 
Heartbeat CPU 0 instructions: 150000003 cycles: 113635206 heartbeat IPC: 0.728813 cumulative IPC: 0.710139 (Simulation time: 0 hr 4 min 57 sec) 
Heartbeat CPU 0 instructions: 160000000 cycles: 127608341 heartbeat IPC: 0.715659 cumulative IPC: 0.711053 (Simulation time: 0 hr 5 min 21 sec) 
Heartbeat CPU 0 instructions: 170000002 cycles: 141968358 heartbeat IPC: 0.696378 cumulative IPC: 0.708919 (Simulation time: 0 hr 5 min 46 sec) 
Heartbeat CPU 0 instructions: 180000000 cycles: 155951996 heartbeat IPC: 0.715121 cumulative IPC: 0.709688 (Simulation time: 0 hr 6 min 11 sec) 
Heartbeat CPU 0 instructions: 190000003 cycles: 172844992 heartbeat IPC: 0.591962 cumulative IPC: 0.694345 (Simulation time: 0 hr 6 min 38 sec) 
Heartbeat CPU 0 instructions: 200000000 cycles: 193248603 heartbeat IPC: 0.490109 cumulative IPC: 0.666568 (Simulation time: 0 hr 7 min 9 sec) 
Heartbeat CPU 0 instructions: 210000001 cycles: 207432708 heartbeat IPC: 0.705015 cumulative IPC: 0.669889 (Simulation time: 0 hr 7 min 33 sec) 
Heartbeat CPU 0 instructions: 220000000 cycles: 221270703 heartbeat IPC: 0.722648 cumulative IPC: 0.67399 (Simulation time: 0 hr 7 min 58 sec) 
Heartbeat CPU 0 instructions: 230000001 cycles: 235327268 heartbeat IPC: 0.711411 cumulative IPC: 0.676728 (Simulation time: 0 hr 8 min 23 sec) 
Heartbeat CPU 0 instructions: 240000000 cycles: 249653415 heartbeat IPC: 0.698024 cumulative IPC: 0.678206 (Simulation time: 0 hr 8 min 47 sec) 
Heartbeat CPU 0 instructions: 250000000 cycles: 264157694 heartbeat IPC: 0.689452 cumulative IPC: 0.678944 (Simulation time: 0 hr 9 min 12 sec) 
Heartbeat CPU 0 instructions: 260000000 cycles: 278982518 heartbeat IPC: 0.674544 cumulative IPC: 0.678668 (Simulation time: 0 hr 9 min 38 sec) 
Heartbeat CPU 0 instructions: 270000002 cycles: 293993121 heartbeat IPC: 0.666196 cumulative IPC: 0.677921 (Simulation time: 0 hr 10 min 3 sec) 
Heartbeat CPU 0 instructions: 280000000 cycles: 309009035 heartbeat IPC: 0.66596 cumulative IPC: 0.677245 (Simulation time: 0 hr 10 min 29 sec) 
Heartbeat CPU 0 instructions: 290000003 cycles: 324685550 heartbeat IPC: 0.637897 cumulative IPC: 0.675054 (Simulation time: 0 hr 10 min 55 sec) 
Heartbeat CPU 0 instructions: 300000000 cycles: 339808759 heartbeat IPC: 0.661235 cumulative IPC: 0.674349 (Simulation time: 0 hr 11 min 20 sec) 
Heartbeat CPU 0 instructions: 310000000 cycles: 355677505 heartbeat IPC: 0.63017 cumulative IPC: 0.672105 (Simulation time: 0 hr 11 min 46 sec) 
Heartbeat CPU 0 instructions: 320000000 cycles: 371382269 heartbeat IPC: 0.636749 cumulative IPC: 0.670413 (Simulation time: 0 hr 12 min 12 sec) 
Heartbeat CPU 0 instructions: 330000002 cycles: 386355413 heartbeat IPC: 0.667863 cumulative IPC: 0.670302 (Simulation time: 0 hr 12 min 37 sec) 
Heartbeat CPU 0 instructions: 340000000 cycles: 402348494 heartbeat IPC: 0.62527 cumulative IPC: 0.668297 (Simulation time: 0 hr 13 min 3 sec) 
Heartbeat CPU 0 instructions: 350000001 cycles: 416924494 heartbeat IPC: 0.686059 cumulative IPC: 0.668989 (Simulation time: 0 hr 13 min 28 sec) 
Heartbeat CPU 0 instructions: 360000000 cycles: 432417511 heartbeat IPC: 0.645452 cumulative IPC: 0.668052 (Simulation time: 0 hr 13 min 54 sec) 
Heartbeat CPU 0 instructions: 370000000 cycles: 447153520 heartbeat IPC: 0.67861 cumulative IPC: 0.668438 (Simulation time: 0 hr 14 min 19 sec) 
Heartbeat CPU 0 instructions: 380000000 cycles: 462232811 heartbeat IPC: 0.663161 cumulative IPC: 0.668248 (Simulation time: 0 hr 14 min 44 sec) 
Heartbeat CPU 0 instructions: 390000000 cycles: 476634910 heartbeat IPC: 0.694343 cumulative IPC: 0.669115 (Simulation time: 0 hr 15 min 9 sec) 
Heartbeat CPU 0 instructions: 400000000 cycles: 490880409 heartbeat IPC: 0.701976 cumulative IPC: 0.670161 (Simulation time: 0 hr 15 min 34 sec) 
Heartbeat CPU 0 instructions: 410000000 cycles: 504783455 heartbeat IPC: 0.719267 cumulative IPC: 0.67164 (Simulation time: 0 hr 15 min 58 sec) 
Heartbeat CPU 0 instructions: 420000000 cycles: 518937488 heartbeat IPC: 0.706512 cumulative IPC: 0.672677 (Simulation time: 0 hr 16 min 22 sec) 
Heartbeat CPU 0 instructions: 430000002 cycles: 532672074 heartbeat IPC: 0.728089 cumulative IPC: 0.674232 (Simulation time: 0 hr 16 min 47 sec) 
Heartbeat CPU 0 instructions: 440000000 cycles: 546448296 heartbeat IPC: 0.725888 cumulative IPC: 0.675646 (Simulation time: 0 hr 17 min 11 sec) 
Heartbeat CPU 0 instructions: 450000000 cycles: 560166712 heartbeat IPC: 0.728947 cumulative IPC: 0.677061 (Simulation time: 0 hr 17 min 35 sec) 
Heartbeat CPU 0 instructions: 460000000 cycles: 574802300 heartbeat IPC: 0.683266 cumulative IPC: 0.677232 (Simulation time: 0 hr 18 min 0 sec) 
Heartbeat CPU 0 instructions: 470000000 cycles: 588956081 heartbeat IPC: 0.706525 cumulative IPC: 0.677991 (Simulation time: 0 hr 18 min 25 sec) 
Heartbeat CPU 0 instructions: 480000000 cycles: 602999865 heartbeat IPC: 0.712059 cumulative IPC: 0.678846 (Simulation time: 0 hr 18 min 49 sec) 
Heartbeat CPU 0 instructions: 490000001 cycles: 617393485 heartbeat IPC: 0.694752 cumulative IPC: 0.679245 (Simulation time: 0 hr 19 min 14 sec) 
Heartbeat CPU 0 instructions: 500000000 cycles: 631753113 heartbeat IPC: 0.696397 cumulative IPC: 0.679663 (Simulation time: 0 hr 19 min 38 sec) 
Heartbeat CPU 0 instructions: 510000002 cycles: 645714859 heartbeat IPC: 0.716243 cumulative IPC: 0.680511 (Simulation time: 0 hr 20 min 3 sec) 
Heartbeat CPU 0 instructions: 520000000 cycles: 659485227 heartbeat IPC: 0.726197 cumulative IPC: 0.681532 (Simulation time: 0 hr 20 min 27 sec) 
Heartbeat CPU 0 instructions: 530000001 cycles: 673497763 heartbeat IPC: 0.713647 cumulative IPC: 0.682246 (Simulation time: 0 hr 20 min 51 sec) 
Heartbeat CPU 0 instructions: 540000000 cycles: 687853883 heartbeat IPC: 0.696567 cumulative IPC: 0.682565 (Simulation time: 0 hr 21 min 16 sec) 
Heartbeat CPU 0 instructions: 550000003 cycles: 701727883 heartbeat IPC: 0.720773 cumulative IPC: 0.68337 (Simulation time: 0 hr 21 min 40 sec) 
Heartbeat CPU 0 instructions: 560000000 cycles: 716151645 heartbeat IPC: 0.6933 cumulative IPC: 0.683583 (Simulation time: 0 hr 22 min 5 sec) 
Heartbeat CPU 0 instructions: 570000001 cycles: 730229527 heartbeat IPC: 0.710334 cumulative IPC: 0.684131 (Simulation time: 0 hr 22 min 30 sec) 
Heartbeat CPU 0 instructions: 580000000 cycles: 744027080 heartbeat IPC: 0.724766 cumulative IPC: 0.684931 (Simulation time: 0 hr 22 min 54 sec) 
Heartbeat CPU 0 instructions: 590000003 cycles: 757319496 heartbeat IPC: 0.752309 cumulative IPC: 0.686185 (Simulation time: 0 hr 23 min 18 sec) 
Heartbeat CPU 0 instructions: 600000000 cycles: 771251022 heartbeat IPC: 0.717796 cumulative IPC: 0.68679 (Simulation time: 0 hr 23 min 42 sec) 
Finished CPU 0 instructions: 500000000 cycles: 728024563 cumulative IPC: 0.68679 (Simulation time: 0 hr 23 min 42 sec) 

CPU 0 Branch Prediction Accuracy: 99.5915% MPKI: 0.037126
Number of Branches: 4544106 Number of Mispredictions: 18563
Number of LOAD Instructions: 149787067
Number of LOAD Instructions (ROI): 149787067
Number of STORE Instructions: 77239062
Number of STORE Instructions (ROI): 77239062
Total Destination Memory Operands: 77239062
Total Destination Memory Operands (ROI): 77239062
Total Source Memory Operands: 149787067
Total Source Memory Operands (ROI): 149787067
Number of DEPENDED LOADS: 19246822
Number of DEPENDED LOADS (ROI): 19246822
Number of SQ_ADDED: 77239036
Number of SQ_ADDED (ROI): 77239036
Number of LQ_ADDED: 149787020
Number of LQ_ADDED (ROI): 149787020
Number of Instructions read from trace: 600000256

ChampSim completed all CPUs

Region of Interest Statistics

CPU 0 cumulative IPC: 0.68679 instructions: 500000000 cycles: 728024563
ITLB TOTAL     ACCESS:   86450356  HIT:   86450355  MISS:          1
ITLB LOAD      ACCESS:   86450356  HIT:   86450355  MISS:          1
ITLB RFO       ACCESS:          0  HIT:          0  MISS:          0
ITLB PREFETCH  ACCESS:          0  HIT:          0  MISS:          0
ITLB WRITEBACK ACCESS:          0  HIT:          0  MISS:          0
ITLB PREFETCH  REQUESTED:          0  ISSUED:          0  USEFUL:          0  USELESS:          0
ITLB TOTAL MSHR MERGED:          1
ITLB LOAD MSHR MERGED:          1
ITLB RFO MSHR MERGED:          0
ITLB PREFETCH MSHR MERGED:          0
ITLB WRITEBACK MSHR MERGED:          0
ITLB TOTAL ACCESSES:   86450357 HITS:   86450355 MISSES:          2
ITLB LOAD ACCESSES:   86450357 HITS:   86450355 MISSES:          2
ITLB RFO ACCESSES:          0 HITS:          0 MISSES:          0
ITLB PREFETCH ACCESSES:          0 HITS:          0 MISSES:          0
ITLB WRITEBACK ACCESSES:          0 HITS:          0 MISSES:          0
ITLB RQ ACCESS:  500000002
ITLB RQ TO_CACHE:   86450357
ITLB RQ MERGED:  413549645
ITLB RQ FORWARD:          0
ITLB WQ ACCESS:          0
ITLB WQ TO_CACHE:          0
ITLB WQ MERGED:          0
ITLB WQ FORWARD:          0
DTLB TOTAL     ACCESS:   98107703  HIT:   97922442  MISS:     185261
DTLB LOAD      ACCESS:   55041479  HIT:   54995168  MISS:      46311
DTLB RFO       ACCESS:   43066224  HIT:   42927274  MISS:     138950
DTLB PREFETCH  ACCESS:          0  HIT:          0  MISS:          0
DTLB WRITEBACK ACCESS:          0  HIT:          0  MISS:          0
DTLB PREFETCH  REQUESTED:          0  ISSUED:          0  USEFUL:          0  USELESS:          0
DTLB TOTAL MSHR MERGED:      83557
DTLB LOAD MSHR MERGED:      83550
DTLB RFO MSHR MERGED:          7
DTLB PREFETCH MSHR MERGED:          0
DTLB WRITEBACK MSHR MERGED:          0
DTLB TOTAL ACCESSES:   98191260 HITS:   97922442 MISSES:     268818
DTLB LOAD ACCESSES:   55125029 HITS:   54995168 MISSES:     129861
DTLB RFO ACCESSES:   43066231 HITS:   42927274 MISSES:     138957
DTLB PREFETCH ACCESSES:          0 HITS:          0 MISSES:          0
DTLB WRITEBACK ACCESSES:          0 HITS:          0 MISSES:          0
DTLB RQ ACCESS:  173635705
DTLB RQ TO_CACHE:   98191260
DTLB RQ MERGED:   75444445
DTLB RQ FORWARD:          0
DTLB WQ ACCESS:          0
DTLB WQ TO_CACHE:          0
DTLB WQ MERGED:          0
DTLB WQ FORWARD:          0
L1D TOTAL     ACCESS:  164573825  HIT:  145001268  MISS:   19572557
L1D LOAD      ACCESS:   60543342  HIT:   58691727  MISS:    1851615
L1D RFO       ACCESS:   64513606  HIT:   47911480  MISS:   16602126
L1D PREFETCH  ACCESS:   39516877  HIT:   38398061  MISS:    1118816
L1D WRITEBACK ACCESS:          0  HIT:          0  MISS:          0
L1D PREFETCH  REQUESTED:   61728618  ISSUED:   61436236  USEFUL:    1116898  USELESS:       1919
L1D TOTAL MSHR MERGED:    3528107
L1D LOAD MSHR MERGED:    1256654
L1D RFO MSHR MERGED:      11474
L1D PREFETCH MSHR MERGED:    2259979
L1D WRITEBACK MSHR MERGED:          0
L1D TOTAL ACCESSES:  168671494 HITS:  145570830 MISSES:   23100664
L1D LOAD ACCESSES:   61991161 HITS:   58954270 MISSES:    3036891
L1D RFO ACCESSES:   64525051 HITS:   47911480 MISSES:   16613571
L1D PREFETCH ACCESSES:   42155282 HITS:   38705080 MISSES:    3450202
L1D WRITEBACK ACCESSES:          0 HITS:          0 MISSES:          0
L1D RQ ACCESS:  109094390
L1D RQ TO_CACHE:   61728618
L1D RQ MERGED:   47103229
L1D RQ FORWARD:          0
L1D WQ ACCESS:   64541313
L1D WQ TO_CACHE:   64525052
L1D WQ MERGED:      16261
L1D WQ FORWARD:     569562
L1I TOTAL     ACCESS:  107760797  HIT:  107760789  MISS:          8
L1I LOAD      ACCESS:  107760797  HIT:  107760789  MISS:          8
L1I RFO       ACCESS:          0  HIT:          0  MISS:          0
L1I PREFETCH  ACCESS:          0  HIT:          0  MISS:          0
L1I WRITEBACK ACCESS:          0  HIT:          0  MISS:          0
L1I PREFETCH  REQUESTED:          0  ISSUED:          0  USEFUL:          0  USELESS:          0
L1I TOTAL MSHR MERGED:          3
L1I LOAD MSHR MERGED:          3
L1I RFO MSHR MERGED:          0
L1I PREFETCH MSHR MERGED:          0
L1I WRITEBACK MSHR MERGED:          0
L1I TOTAL ACCESSES:  107760800 HITS:  107760789 MISSES:         11
L1I LOAD ACCESSES:  107760800 HITS:  107760789 MISSES:         11
L1I RFO ACCESSES:          0 HITS:          0 MISSES:          0
L1I PREFETCH ACCESSES:          0 HITS:          0 MISSES:          0
L1I WRITEBACK ACCESSES:          0 HITS:          0 MISSES:          0
L1I RQ ACCESS:  500000007
L1I RQ TO_CACHE:  107760800
L1I RQ MERGED:  392239207
L1I RQ FORWARD:          0
L1I WQ ACCESS:          0
L1I WQ TO_CACHE:          0
L1I WQ MERGED:          0
L1I WQ FORWARD:          0
L2C TOTAL     ACCESS:   36806726  HIT:   24849158  MISS:   11957568
L2C LOAD      ACCESS:    1780245  HIT:     255125  MISS:    1525120
L2C RFO       ACCESS:   16602097  HIT:    7610744  MISS:    8991353
L2C PREFETCH  ACCESS:    1822204  HIT:     382337  MISS:    1439867
L2C WRITEBACK ACCESS:   16602180  HIT:   16600952  MISS:       1228
L2C PREFETCH  REQUESTED:     814460  ISSUED:     814460  USEFUL:     252824  USELESS:    1187324
L2C TOTAL MSHR MERGED:       2779
L2C LOAD MSHR MERGED:        609
L2C RFO MSHR MERGED:          0
L2C PREFETCH MSHR MERGED:       2170
L2C WRITEBACK MSHR MERGED:          0
L2C TOTAL ACCESSES:   36989126 HITS:   24849159 MISSES:   12139967
L2C LOAD ACCESSES:    1780245 HITS:     255125 MISSES:    1525120
L2C RFO ACCESSES:   16602097 HITS:    7610745 MISSES:    8991352
L2C PREFETCH ACCESSES:    2004604 HITS:     382337 MISSES:    1622267
L2C WRITEBACK ACCESSES:   16602180 HITS:   16600952 MISSES:       1228
L2C RQ ACCESS:   18382342
L2C RQ TO_CACHE:   18382341
L2C RQ MERGED:          0
L2C RQ FORWARD:          0
L2C WQ ACCESS:   16602180
L2C WQ TO_CACHE:   16602180
L2C WQ MERGED:          0
L2C WQ FORWARD:          1
LLC TOTAL     ACCESS:   21125033  HIT:    1818739  MISS:   19306294
LLC LOAD      ACCESS:    1524511  HIT:      64853  MISS:    1459658
LLC RFO       ACCESS:    8991344  HIT:     723017  MISS:    8268327
LLC PREFETCH  ACCESS:    1617003  HIT:     111353  MISS:    1505650
LLC WRITEBACK ACCESS:    8992175  HIT:     919516  MISS:    8072659
LLC PREFETCH  REQUESTED:          0  ISSUED:          0  USEFUL:      64705  USELESS:    1440801
LLC TOTAL MSHR MERGED:       2724
LLC LOAD MSHR MERGED:        229
LLC RFO MSHR MERGED:          0
LLC PREFETCH MSHR MERGED:       2495
LLC WRITEBACK MSHR MERGED:          0
LLC TOTAL ACCESSES:   21127765 HITS:    1818748 MISSES:   19309017
LLC LOAD ACCESSES:    1524511 HITS:      64853 MISSES:    1459658
LLC RFO ACCESSES:    8991352 HITS:     723026 MISSES:    8268326
LLC PREFETCH ACCESSES:    1619727 HITS:     111353 MISSES:    1508374
LLC WRITEBACK ACCESSES:    8992175 HITS:     919516 MISSES:    8072659
LLC 0 RQ ACCESS:   10515863
LLC 0 RQ TO_CACHE:   10515854
LLC 0 RQ MERGED:          0
LLC 0 RQ FORWARD:          0
LLC WQ ACCESS:    8992175
LLC WQ TO_CACHE:    8992175
LLC WQ MERGED:          0
LLC WQ FORWARD:          9
Major fault: 0 Minor fault: 102360
CPU 0 L1D next line prefetcher final stats
CPU 0 L2C PC-based stride prefetcher final stats
All Misses: 22986606
All Hits: 2113938
SD Algo Stats - Switches: 0 SRR-Repls: 1638254 BRR-Repls: 0

DRAM Statistics
 CHANNEL 0
 RQ ROW_BUFFER_HIT:    3737767  ROW_BUFFER_MISS:    7493802
 DBUS_CONGESTED:   13340960
 WQ ROW_BUFFER_HIT:    1289345  ROW_BUFFER_MISS:    6977893  FULL:          0

 AVG_CONGESTED_CYCLE: 13
LOADS RETIRED: 124982196
INSTR RETIRED: 500000000
