
*** ChampSim Multicore Out-of-Order Simulator ***

Warmup Instructions: 100000000
Simulation Instructions: 500000000
Number of CPUs: 1
LLC sets: 2048
LLC ways: 16
Clean RRIP Policies: 2213230222132302 Dirty RRIP Policies: 1223130212231302 PSEL Width: 10 Track Set: 4294967295 PSEL Mask: 1 Demote Mask: 1040100010401000DS Algo: 0Window size: 0
Off-chip DRAM Size: 4096 MB Channels: 1 Width: 64-bit Data Rate: 1600 MT/s

CPU 0 runs /mnt/beegfs/iconst01/spec2017/Mcf.trace.gz
NOT SORTED
TRACE STRING: /mnt/beegfs/iconst01/spec2017/Mcf.trace.gz
SORTED
TRACE STRING: /mnt/beegfs/iconst01/spec2017/Mcf.trace.gz
INITIAL
TRACE STRING: /mnt/beegfs/iconst01/spec2017/Mcf.trace.gz

champsim_seed used: 278

CPU 0 L1D next line prefetcher
CPU 0 L2C IP-based stride prefetcher
Initialize DRRIP state
Assign rand_sets[0]: 454  LLC: 2048
rand_sets[0]: 454
Assign rand_sets[1]: 1662  LLC: 2048
rand_sets[1]: 1662
Assign rand_sets[2]: 1921  LLC: 2048
rand_sets[2]: 1921
Assign rand_sets[3]: 1131  LLC: 2048
rand_sets[3]: 1131
Assign rand_sets[4]: 331  LLC: 2048
rand_sets[4]: 331
Assign rand_sets[5]: 1531  LLC: 2048
rand_sets[5]: 1531
Assign rand_sets[6]: 482  LLC: 2048
rand_sets[6]: 482
Assign rand_sets[7]: 1275  LLC: 2048
rand_sets[7]: 1275
Assign rand_sets[8]: 1876  LLC: 2048
rand_sets[8]: 1876
Assign rand_sets[9]: 2038  LLC: 2048
rand_sets[9]: 2038
Assign rand_sets[10]: 701  LLC: 2048
rand_sets[10]: 701
Assign rand_sets[11]: 479  LLC: 2048
rand_sets[11]: 479
Assign rand_sets[12]: 892  LLC: 2048
rand_sets[12]: 892
Assign rand_sets[13]: 1820  LLC: 2048
rand_sets[13]: 1820
Assign rand_sets[14]: 1505  LLC: 2048
rand_sets[14]: 1505
Assign rand_sets[15]: 1159  LLC: 2048
rand_sets[15]: 1159
Assign rand_sets[16]: 513  LLC: 2048
rand_sets[16]: 513
Assign rand_sets[17]: 703  LLC: 2048
rand_sets[17]: 703
Assign rand_sets[18]: 561  LLC: 2048
rand_sets[18]: 561
Assign rand_sets[19]: 990  LLC: 2048
rand_sets[19]: 990
Assign rand_sets[20]: 342  LLC: 2048
rand_sets[20]: 342
Assign rand_sets[21]: 882  LLC: 2048
rand_sets[21]: 882
Assign rand_sets[22]: 15  LLC: 2048
rand_sets[22]: 15
Assign rand_sets[23]: 71  LLC: 2048
rand_sets[23]: 71
Assign rand_sets[24]: 1127  LLC: 2048
rand_sets[24]: 1127
Assign rand_sets[25]: 1382  LLC: 2048
rand_sets[25]: 1382
Assign rand_sets[26]: 647  LLC: 2048
rand_sets[26]: 647
Assign rand_sets[27]: 857  LLC: 2048
rand_sets[27]: 857
Assign rand_sets[28]: 1450  LLC: 2048
rand_sets[28]: 1450
Assign rand_sets[29]: 1160  LLC: 2048
rand_sets[29]: 1160
Assign rand_sets[30]: 1852  LLC: 2048
rand_sets[30]: 1852
Assign rand_sets[31]: 1881  LLC: 2048
rand_sets[31]: 1881
Assign rand_sets[32]: 1770  LLC: 2048
rand_sets[32]: 1770
Assign rand_sets[33]: 1622  LLC: 2048
rand_sets[33]: 1622
Assign rand_sets[34]: 275  LLC: 2048
rand_sets[34]: 275
Assign rand_sets[35]: 635  LLC: 2048
rand_sets[35]: 635
Assign rand_sets[36]: 466  LLC: 2048
rand_sets[36]: 466
Assign rand_sets[37]: 1413  LLC: 2048
rand_sets[37]: 1413
Assign rand_sets[38]: 417  LLC: 2048
rand_sets[38]: 417
Assign rand_sets[39]: 472  LLC: 2048
rand_sets[39]: 472
Assign rand_sets[40]: 1340  LLC: 2048
rand_sets[40]: 1340
Assign rand_sets[41]: 852  LLC: 2048
rand_sets[41]: 852
Assign rand_sets[42]: 1365  LLC: 2048
rand_sets[42]: 1365
Assign rand_sets[43]: 47  LLC: 2048
rand_sets[43]: 47
Assign rand_sets[44]: 823  LLC: 2048
rand_sets[44]: 823
Assign rand_sets[45]: 686  LLC: 2048
rand_sets[45]: 686
Assign rand_sets[46]: 1637  LLC: 2048
rand_sets[46]: 1637
Assign rand_sets[47]: 1115  LLC: 2048
rand_sets[47]: 1115
Assign rand_sets[48]: 986  LLC: 2048
rand_sets[48]: 986
Assign rand_sets[49]: 258  LLC: 2048
rand_sets[49]: 258
Assign rand_sets[50]: 633  LLC: 2048
rand_sets[50]: 633
Assign rand_sets[51]: 920  LLC: 2048
rand_sets[51]: 920
Assign rand_sets[52]: 204  LLC: 2048
rand_sets[52]: 204
Assign rand_sets[53]: 227  LLC: 2048
rand_sets[53]: 227
Assign rand_sets[54]: 1818  LLC: 2048
rand_sets[54]: 1818
Assign rand_sets[55]: 886  LLC: 2048
rand_sets[55]: 886
Assign rand_sets[56]: 1422  LLC: 2048
rand_sets[56]: 1422
Assign rand_sets[57]: 607  LLC: 2048
rand_sets[57]: 607
Assign rand_sets[58]: 217  LLC: 2048
rand_sets[58]: 217
Assign rand_sets[59]: 1945  LLC: 2048
rand_sets[59]: 1945
Assign rand_sets[60]: 143  LLC: 2048
rand_sets[60]: 143
Assign rand_sets[61]: 1311  LLC: 2048
rand_sets[61]: 1311
Assign rand_sets[62]: 319  LLC: 2048
rand_sets[62]: 319
Assign rand_sets[63]: 1846  LLC: 2048
rand_sets[63]: 1846
 CLEAN-RRIP-POLICY-1: 2-2-1-3-2-3-0-2- CLEAN-RRIP-POLICY-2: 2-2-1-3-2-3-0-2-
 DIRTY-RRIP-POLICY-1: 1-2-2-3-1-3-0-2- DIRTY-RRIP-POLICY-2: 1-2-2-3-1-3-0-2-
 PSEL width: 10
Heartbeat CPU 0 instructions: 10000002 cycles: 6248313 heartbeat IPC: 1.60043 cumulative IPC: 1.60043 (Simulation time: 0 hr 0 min 12 sec) 
Heartbeat CPU 0 instructions: 20000000 cycles: 12468719 heartbeat IPC: 1.60761 cumulative IPC: 1.60401 (Simulation time: 0 hr 0 min 25 sec) 
Heartbeat CPU 0 instructions: 30000000 cycles: 18678695 heartbeat IPC: 1.61031 cumulative IPC: 1.60611 (Simulation time: 0 hr 0 min 37 sec) 
Heartbeat CPU 0 instructions: 40000000 cycles: 24889038 heartbeat IPC: 1.61022 cumulative IPC: 1.60713 (Simulation time: 0 hr 0 min 49 sec) 
Heartbeat CPU 0 instructions: 50000003 cycles: 31101191 heartbeat IPC: 1.60975 cumulative IPC: 1.60766 (Simulation time: 0 hr 1 min 2 sec) 
Heartbeat CPU 0 instructions: 60000000 cycles: 37297142 heartbeat IPC: 1.61396 cumulative IPC: 1.6087 (Simulation time: 0 hr 1 min 14 sec) 
Heartbeat CPU 0 instructions: 70000003 cycles: 43515290 heartbeat IPC: 1.6082 cumulative IPC: 1.60863 (Simulation time: 0 hr 1 min 26 sec) 
Heartbeat CPU 0 instructions: 80000000 cycles: 49745572 heartbeat IPC: 1.60506 cumulative IPC: 1.60818 (Simulation time: 0 hr 1 min 39 sec) 
Heartbeat CPU 0 instructions: 90000000 cycles: 55974327 heartbeat IPC: 1.60546 cumulative IPC: 1.60788 (Simulation time: 0 hr 1 min 51 sec) 
Heartbeat CPU 0 instructions: 100000000 cycles: 62193119 heartbeat IPC: 1.60803 cumulative IPC: 1.60789 (Simulation time: 0 hr 2 min 4 sec) 

Warmup complete CPU 0 instructions: 100000001 cycles: 62193120 (Simulation time: 0 hr 2 min 4 sec) 

Heartbeat CPU 0 instructions: 110000000 cycles: 86661733 heartbeat IPC: 0.408687 cumulative IPC: 0.408687 (Simulation time: 0 hr 2 min 27 sec) 
Heartbeat CPU 0 instructions: 120000000 cycles: 111261425 heartbeat IPC: 0.406509 cumulative IPC: 0.407595 (Simulation time: 0 hr 2 min 51 sec) 
Heartbeat CPU 0 instructions: 130000000 cycles: 135940777 heartbeat IPC: 0.405197 cumulative IPC: 0.406793 (Simulation time: 0 hr 3 min 14 sec) 
Heartbeat CPU 0 instructions: 140000000 cycles: 160584966 heartbeat IPC: 0.405775 cumulative IPC: 0.406538 (Simulation time: 0 hr 3 min 38 sec) 
Heartbeat CPU 0 instructions: 150000003 cycles: 185115604 heartbeat IPC: 0.407654 cumulative IPC: 0.40676 (Simulation time: 0 hr 4 min 1 sec) 
Heartbeat CPU 0 instructions: 160000000 cycles: 209908283 heartbeat IPC: 0.403345 cumulative IPC: 0.406187 (Simulation time: 0 hr 4 min 25 sec) 
Heartbeat CPU 0 instructions: 170000001 cycles: 234562655 heartbeat IPC: 0.405608 cumulative IPC: 0.406104 (Simulation time: 0 hr 4 min 48 sec) 
Heartbeat CPU 0 instructions: 180000000 cycles: 259222270 heartbeat IPC: 0.405521 cumulative IPC: 0.406031 (Simulation time: 0 hr 5 min 12 sec) 
Heartbeat CPU 0 instructions: 190000003 cycles: 283840190 heartbeat IPC: 0.406208 cumulative IPC: 0.406051 (Simulation time: 0 hr 5 min 35 sec) 
Heartbeat CPU 0 instructions: 200000000 cycles: 308501172 heartbeat IPC: 0.405499 cumulative IPC: 0.405996 (Simulation time: 0 hr 5 min 58 sec) 
Heartbeat CPU 0 instructions: 210000003 cycles: 333221770 heartbeat IPC: 0.404521 cumulative IPC: 0.405861 (Simulation time: 0 hr 6 min 21 sec) 
Heartbeat CPU 0 instructions: 220000000 cycles: 358125670 heartbeat IPC: 0.401543 cumulative IPC: 0.405498 (Simulation time: 0 hr 6 min 45 sec) 
Heartbeat CPU 0 instructions: 230000002 cycles: 382695229 heartbeat IPC: 0.407008 cumulative IPC: 0.405614 (Simulation time: 0 hr 7 min 8 sec) 
Heartbeat CPU 0 instructions: 240000000 cycles: 407565789 heartbeat IPC: 0.402082 cumulative IPC: 0.405359 (Simulation time: 0 hr 7 min 31 sec) 
Heartbeat CPU 0 instructions: 250000000 cycles: 432238944 heartbeat IPC: 0.405299 cumulative IPC: 0.405355 (Simulation time: 0 hr 7 min 55 sec) 
Heartbeat CPU 0 instructions: 260000000 cycles: 456881975 heartbeat IPC: 0.405794 cumulative IPC: 0.405383 (Simulation time: 0 hr 8 min 18 sec) 
Heartbeat CPU 0 instructions: 270000001 cycles: 481610332 heartbeat IPC: 0.404394 cumulative IPC: 0.405324 (Simulation time: 0 hr 8 min 41 sec) 
Heartbeat CPU 0 instructions: 280000000 cycles: 506273479 heartbeat IPC: 0.405463 cumulative IPC: 0.405332 (Simulation time: 0 hr 9 min 5 sec) 
Heartbeat CPU 0 instructions: 290000001 cycles: 531018950 heartbeat IPC: 0.404114 cumulative IPC: 0.405268 (Simulation time: 0 hr 9 min 28 sec) 
Heartbeat CPU 0 instructions: 300000000 cycles: 555921660 heartbeat IPC: 0.401563 cumulative IPC: 0.405081 (Simulation time: 0 hr 9 min 52 sec) 
Heartbeat CPU 0 instructions: 310000003 cycles: 580476459 heartbeat IPC: 0.407252 cumulative IPC: 0.405184 (Simulation time: 0 hr 10 min 15 sec) 
Heartbeat CPU 0 instructions: 320000000 cycles: 605389351 heartbeat IPC: 0.401398 cumulative IPC: 0.40501 (Simulation time: 0 hr 10 min 38 sec) 
Heartbeat CPU 0 instructions: 330000003 cycles: 630056360 heartbeat IPC: 0.4054 cumulative IPC: 0.405027 (Simulation time: 0 hr 11 min 2 sec) 
Heartbeat CPU 0 instructions: 340000000 cycles: 655008988 heartbeat IPC: 0.400759 cumulative IPC: 0.404847 (Simulation time: 0 hr 11 min 25 sec) 
Heartbeat CPU 0 instructions: 350000002 cycles: 679926360 heartbeat IPC: 0.401327 cumulative IPC: 0.404705 (Simulation time: 0 hr 11 min 49 sec) 
Heartbeat CPU 0 instructions: 360000000 cycles: 704984982 heartbeat IPC: 0.399064 cumulative IPC: 0.404486 (Simulation time: 0 hr 12 min 12 sec) 
Heartbeat CPU 0 instructions: 370000000 cycles: 729820740 heartbeat IPC: 0.402645 cumulative IPC: 0.404417 (Simulation time: 0 hr 12 min 35 sec) 
Heartbeat CPU 0 instructions: 380000000 cycles: 754478117 heartbeat IPC: 0.405558 cumulative IPC: 0.404458 (Simulation time: 0 hr 12 min 58 sec) 
Heartbeat CPU 0 instructions: 390000002 cycles: 779147528 heartbeat IPC: 0.40536 cumulative IPC: 0.404489 (Simulation time: 0 hr 13 min 22 sec) 
Heartbeat CPU 0 instructions: 400000000 cycles: 803984710 heartbeat IPC: 0.402622 cumulative IPC: 0.404426 (Simulation time: 0 hr 13 min 45 sec) 
Heartbeat CPU 0 instructions: 410000002 cycles: 828724649 heartbeat IPC: 0.404205 cumulative IPC: 0.404419 (Simulation time: 0 hr 14 min 8 sec) 
Heartbeat CPU 0 instructions: 420000000 cycles: 853281127 heartbeat IPC: 0.407224 cumulative IPC: 0.404506 (Simulation time: 0 hr 14 min 32 sec) 
Heartbeat CPU 0 instructions: 430000000 cycles: 878038252 heartbeat IPC: 0.403924 cumulative IPC: 0.404489 (Simulation time: 0 hr 14 min 55 sec) 
Heartbeat CPU 0 instructions: 440000000 cycles: 902511251 heartbeat IPC: 0.408614 cumulative IPC: 0.404609 (Simulation time: 0 hr 15 min 18 sec) 
Heartbeat CPU 0 instructions: 450000000 cycles: 927393090 heartbeat IPC: 0.4019 cumulative IPC: 0.404531 (Simulation time: 0 hr 15 min 43 sec) 
Heartbeat CPU 0 instructions: 460000000 cycles: 952153797 heartbeat IPC: 0.403866 cumulative IPC: 0.404512 (Simulation time: 0 hr 16 min 7 sec) 
Heartbeat CPU 0 instructions: 470000001 cycles: 976729120 heartbeat IPC: 0.406912 cumulative IPC: 0.404577 (Simulation time: 0 hr 16 min 31 sec) 
Heartbeat CPU 0 instructions: 480000000 cycles: 1001459359 heartbeat IPC: 0.404363 cumulative IPC: 0.404571 (Simulation time: 0 hr 16 min 56 sec) 
Heartbeat CPU 0 instructions: 490000000 cycles: 1026304814 heartbeat IPC: 0.402488 cumulative IPC: 0.404517 (Simulation time: 0 hr 17 min 20 sec) 
Heartbeat CPU 0 instructions: 500000000 cycles: 1051446933 heartbeat IPC: 0.397739 cumulative IPC: 0.404345 (Simulation time: 0 hr 17 min 45 sec) 
Heartbeat CPU 0 instructions: 510000003 cycles: 1076467512 heartbeat IPC: 0.399671 cumulative IPC: 0.40423 (Simulation time: 0 hr 18 min 9 sec) 
Heartbeat CPU 0 instructions: 520000000 cycles: 1101640168 heartbeat IPC: 0.397256 cumulative IPC: 0.404061 (Simulation time: 0 hr 18 min 33 sec) 
Heartbeat CPU 0 instructions: 530000003 cycles: 1126848647 heartbeat IPC: 0.396692 cumulative IPC: 0.403886 (Simulation time: 0 hr 18 min 58 sec) 
Heartbeat CPU 0 instructions: 540000000 cycles: 1151968966 heartbeat IPC: 0.398084 cumulative IPC: 0.403753 (Simulation time: 0 hr 19 min 22 sec) 
Heartbeat CPU 0 instructions: 550000000 cycles: 1177093799 heartbeat IPC: 0.398013 cumulative IPC: 0.403623 (Simulation time: 0 hr 19 min 46 sec) 
Heartbeat CPU 0 instructions: 560000000 cycles: 1202514668 heartbeat IPC: 0.393378 cumulative IPC: 0.403395 (Simulation time: 0 hr 20 min 11 sec) 
Heartbeat CPU 0 instructions: 570000001 cycles: 1227874836 heartbeat IPC: 0.394319 cumulative IPC: 0.403198 (Simulation time: 0 hr 20 min 35 sec) 
Heartbeat CPU 0 instructions: 580000000 cycles: 1253236627 heartbeat IPC: 0.394294 cumulative IPC: 0.403008 (Simulation time: 0 hr 21 min 0 sec) 
Heartbeat CPU 0 instructions: 590000000 cycles: 1278738881 heartbeat IPC: 0.392122 cumulative IPC: 0.40278 (Simulation time: 0 hr 21 min 24 sec) 
Heartbeat CPU 0 instructions: 600000000 cycles: 1304318239 heartbeat IPC: 0.39094 cumulative IPC: 0.402536 (Simulation time: 0 hr 21 min 49 sec) 
Finished CPU 0 instructions: 500000003 cycles: 1242125132 cumulative IPC: 0.402536 (Simulation time: 0 hr 21 min 49 sec) 

CPU 0 Branch Prediction Accuracy: 91.1342% MPKI: 18.7968
Number of Branches: 106006945 Number of Mispredictions: 9398408
Number of LOAD Instructions: 207894007
Number of LOAD Instructions (ROI): 207894007
Number of STORE Instructions: 54285997
Number of STORE Instructions (ROI): 54285997
Total Destination Memory Operands: 57463404
Total Destination Memory Operands (ROI): 57463404
Total Source Memory Operands: 207894007
Total Source Memory Operands (ROI): 207894007
Number of DEPENDED LOADS: 18103270
Number of DEPENDED LOADS (ROI): 18103270
Number of SQ_ADDED: 57463404
Number of SQ_ADDED (ROI): 57463404
Number of LQ_ADDED: 209236074
Number of LQ_ADDED (ROI): 209236074
Number of Instructions read from trace: 600000039

ChampSim completed all CPUs

Region of Interest Statistics

CPU 0 cumulative IPC: 0.402536 instructions: 500000003 cycles: 1242125132
ITLB TOTAL     ACCESS:   96423143  HIT:   96423143  MISS:          0
ITLB LOAD      ACCESS:   96423143  HIT:   96423143  MISS:          0
ITLB RFO       ACCESS:          0  HIT:          0  MISS:          0
ITLB PREFETCH  ACCESS:          0  HIT:          0  MISS:          0
ITLB WRITEBACK ACCESS:          0  HIT:          0  MISS:          0
ITLB PREFETCH  REQUESTED:          0  ISSUED:          0  USEFUL:          0  USELESS:          0
ITLB TOTAL MSHR MERGED:          0
ITLB LOAD MSHR MERGED:          0
ITLB RFO MSHR MERGED:          0
ITLB PREFETCH MSHR MERGED:          0
ITLB WRITEBACK MSHR MERGED:          0
ITLB TOTAL ACCESSES:   96423143 HITS:   96423143 MISSES:          0
ITLB LOAD ACCESSES:   96423143 HITS:   96423143 MISSES:          0
ITLB RFO ACCESSES:          0 HITS:          0 MISSES:          0
ITLB PREFETCH ACCESSES:          0 HITS:          0 MISSES:          0
ITLB WRITEBACK ACCESSES:          0 HITS:          0 MISSES:          0
ITLB RQ ACCESS:  499999980
ITLB RQ TO_CACHE:   96423143
ITLB RQ MERGED:  403576837
ITLB RQ FORWARD:          0
ITLB WQ ACCESS:          0
ITLB WQ TO_CACHE:          0
ITLB WQ MERGED:          0
ITLB WQ FORWARD:          0
DTLB TOTAL     ACCESS:  155175267  HIT:  150263107  MISS:    4912160
DTLB LOAD      ACCESS:  117724697  HIT:  113334243  MISS:    4390454
DTLB RFO       ACCESS:   37450570  HIT:   36928864  MISS:     521706
DTLB PREFETCH  ACCESS:          0  HIT:          0  MISS:          0
DTLB WRITEBACK ACCESS:          0  HIT:          0  MISS:          0
DTLB PREFETCH  REQUESTED:          0  ISSUED:          0  USEFUL:          0  USELESS:          0
DTLB TOTAL MSHR MERGED:     453542
DTLB LOAD MSHR MERGED:     162093
DTLB RFO MSHR MERGED:     291449
DTLB PREFETCH MSHR MERGED:          0
DTLB WRITEBACK MSHR MERGED:          0
DTLB TOTAL ACCESSES:  155628809 HITS:  150263107 MISSES:    5365702
DTLB LOAD ACCESSES:  117886790 HITS:  113334243 MISSES:    4552547
DTLB RFO ACCESSES:   37742019 HITS:   36928864 MISSES:     813155
DTLB PREFETCH ACCESSES:          0 HITS:          0 MISSES:          0
DTLB WRITEBACK ACCESSES:          0 HITS:          0 MISSES:          0
DTLB RQ ACCESS:  205979548
DTLB RQ TO_CACHE:  155628809
DTLB RQ MERGED:   50350739
DTLB RQ FORWARD:          0
DTLB WQ ACCESS:          0
DTLB WQ TO_CACHE:          0
DTLB WQ MERGED:          0
DTLB WQ FORWARD:          0
L1D TOTAL     ACCESS:  277173162  HIT:  242350678  MISS:   34822484
L1D LOAD      ACCESS:  125413092  HIT:  107775343  MISS:   17637749
L1D RFO       ACCESS:   41137342  HIT:   38825501  MISS:    2311841
L1D PREFETCH  ACCESS:  110622728  HIT:   95749834  MISS:   14872894
L1D WRITEBACK ACCESS:          0  HIT:          0  MISS:          0
L1D PREFETCH  REQUESTED:  126275238  ISSUED:  124755994  USEFUL:    2706899  USELESS:   12166020
L1D TOTAL MSHR MERGED:    8506745
L1D LOAD MSHR MERGED:    1557951
L1D RFO MSHR MERGED:    3767703
L1D PREFETCH MSHR MERGED:    3181091
L1D WRITEBACK MSHR MERGED:          0
L1D TOTAL ACCESSES:  285767213 HITS:  242437983 MISSES:   43329230
L1D LOAD ACCESSES:  126275261 HITS:  107775366 MISSES:   18499895
L1D RFO ACCESSES:   44904546 HITS:   38825501 MISSES:    6079045
L1D PREFETCH ACCESSES:  114587406 HITS:   95837116 MISSES:   18750290
L1D WRITEBACK ACCESSES:          0 HITS:          0 MISSES:          0
L1D RQ ACCESS:  158432667
L1D RQ TO_CACHE:  126275238
L1D RQ MERGED:   32157406
L1D RQ FORWARD:          0
L1D WQ ACCESS:   47546882
L1D WQ TO_CACHE:   44904546
L1D WQ MERGED:    2642336
L1D WQ FORWARD:      87305
L1I TOTAL     ACCESS:  132833142  HIT:  132833142  MISS:          0
L1I LOAD      ACCESS:  132833142  HIT:  132833142  MISS:          0
L1I RFO       ACCESS:          0  HIT:          0  MISS:          0
L1I PREFETCH  ACCESS:          0  HIT:          0  MISS:          0
L1I WRITEBACK ACCESS:          0  HIT:          0  MISS:          0
L1I PREFETCH  REQUESTED:          0  ISSUED:          0  USEFUL:          0  USELESS:          0
L1I TOTAL MSHR MERGED:          0
L1I LOAD MSHR MERGED:          0
L1I RFO MSHR MERGED:          0
L1I PREFETCH MSHR MERGED:          0
L1I WRITEBACK MSHR MERGED:          0
L1I TOTAL ACCESSES:  132833142 HITS:  132833142 MISSES:          0
L1I LOAD ACCESSES:  132833142 HITS:  132833142 MISSES:          0
L1I RFO ACCESSES:          0 HITS:          0 MISSES:          0
L1I PREFETCH ACCESSES:          0 HITS:          0 MISSES:          0
L1I WRITEBACK ACCESSES:          0 HITS:          0 MISSES:          0
L1I RQ ACCESS:  499999980
L1I RQ TO_CACHE:  132833142
L1I RQ MERGED:  367166838
L1I RQ FORWARD:          0
L1I WQ ACCESS:          0
L1I WQ TO_CACHE:          0
L1I WQ MERGED:          0
L1I WQ FORWARD:          0
L2C TOTAL     ACCESS:   39595083  HIT:   20625642  MISS:   18969441
L2C LOAD      ACCESS:   16941883  HIT:    8567780  MISS:    8374103
L2C RFO       ACCESS:    2311290  HIT:     630829  MISS:    1680461
L2C PREFETCH  ACCESS:   17119460  HIT:    8208332  MISS:    8911128
L2C WRITEBACK ACCESS:    3222450  HIT:    3218701  MISS:       3749
L2C PREFETCH  REQUESTED:    2864878  ISSUED:    2864878  USEFUL:    1307119  USELESS:    7603748
L2C TOTAL MSHR MERGED:     526421
L2C LOAD MSHR MERGED:      85570
L2C RFO MSHR MERGED:          0
L2C PREFETCH MSHR MERGED:     440851
L2C WRITEBACK MSHR MERGED:          0
L2C TOTAL ACCESSES:   40224707 HITS:   20625804 MISSES:   19598903
L2C LOAD ACCESSES:   16941944 HITS:    8567841 MISSES:    8374103
L2C RFO ACCESSES:    2311342 HITS:     630881 MISSES:    1680461
L2C PREFETCH ACCESSES:   17748971 HITS:    8208381 MISSES:    9540590
L2C WRITEBACK ACCESSES:    3222450 HITS:    3218701 MISSES:       3749
L2C RQ ACCESS:   19253286
L2C RQ TO_CACHE:   19253173
L2C RQ MERGED:          0
L2C RQ FORWARD:          0
L2C WQ ACCESS:    3222450
L2C WQ TO_CACHE:    3222450
L2C WQ MERGED:          0
L2C WQ FORWARD:        162
LLC TOTAL     ACCESS:   21193095  HIT:   14385897  MISS:    6807198
LLC LOAD      ACCESS:    8288506  HIT:    5804480  MISS:    2484026
LLC RFO       ACCESS:    1680383  HIT:    1674129  MISS:       6254
LLC PREFETCH  ACCESS:    9048542  HIT:    4736615  MISS:    4311927
LLC WRITEBACK ACCESS:    2175664  HIT:    2170673  MISS:       4991
LLC PREFETCH  REQUESTED:          0  ISSUED:          0  USEFUL:     206222  USELESS:    4108085
LLC TOTAL MSHR MERGED:      43295
LLC LOAD MSHR MERGED:      13313
LLC RFO MSHR MERGED:          0
LLC PREFETCH MSHR MERGED:      29982
LLC WRITEBACK MSHR MERGED:          0
LLC TOTAL ACCESSES:   21236523 HITS:   14386029 MISSES:    6850494
LLC LOAD ACCESSES:    8288533 HITS:    5804507 MISSES:    2484026
LLC RFO ACCESSES:    1680461 HITS:    1674207 MISSES:       6254
LLC PREFETCH ACCESSES:    9091865 HITS:    4736642 MISSES:    4355223
LLC WRITEBACK ACCESSES:    2175664 HITS:    2170673 MISSES:       4991
LLC 0 RQ ACCESS:    9968994
LLC 0 RQ TO_CACHE:    9968889
LLC 0 RQ MERGED:          0
LLC 0 RQ FORWARD:          0
LLC WQ ACCESS:    2175665
LLC WQ TO_CACHE:    2175665
LLC WQ MERGED:          0
LLC WQ FORWARD:        132
Major fault: 0 Minor fault: 56391
CPU 0 L1D next line prefetcher final stats
CPU 0 L2C PC-based stride prefetcher final stats
All Misses: 8027717
All Hits: 16542221
SD Algo Stats - Switches: 0 SRR-Repls: 2603868 BRR-Repls: 0

DRAM Statistics
 CHANNEL 0
 RQ ROW_BUFFER_HIT:    4580382  ROW_BUFFER_MISS:    2214238
 DBUS_CONGESTED:    3182526
 WQ ROW_BUFFER_HIT:        511  ROW_BUFFER_MISS:      17446  FULL:          0

 AVG_CONGESTED_CYCLE: 12
LOADS RETIRED: 173631671
INSTR RETIRED: 500000000
