
*** ChampSim Multicore Out-of-Order Simulator ***

Warmup Instructions: 100000000
Simulation Instructions: 500000000
Number of CPUs: 1
LLC sets: 2048
LLC ways: 16
Clean RRIP Policies: 21220200212202 Dirty RRIP Policies: 1122200011222 PSEL Width: 10 Track Set: 4294967295 PSEL Mask: 1 Demote Mask: 3403442134034421DS Algo: 0Window size: 0
Off-chip DRAM Size: 4096 MB Channels: 1 Width: 64-bit Data Rate: 1600 MT/s

CPU 0 runs /mnt/beegfs/iconst01/spec2017/Gcc.trace.gz
NOT SORTED
TRACE STRING: /mnt/beegfs/iconst01/spec2017/Gcc.trace.gz
SORTED
TRACE STRING: /mnt/beegfs/iconst01/spec2017/Gcc.trace.gz
INITIAL
TRACE STRING: /mnt/beegfs/iconst01/spec2017/Gcc.trace.gz

champsim_seed used: 269

CPU 0 L1D next line prefetcher
CPU 0 L2C IP-based stride prefetcher
Initialize DRRIP state
Assign rand_sets[0]: 454  LLC: 2048
rand_sets[0]: 454
Assign rand_sets[1]: 1662  LLC: 2048
rand_sets[1]: 1662
Assign rand_sets[2]: 1921  LLC: 2048
rand_sets[2]: 1921
Assign rand_sets[3]: 1131  LLC: 2048
rand_sets[3]: 1131
Assign rand_sets[4]: 331  LLC: 2048
rand_sets[4]: 331
Assign rand_sets[5]: 1531  LLC: 2048
rand_sets[5]: 1531
Assign rand_sets[6]: 482  LLC: 2048
rand_sets[6]: 482
Assign rand_sets[7]: 1275  LLC: 2048
rand_sets[7]: 1275
Assign rand_sets[8]: 1876  LLC: 2048
rand_sets[8]: 1876
Assign rand_sets[9]: 2038  LLC: 2048
rand_sets[9]: 2038
Assign rand_sets[10]: 701  LLC: 2048
rand_sets[10]: 701
Assign rand_sets[11]: 479  LLC: 2048
rand_sets[11]: 479
Assign rand_sets[12]: 892  LLC: 2048
rand_sets[12]: 892
Assign rand_sets[13]: 1820  LLC: 2048
rand_sets[13]: 1820
Assign rand_sets[14]: 1505  LLC: 2048
rand_sets[14]: 1505
Assign rand_sets[15]: 1159  LLC: 2048
rand_sets[15]: 1159
Assign rand_sets[16]: 513  LLC: 2048
rand_sets[16]: 513
Assign rand_sets[17]: 703  LLC: 2048
rand_sets[17]: 703
Assign rand_sets[18]: 561  LLC: 2048
rand_sets[18]: 561
Assign rand_sets[19]: 990  LLC: 2048
rand_sets[19]: 990
Assign rand_sets[20]: 342  LLC: 2048
rand_sets[20]: 342
Assign rand_sets[21]: 882  LLC: 2048
rand_sets[21]: 882
Assign rand_sets[22]: 15  LLC: 2048
rand_sets[22]: 15
Assign rand_sets[23]: 71  LLC: 2048
rand_sets[23]: 71
Assign rand_sets[24]: 1127  LLC: 2048
rand_sets[24]: 1127
Assign rand_sets[25]: 1382  LLC: 2048
rand_sets[25]: 1382
Assign rand_sets[26]: 647  LLC: 2048
rand_sets[26]: 647
Assign rand_sets[27]: 857  LLC: 2048
rand_sets[27]: 857
Assign rand_sets[28]: 1450  LLC: 2048
rand_sets[28]: 1450
Assign rand_sets[29]: 1160  LLC: 2048
rand_sets[29]: 1160
Assign rand_sets[30]: 1852  LLC: 2048
rand_sets[30]: 1852
Assign rand_sets[31]: 1881  LLC: 2048
rand_sets[31]: 1881
Assign rand_sets[32]: 1770  LLC: 2048
rand_sets[32]: 1770
Assign rand_sets[33]: 1622  LLC: 2048
rand_sets[33]: 1622
Assign rand_sets[34]: 275  LLC: 2048
rand_sets[34]: 275
Assign rand_sets[35]: 635  LLC: 2048
rand_sets[35]: 635
Assign rand_sets[36]: 466  LLC: 2048
rand_sets[36]: 466
Assign rand_sets[37]: 1413  LLC: 2048
rand_sets[37]: 1413
Assign rand_sets[38]: 417  LLC: 2048
rand_sets[38]: 417
Assign rand_sets[39]: 472  LLC: 2048
rand_sets[39]: 472
Assign rand_sets[40]: 1340  LLC: 2048
rand_sets[40]: 1340
Assign rand_sets[41]: 852  LLC: 2048
rand_sets[41]: 852
Assign rand_sets[42]: 1365  LLC: 2048
rand_sets[42]: 1365
Assign rand_sets[43]: 47  LLC: 2048
rand_sets[43]: 47
Assign rand_sets[44]: 823  LLC: 2048
rand_sets[44]: 823
Assign rand_sets[45]: 686  LLC: 2048
rand_sets[45]: 686
Assign rand_sets[46]: 1637  LLC: 2048
rand_sets[46]: 1637
Assign rand_sets[47]: 1115  LLC: 2048
rand_sets[47]: 1115
Assign rand_sets[48]: 986  LLC: 2048
rand_sets[48]: 986
Assign rand_sets[49]: 258  LLC: 2048
rand_sets[49]: 258
Assign rand_sets[50]: 633  LLC: 2048
rand_sets[50]: 633
Assign rand_sets[51]: 920  LLC: 2048
rand_sets[51]: 920
Assign rand_sets[52]: 204  LLC: 2048
rand_sets[52]: 204
Assign rand_sets[53]: 227  LLC: 2048
rand_sets[53]: 227
Assign rand_sets[54]: 1818  LLC: 2048
rand_sets[54]: 1818
Assign rand_sets[55]: 886  LLC: 2048
rand_sets[55]: 886
Assign rand_sets[56]: 1422  LLC: 2048
rand_sets[56]: 1422
Assign rand_sets[57]: 607  LLC: 2048
rand_sets[57]: 607
Assign rand_sets[58]: 217  LLC: 2048
rand_sets[58]: 217
Assign rand_sets[59]: 1945  LLC: 2048
rand_sets[59]: 1945
Assign rand_sets[60]: 143  LLC: 2048
rand_sets[60]: 143
Assign rand_sets[61]: 1311  LLC: 2048
rand_sets[61]: 1311
Assign rand_sets[62]: 319  LLC: 2048
rand_sets[62]: 319
Assign rand_sets[63]: 1846  LLC: 2048
rand_sets[63]: 1846
 CLEAN-RRIP-POLICY-1: 0-0-2-1-2-2-0-2- CLEAN-RRIP-POLICY-2: 0-0-2-1-2-2-0-2-
 DIRTY-RRIP-POLICY-1: 0-0-0-1-1-2-2-2- DIRTY-RRIP-POLICY-2: 0-0-0-1-1-2-2-2-
 PSEL width: 10
Heartbeat CPU 0 instructions: 10000001 cycles: 7315921 heartbeat IPC: 1.36688 cumulative IPC: 1.36688 (Simulation time: 0 hr 0 min 15 sec) 
Heartbeat CPU 0 instructions: 20000000 cycles: 14308347 heartbeat IPC: 1.43012 cumulative IPC: 1.39779 (Simulation time: 0 hr 0 min 30 sec) 
Heartbeat CPU 0 instructions: 30000001 cycles: 21021825 heartbeat IPC: 1.48954 cumulative IPC: 1.42709 (Simulation time: 0 hr 0 min 46 sec) 
Heartbeat CPU 0 instructions: 40000000 cycles: 27482761 heartbeat IPC: 1.54776 cumulative IPC: 1.45546 (Simulation time: 0 hr 1 min 2 sec) 
Heartbeat CPU 0 instructions: 50000001 cycles: 33584381 heartbeat IPC: 1.63891 cumulative IPC: 1.48879 (Simulation time: 0 hr 1 min 18 sec) 
Heartbeat CPU 0 instructions: 60000000 cycles: 40065701 heartbeat IPC: 1.5429 cumulative IPC: 1.49754 (Simulation time: 0 hr 1 min 34 sec) 
Heartbeat CPU 0 instructions: 70000000 cycles: 47104616 heartbeat IPC: 1.42067 cumulative IPC: 1.48605 (Simulation time: 0 hr 1 min 49 sec) 
Heartbeat CPU 0 instructions: 80000000 cycles: 54195401 heartbeat IPC: 1.41028 cumulative IPC: 1.47614 (Simulation time: 0 hr 2 min 4 sec) 
Heartbeat CPU 0 instructions: 90000003 cycles: 61200659 heartbeat IPC: 1.4275 cumulative IPC: 1.47057 (Simulation time: 0 hr 2 min 19 sec) 
Heartbeat CPU 0 instructions: 100000000 cycles: 68368724 heartbeat IPC: 1.39508 cumulative IPC: 1.46266 (Simulation time: 0 hr 2 min 34 sec) 

Warmup complete CPU 0 instructions: 100000004 cycles: 68368725 (Simulation time: 0 hr 2 min 34 sec) 

Heartbeat CPU 0 instructions: 110000003 cycles: 96184196 heartbeat IPC: 0.359512 cumulative IPC: 0.359512 (Simulation time: 0 hr 3 min 3 sec) 
Heartbeat CPU 0 instructions: 120000000 cycles: 123688639 heartbeat IPC: 0.363578 cumulative IPC: 0.361533 (Simulation time: 0 hr 3 min 33 sec) 
Heartbeat CPU 0 instructions: 130000000 cycles: 148685780 heartbeat IPC: 0.400046 cumulative IPC: 0.37352 (Simulation time: 0 hr 4 min 3 sec) 
Heartbeat CPU 0 instructions: 140000000 cycles: 178410311 heartbeat IPC: 0.336422 cumulative IPC: 0.363499 (Simulation time: 0 hr 4 min 32 sec) 
Heartbeat CPU 0 instructions: 150000000 cycles: 208493760 heartbeat IPC: 0.332409 cumulative IPC: 0.356824 (Simulation time: 0 hr 5 min 1 sec) 
Heartbeat CPU 0 instructions: 160000000 cycles: 235958206 heartbeat IPC: 0.364107 cumulative IPC: 0.358018 (Simulation time: 0 hr 5 min 30 sec) 
Heartbeat CPU 0 instructions: 170000001 cycles: 264025702 heartbeat IPC: 0.356284 cumulative IPC: 0.357769 (Simulation time: 0 hr 6 min 1 sec) 
Heartbeat CPU 0 instructions: 180000000 cycles: 292559015 heartbeat IPC: 0.350468 cumulative IPC: 0.35684 (Simulation time: 0 hr 6 min 31 sec) 
Heartbeat CPU 0 instructions: 190000002 cycles: 320629696 heartbeat IPC: 0.356244 cumulative IPC: 0.356773 (Simulation time: 0 hr 7 min 0 sec) 
Heartbeat CPU 0 instructions: 200000000 cycles: 349098385 heartbeat IPC: 0.351263 cumulative IPC: 0.356215 (Simulation time: 0 hr 7 min 30 sec) 
Heartbeat CPU 0 instructions: 210000002 cycles: 377003239 heartbeat IPC: 0.358361 cumulative IPC: 0.356409 (Simulation time: 0 hr 8 min 0 sec) 
Heartbeat CPU 0 instructions: 220000000 cycles: 406313051 heartbeat IPC: 0.341183 cumulative IPC: 0.355088 (Simulation time: 0 hr 8 min 28 sec) 
Heartbeat CPU 0 instructions: 230000000 cycles: 433976274 heartbeat IPC: 0.361491 cumulative IPC: 0.355573 (Simulation time: 0 hr 8 min 57 sec) 
Heartbeat CPU 0 instructions: 240000000 cycles: 460161447 heartbeat IPC: 0.381896 cumulative IPC: 0.357332 (Simulation time: 0 hr 9 min 25 sec) 
Heartbeat CPU 0 instructions: 250000000 cycles: 490410456 heartbeat IPC: 0.330589 cumulative IPC: 0.355415 (Simulation time: 0 hr 9 min 56 sec) 
Heartbeat CPU 0 instructions: 260000000 cycles: 517557905 heartbeat IPC: 0.368359 cumulative IPC: 0.356197 (Simulation time: 0 hr 10 min 25 sec) 
Heartbeat CPU 0 instructions: 270000003 cycles: 545974636 heartbeat IPC: 0.351905 cumulative IPC: 0.355942 (Simulation time: 0 hr 10 min 56 sec) 
Heartbeat CPU 0 instructions: 280000000 cycles: 574253953 heartbeat IPC: 0.353615 cumulative IPC: 0.355812 (Simulation time: 0 hr 11 min 26 sec) 
Heartbeat CPU 0 instructions: 290000000 cycles: 603150525 heartbeat IPC: 0.346062 cumulative IPC: 0.355285 (Simulation time: 0 hr 11 min 57 sec) 
Heartbeat CPU 0 instructions: 300000000 cycles: 633216463 heartbeat IPC: 0.332602 cumulative IPC: 0.354078 (Simulation time: 0 hr 12 min 26 sec) 
Heartbeat CPU 0 instructions: 310000001 cycles: 662790688 heartbeat IPC: 0.338132 cumulative IPC: 0.353284 (Simulation time: 0 hr 12 min 56 sec) 
Heartbeat CPU 0 instructions: 320000000 cycles: 691133878 heartbeat IPC: 0.352818 cumulative IPC: 0.353263 (Simulation time: 0 hr 13 min 25 sec) 
Heartbeat CPU 0 instructions: 330000000 cycles: 719839130 heartbeat IPC: 0.348368 cumulative IPC: 0.353047 (Simulation time: 0 hr 13 min 54 sec) 
Heartbeat CPU 0 instructions: 340000000 cycles: 749274822 heartbeat IPC: 0.339724 cumulative IPC: 0.352472 (Simulation time: 0 hr 14 min 23 sec) 
Heartbeat CPU 0 instructions: 350000003 cycles: 776369627 heartbeat IPC: 0.369075 cumulative IPC: 0.353107 (Simulation time: 0 hr 14 min 52 sec) 
Heartbeat CPU 0 instructions: 360000000 cycles: 804801198 heartbeat IPC: 0.351722 cumulative IPC: 0.353053 (Simulation time: 0 hr 15 min 20 sec) 
Heartbeat CPU 0 instructions: 370000000 cycles: 833220898 heartbeat IPC: 0.351869 cumulative IPC: 0.353009 (Simulation time: 0 hr 15 min 49 sec) 
Heartbeat CPU 0 instructions: 380000000 cycles: 861906729 heartbeat IPC: 0.348604 cumulative IPC: 0.35285 (Simulation time: 0 hr 16 min 17 sec) 
Heartbeat CPU 0 instructions: 390000001 cycles: 889617375 heartbeat IPC: 0.360872 cumulative IPC: 0.353121 (Simulation time: 0 hr 16 min 45 sec) 
Heartbeat CPU 0 instructions: 400000000 cycles: 918355252 heartbeat IPC: 0.347973 cumulative IPC: 0.352947 (Simulation time: 0 hr 17 min 13 sec) 
Heartbeat CPU 0 instructions: 410000001 cycles: 945697462 heartbeat IPC: 0.365735 cumulative IPC: 0.353345 (Simulation time: 0 hr 17 min 41 sec) 
Heartbeat CPU 0 instructions: 420000000 cycles: 973037253 heartbeat IPC: 0.365767 cumulative IPC: 0.353721 (Simulation time: 0 hr 18 min 9 sec) 
Heartbeat CPU 0 instructions: 430000002 cycles: 1000801876 heartbeat IPC: 0.360171 cumulative IPC: 0.353913 (Simulation time: 0 hr 18 min 38 sec) 
Heartbeat CPU 0 instructions: 440000000 cycles: 1030547687 heartbeat IPC: 0.336182 cumulative IPC: 0.353365 (Simulation time: 0 hr 19 min 6 sec) 
Heartbeat CPU 0 instructions: 450000002 cycles: 1059949734 heartbeat IPC: 0.340112 cumulative IPC: 0.352972 (Simulation time: 0 hr 19 min 35 sec) 
Heartbeat CPU 0 instructions: 460000000 cycles: 1087689234 heartbeat IPC: 0.360497 cumulative IPC: 0.353176 (Simulation time: 0 hr 20 min 3 sec) 
Heartbeat CPU 0 instructions: 470000000 cycles: 1115364554 heartbeat IPC: 0.361333 cumulative IPC: 0.353392 (Simulation time: 0 hr 20 min 31 sec) 
Heartbeat CPU 0 instructions: 480000000 cycles: 1143268293 heartbeat IPC: 0.358375 cumulative IPC: 0.353521 (Simulation time: 0 hr 20 min 59 sec) 
Heartbeat CPU 0 instructions: 490000000 cycles: 1170884597 heartbeat IPC: 0.362105 cumulative IPC: 0.353736 (Simulation time: 0 hr 21 min 27 sec) 
Heartbeat CPU 0 instructions: 500000000 cycles: 1199235233 heartbeat IPC: 0.352726 cumulative IPC: 0.353711 (Simulation time: 0 hr 21 min 55 sec) 
Heartbeat CPU 0 instructions: 510000000 cycles: 1234784259 heartbeat IPC: 0.281302 cumulative IPC: 0.351504 (Simulation time: 0 hr 22 min 27 sec) 
Heartbeat CPU 0 instructions: 520000000 cycles: 1263345145 heartbeat IPC: 0.350129 cumulative IPC: 0.351471 (Simulation time: 0 hr 22 min 57 sec) 
Heartbeat CPU 0 instructions: 530000001 cycles: 1294031427 heartbeat IPC: 0.325879 cumulative IPC: 0.350831 (Simulation time: 0 hr 23 min 26 sec) 
Heartbeat CPU 0 instructions: 540000000 cycles: 1322936412 heartbeat IPC: 0.345961 cumulative IPC: 0.350718 (Simulation time: 0 hr 23 min 56 sec) 
Heartbeat CPU 0 instructions: 550000001 cycles: 1352424284 heartbeat IPC: 0.339123 cumulative IPC: 0.350452 (Simulation time: 0 hr 24 min 27 sec) 
Heartbeat CPU 0 instructions: 560000000 cycles: 1378090499 heartbeat IPC: 0.389617 cumulative IPC: 0.35122 (Simulation time: 0 hr 24 min 55 sec) 
Heartbeat CPU 0 instructions: 570000000 cycles: 1408348982 heartbeat IPC: 0.330486 cumulative IPC: 0.350751 (Simulation time: 0 hr 25 min 25 sec) 
Heartbeat CPU 0 instructions: 580000000 cycles: 1436824536 heartbeat IPC: 0.351178 cumulative IPC: 0.35076 (Simulation time: 0 hr 25 min 55 sec) 
Heartbeat CPU 0 instructions: 590000001 cycles: 1461903226 heartbeat IPC: 0.398745 cumulative IPC: 0.351624 (Simulation time: 0 hr 26 min 23 sec) 
Heartbeat CPU 0 instructions: 600000000 cycles: 1488684173 heartbeat IPC: 0.3734 cumulative IPC: 0.352034 (Simulation time: 0 hr 26 min 51 sec) 
Finished CPU 0 instructions: 500000000 cycles: 1420315470 cumulative IPC: 0.352034 (Simulation time: 0 hr 26 min 51 sec) 

CPU 0 Branch Prediction Accuracy: 86.4311% MPKI: 26.2662
Number of Branches: 96788573 Number of Mispredictions: 13133102
Number of LOAD Instructions: 164682285
Number of LOAD Instructions (ROI): 164682285
Number of STORE Instructions: 78194750
Number of STORE Instructions (ROI): 78194750
Total Destination Memory Operands: 83268534
Total Destination Memory Operands (ROI): 83268534
Total Source Memory Operands: 164712438
Total Source Memory Operands (ROI): 164712438
Number of DEPENDED LOADS: 7064129
Number of DEPENDED LOADS (ROI): 7064129
Number of SQ_ADDED: 83268522
Number of SQ_ADDED (ROI): 83268522
Number of LQ_ADDED: 236748202
Number of LQ_ADDED (ROI): 236748202
Number of Instructions read from trace: 600000066

ChampSim completed all CPUs

Region of Interest Statistics

CPU 0 cumulative IPC: 0.352034 instructions: 500000000 cycles: 1420315470
ITLB TOTAL     ACCESS:  100512807  HIT:  100308361  MISS:     204446
ITLB LOAD      ACCESS:  100512807  HIT:  100308361  MISS:     204446
ITLB RFO       ACCESS:          0  HIT:          0  MISS:          0
ITLB PREFETCH  ACCESS:          0  HIT:          0  MISS:          0
ITLB WRITEBACK ACCESS:          0  HIT:          0  MISS:          0
ITLB PREFETCH  REQUESTED:          0  ISSUED:          0  USEFUL:          0  USELESS:          0
ITLB TOTAL MSHR MERGED:     172424
ITLB LOAD MSHR MERGED:     172424
ITLB RFO MSHR MERGED:          0
ITLB PREFETCH MSHR MERGED:          0
ITLB WRITEBACK MSHR MERGED:          0
ITLB TOTAL ACCESSES:  100685231 HITS:  100308361 MISSES:     376870
ITLB LOAD ACCESSES:  100685231 HITS:  100308361 MISSES:     376870
ITLB RFO ACCESSES:          0 HITS:          0 MISSES:          0
ITLB PREFETCH ACCESSES:          0 HITS:          0 MISSES:          0
ITLB WRITEBACK ACCESSES:          0 HITS:          0 MISSES:          0
ITLB RQ ACCESS:  500000057
ITLB RQ TO_CACHE:  100685231
ITLB RQ MERGED:  399314826
ITLB RQ FORWARD:          0
ITLB WQ ACCESS:          0
ITLB WQ TO_CACHE:          0
ITLB WQ MERGED:          0
ITLB WQ FORWARD:          0
DTLB TOTAL     ACCESS:  165334997  HIT:  164700648  MISS:     634349
DTLB LOAD      ACCESS:  106289921  HIT:  105719950  MISS:     569971
DTLB RFO       ACCESS:   59045076  HIT:   58980698  MISS:      64378
DTLB PREFETCH  ACCESS:          0  HIT:          0  MISS:          0
DTLB WRITEBACK ACCESS:          0  HIT:          0  MISS:          0
DTLB PREFETCH  REQUESTED:          0  ISSUED:          0  USEFUL:          0  USELESS:          0
DTLB TOTAL MSHR MERGED:      99929
DTLB LOAD MSHR MERGED:      59409
DTLB RFO MSHR MERGED:      40520
DTLB PREFETCH MSHR MERGED:          0
DTLB WRITEBACK MSHR MERGED:          0
DTLB TOTAL ACCESSES:  165434926 HITS:  164700648 MISSES:     734278
DTLB LOAD ACCESSES:  106349330 HITS:  105719950 MISSES:     629380
DTLB RFO ACCESSES:   59085596 HITS:   58980698 MISSES:     104898
DTLB PREFETCH ACCESSES:          0 HITS:          0 MISSES:          0
DTLB WRITEBACK ACCESSES:          0 HITS:          0 MISSES:          0
DTLB RQ ACCESS:  200306857
DTLB RQ TO_CACHE:  165434926
DTLB RQ MERGED:   34871931
DTLB RQ FORWARD:          0
DTLB WQ ACCESS:          0
DTLB WQ TO_CACHE:          0
DTLB WQ MERGED:          0
DTLB WQ FORWARD:          0
L1D TOTAL     ACCESS:  281832871  HIT:  273923547  MISS:    7909324
L1D LOAD      ACCESS:  110420962  HIT:  107143845  MISS:    3277117
L1D RFO       ACCESS:   67111942  HIT:   66221116  MISS:     890826
L1D PREFETCH  ACCESS:  104299967  HIT:  100558586  MISS:    3741381
L1D WRITEBACK ACCESS:          0  HIT:          0  MISS:          0
L1D PREFETCH  REQUESTED:  110815348  ISSUED:  109116059  USEFUL:    1662115  USELESS:    2079230
L1D TOTAL MSHR MERGED:    2868594
L1D LOAD MSHR MERGED:     491075
L1D RFO MSHR MERGED:    1873710
L1D PREFETCH MSHR MERGED:     503809
L1D WRITEBACK MSHR MERGED:          0
L1D TOTAL ACCESSES:  284728955 HITS:  273951037 MISSES:   10777918
L1D LOAD ACCESSES:  110816843 HITS:  107145340 MISSES:    3671503
L1D RFO ACCESSES:   68973626 HITS:   66221116 MISSES:    2752510
L1D PREFETCH ACCESSES:  104938486 HITS:  100584581 MISSES:    4353905
L1D WRITEBACK ACCESSES:          0 HITS:          0 MISSES:          0
L1D RQ ACCESS:  130754254
L1D RQ TO_CACHE:  110815351
L1D RQ MERGED:   19937408
L1D RQ FORWARD:          0
L1D WQ ACCESS:   69552603
L1D WQ TO_CACHE:   68973627
L1D WQ MERGED:     578976
L1D WQ FORWARD:      27490
L1I TOTAL     ACCESS:  126559908  HIT:  122321355  MISS:    4238553
L1I LOAD      ACCESS:  126559908  HIT:  122321355  MISS:    4238553
L1I RFO       ACCESS:          0  HIT:          0  MISS:          0
L1I PREFETCH  ACCESS:          0  HIT:          0  MISS:          0
L1I WRITEBACK ACCESS:          0  HIT:          0  MISS:          0
L1I PREFETCH  REQUESTED:          0  ISSUED:          0  USEFUL:          0  USELESS:          0
L1I TOTAL MSHR MERGED:    1834987
L1I LOAD MSHR MERGED:    1834987
L1I RFO MSHR MERGED:          0
L1I PREFETCH MSHR MERGED:          0
L1I WRITEBACK MSHR MERGED:          0
L1I TOTAL ACCESSES:  128394898 HITS:  122321355 MISSES:    6073543
L1I LOAD ACCESSES:  128394898 HITS:  122321355 MISSES:    6073543
L1I RFO ACCESSES:          0 HITS:          0 MISSES:          0
L1I PREFETCH ACCESSES:          0 HITS:          0 MISSES:          0
L1I WRITEBACK ACCESSES:          0 HITS:          0 MISSES:          0
L1I RQ ACCESS:  500000057
L1I RQ TO_CACHE:  128394898
L1I RQ MERGED:  371605159
L1I RQ FORWARD:          0
L1I WQ ACCESS:          0
L1I WQ TO_CACHE:          0
L1I WQ MERGED:          0
L1I WQ FORWARD:          0
L2C TOTAL     ACCESS:   14905063  HIT:   11158609  MISS:    3746454
L2C LOAD      ACCESS:    7418777  HIT:    5098793  MISS:    2319984
L2C RFO       ACCESS:     878702  HIT:     409903  MISS:     468799
L2C PREFETCH  ACCESS:    4568335  HIT:    3627923  MISS:     940412
L2C WRITEBACK ACCESS:    2039249  HIT:    2021990  MISS:      17259
L2C PREFETCH  REQUESTED:     842649  ISSUED:     842649  USEFUL:     203327  USELESS:     736790
L2C TOTAL MSHR MERGED:       7154
L2C LOAD MSHR MERGED:        813
L2C RFO MSHR MERGED:          0
L2C PREFETCH MSHR MERGED:       6341
L2C WRITEBACK MSHR MERGED:          0
L2C TOTAL ACCESSES:   14913128 HITS:   11159056 MISSES:    3754072
L2C LOAD ACCESSES:    7418981 HITS:    5098997 MISSES:    2319984
L2C RFO ACCESSES:     878800 HITS:     410001 MISSES:     468799
L2C PREFETCH ACCESSES:    4576098 HITS:    3628068 MISSES:     948030
L2C WRITEBACK ACCESSES:    2039249 HITS:    2021990 MISSES:      17259
L2C RQ ACCESS:    8297784
L2C RQ TO_CACHE:    8297482
L2C RQ MERGED:          0
L2C RQ FORWARD:          0
L2C WQ ACCESS:    2039249
L2C WQ TO_CACHE:    2039249
L2C WQ MERGED:          0
L2C WQ FORWARD:        447
LLC TOTAL     ACCESS:    4609799  HIT:    3875804  MISS:     733995
LLC LOAD      ACCESS:    2319158  HIT:    1995704  MISS:     323454
LLC RFO       ACCESS:     468789  HIT:     395108  MISS:      73681
LLC PREFETCH  ACCESS:     941556  HIT:     662600  MISS:     278956
LLC WRITEBACK ACCESS:     880296  HIT:     822392  MISS:      57904
LLC PREFETCH  REQUESTED:          0  ISSUED:          0  USEFUL:      42023  USELESS:     233496
LLC TOTAL MSHR MERGED:        107
LLC LOAD MSHR MERGED:         34
LLC RFO MSHR MERGED:          0
LLC PREFETCH MSHR MERGED:         73
LLC WRITEBACK MSHR MERGED:          0
LLC TOTAL ACCESSES:    4609942 HITS:    3875840 MISSES:     734102
LLC LOAD ACCESSES:    2319171 HITS:    1995717 MISSES:     323454
LLC RFO ACCESSES:     468799 HITS:     395118 MISSES:      73681
LLC PREFETCH ACCESSES:     941676 HITS:     662613 MISSES:     279063
LLC WRITEBACK ACCESSES:     880296 HITS:     822392 MISSES:      57904
LLC 0 RQ ACCESS:    2787970
LLC 0 RQ TO_CACHE:    2787947
LLC 0 RQ MERGED:          0
LLC 0 RQ FORWARD:          0
LLC WQ ACCESS:     880296
LLC WQ TO_CACHE:     880296
LLC WQ MERGED:          0
LLC WQ FORWARD:         36
Major fault: 0 Minor fault: 12862
CPU 0 L1D next line prefetcher final stats
CPU 0 L2C PC-based stride prefetcher final stats
All Misses: 854529
All Hits: 4572276
SD Algo Stats - Switches: 0 SRR-Repls: 372863 BRR-Repls: 0

DRAM Statistics
 CHANNEL 0
 RQ ROW_BUFFER_HIT:     134033  ROW_BUFFER_MISS:     540356
 DBUS_CONGESTED:     402921
 WQ ROW_BUFFER_HIT:      19229  ROW_BUFFER_MISS:     218712  FULL:          0

 AVG_CONGESTED_CYCLE: 13
LOADS RETIRED: 136549171
INSTR RETIRED: 500000000
