
*** ChampSim Multicore Out-of-Order Simulator ***

Warmup Instructions: 100000000
Simulation Instructions: 500000000
Number of CPUs: 1
LLC sets: 2048
LLC ways: 16
Clean RRIP Policies: 2223210222232102 Dirty RRIP Policies: 1203110212031102 PSEL Width: 10 Track Set: 4294967295 PSEL Mask: 1 Demote Mask: 1040100010401000DS Algo: 0Window size: 0
Off-chip DRAM Size: 4096 MB Channels: 1 Width: 64-bit Data Rate: 1600 MT/s

CPU 0 runs /mnt/beegfs/iconst01/spec2017/cactuBSSN.trace.gz
NOT SORTED
TRACE STRING: /mnt/beegfs/iconst01/spec2017/cactuBSSN.trace.gz
SORTED
TRACE STRING: /mnt/beegfs/iconst01/spec2017/cactuBSSN.trace.gz
INITIAL
TRACE STRING: /mnt/beegfs/iconst01/spec2017/cactuBSSN.trace.gz

champsim_seed used: 838

CPU 0 L1D next line prefetcher
CPU 0 L2C IP-based stride prefetcher
Initialize DRRIP state
Assign rand_sets[0]: 454  LLC: 2048
rand_sets[0]: 454
Assign rand_sets[1]: 1662  LLC: 2048
rand_sets[1]: 1662
Assign rand_sets[2]: 1921  LLC: 2048
rand_sets[2]: 1921
Assign rand_sets[3]: 1131  LLC: 2048
rand_sets[3]: 1131
Assign rand_sets[4]: 331  LLC: 2048
rand_sets[4]: 331
Assign rand_sets[5]: 1531  LLC: 2048
rand_sets[5]: 1531
Assign rand_sets[6]: 482  LLC: 2048
rand_sets[6]: 482
Assign rand_sets[7]: 1275  LLC: 2048
rand_sets[7]: 1275
Assign rand_sets[8]: 1876  LLC: 2048
rand_sets[8]: 1876
Assign rand_sets[9]: 2038  LLC: 2048
rand_sets[9]: 2038
Assign rand_sets[10]: 701  LLC: 2048
rand_sets[10]: 701
Assign rand_sets[11]: 479  LLC: 2048
rand_sets[11]: 479
Assign rand_sets[12]: 892  LLC: 2048
rand_sets[12]: 892
Assign rand_sets[13]: 1820  LLC: 2048
rand_sets[13]: 1820
Assign rand_sets[14]: 1505  LLC: 2048
rand_sets[14]: 1505
Assign rand_sets[15]: 1159  LLC: 2048
rand_sets[15]: 1159
Assign rand_sets[16]: 513  LLC: 2048
rand_sets[16]: 513
Assign rand_sets[17]: 703  LLC: 2048
rand_sets[17]: 703
Assign rand_sets[18]: 561  LLC: 2048
rand_sets[18]: 561
Assign rand_sets[19]: 990  LLC: 2048
rand_sets[19]: 990
Assign rand_sets[20]: 342  LLC: 2048
rand_sets[20]: 342
Assign rand_sets[21]: 882  LLC: 2048
rand_sets[21]: 882
Assign rand_sets[22]: 15  LLC: 2048
rand_sets[22]: 15
Assign rand_sets[23]: 71  LLC: 2048
rand_sets[23]: 71
Assign rand_sets[24]: 1127  LLC: 2048
rand_sets[24]: 1127
Assign rand_sets[25]: 1382  LLC: 2048
rand_sets[25]: 1382
Assign rand_sets[26]: 647  LLC: 2048
rand_sets[26]: 647
Assign rand_sets[27]: 857  LLC: 2048
rand_sets[27]: 857
Assign rand_sets[28]: 1450  LLC: 2048
rand_sets[28]: 1450
Assign rand_sets[29]: 1160  LLC: 2048
rand_sets[29]: 1160
Assign rand_sets[30]: 1852  LLC: 2048
rand_sets[30]: 1852
Assign rand_sets[31]: 1881  LLC: 2048
rand_sets[31]: 1881
Assign rand_sets[32]: 1770  LLC: 2048
rand_sets[32]: 1770
Assign rand_sets[33]: 1622  LLC: 2048
rand_sets[33]: 1622
Assign rand_sets[34]: 275  LLC: 2048
rand_sets[34]: 275
Assign rand_sets[35]: 635  LLC: 2048
rand_sets[35]: 635
Assign rand_sets[36]: 466  LLC: 2048
rand_sets[36]: 466
Assign rand_sets[37]: 1413  LLC: 2048
rand_sets[37]: 1413
Assign rand_sets[38]: 417  LLC: 2048
rand_sets[38]: 417
Assign rand_sets[39]: 472  LLC: 2048
rand_sets[39]: 472
Assign rand_sets[40]: 1340  LLC: 2048
rand_sets[40]: 1340
Assign rand_sets[41]: 852  LLC: 2048
rand_sets[41]: 852
Assign rand_sets[42]: 1365  LLC: 2048
rand_sets[42]: 1365
Assign rand_sets[43]: 47  LLC: 2048
rand_sets[43]: 47
Assign rand_sets[44]: 823  LLC: 2048
rand_sets[44]: 823
Assign rand_sets[45]: 686  LLC: 2048
rand_sets[45]: 686
Assign rand_sets[46]: 1637  LLC: 2048
rand_sets[46]: 1637
Assign rand_sets[47]: 1115  LLC: 2048
rand_sets[47]: 1115
Assign rand_sets[48]: 986  LLC: 2048
rand_sets[48]: 986
Assign rand_sets[49]: 258  LLC: 2048
rand_sets[49]: 258
Assign rand_sets[50]: 633  LLC: 2048
rand_sets[50]: 633
Assign rand_sets[51]: 920  LLC: 2048
rand_sets[51]: 920
Assign rand_sets[52]: 204  LLC: 2048
rand_sets[52]: 204
Assign rand_sets[53]: 227  LLC: 2048
rand_sets[53]: 227
Assign rand_sets[54]: 1818  LLC: 2048
rand_sets[54]: 1818
Assign rand_sets[55]: 886  LLC: 2048
rand_sets[55]: 886
Assign rand_sets[56]: 1422  LLC: 2048
rand_sets[56]: 1422
Assign rand_sets[57]: 607  LLC: 2048
rand_sets[57]: 607
Assign rand_sets[58]: 217  LLC: 2048
rand_sets[58]: 217
Assign rand_sets[59]: 1945  LLC: 2048
rand_sets[59]: 1945
Assign rand_sets[60]: 143  LLC: 2048
rand_sets[60]: 143
Assign rand_sets[61]: 1311  LLC: 2048
rand_sets[61]: 1311
Assign rand_sets[62]: 319  LLC: 2048
rand_sets[62]: 319
Assign rand_sets[63]: 1846  LLC: 2048
rand_sets[63]: 1846
 CLEAN-RRIP-POLICY-1: 2-2-2-3-2-1-0-2- CLEAN-RRIP-POLICY-2: 2-2-2-3-2-1-0-2-
 DIRTY-RRIP-POLICY-1: 1-2-0-3-1-1-0-2- DIRTY-RRIP-POLICY-2: 1-2-0-3-1-1-0-2-
 PSEL width: 10
Heartbeat CPU 0 instructions: 10000000 cycles: 6588007 heartbeat IPC: 1.51791 cumulative IPC: 1.51791 (Simulation time: 0 hr 0 min 23 sec) 
Heartbeat CPU 0 instructions: 20000000 cycles: 13179595 heartbeat IPC: 1.51709 cumulative IPC: 1.5175 (Simulation time: 0 hr 0 min 47 sec) 
Heartbeat CPU 0 instructions: 30000003 cycles: 19772907 heartbeat IPC: 1.51669 cumulative IPC: 1.51723 (Simulation time: 0 hr 1 min 11 sec) 
Heartbeat CPU 0 instructions: 40000000 cycles: 26364642 heartbeat IPC: 1.51705 cumulative IPC: 1.51718 (Simulation time: 0 hr 1 min 34 sec) 
Heartbeat CPU 0 instructions: 50000001 cycles: 32957306 heartbeat IPC: 1.51684 cumulative IPC: 1.51711 (Simulation time: 0 hr 1 min 58 sec) 
Heartbeat CPU 0 instructions: 60000000 cycles: 39556129 heartbeat IPC: 1.51542 cumulative IPC: 1.51683 (Simulation time: 0 hr 2 min 22 sec) 
Heartbeat CPU 0 instructions: 70000003 cycles: 46154506 heartbeat IPC: 1.51552 cumulative IPC: 1.51665 (Simulation time: 0 hr 2 min 45 sec) 
Heartbeat CPU 0 instructions: 80000000 cycles: 52752551 heartbeat IPC: 1.5156 cumulative IPC: 1.51651 (Simulation time: 0 hr 3 min 9 sec) 
Heartbeat CPU 0 instructions: 90000002 cycles: 59348187 heartbeat IPC: 1.51615 cumulative IPC: 1.51647 (Simulation time: 0 hr 3 min 33 sec) 
Heartbeat CPU 0 instructions: 100000000 cycles: 65943268 heartbeat IPC: 1.51628 cumulative IPC: 1.51646 (Simulation time: 0 hr 3 min 56 sec) 

Warmup complete CPU 0 instructions: 100000002 cycles: 65943269 (Simulation time: 0 hr 3 min 56 sec) 

Heartbeat CPU 0 instructions: 110000000 cycles: 79183661 heartbeat IPC: 0.755265 cumulative IPC: 0.755265 (Simulation time: 0 hr 4 min 25 sec) 
Heartbeat CPU 0 instructions: 120000000 cycles: 92376887 heartbeat IPC: 0.757965 cumulative IPC: 0.756612 (Simulation time: 0 hr 4 min 54 sec) 
Heartbeat CPU 0 instructions: 130000001 cycles: 105643424 heartbeat IPC: 0.753776 cumulative IPC: 0.755665 (Simulation time: 0 hr 5 min 22 sec) 
Heartbeat CPU 0 instructions: 140000000 cycles: 118807043 heartbeat IPC: 0.759669 cumulative IPC: 0.756662 (Simulation time: 0 hr 5 min 51 sec) 
Heartbeat CPU 0 instructions: 150000001 cycles: 131982099 heartbeat IPC: 0.75901 cumulative IPC: 0.75713 (Simulation time: 0 hr 6 min 20 sec) 
Heartbeat CPU 0 instructions: 160000000 cycles: 145215862 heartbeat IPC: 0.755643 cumulative IPC: 0.756882 (Simulation time: 0 hr 6 min 49 sec) 
Heartbeat CPU 0 instructions: 170000000 cycles: 158423975 heartbeat IPC: 0.75711 cumulative IPC: 0.756915 (Simulation time: 0 hr 7 min 17 sec) 
Heartbeat CPU 0 instructions: 180000000 cycles: 171624750 heartbeat IPC: 0.757531 cumulative IPC: 0.756992 (Simulation time: 0 hr 7 min 46 sec) 
Heartbeat CPU 0 instructions: 190000000 cycles: 184781096 heartbeat IPC: 0.760089 cumulative IPC: 0.757335 (Simulation time: 0 hr 8 min 15 sec) 
Heartbeat CPU 0 instructions: 200000000 cycles: 198034241 heartbeat IPC: 0.754538 cumulative IPC: 0.757054 (Simulation time: 0 hr 8 min 44 sec) 
Heartbeat CPU 0 instructions: 210000002 cycles: 211243532 heartbeat IPC: 0.757043 cumulative IPC: 0.757053 (Simulation time: 0 hr 9 min 13 sec) 
Heartbeat CPU 0 instructions: 220000000 cycles: 224421344 heartbeat IPC: 0.758851 cumulative IPC: 0.757203 (Simulation time: 0 hr 9 min 41 sec) 
Heartbeat CPU 0 instructions: 230000003 cycles: 237666442 heartbeat IPC: 0.754997 cumulative IPC: 0.757032 (Simulation time: 0 hr 10 min 10 sec) 
Heartbeat CPU 0 instructions: 240000000 cycles: 250851630 heartbeat IPC: 0.758427 cumulative IPC: 0.757132 (Simulation time: 0 hr 10 min 39 sec) 
Heartbeat CPU 0 instructions: 250000001 cycles: 264070763 heartbeat IPC: 0.756479 cumulative IPC: 0.757088 (Simulation time: 0 hr 11 min 8 sec) 
Heartbeat CPU 0 instructions: 260000000 cycles: 277280392 heartbeat IPC: 0.757023 cumulative IPC: 0.757084 (Simulation time: 0 hr 11 min 36 sec) 
Heartbeat CPU 0 instructions: 270000003 cycles: 290520619 heartbeat IPC: 0.755274 cumulative IPC: 0.756977 (Simulation time: 0 hr 12 min 5 sec) 
Heartbeat CPU 0 instructions: 280000000 cycles: 303723120 heartbeat IPC: 0.757432 cumulative IPC: 0.757003 (Simulation time: 0 hr 12 min 34 sec) 
Heartbeat CPU 0 instructions: 290000000 cycles: 316891936 heartbeat IPC: 0.75937 cumulative IPC: 0.757127 (Simulation time: 0 hr 13 min 2 sec) 
Heartbeat CPU 0 instructions: 300000000 cycles: 330146044 heartbeat IPC: 0.754483 cumulative IPC: 0.756994 (Simulation time: 0 hr 13 min 31 sec) 
Heartbeat CPU 0 instructions: 310000001 cycles: 343316966 heartbeat IPC: 0.759248 cumulative IPC: 0.757101 (Simulation time: 0 hr 13 min 59 sec) 
Heartbeat CPU 0 instructions: 320000000 cycles: 356508219 heartbeat IPC: 0.758078 cumulative IPC: 0.757146 (Simulation time: 0 hr 14 min 28 sec) 
Heartbeat CPU 0 instructions: 330000002 cycles: 369699917 heartbeat IPC: 0.758053 cumulative IPC: 0.757185 (Simulation time: 0 hr 14 min 57 sec) 
Heartbeat CPU 0 instructions: 340000000 cycles: 382934736 heartbeat IPC: 0.755583 cumulative IPC: 0.757118 (Simulation time: 0 hr 15 min 25 sec) 
Heartbeat CPU 0 instructions: 350000000 cycles: 396183227 heartbeat IPC: 0.754803 cumulative IPC: 0.757025 (Simulation time: 0 hr 15 min 54 sec) 
Heartbeat CPU 0 instructions: 360000000 cycles: 409397250 heartbeat IPC: 0.756772 cumulative IPC: 0.757016 (Simulation time: 0 hr 16 min 22 sec) 
Heartbeat CPU 0 instructions: 370000002 cycles: 422670889 heartbeat IPC: 0.753373 cumulative IPC: 0.75688 (Simulation time: 0 hr 16 min 51 sec) 
Heartbeat CPU 0 instructions: 380000000 cycles: 435879252 heartbeat IPC: 0.757096 cumulative IPC: 0.756888 (Simulation time: 0 hr 17 min 20 sec) 
Heartbeat CPU 0 instructions: 390000000 cycles: 449062429 heartbeat IPC: 0.758542 cumulative IPC: 0.756945 (Simulation time: 0 hr 17 min 48 sec) 
Heartbeat CPU 0 instructions: 400000000 cycles: 462256847 heartbeat IPC: 0.757896 cumulative IPC: 0.756976 (Simulation time: 0 hr 18 min 17 sec) 
Heartbeat CPU 0 instructions: 410000001 cycles: 475505753 heartbeat IPC: 0.754779 cumulative IPC: 0.756905 (Simulation time: 0 hr 18 min 46 sec) 
Heartbeat CPU 0 instructions: 420000000 cycles: 488680446 heartbeat IPC: 0.759031 cumulative IPC: 0.756971 (Simulation time: 0 hr 19 min 14 sec) 
Heartbeat CPU 0 instructions: 430000001 cycles: 501862967 heartbeat IPC: 0.75858 cumulative IPC: 0.75702 (Simulation time: 0 hr 19 min 43 sec) 
Heartbeat CPU 0 instructions: 440000000 cycles: 515020772 heartbeat IPC: 0.760005 cumulative IPC: 0.757108 (Simulation time: 0 hr 20 min 11 sec) 
Heartbeat CPU 0 instructions: 450000002 cycles: 528331753 heartbeat IPC: 0.75126 cumulative IPC: 0.756939 (Simulation time: 0 hr 20 min 40 sec) 
Heartbeat CPU 0 instructions: 460000000 cycles: 541539142 heartbeat IPC: 0.757152 cumulative IPC: 0.756945 (Simulation time: 0 hr 21 min 8 sec) 
Heartbeat CPU 0 instructions: 470000003 cycles: 554735596 heartbeat IPC: 0.75778 cumulative IPC: 0.756968 (Simulation time: 0 hr 21 min 37 sec) 
Heartbeat CPU 0 instructions: 480000000 cycles: 567973853 heartbeat IPC: 0.755386 cumulative IPC: 0.756926 (Simulation time: 0 hr 22 min 6 sec) 
Heartbeat CPU 0 instructions: 490000000 cycles: 581189570 heartbeat IPC: 0.756675 cumulative IPC: 0.75692 (Simulation time: 0 hr 22 min 34 sec) 
Heartbeat CPU 0 instructions: 500000000 cycles: 594380667 heartbeat IPC: 0.758087 cumulative IPC: 0.756949 (Simulation time: 0 hr 23 min 3 sec) 
Heartbeat CPU 0 instructions: 510000001 cycles: 607548646 heartbeat IPC: 0.759418 cumulative IPC: 0.757009 (Simulation time: 0 hr 23 min 31 sec) 
Heartbeat CPU 0 instructions: 520000000 cycles: 620828879 heartbeat IPC: 0.752999 cumulative IPC: 0.756913 (Simulation time: 0 hr 24 min 0 sec) 
Heartbeat CPU 0 instructions: 530000000 cycles: 634066759 heartbeat IPC: 0.755408 cumulative IPC: 0.756878 (Simulation time: 0 hr 24 min 28 sec) 
Heartbeat CPU 0 instructions: 540000000 cycles: 647288687 heartbeat IPC: 0.756319 cumulative IPC: 0.756865 (Simulation time: 0 hr 24 min 57 sec) 
Heartbeat CPU 0 instructions: 550000002 cycles: 660543476 heartbeat IPC: 0.754444 cumulative IPC: 0.756811 (Simulation time: 0 hr 25 min 26 sec) 
Heartbeat CPU 0 instructions: 560000000 cycles: 673733556 heartbeat IPC: 0.758145 cumulative IPC: 0.75684 (Simulation time: 0 hr 25 min 54 sec) 
Heartbeat CPU 0 instructions: 570000001 cycles: 686936972 heartbeat IPC: 0.75738 cumulative IPC: 0.756851 (Simulation time: 0 hr 26 min 23 sec) 
Heartbeat CPU 0 instructions: 580000000 cycles: 700134712 heartbeat IPC: 0.757705 cumulative IPC: 0.756869 (Simulation time: 0 hr 26 min 51 sec) 
Heartbeat CPU 0 instructions: 590000003 cycles: 713367096 heartbeat IPC: 0.755722 cumulative IPC: 0.756846 (Simulation time: 0 hr 27 min 20 sec) 
Heartbeat CPU 0 instructions: 600000000 cycles: 726619864 heartbeat IPC: 0.754559 cumulative IPC: 0.7568 (Simulation time: 0 hr 27 min 48 sec) 
Finished CPU 0 instructions: 500000000 cycles: 660676605 cumulative IPC: 0.7568 (Simulation time: 0 hr 27 min 48 sec) 

CPU 0 Branch Prediction Accuracy: 99.968% MPKI: 0.002246
Number of Branches: 3513331 Number of Mispredictions: 1123
Number of LOAD Instructions: 287251172
Number of LOAD Instructions (ROI): 287251172
Number of STORE Instructions: 51060820
Number of STORE Instructions (ROI): 51060820
Total Destination Memory Operands: 51166221
Total Destination Memory Operands (ROI): 51166221
Total Source Memory Operands: 287251172
Total Source Memory Operands (ROI): 287251172
Number of DEPENDED LOADS: 9555470
Number of DEPENDED LOADS (ROI): 9555470
Number of SQ_ADDED: 51166208
Number of SQ_ADDED (ROI): 51166208
Number of LQ_ADDED: 290420324
Number of LQ_ADDED (ROI): 290420324
Number of Instructions read from trace: 600000257

ChampSim completed all CPUs

Region of Interest Statistics

CPU 0 cumulative IPC: 0.7568 instructions: 500000000 cycles: 660676605
ITLB TOTAL     ACCESS:  108950026  HIT:  108950026  MISS:          0
ITLB LOAD      ACCESS:  108950026  HIT:  108950026  MISS:          0
ITLB RFO       ACCESS:          0  HIT:          0  MISS:          0
ITLB PREFETCH  ACCESS:          0  HIT:          0  MISS:          0
ITLB WRITEBACK ACCESS:          0  HIT:          0  MISS:          0
ITLB PREFETCH  REQUESTED:          0  ISSUED:          0  USEFUL:          0  USELESS:          0
ITLB TOTAL MSHR MERGED:          0
ITLB LOAD MSHR MERGED:          0
ITLB RFO MSHR MERGED:          0
ITLB PREFETCH MSHR MERGED:          0
ITLB WRITEBACK MSHR MERGED:          0
ITLB TOTAL ACCESSES:  108950026 HITS:  108950026 MISSES:          0
ITLB LOAD ACCESSES:  108950026 HITS:  108950026 MISSES:          0
ITLB RFO ACCESSES:          0 HITS:          0 MISSES:          0
ITLB PREFETCH ACCESSES:          0 HITS:          0 MISSES:          0
ITLB WRITEBACK ACCESSES:          0 HITS:          0 MISSES:          0
ITLB RQ ACCESS:  500000001
ITLB RQ TO_CACHE:  108950026
ITLB RQ MERGED:  391049975
ITLB RQ FORWARD:          0
ITLB WQ ACCESS:          0
ITLB WQ TO_CACHE:          0
ITLB WQ MERGED:          0
ITLB WQ FORWARD:          0
DTLB TOTAL     ACCESS:  171131342  HIT:  161115038  MISS:   10016304
DTLB LOAD      ACCESS:  143471906  HIT:  135595852  MISS:    7876054
DTLB RFO       ACCESS:   27659436  HIT:   25519186  MISS:    2140250
DTLB PREFETCH  ACCESS:          0  HIT:          0  MISS:          0
DTLB WRITEBACK ACCESS:          0  HIT:          0  MISS:          0
DTLB PREFETCH  REQUESTED:          0  ISSUED:          0  USEFUL:          0  USELESS:          0
DTLB TOTAL MSHR MERGED:     360446
DTLB LOAD MSHR MERGED:     360446
DTLB RFO MSHR MERGED:          0
DTLB PREFETCH MSHR MERGED:          0
DTLB WRITEBACK MSHR MERGED:          0
DTLB TOTAL ACCESSES:  171491788 HITS:  161115038 MISSES:   10376750
DTLB LOAD ACCESSES:  143832352 HITS:  135595852 MISSES:    8236500
DTLB RFO ACCESSES:   27659436 HITS:   25519186 MISSES:    2140250
DTLB PREFETCH ACCESSES:          0 HITS:          0 MISSES:          0
DTLB WRITEBACK ACCESSES:          0 HITS:          0 MISSES:          0
DTLB RQ ACCESS:  274072347
DTLB RQ TO_CACHE:  171491788
DTLB RQ MERGED:  102580559
DTLB RQ FORWARD:          0
DTLB WQ ACCESS:          0
DTLB WQ TO_CACHE:          0
DTLB WQ MERGED:          0
DTLB WQ FORWARD:          0
L1D TOTAL     ACCESS:  350928099  HIT:  283728804  MISS:   67199295
L1D LOAD      ACCESS:  175626322  HIT:  142587097  MISS:   33039225
L1D RFO       ACCESS:   42019152  HIT:   39213345  MISS:    2805807
L1D PREFETCH  ACCESS:  133282625  HIT:  101928362  MISS:   31354263
L1D WRITEBACK ACCESS:          0  HIT:          0  MISS:          0
L1D PREFETCH  REQUESTED:  176230369  ISSUED:  175292038  USEFUL:    2180351  USELESS:   29173914
L1D TOTAL MSHR MERGED:    1483547
L1D LOAD MSHR MERGED:     703954
L1D RFO MSHR MERGED:     349915
L1D PREFETCH MSHR MERGED:     429678
L1D WRITEBACK MSHR MERGED:          0
L1D TOTAL ACCESSES:  352525314 HITS:  283842472 MISSES:   68682842
L1D LOAD ACCESSES:  176237929 HITS:  142594657 MISSES:   33643272
L1D RFO ACCESSES:   42368375 HITS:   39213345 MISSES:    3155030
L1D PREFETCH ACCESSES:  133919010 HITS:  102034470 MISSES:   31884540
L1D WRITEBACK ACCESSES:          0 HITS:          0 MISSES:          0
L1D RQ ACCESS:  231433874
L1D RQ TO_CACHE:  176230369
L1D RQ MERGED:   55195945
L1D RQ FORWARD:          0
L1D WQ ACCESS:   42638475
L1D WQ TO_CACHE:   42368375
L1D WQ MERGED:     270100
L1D WQ FORWARD:     113668
L1I TOTAL     ACCESS:  109344209  HIT:   77828505  MISS:   31515704
L1I LOAD      ACCESS:  109344209  HIT:   77828505  MISS:   31515704
L1I RFO       ACCESS:          0  HIT:          0  MISS:          0
L1I PREFETCH  ACCESS:          0  HIT:          0  MISS:          0
L1I WRITEBACK ACCESS:          0  HIT:          0  MISS:          0
L1I PREFETCH  REQUESTED:          0  ISSUED:          0  USEFUL:          0  USELESS:          0
L1I TOTAL MSHR MERGED:   30749814
L1I LOAD MSHR MERGED:   30749814
L1I RFO MSHR MERGED:          0
L1I PREFETCH MSHR MERGED:          0
L1I WRITEBACK MSHR MERGED:          0
L1I TOTAL ACCESSES:  140094025 HITS:   77828505 MISSES:   62265520
L1I LOAD ACCESSES:  140094025 HITS:   77828505 MISSES:   62265520
L1I RFO ACCESSES:          0 HITS:          0 MISSES:          0
L1I PREFETCH ACCESSES:          0 HITS:          0 MISSES:          0
L1I WRITEBACK ACCESSES:          0 HITS:          0 MISSES:          0
L1I RQ ACCESS:  500000003
L1I RQ TO_CACHE:  140094025
L1I RQ MERGED:  359905978
L1I RQ FORWARD:          0
L1I WQ ACCESS:          0
L1I WQ TO_CACHE:          0
L1I WQ MERGED:          0
L1I WQ FORWARD:          0
L2C TOTAL     ACCESS:  113693767  HIT:  110692195  MISS:    3001572
L2C LOAD      ACCESS:   64453162  HIT:   63892825  MISS:     560337
L2C RFO       ACCESS:    2803212  HIT:    2193849  MISS:     609363
L2C PREFETCH  ACCESS:   43276419  HIT:   41450827  MISS:    1825592
L2C WRITEBACK ACCESS:    3160974  HIT:    3154694  MISS:       6280
L2C PREFETCH  REQUESTED:   15134470  ISSUED:   14620664  USEFUL:    1700791  USELESS:     124808
L2C TOTAL MSHR MERGED:      12863
L2C LOAD MSHR MERGED:          0
L2C RFO MSHR MERGED:          0
L2C PREFETCH MSHR MERGED:      12863
L2C WRITEBACK MSHR MERGED:          0
L2C TOTAL ACCESSES:  113906556 HITS:  110698059 MISSES:    3208497
L2C LOAD ACCESSES:   64455023 HITS:   63894685 MISSES:     560338
L2C RFO ACCESSES:    2805115 HITS:    2195752 MISSES:     609363
L2C PREFETCH ACCESSES:   43485444 HITS:   41452928 MISSES:    2032516
L2C WRITEBACK ACCESSES:    3160974 HITS:    3154694 MISSES:       6280
L2C RQ ACCESS:   67260139
L2C RQ TO_CACHE:   67256376
L2C RQ MERGED:          0
L2C RQ FORWARD:          0
L2C WQ ACCESS:    3160974
L2C WQ TO_CACHE:    3160974
L2C WQ MERGED:          0
L2C WQ FORWARD:       5864
LLC TOTAL     ACCESS:    3720190  HIT:    1961878  MISS:    1758312
LLC LOAD      ACCESS:     560307  HIT:     496075  MISS:      64232
LLC RFO       ACCESS:     527348  HIT:     239248  MISS:     288100
LLC PREFETCH  ACCESS:    2014147  HIT:     608182  MISS:    1405965
LLC WRITEBACK ACCESS:     618388  HIT:     618373  MISS:         15
LLC PREFETCH  REQUESTED:          0  ISSUED:          0  USEFUL:      43377  USELESS:    1359269
LLC TOTAL MSHR MERGED:       4870
LLC LOAD MSHR MERGED:          0
LLC RFO MSHR MERGED:          0
LLC PREFETCH MSHR MERGED:       4870
LLC WRITEBACK MSHR MERGED:          0
LLC TOTAL ACCESSES:    3807191 HITS:    2044009 MISSES:    1763182
LLC LOAD ACCESSES:     560337 HITS:     496105 MISSES:      64232
LLC RFO ACCESSES:     609363 HITS:     321263 MISSES:     288100
LLC PREFETCH ACCESSES:    2019103 HITS:     608268 MISSES:    1410835
LLC WRITEBACK ACCESSES:     618388 HITS:     618373 MISSES:         15
LLC 0 RQ ACCESS:    1169701
LLC 0 RQ TO_CACHE:    1087656
LLC 0 RQ MERGED:          0
LLC 0 RQ FORWARD:          0
LLC WQ ACCESS:     618388
LLC WQ TO_CACHE:     618388
LLC WQ MERGED:          0
LLC WQ FORWARD:      82131
Major fault: 0 Minor fault: 12800
CPU 0 L1D next line prefetcher final stats
CPU 0 L2C PC-based stride prefetcher final stats
All Misses: 2119595
All Hits: 2451543
SD Algo Stats - Switches: 0 SRR-Repls: 81647 BRR-Repls: 0

DRAM Statistics
 CHANNEL 0
 RQ ROW_BUFFER_HIT:     883381  ROW_BUFFER_MISS:     874916
 DBUS_CONGESTED:     936965
 WQ ROW_BUFFER_HIT:      29650  ROW_BUFFER_MISS:     259179  FULL:          0

 AVG_CONGESTED_CYCLE: 13
LOADS RETIRED: 239375970
INSTR RETIRED: 500000000
