
*** ChampSim Multicore Out-of-Order Simulator ***

Warmup Instructions: 100000000
Simulation Instructions: 500000000
Number of CPUs: 1
LLC sets: 2048
LLC ways: 16
Clean RRIP Policies: 2223210222232102 Dirty RRIP Policies: 1203110212031102 PSEL Width: 10 Track Set: 4294967295 PSEL Mask: 1 Demote Mask: 1040100010401000DS Algo: 0Window size: 0
Off-chip DRAM Size: 4096 MB Channels: 1 Width: 64-bit Data Rate: 1600 MT/s

CPU 0 runs /mnt/beegfs/iconst01/spec2017/Omnetpp.trace.gz
NOT SORTED
TRACE STRING: /mnt/beegfs/iconst01/spec2017/Omnetpp.trace.gz
SORTED
TRACE STRING: /mnt/beegfs/iconst01/spec2017/Omnetpp.trace.gz
INITIAL
TRACE STRING: /mnt/beegfs/iconst01/spec2017/Omnetpp.trace.gz

champsim_seed used: 739

CPU 0 L1D next line prefetcher
CPU 0 L2C IP-based stride prefetcher
Initialize DRRIP state
Assign rand_sets[0]: 454  LLC: 2048
rand_sets[0]: 454
Assign rand_sets[1]: 1662  LLC: 2048
rand_sets[1]: 1662
Assign rand_sets[2]: 1921  LLC: 2048
rand_sets[2]: 1921
Assign rand_sets[3]: 1131  LLC: 2048
rand_sets[3]: 1131
Assign rand_sets[4]: 331  LLC: 2048
rand_sets[4]: 331
Assign rand_sets[5]: 1531  LLC: 2048
rand_sets[5]: 1531
Assign rand_sets[6]: 482  LLC: 2048
rand_sets[6]: 482
Assign rand_sets[7]: 1275  LLC: 2048
rand_sets[7]: 1275
Assign rand_sets[8]: 1876  LLC: 2048
rand_sets[8]: 1876
Assign rand_sets[9]: 2038  LLC: 2048
rand_sets[9]: 2038
Assign rand_sets[10]: 701  LLC: 2048
rand_sets[10]: 701
Assign rand_sets[11]: 479  LLC: 2048
rand_sets[11]: 479
Assign rand_sets[12]: 892  LLC: 2048
rand_sets[12]: 892
Assign rand_sets[13]: 1820  LLC: 2048
rand_sets[13]: 1820
Assign rand_sets[14]: 1505  LLC: 2048
rand_sets[14]: 1505
Assign rand_sets[15]: 1159  LLC: 2048
rand_sets[15]: 1159
Assign rand_sets[16]: 513  LLC: 2048
rand_sets[16]: 513
Assign rand_sets[17]: 703  LLC: 2048
rand_sets[17]: 703
Assign rand_sets[18]: 561  LLC: 2048
rand_sets[18]: 561
Assign rand_sets[19]: 990  LLC: 2048
rand_sets[19]: 990
Assign rand_sets[20]: 342  LLC: 2048
rand_sets[20]: 342
Assign rand_sets[21]: 882  LLC: 2048
rand_sets[21]: 882
Assign rand_sets[22]: 15  LLC: 2048
rand_sets[22]: 15
Assign rand_sets[23]: 71  LLC: 2048
rand_sets[23]: 71
Assign rand_sets[24]: 1127  LLC: 2048
rand_sets[24]: 1127
Assign rand_sets[25]: 1382  LLC: 2048
rand_sets[25]: 1382
Assign rand_sets[26]: 647  LLC: 2048
rand_sets[26]: 647
Assign rand_sets[27]: 857  LLC: 2048
rand_sets[27]: 857
Assign rand_sets[28]: 1450  LLC: 2048
rand_sets[28]: 1450
Assign rand_sets[29]: 1160  LLC: 2048
rand_sets[29]: 1160
Assign rand_sets[30]: 1852  LLC: 2048
rand_sets[30]: 1852
Assign rand_sets[31]: 1881  LLC: 2048
rand_sets[31]: 1881
Assign rand_sets[32]: 1770  LLC: 2048
rand_sets[32]: 1770
Assign rand_sets[33]: 1622  LLC: 2048
rand_sets[33]: 1622
Assign rand_sets[34]: 275  LLC: 2048
rand_sets[34]: 275
Assign rand_sets[35]: 635  LLC: 2048
rand_sets[35]: 635
Assign rand_sets[36]: 466  LLC: 2048
rand_sets[36]: 466
Assign rand_sets[37]: 1413  LLC: 2048
rand_sets[37]: 1413
Assign rand_sets[38]: 417  LLC: 2048
rand_sets[38]: 417
Assign rand_sets[39]: 472  LLC: 2048
rand_sets[39]: 472
Assign rand_sets[40]: 1340  LLC: 2048
rand_sets[40]: 1340
Assign rand_sets[41]: 852  LLC: 2048
rand_sets[41]: 852
Assign rand_sets[42]: 1365  LLC: 2048
rand_sets[42]: 1365
Assign rand_sets[43]: 47  LLC: 2048
rand_sets[43]: 47
Assign rand_sets[44]: 823  LLC: 2048
rand_sets[44]: 823
Assign rand_sets[45]: 686  LLC: 2048
rand_sets[45]: 686
Assign rand_sets[46]: 1637  LLC: 2048
rand_sets[46]: 1637
Assign rand_sets[47]: 1115  LLC: 2048
rand_sets[47]: 1115
Assign rand_sets[48]: 986  LLC: 2048
rand_sets[48]: 986
Assign rand_sets[49]: 258  LLC: 2048
rand_sets[49]: 258
Assign rand_sets[50]: 633  LLC: 2048
rand_sets[50]: 633
Assign rand_sets[51]: 920  LLC: 2048
rand_sets[51]: 920
Assign rand_sets[52]: 204  LLC: 2048
rand_sets[52]: 204
Assign rand_sets[53]: 227  LLC: 2048
rand_sets[53]: 227
Assign rand_sets[54]: 1818  LLC: 2048
rand_sets[54]: 1818
Assign rand_sets[55]: 886  LLC: 2048
rand_sets[55]: 886
Assign rand_sets[56]: 1422  LLC: 2048
rand_sets[56]: 1422
Assign rand_sets[57]: 607  LLC: 2048
rand_sets[57]: 607
Assign rand_sets[58]: 217  LLC: 2048
rand_sets[58]: 217
Assign rand_sets[59]: 1945  LLC: 2048
rand_sets[59]: 1945
Assign rand_sets[60]: 143  LLC: 2048
rand_sets[60]: 143
Assign rand_sets[61]: 1311  LLC: 2048
rand_sets[61]: 1311
Assign rand_sets[62]: 319  LLC: 2048
rand_sets[62]: 319
Assign rand_sets[63]: 1846  LLC: 2048
rand_sets[63]: 1846
 CLEAN-RRIP-POLICY-1: 2-2-2-3-2-1-0-2- CLEAN-RRIP-POLICY-2: 2-2-2-3-2-1-0-2-
 DIRTY-RRIP-POLICY-1: 1-2-0-3-1-1-0-2- DIRTY-RRIP-POLICY-2: 1-2-0-3-1-1-0-2-
 PSEL width: 10
Heartbeat CPU 0 instructions: 10000000 cycles: 7319761 heartbeat IPC: 1.36616 cumulative IPC: 1.36616 (Simulation time: 0 hr 0 min 18 sec) 
Heartbeat CPU 0 instructions: 20000000 cycles: 14623291 heartbeat IPC: 1.3692 cumulative IPC: 1.36768 (Simulation time: 0 hr 0 min 37 sec) 
Heartbeat CPU 0 instructions: 30000003 cycles: 21924442 heartbeat IPC: 1.36965 cumulative IPC: 1.36834 (Simulation time: 0 hr 0 min 56 sec) 
Heartbeat CPU 0 instructions: 40000000 cycles: 29212404 heartbeat IPC: 1.37213 cumulative IPC: 1.36928 (Simulation time: 0 hr 1 min 15 sec) 
Heartbeat CPU 0 instructions: 50000000 cycles: 36488636 heartbeat IPC: 1.37434 cumulative IPC: 1.37029 (Simulation time: 0 hr 1 min 34 sec) 
Heartbeat CPU 0 instructions: 60000000 cycles: 43768337 heartbeat IPC: 1.37368 cumulative IPC: 1.37085 (Simulation time: 0 hr 1 min 53 sec) 
Heartbeat CPU 0 instructions: 70000001 cycles: 51053309 heartbeat IPC: 1.37269 cumulative IPC: 1.37112 (Simulation time: 0 hr 2 min 12 sec) 
Heartbeat CPU 0 instructions: 80000000 cycles: 58328083 heartbeat IPC: 1.37461 cumulative IPC: 1.37155 (Simulation time: 0 hr 2 min 31 sec) 
Heartbeat CPU 0 instructions: 90000000 cycles: 65634143 heartbeat IPC: 1.36873 cumulative IPC: 1.37124 (Simulation time: 0 hr 2 min 50 sec) 
Heartbeat CPU 0 instructions: 100000000 cycles: 72925952 heartbeat IPC: 1.3714 cumulative IPC: 1.37125 (Simulation time: 0 hr 3 min 9 sec) 

Warmup complete CPU 0 instructions: 100000002 cycles: 72925953 (Simulation time: 0 hr 3 min 9 sec) 

Heartbeat CPU 0 instructions: 110000002 cycles: 113351896 heartbeat IPC: 0.247366 cumulative IPC: 0.247366 (Simulation time: 0 hr 3 min 47 sec) 
Heartbeat CPU 0 instructions: 120000000 cycles: 153439392 heartbeat IPC: 0.249454 cumulative IPC: 0.248406 (Simulation time: 0 hr 4 min 24 sec) 
Heartbeat CPU 0 instructions: 130000002 cycles: 193781760 heartbeat IPC: 0.247878 cumulative IPC: 0.24823 (Simulation time: 0 hr 5 min 1 sec) 
Heartbeat CPU 0 instructions: 140000000 cycles: 234240021 heartbeat IPC: 0.247168 cumulative IPC: 0.247963 (Simulation time: 0 hr 5 min 38 sec) 
Heartbeat CPU 0 instructions: 150000002 cycles: 274259141 heartbeat IPC: 0.249881 cumulative IPC: 0.248345 (Simulation time: 0 hr 6 min 15 sec) 
Heartbeat CPU 0 instructions: 160000000 cycles: 314295670 heartbeat IPC: 0.249772 cumulative IPC: 0.248581 (Simulation time: 0 hr 6 min 53 sec) 
Heartbeat CPU 0 instructions: 170000001 cycles: 353609233 heartbeat IPC: 0.254365 cumulative IPC: 0.249391 (Simulation time: 0 hr 7 min 29 sec) 
Heartbeat CPU 0 instructions: 180000000 cycles: 393620225 heartbeat IPC: 0.249931 cumulative IPC: 0.249459 (Simulation time: 0 hr 8 min 6 sec) 
Heartbeat CPU 0 instructions: 190000002 cycles: 433619383 heartbeat IPC: 0.250005 cumulative IPC: 0.249519 (Simulation time: 0 hr 8 min 43 sec) 
Heartbeat CPU 0 instructions: 200000000 cycles: 474848784 heartbeat IPC: 0.242545 cumulative IPC: 0.248804 (Simulation time: 0 hr 9 min 21 sec) 
Heartbeat CPU 0 instructions: 210000003 cycles: 514909772 heartbeat IPC: 0.249619 cumulative IPC: 0.248878 (Simulation time: 0 hr 9 min 58 sec) 
Heartbeat CPU 0 instructions: 220000000 cycles: 555213285 heartbeat IPC: 0.248117 cumulative IPC: 0.248814 (Simulation time: 0 hr 10 min 35 sec) 
Heartbeat CPU 0 instructions: 230000000 cycles: 595450099 heartbeat IPC: 0.248529 cumulative IPC: 0.248792 (Simulation time: 0 hr 11 min 12 sec) 
Heartbeat CPU 0 instructions: 240000000 cycles: 635425481 heartbeat IPC: 0.250154 cumulative IPC: 0.248889 (Simulation time: 0 hr 11 min 49 sec) 
Heartbeat CPU 0 instructions: 250000000 cycles: 675418206 heartbeat IPC: 0.250045 cumulative IPC: 0.248966 (Simulation time: 0 hr 12 min 26 sec) 
Heartbeat CPU 0 instructions: 260000000 cycles: 715566587 heartbeat IPC: 0.249076 cumulative IPC: 0.248973 (Simulation time: 0 hr 13 min 3 sec) 
Heartbeat CPU 0 instructions: 270000000 cycles: 755757494 heartbeat IPC: 0.248812 cumulative IPC: 0.248963 (Simulation time: 0 hr 13 min 40 sec) 
Heartbeat CPU 0 instructions: 280000000 cycles: 796307873 heartbeat IPC: 0.246607 cumulative IPC: 0.248831 (Simulation time: 0 hr 14 min 18 sec) 
Heartbeat CPU 0 instructions: 290000001 cycles: 836093990 heartbeat IPC: 0.251344 cumulative IPC: 0.248962 (Simulation time: 0 hr 14 min 54 sec) 
Heartbeat CPU 0 instructions: 300000000 cycles: 876486737 heartbeat IPC: 0.247569 cumulative IPC: 0.248892 (Simulation time: 0 hr 15 min 31 sec) 
Heartbeat CPU 0 instructions: 310000000 cycles: 916866779 heartbeat IPC: 0.247647 cumulative IPC: 0.248833 (Simulation time: 0 hr 16 min 9 sec) 
Heartbeat CPU 0 instructions: 320000000 cycles: 956982693 heartbeat IPC: 0.249278 cumulative IPC: 0.248853 (Simulation time: 0 hr 16 min 46 sec) 
Heartbeat CPU 0 instructions: 330000000 cycles: 997046825 heartbeat IPC: 0.2496 cumulative IPC: 0.248885 (Simulation time: 0 hr 17 min 23 sec) 
Heartbeat CPU 0 instructions: 340000000 cycles: 1037736612 heartbeat IPC: 0.245762 cumulative IPC: 0.248753 (Simulation time: 0 hr 18 min 0 sec) 
Heartbeat CPU 0 instructions: 350000001 cycles: 1077905780 heartbeat IPC: 0.248947 cumulative IPC: 0.248761 (Simulation time: 0 hr 18 min 37 sec) 
Heartbeat CPU 0 instructions: 360000000 cycles: 1118378345 heartbeat IPC: 0.247081 cumulative IPC: 0.248696 (Simulation time: 0 hr 19 min 14 sec) 
Heartbeat CPU 0 instructions: 370000000 cycles: 1157900905 heartbeat IPC: 0.25302 cumulative IPC: 0.248854 (Simulation time: 0 hr 19 min 51 sec) 
Heartbeat CPU 0 instructions: 380000000 cycles: 1198362133 heartbeat IPC: 0.24715 cumulative IPC: 0.248792 (Simulation time: 0 hr 20 min 28 sec) 
Heartbeat CPU 0 instructions: 390000001 cycles: 1238362154 heartbeat IPC: 0.25 cumulative IPC: 0.248834 (Simulation time: 0 hr 21 min 5 sec) 
Heartbeat CPU 0 instructions: 400000000 cycles: 1278473238 heartbeat IPC: 0.249308 cumulative IPC: 0.24885 (Simulation time: 0 hr 21 min 41 sec) 
Heartbeat CPU 0 instructions: 410000000 cycles: 1318375726 heartbeat IPC: 0.250611 cumulative IPC: 0.248906 (Simulation time: 0 hr 22 min 18 sec) 
Heartbeat CPU 0 instructions: 420000000 cycles: 1358316656 heartbeat IPC: 0.25037 cumulative IPC: 0.248952 (Simulation time: 0 hr 22 min 55 sec) 
Heartbeat CPU 0 instructions: 430000000 cycles: 1398346521 heartbeat IPC: 0.249813 cumulative IPC: 0.248978 (Simulation time: 0 hr 23 min 32 sec) 
Heartbeat CPU 0 instructions: 440000000 cycles: 1438382445 heartbeat IPC: 0.249776 cumulative IPC: 0.249001 (Simulation time: 0 hr 24 min 8 sec) 
Heartbeat CPU 0 instructions: 450000002 cycles: 1478279530 heartbeat IPC: 0.250645 cumulative IPC: 0.249048 (Simulation time: 0 hr 24 min 45 sec) 
Heartbeat CPU 0 instructions: 460000000 cycles: 1517604746 heartbeat IPC: 0.25429 cumulative IPC: 0.24919 (Simulation time: 0 hr 25 min 22 sec) 
Heartbeat CPU 0 instructions: 470000000 cycles: 1557784207 heartbeat IPC: 0.248883 cumulative IPC: 0.249182 (Simulation time: 0 hr 25 min 58 sec) 
Heartbeat CPU 0 instructions: 480000000 cycles: 1597648645 heartbeat IPC: 0.25085 cumulative IPC: 0.249226 (Simulation time: 0 hr 26 min 35 sec) 
Heartbeat CPU 0 instructions: 490000001 cycles: 1637659981 heartbeat IPC: 0.249929 cumulative IPC: 0.249244 (Simulation time: 0 hr 27 min 12 sec) 
Heartbeat CPU 0 instructions: 500000000 cycles: 1677887950 heartbeat IPC: 0.248583 cumulative IPC: 0.249227 (Simulation time: 0 hr 27 min 48 sec) 
Heartbeat CPU 0 instructions: 510000000 cycles: 1717554639 heartbeat IPC: 0.252101 cumulative IPC: 0.249296 (Simulation time: 0 hr 28 min 23 sec) 
Heartbeat CPU 0 instructions: 520000000 cycles: 1757956963 heartbeat IPC: 0.247511 cumulative IPC: 0.249254 (Simulation time: 0 hr 28 min 58 sec) 
Heartbeat CPU 0 instructions: 530000000 cycles: 1797858013 heartbeat IPC: 0.25062 cumulative IPC: 0.249285 (Simulation time: 0 hr 29 min 32 sec) 
Heartbeat CPU 0 instructions: 540000000 cycles: 1837519962 heartbeat IPC: 0.252131 cumulative IPC: 0.249349 (Simulation time: 0 hr 30 min 6 sec) 
Heartbeat CPU 0 instructions: 550000001 cycles: 1877862962 heartbeat IPC: 0.247874 cumulative IPC: 0.249316 (Simulation time: 0 hr 30 min 41 sec) 
Heartbeat CPU 0 instructions: 560000000 cycles: 1918324053 heartbeat IPC: 0.247151 cumulative IPC: 0.249269 (Simulation time: 0 hr 31 min 15 sec) 
Heartbeat CPU 0 instructions: 570000003 cycles: 1958748766 heartbeat IPC: 0.247374 cumulative IPC: 0.249228 (Simulation time: 0 hr 31 min 50 sec) 
Heartbeat CPU 0 instructions: 580000000 cycles: 1999027032 heartbeat IPC: 0.248273 cumulative IPC: 0.249208 (Simulation time: 0 hr 32 min 25 sec) 
Heartbeat CPU 0 instructions: 590000001 cycles: 2039740123 heartbeat IPC: 0.245621 cumulative IPC: 0.249134 (Simulation time: 0 hr 32 min 59 sec) 
Heartbeat CPU 0 instructions: 600000000 cycles: 2080165108 heartbeat IPC: 0.247372 cumulative IPC: 0.249098 (Simulation time: 0 hr 33 min 34 sec) 
Finished CPU 0 instructions: 500000000 cycles: 2007239163 cumulative IPC: 0.249098 (Simulation time: 0 hr 33 min 34 sec) 

CPU 0 Branch Prediction Accuracy: 96.2429% MPKI: 5.85335
Number of Branches: 77897976 Number of Mispredictions: 2926674
Number of LOAD Instructions: 193081861
Number of LOAD Instructions (ROI): 193081861
Number of STORE Instructions: 97310749
Number of STORE Instructions (ROI): 97310749
Total Destination Memory Operands: 106368027
Total Destination Memory Operands (ROI): 106368027
Total Source Memory Operands: 193081861
Total Source Memory Operands (ROI): 193081861
Number of DEPENDED LOADS: 6426194
Number of DEPENDED LOADS (ROI): 6426194
Number of SQ_ADDED: 106367982
Number of SQ_ADDED (ROI): 106367982
Number of LQ_ADDED: 427507384
Number of LQ_ADDED (ROI): 427507384
Number of Instructions read from trace: 600000256

ChampSim completed all CPUs

Region of Interest Statistics

CPU 0 cumulative IPC: 0.249098 instructions: 500000000 cycles: 2007239163
ITLB TOTAL     ACCESS:  151315072  HIT:  151299241  MISS:      15831
ITLB LOAD      ACCESS:  151315072  HIT:  151299241  MISS:      15831
ITLB RFO       ACCESS:          0  HIT:          0  MISS:          0
ITLB PREFETCH  ACCESS:          0  HIT:          0  MISS:          0
ITLB WRITEBACK ACCESS:          0  HIT:          0  MISS:          0
ITLB PREFETCH  REQUESTED:          0  ISSUED:          0  USEFUL:          0  USELESS:          0
ITLB TOTAL MSHR MERGED:      17427
ITLB LOAD MSHR MERGED:      17427
ITLB RFO MSHR MERGED:          0
ITLB PREFETCH MSHR MERGED:          0
ITLB WRITEBACK MSHR MERGED:          0
ITLB TOTAL ACCESSES:  151332499 HITS:  151299241 MISSES:      33258
ITLB LOAD ACCESSES:  151332499 HITS:  151299241 MISSES:      33258
ITLB RFO ACCESSES:          0 HITS:          0 MISSES:          0
ITLB PREFETCH ACCESSES:          0 HITS:          0 MISSES:          0
ITLB WRITEBACK ACCESSES:          0 HITS:          0 MISSES:          0
ITLB RQ ACCESS:  500000242
ITLB RQ TO_CACHE:  151332499
ITLB RQ MERGED:  348667743
ITLB RQ FORWARD:          0
ITLB WQ ACCESS:          0
ITLB WQ TO_CACHE:          0
ITLB WQ MERGED:          0
ITLB WQ FORWARD:          0
DTLB TOTAL     ACCESS:  199575058  HIT:  194195990  MISS:    5379068
DTLB LOAD      ACCESS:  123148798  HIT:  118130214  MISS:    5018584
DTLB RFO       ACCESS:   76426260  HIT:   76065776  MISS:     360484
DTLB PREFETCH  ACCESS:          0  HIT:          0  MISS:          0
DTLB WRITEBACK ACCESS:          0  HIT:          0  MISS:          0
DTLB PREFETCH  REQUESTED:          0  ISSUED:          0  USEFUL:          0  USELESS:          0
DTLB TOTAL MSHR MERGED:     917676
DTLB LOAD MSHR MERGED:     807524
DTLB RFO MSHR MERGED:     110152
DTLB PREFETCH MSHR MERGED:          0
DTLB WRITEBACK MSHR MERGED:          0
DTLB TOTAL ACCESSES:  200492734 HITS:  194195990 MISSES:    6296744
DTLB LOAD ACCESSES:  123956322 HITS:  118130214 MISSES:    5826108
DTLB RFO ACCESSES:   76536412 HITS:   76065776 MISSES:     470636
DTLB PREFETCH ACCESSES:          0 HITS:          0 MISSES:          0
DTLB WRITEBACK ACCESSES:          0 HITS:          0 MISSES:          0
DTLB RQ ACCESS:  243899418
DTLB RQ TO_CACHE:  200492734
DTLB RQ MERGED:   43406684
DTLB RQ FORWARD:          0
DTLB WQ ACCESS:          0
DTLB WQ TO_CACHE:          0
DTLB WQ MERGED:          0
DTLB WQ FORWARD:          0
L1D TOTAL     ACCESS:  335668000  HIT:  317571906  MISS:   18096094
L1D LOAD      ACCESS:  127715403  HIT:  118772848  MISS:    8942555
L1D RFO       ACCESS:   87096445  HIT:   86318119  MISS:     778326
L1D PREFETCH  ACCESS:  120856152  HIT:  112480939  MISS:    8375213
L1D WRITEBACK ACCESS:          0  HIT:          0  MISS:          0
L1D PREFETCH  REQUESTED:  128490252  ISSUED:  126892278  USEFUL:    1743762  USELESS:    6631463
L1D TOTAL MSHR MERGED:    3816033
L1D LOAD MSHR MERGED:     938183
L1D RFO MSHR MERGED:    1047797
L1D PREFETCH MSHR MERGED:    1830053
L1D WRITEBACK MSHR MERGED:          0
L1D TOTAL ACCESSES:  339570252 HITS:  317658125 MISSES:   21912127
L1D LOAD ACCESSES:  128490702 HITS:  118773298 MISSES:    9717404
L1D RFO ACCESSES:   88086326 HITS:   86318119 MISSES:    1768207
L1D PREFETCH ACCESSES:  122993224 HITS:  112566708 MISSES:   10426516
L1D WRITEBACK ACCESSES:          0 HITS:          0 MISSES:          0
L1D RQ ACCESS:  155268033
L1D RQ TO_CACHE:  128490252
L1D RQ MERGED:   26777331
L1D RQ FORWARD:          0
L1D WQ ACCESS:   88631385
L1D WQ TO_CACHE:   88086325
L1D WQ MERGED:     545060
L1D WQ FORWARD:      86219
L1I TOTAL     ACCESS:  175614883  HIT:  175348421  MISS:     266462
L1I LOAD      ACCESS:  175614883  HIT:  175348421  MISS:     266462
L1I RFO       ACCESS:          0  HIT:          0  MISS:          0
L1I PREFETCH  ACCESS:          0  HIT:          0  MISS:          0
L1I WRITEBACK ACCESS:          0  HIT:          0  MISS:          0
L1I PREFETCH  REQUESTED:          0  ISSUED:          0  USEFUL:          0  USELESS:          0
L1I TOTAL MSHR MERGED:     212997
L1I LOAD MSHR MERGED:     212997
L1I RFO MSHR MERGED:          0
L1I PREFETCH MSHR MERGED:          0
L1I WRITEBACK MSHR MERGED:          0
L1I TOTAL ACCESSES:  175827880 HITS:  175348421 MISSES:     479459
L1I LOAD ACCESSES:  175827880 HITS:  175348421 MISSES:     479459
L1I RFO ACCESSES:          0 HITS:          0 MISSES:          0
L1I PREFETCH ACCESSES:          0 HITS:          0 MISSES:          0
L1I WRITEBACK ACCESSES:          0 HITS:          0 MISSES:          0
L1I RQ ACCESS:  500000242
L1I RQ TO_CACHE:  175827880
L1I RQ MERGED:  324172362
L1I RQ FORWARD:          0
L1I WQ ACCESS:          0
L1I WQ TO_CACHE:          0
L1I WQ MERGED:          0
L1I WQ FORWARD:          0
L2C TOTAL     ACCESS:   23738652  HIT:   12112881  MISS:   11625771
L2C LOAD      ACCESS:    9044504  HIT:    3564974  MISS:    5479530
L2C RFO       ACCESS:     720355  HIT:     130159  MISS:     590196
L2C PREFETCH  ACCESS:    8613460  HIT:    3086114  MISS:    5527346
L2C WRITEBACK ACCESS:    5360333  HIT:    5331634  MISS:      28699
L2C PREFETCH  REQUESTED:      18042  ISSUED:      18042  USEFUL:     322995  USELESS:    5204526
L2C TOTAL MSHR MERGED:         23
L2C LOAD MSHR MERGED:          2
L2C RFO MSHR MERGED:          0
L2C PREFETCH MSHR MERGED:         21
L2C WRITEBACK MSHR MERGED:          0
L2C TOTAL ACCESSES:   23740471 HITS:   12114673 MISSES:   11625798
L2C LOAD ACCESSES:    9045683 HITS:    3566153 MISSES:    5479530
L2C RFO ACCESSES:     720410 HITS:     130214 MISSES:     590196
L2C PREFETCH ACCESSES:    8614045 HITS:    3086672 MISSES:    5527373
L2C WRITEBACK ACCESSES:    5360333 HITS:    5331634 MISSES:      28699
L2C RQ ACCESS:    9766093
L2C RQ TO_CACHE:    9764859
L2C RQ MERGED:          0
L2C RQ FORWARD:          0
L2C WQ ACCESS:    5360333
L2C WQ TO_CACHE:    5360333
L2C WQ MERGED:          0
L2C WQ FORWARD:       1792
LLC TOTAL     ACCESS:   15448686  HIT:    6790487  MISS:    8658199
LLC LOAD      ACCESS:    5479498  HIT:    2074798  MISS:    3404700
LLC RFO       ACCESS:     590194  HIT:     290921  MISS:     299273
LLC PREFETCH  ACCESS:    5527336  HIT:    1074980  MISS:    4452356
LLC WRITEBACK ACCESS:    3851658  HIT:    3349788  MISS:     501870
LLC PREFETCH  REQUESTED:          0  ISSUED:          0  USEFUL:      24544  USELESS:    4428353
LLC TOTAL MSHR MERGED:          0
LLC LOAD MSHR MERGED:          0
LLC RFO MSHR MERGED:          0
LLC PREFETCH MSHR MERGED:          0
LLC WRITEBACK MSHR MERGED:          0
LLC TOTAL ACCESSES:   15448734 HITS:    6790535 MISSES:    8658199
LLC LOAD ACCESSES:    5479528 HITS:    2074828 MISSES:    3404700
LLC RFO ACCESSES:     590196 HITS:     290923 MISSES:     299273
LLC PREFETCH ACCESSES:    5527352 HITS:    1074996 MISSES:    4452356
LLC WRITEBACK ACCESSES:    3851658 HITS:    3349788 MISSES:     501870
LLC 0 RQ ACCESS:    6069724
LLC 0 RQ TO_CACHE:    6069692
LLC 0 RQ MERGED:          0
LLC 0 RQ FORWARD:          0
LLC WQ ACCESS:    3851658
LLC WQ TO_CACHE:    3851658
LLC WQ MERGED:          0
LLC WQ FORWARD:         48
Major fault: 0 Minor fault: 44814
CPU 0 L1D next line prefetcher final stats
CPU 0 L2C PC-based stride prefetcher final stats
All Misses: 10478810
All Hits: 8142379
SD Algo Stats - Switches: 0 SRR-Repls: 3886140 BRR-Repls: 0

DRAM Statistics
 CHANNEL 0
 RQ ROW_BUFFER_HIT:    1444822  ROW_BUFFER_MISS:    6710122
 DBUS_CONGESTED:    5412084
 WQ ROW_BUFFER_HIT:     165028  ROW_BUFFER_MISS:    2031259  FULL:          0

 AVG_CONGESTED_CYCLE: 13
LOADS RETIRED: 160808997
INSTR RETIRED: 500000000
