
*** ChampSim Multicore Out-of-Order Simulator ***

Warmup Instructions: 100000000
Simulation Instructions: 500000000
Number of CPUs: 1
LLC sets: 2048
LLC ways: 16
Clean RRIP Policies: 2223210222232102 Dirty RRIP Policies: 1203110212031102 PSEL Width: 10 Track Set: 4294967295 PSEL Mask: 1 Demote Mask: 1040100010401000DS Algo: 0Window size: 0
Off-chip DRAM Size: 4096 MB Channels: 1 Width: 64-bit Data Rate: 1600 MT/s

CPU 0 runs /mnt/beegfs/iconst01/spec2017/Roms.trace.gz
NOT SORTED
TRACE STRING: /mnt/beegfs/iconst01/spec2017/Roms.trace.gz
SORTED
TRACE STRING: /mnt/beegfs/iconst01/spec2017/Roms.trace.gz
INITIAL
TRACE STRING: /mnt/beegfs/iconst01/spec2017/Roms.trace.gz

champsim_seed used: 417

CPU 0 L1D next line prefetcher
CPU 0 L2C IP-based stride prefetcher
Initialize DRRIP state
Assign rand_sets[0]: 454  LLC: 2048
rand_sets[0]: 454
Assign rand_sets[1]: 1662  LLC: 2048
rand_sets[1]: 1662
Assign rand_sets[2]: 1921  LLC: 2048
rand_sets[2]: 1921
Assign rand_sets[3]: 1131  LLC: 2048
rand_sets[3]: 1131
Assign rand_sets[4]: 331  LLC: 2048
rand_sets[4]: 331
Assign rand_sets[5]: 1531  LLC: 2048
rand_sets[5]: 1531
Assign rand_sets[6]: 482  LLC: 2048
rand_sets[6]: 482
Assign rand_sets[7]: 1275  LLC: 2048
rand_sets[7]: 1275
Assign rand_sets[8]: 1876  LLC: 2048
rand_sets[8]: 1876
Assign rand_sets[9]: 2038  LLC: 2048
rand_sets[9]: 2038
Assign rand_sets[10]: 701  LLC: 2048
rand_sets[10]: 701
Assign rand_sets[11]: 479  LLC: 2048
rand_sets[11]: 479
Assign rand_sets[12]: 892  LLC: 2048
rand_sets[12]: 892
Assign rand_sets[13]: 1820  LLC: 2048
rand_sets[13]: 1820
Assign rand_sets[14]: 1505  LLC: 2048
rand_sets[14]: 1505
Assign rand_sets[15]: 1159  LLC: 2048
rand_sets[15]: 1159
Assign rand_sets[16]: 513  LLC: 2048
rand_sets[16]: 513
Assign rand_sets[17]: 703  LLC: 2048
rand_sets[17]: 703
Assign rand_sets[18]: 561  LLC: 2048
rand_sets[18]: 561
Assign rand_sets[19]: 990  LLC: 2048
rand_sets[19]: 990
Assign rand_sets[20]: 342  LLC: 2048
rand_sets[20]: 342
Assign rand_sets[21]: 882  LLC: 2048
rand_sets[21]: 882
Assign rand_sets[22]: 15  LLC: 2048
rand_sets[22]: 15
Assign rand_sets[23]: 71  LLC: 2048
rand_sets[23]: 71
Assign rand_sets[24]: 1127  LLC: 2048
rand_sets[24]: 1127
Assign rand_sets[25]: 1382  LLC: 2048
rand_sets[25]: 1382
Assign rand_sets[26]: 647  LLC: 2048
rand_sets[26]: 647
Assign rand_sets[27]: 857  LLC: 2048
rand_sets[27]: 857
Assign rand_sets[28]: 1450  LLC: 2048
rand_sets[28]: 1450
Assign rand_sets[29]: 1160  LLC: 2048
rand_sets[29]: 1160
Assign rand_sets[30]: 1852  LLC: 2048
rand_sets[30]: 1852
Assign rand_sets[31]: 1881  LLC: 2048
rand_sets[31]: 1881
Assign rand_sets[32]: 1770  LLC: 2048
rand_sets[32]: 1770
Assign rand_sets[33]: 1622  LLC: 2048
rand_sets[33]: 1622
Assign rand_sets[34]: 275  LLC: 2048
rand_sets[34]: 275
Assign rand_sets[35]: 635  LLC: 2048
rand_sets[35]: 635
Assign rand_sets[36]: 466  LLC: 2048
rand_sets[36]: 466
Assign rand_sets[37]: 1413  LLC: 2048
rand_sets[37]: 1413
Assign rand_sets[38]: 417  LLC: 2048
rand_sets[38]: 417
Assign rand_sets[39]: 472  LLC: 2048
rand_sets[39]: 472
Assign rand_sets[40]: 1340  LLC: 2048
rand_sets[40]: 1340
Assign rand_sets[41]: 852  LLC: 2048
rand_sets[41]: 852
Assign rand_sets[42]: 1365  LLC: 2048
rand_sets[42]: 1365
Assign rand_sets[43]: 47  LLC: 2048
rand_sets[43]: 47
Assign rand_sets[44]: 823  LLC: 2048
rand_sets[44]: 823
Assign rand_sets[45]: 686  LLC: 2048
rand_sets[45]: 686
Assign rand_sets[46]: 1637  LLC: 2048
rand_sets[46]: 1637
Assign rand_sets[47]: 1115  LLC: 2048
rand_sets[47]: 1115
Assign rand_sets[48]: 986  LLC: 2048
rand_sets[48]: 986
Assign rand_sets[49]: 258  LLC: 2048
rand_sets[49]: 258
Assign rand_sets[50]: 633  LLC: 2048
rand_sets[50]: 633
Assign rand_sets[51]: 920  LLC: 2048
rand_sets[51]: 920
Assign rand_sets[52]: 204  LLC: 2048
rand_sets[52]: 204
Assign rand_sets[53]: 227  LLC: 2048
rand_sets[53]: 227
Assign rand_sets[54]: 1818  LLC: 2048
rand_sets[54]: 1818
Assign rand_sets[55]: 886  LLC: 2048
rand_sets[55]: 886
Assign rand_sets[56]: 1422  LLC: 2048
rand_sets[56]: 1422
Assign rand_sets[57]: 607  LLC: 2048
rand_sets[57]: 607
Assign rand_sets[58]: 217  LLC: 2048
rand_sets[58]: 217
Assign rand_sets[59]: 1945  LLC: 2048
rand_sets[59]: 1945
Assign rand_sets[60]: 143  LLC: 2048
rand_sets[60]: 143
Assign rand_sets[61]: 1311  LLC: 2048
rand_sets[61]: 1311
Assign rand_sets[62]: 319  LLC: 2048
rand_sets[62]: 319
Assign rand_sets[63]: 1846  LLC: 2048
rand_sets[63]: 1846
 CLEAN-RRIP-POLICY-1: 2-2-2-3-2-1-0-2- CLEAN-RRIP-POLICY-2: 2-2-2-3-2-1-0-2-
 DIRTY-RRIP-POLICY-1: 1-2-0-3-1-1-0-2- DIRTY-RRIP-POLICY-2: 1-2-0-3-1-1-0-2-
 PSEL width: 10
Heartbeat CPU 0 instructions: 10000000 cycles: 4688066 heartbeat IPC: 2.13308 cumulative IPC: 2.13308 (Simulation time: 0 hr 0 min 17 sec) 
Heartbeat CPU 0 instructions: 20000000 cycles: 9325334 heartbeat IPC: 2.15644 cumulative IPC: 2.1447 (Simulation time: 0 hr 0 min 34 sec) 
Heartbeat CPU 0 instructions: 30000003 cycles: 14019722 heartbeat IPC: 2.1302 cumulative IPC: 2.13984 (Simulation time: 0 hr 0 min 50 sec) 
Heartbeat CPU 0 instructions: 40000000 cycles: 18670140 heartbeat IPC: 2.15034 cumulative IPC: 2.14246 (Simulation time: 0 hr 1 min 7 sec) 
Heartbeat CPU 0 instructions: 50000003 cycles: 23323496 heartbeat IPC: 2.14899 cumulative IPC: 2.14376 (Simulation time: 0 hr 1 min 23 sec) 
Heartbeat CPU 0 instructions: 60000000 cycles: 27976129 heartbeat IPC: 2.14932 cumulative IPC: 2.14469 (Simulation time: 0 hr 1 min 40 sec) 
Heartbeat CPU 0 instructions: 70000002 cycles: 32367263 heartbeat IPC: 2.27732 cumulative IPC: 2.16268 (Simulation time: 0 hr 1 min 54 sec) 
Heartbeat CPU 0 instructions: 80000000 cycles: 36304042 heartbeat IPC: 2.54015 cumulative IPC: 2.20361 (Simulation time: 0 hr 2 min 6 sec) 
Heartbeat CPU 0 instructions: 90000000 cycles: 40249280 heartbeat IPC: 2.5347 cumulative IPC: 2.23606 (Simulation time: 0 hr 2 min 17 sec) 
Heartbeat CPU 0 instructions: 100000000 cycles: 44211551 heartbeat IPC: 2.52381 cumulative IPC: 2.26185 (Simulation time: 0 hr 2 min 29 sec) 

Warmup complete CPU 0 instructions: 100000002 cycles: 44211552 (Simulation time: 0 hr 2 min 29 sec) 

Heartbeat CPU 0 instructions: 110000000 cycles: 52741204 heartbeat IPC: 1.17238 cumulative IPC: 1.17238 (Simulation time: 0 hr 2 min 47 sec) 
Heartbeat CPU 0 instructions: 120000000 cycles: 61357289 heartbeat IPC: 1.16062 cumulative IPC: 1.16647 (Simulation time: 0 hr 3 min 5 sec) 
Heartbeat CPU 0 instructions: 130000002 cycles: 70020746 heartbeat IPC: 1.15427 cumulative IPC: 1.16238 (Simulation time: 0 hr 3 min 24 sec) 
Heartbeat CPU 0 instructions: 140000000 cycles: 78542797 heartbeat IPC: 1.17343 cumulative IPC: 1.16512 (Simulation time: 0 hr 3 min 42 sec) 
Heartbeat CPU 0 instructions: 150000003 cycles: 87233023 heartbeat IPC: 1.15072 cumulative IPC: 1.16221 (Simulation time: 0 hr 4 min 0 sec) 
Heartbeat CPU 0 instructions: 160000000 cycles: 97467588 heartbeat IPC: 0.977081 cumulative IPC: 1.12663 (Simulation time: 0 hr 4 min 20 sec) 
Heartbeat CPU 0 instructions: 170000000 cycles: 109937773 heartbeat IPC: 0.801913 cumulative IPC: 1.06502 (Simulation time: 0 hr 4 min 43 sec) 
Heartbeat CPU 0 instructions: 180000000 cycles: 122434910 heartbeat IPC: 0.800183 cumulative IPC: 1.02271 (Simulation time: 0 hr 5 min 5 sec) 
Heartbeat CPU 0 instructions: 190000000 cycles: 135172602 heartbeat IPC: 0.785072 cumulative IPC: 0.989434 (Simulation time: 0 hr 5 min 28 sec) 
Heartbeat CPU 0 instructions: 200000000 cycles: 149008272 heartbeat IPC: 0.722769 cumulative IPC: 0.954228 (Simulation time: 0 hr 5 min 51 sec) 
Heartbeat CPU 0 instructions: 210000003 cycles: 162888969 heartbeat IPC: 0.720425 cumulative IPC: 0.926882 (Simulation time: 0 hr 6 min 14 sec) 
Heartbeat CPU 0 instructions: 220000000 cycles: 176594590 heartbeat IPC: 0.729627 cumulative IPC: 0.906461 (Simulation time: 0 hr 6 min 37 sec) 
Heartbeat CPU 0 instructions: 230000000 cycles: 190095027 heartbeat IPC: 0.740717 cumulative IPC: 0.891122 (Simulation time: 0 hr 7 min 1 sec) 
Heartbeat CPU 0 instructions: 240000000 cycles: 203662432 heartbeat IPC: 0.737061 cumulative IPC: 0.878013 (Simulation time: 0 hr 7 min 25 sec) 
Heartbeat CPU 0 instructions: 250000003 cycles: 214731211 heartbeat IPC: 0.903442 cumulative IPC: 0.879664 (Simulation time: 0 hr 7 min 46 sec) 
Heartbeat CPU 0 instructions: 260000000 cycles: 222557802 heartbeat IPC: 1.2777 cumulative IPC: 0.897131 (Simulation time: 0 hr 8 min 5 sec) 
Heartbeat CPU 0 instructions: 270000003 cycles: 230825350 heartbeat IPC: 1.20955 cumulative IPC: 0.910972 (Simulation time: 0 hr 8 min 25 sec) 
Heartbeat CPU 0 instructions: 280000000 cycles: 239265061 heartbeat IPC: 1.18487 cumulative IPC: 0.922824 (Simulation time: 0 hr 8 min 44 sec) 
Heartbeat CPU 0 instructions: 290000000 cycles: 247865543 heartbeat IPC: 1.16273 cumulative IPC: 0.932955 (Simulation time: 0 hr 9 min 4 sec) 
Heartbeat CPU 0 instructions: 300000000 cycles: 256473518 heartbeat IPC: 1.16171 cumulative IPC: 0.942232 (Simulation time: 0 hr 9 min 24 sec) 
Heartbeat CPU 0 instructions: 310000000 cycles: 265146659 heartbeat IPC: 1.15298 cumulative IPC: 0.950505 (Simulation time: 0 hr 9 min 45 sec) 
Heartbeat CPU 0 instructions: 320000000 cycles: 273895284 heartbeat IPC: 1.14304 cumulative IPC: 0.957839 (Simulation time: 0 hr 10 min 6 sec) 
Heartbeat CPU 0 instructions: 330000002 cycles: 282589036 heartbeat IPC: 1.15025 cumulative IPC: 0.964856 (Simulation time: 0 hr 10 min 26 sec) 
Heartbeat CPU 0 instructions: 340000000 cycles: 292526991 heartbeat IPC: 1.00624 cumulative IPC: 0.966513 (Simulation time: 0 hr 10 min 48 sec) 
Heartbeat CPU 0 instructions: 350000001 cycles: 300874977 heartbeat IPC: 1.19789 cumulative IPC: 0.974038 (Simulation time: 0 hr 11 min 8 sec) 
Heartbeat CPU 0 instructions: 360000000 cycles: 309281553 heartbeat IPC: 1.18954 cumulative IPC: 0.980873 (Simulation time: 0 hr 11 min 28 sec) 
Heartbeat CPU 0 instructions: 370000001 cycles: 317692344 heartbeat IPC: 1.18895 cumulative IPC: 0.987272 (Simulation time: 0 hr 11 min 48 sec) 
Heartbeat CPU 0 instructions: 380000000 cycles: 326066378 heartbeat IPC: 1.19417 cumulative IPC: 0.993419 (Simulation time: 0 hr 12 min 8 sec) 
Heartbeat CPU 0 instructions: 390000001 cycles: 334262299 heartbeat IPC: 1.22012 cumulative IPC: 0.999825 (Simulation time: 0 hr 12 min 28 sec) 
Heartbeat CPU 0 instructions: 400000000 cycles: 342546385 heartbeat IPC: 1.20713 cumulative IPC: 1.00558 (Simulation time: 0 hr 12 min 47 sec) 
Heartbeat CPU 0 instructions: 410000003 cycles: 350756351 heartbeat IPC: 1.21803 cumulative IPC: 1.01127 (Simulation time: 0 hr 13 min 7 sec) 
Heartbeat CPU 0 instructions: 420000000 cycles: 359048668 heartbeat IPC: 1.20594 cumulative IPC: 1.0164 (Simulation time: 0 hr 13 min 27 sec) 
Heartbeat CPU 0 instructions: 430000001 cycles: 367271491 heartbeat IPC: 1.21613 cumulative IPC: 1.02148 (Simulation time: 0 hr 13 min 46 sec) 
Heartbeat CPU 0 instructions: 440000000 cycles: 375449018 heartbeat IPC: 1.22286 cumulative IPC: 1.02645 (Simulation time: 0 hr 14 min 6 sec) 
Heartbeat CPU 0 instructions: 450000001 cycles: 384887111 heartbeat IPC: 1.05954 cumulative IPC: 1.02737 (Simulation time: 0 hr 14 min 27 sec) 
Heartbeat CPU 0 instructions: 460000000 cycles: 393114900 heartbeat IPC: 1.21539 cumulative IPC: 1.0318 (Simulation time: 0 hr 14 min 47 sec) 
Heartbeat CPU 0 instructions: 470000003 cycles: 401209636 heartbeat IPC: 1.23537 cumulative IPC: 1.03642 (Simulation time: 0 hr 15 min 7 sec) 
Heartbeat CPU 0 instructions: 480000000 cycles: 409352929 heartbeat IPC: 1.228 cumulative IPC: 1.04069 (Simulation time: 0 hr 15 min 26 sec) 
Heartbeat CPU 0 instructions: 490000000 cycles: 417464527 heartbeat IPC: 1.2328 cumulative IPC: 1.04487 (Simulation time: 0 hr 15 min 46 sec) 
Heartbeat CPU 0 instructions: 500000000 cycles: 425585390 heartbeat IPC: 1.2314 cumulative IPC: 1.04884 (Simulation time: 0 hr 16 min 5 sec) 
Heartbeat CPU 0 instructions: 510000001 cycles: 433663975 heartbeat IPC: 1.23784 cumulative IPC: 1.05276 (Simulation time: 0 hr 16 min 25 sec) 
Heartbeat CPU 0 instructions: 520000000 cycles: 441777424 heartbeat IPC: 1.23252 cumulative IPC: 1.05643 (Simulation time: 0 hr 16 min 44 sec) 
Heartbeat CPU 0 instructions: 530000001 cycles: 449887818 heartbeat IPC: 1.23299 cumulative IPC: 1.05996 (Simulation time: 0 hr 17 min 4 sec) 
Heartbeat CPU 0 instructions: 540000000 cycles: 458173604 heartbeat IPC: 1.20689 cumulative IPC: 1.0629 (Simulation time: 0 hr 17 min 24 sec) 
Heartbeat CPU 0 instructions: 550000001 cycles: 466514906 heartbeat IPC: 1.19885 cumulative IPC: 1.06558 (Simulation time: 0 hr 17 min 44 sec) 
Heartbeat CPU 0 instructions: 560000000 cycles: 474621605 heartbeat IPC: 1.23355 cumulative IPC: 1.06875 (Simulation time: 0 hr 18 min 3 sec) 
Heartbeat CPU 0 instructions: 570000001 cycles: 485592054 heartbeat IPC: 0.91154 cumulative IPC: 1.06484 (Simulation time: 0 hr 18 min 25 sec) 
Heartbeat CPU 0 instructions: 580000000 cycles: 496202175 heartbeat IPC: 0.942496 cumulative IPC: 1.06197 (Simulation time: 0 hr 18 min 45 sec) 
Heartbeat CPU 0 instructions: 590000001 cycles: 507055715 heartbeat IPC: 0.921358 cumulative IPC: 1.05867 (Simulation time: 0 hr 19 min 7 sec) 
Heartbeat CPU 0 instructions: 600000000 cycles: 517661629 heartbeat IPC: 0.94287 cumulative IPC: 1.05608 (Simulation time: 0 hr 19 min 28 sec) 
Finished CPU 0 instructions: 500000001 cycles: 473450090 cumulative IPC: 1.05608 (Simulation time: 0 hr 19 min 28 sec) 

CPU 0 Branch Prediction Accuracy: 99.7422% MPKI: 0.173296
Number of Branches: 33608403 Number of Mispredictions: 86648
Number of LOAD Instructions: 180215231
Number of LOAD Instructions (ROI): 180215231
Number of STORE Instructions: 36067263
Number of STORE Instructions (ROI): 36067263
Total Destination Memory Operands: 38428915
Total Destination Memory Operands (ROI): 38428915
Total Source Memory Operands: 180215231
Total Source Memory Operands (ROI): 180215231
Number of DEPENDED LOADS: 3041340
Number of DEPENDED LOADS (ROI): 3041340
Number of SQ_ADDED: 38428892
Number of SQ_ADDED (ROI): 38428892
Number of LQ_ADDED: 207662959
Number of LQ_ADDED (ROI): 207662959
Number of Instructions read from trace: 600000257

ChampSim completed all CPUs

Region of Interest Statistics

CPU 0 cumulative IPC: 1.05608 instructions: 500000001 cycles: 473450090
ITLB TOTAL     ACCESS:   91776756  HIT:   91776737  MISS:         19
ITLB LOAD      ACCESS:   91776756  HIT:   91776737  MISS:         19
ITLB RFO       ACCESS:          0  HIT:          0  MISS:          0
ITLB PREFETCH  ACCESS:          0  HIT:          0  MISS:          0
ITLB WRITEBACK ACCESS:          0  HIT:          0  MISS:          0
ITLB PREFETCH  REQUESTED:          0  ISSUED:          0  USEFUL:          0  USELESS:          0
ITLB TOTAL MSHR MERGED:         40
ITLB LOAD MSHR MERGED:         40
ITLB RFO MSHR MERGED:          0
ITLB PREFETCH MSHR MERGED:          0
ITLB WRITEBACK MSHR MERGED:          0
ITLB TOTAL ACCESSES:   91776796 HITS:   91776737 MISSES:         59
ITLB LOAD ACCESSES:   91776796 HITS:   91776737 MISSES:         59
ITLB RFO ACCESSES:          0 HITS:          0 MISSES:          0
ITLB PREFETCH ACCESSES:          0 HITS:          0 MISSES:          0
ITLB WRITEBACK ACCESSES:          0 HITS:          0 MISSES:          0
ITLB RQ ACCESS:  500000003
ITLB RQ TO_CACHE:   91776796
ITLB RQ MERGED:  408223207
ITLB RQ FORWARD:          0
ITLB WQ ACCESS:          0
ITLB WQ TO_CACHE:          0
ITLB WQ MERGED:          0
ITLB WQ FORWARD:          0
DTLB TOTAL     ACCESS:  142064653  HIT:  141698191  MISS:     366462
DTLB LOAD      ACCESS:  119421732  HIT:  119108146  MISS:     313586
DTLB RFO       ACCESS:   22642921  HIT:   22590045  MISS:      52876
DTLB PREFETCH  ACCESS:          0  HIT:          0  MISS:          0
DTLB WRITEBACK ACCESS:          0  HIT:          0  MISS:          0
DTLB PREFETCH  REQUESTED:          0  ISSUED:          0  USEFUL:          0  USELESS:          0
DTLB TOTAL MSHR MERGED:     288047
DTLB LOAD MSHR MERGED:     240306
DTLB RFO MSHR MERGED:      47741
DTLB PREFETCH MSHR MERGED:          0
DTLB WRITEBACK MSHR MERGED:          0
DTLB TOTAL ACCESSES:  142352700 HITS:  141698191 MISSES:     654509
DTLB LOAD ACCESSES:  119662038 HITS:  119108146 MISSES:     553892
DTLB RFO ACCESSES:   22690662 HITS:   22590045 MISSES:     100617
DTLB PREFETCH ACCESSES:          0 HITS:          0 MISSES:          0
DTLB WRITEBACK ACCESSES:          0 HITS:          0 MISSES:          0
DTLB RQ ACCESS:  184791637
DTLB RQ TO_CACHE:  142352700
DTLB RQ MERGED:   42438937
DTLB RQ FORWARD:          0
DTLB WQ ACCESS:          0
DTLB WQ TO_CACHE:          0
DTLB WQ MERGED:          0
DTLB WQ FORWARD:          0
L1D TOTAL     ACCESS:  190491105  HIT:  177039115  MISS:   13451990
L1D LOAD      ACCESS:  111987776  HIT:  108750867  MISS:    3236909
L1D RFO       ACCESS:   19136124  HIT:   16354376  MISS:    2781748
L1D PREFETCH  ACCESS:   59367205  HIT:   51933872  MISS:    7433333
L1D WRITEBACK ACCESS:          0  HIT:          0  MISS:          0
L1D PREFETCH  REQUESTED:  116517150  ISSUED:  115156779  USEFUL:    7223563  USELESS:     209770
L1D TOTAL MSHR MERGED:   31155625
L1D LOAD MSHR MERGED:    7210440
L1D RFO MSHR MERGED:    9116628
L1D PREFETCH MSHR MERGED:   14828557
L1D WRITEBACK MSHR MERGED:          0
L1D TOTAL ACCESSES:  221647134 HITS:  177039518 MISSES:   44607616
L1D LOAD ACCESSES:  116517177 HITS:  108750894 MISSES:    7766283
L1D RFO ACCESSES:   28252706 HITS:   16354376 MISSES:   11898330
L1D PREFETCH ACCESSES:   76877251 HITS:   51934248 MISSES:   24943003
L1D WRITEBACK ACCESSES:          0 HITS:          0 MISSES:          0
L1D RQ ACCESS:  156535571
L1D RQ TO_CACHE:  116517153
L1D RQ MERGED:   40018391
L1D RQ FORWARD:          0
L1D WQ ACCESS:   28256066
L1D WQ TO_CACHE:   28252706
L1D WQ MERGED:       3360
L1D WQ FORWARD:        403
L1I TOTAL     ACCESS:  115766138  HIT:  115765190  MISS:        948
L1I LOAD      ACCESS:  115766138  HIT:  115765190  MISS:        948
L1I RFO       ACCESS:          0  HIT:          0  MISS:          0
L1I PREFETCH  ACCESS:          0  HIT:          0  MISS:          0
L1I WRITEBACK ACCESS:          0  HIT:          0  MISS:          0
L1I PREFETCH  REQUESTED:          0  ISSUED:          0  USEFUL:          0  USELESS:          0
L1I TOTAL MSHR MERGED:       1567
L1I LOAD MSHR MERGED:       1567
L1I RFO MSHR MERGED:          0
L1I PREFETCH MSHR MERGED:          0
L1I WRITEBACK MSHR MERGED:          0
L1I TOTAL ACCESSES:  115767705 HITS:  115765190 MISSES:       2515
L1I LOAD ACCESSES:  115767705 HITS:  115765190 MISSES:       2515
L1I RFO ACCESSES:          0 HITS:          0 MISSES:          0
L1I PREFETCH ACCESSES:          0 HITS:          0 MISSES:          0
L1I WRITEBACK ACCESSES:          0 HITS:          0 MISSES:          0
L1I RQ ACCESS:  500000007
L1I RQ TO_CACHE:  115767705
L1I RQ MERGED:  384232302
L1I RQ FORWARD:          0
L1I WQ ACCESS:          0
L1I WQ TO_CACHE:          0
L1I WQ MERGED:          0
L1I WQ FORWARD:          0
L2C TOTAL     ACCESS:   16697871  HIT:    4853354  MISS:   11844517
L2C LOAD      ACCESS:     556761  HIT:      95630  MISS:     461131
L2C RFO       ACCESS:    2781702  HIT:     266725  MISS:    2514977
L2C PREFETCH  ACCESS:   10138760  HIT:    1272631  MISS:    8866129
L2C WRITEBACK ACCESS:    3220648  HIT:    3218368  MISS:       2280
L2C PREFETCH  REQUESTED:      26327  ISSUED:      26327  USEFUL:      93134  USELESS:    8771041
L2C TOTAL MSHR MERGED:        476
L2C LOAD MSHR MERGED:          5
L2C RFO MSHR MERGED:          0
L2C PREFETCH MSHR MERGED:        471
L2C WRITEBACK MSHR MERGED:          0
L2C TOTAL ACCESSES:   16698502 HITS:    4853401 MISSES:   11845101
L2C LOAD ACCESSES:     556791 HITS:      95660 MISSES:     461131
L2C RFO ACCESSES:    2781702 HITS:     266725 MISSES:    2514977
L2C PREFETCH ACCESSES:   10139361 HITS:    1272648 MISSES:    8866713
L2C WRITEBACK ACCESSES:    3220648 HITS:    3218368 MISSES:       2280
L2C RQ ACCESS:    3338493
L2C RQ TO_CACHE:    3338463
L2C RQ MERGED:          0
L2C RQ FORWARD:          0
L2C WQ ACCESS:    3220648
L2C WQ TO_CACHE:    3220648
L2C WQ MERGED:          0
L2C WQ FORWARD:         47
LLC TOTAL     ACCESS:   14742607  HIT:    8196415  MISS:    6546192
LLC LOAD      ACCESS:     461123  HIT:     231308  MISS:     229815
LLC RFO       ACCESS:    2514959  HIT:    1920538  MISS:     594421
LLC PREFETCH  ACCESS:    8866174  HIT:    3348630  MISS:    5517544
LLC WRITEBACK ACCESS:    2900351  HIT:    2695939  MISS:     204412
LLC PREFETCH  REQUESTED:          0  ISSUED:          0  USEFUL:       3117  USELESS:    5518098
LLC TOTAL MSHR MERGED:          0
LLC LOAD MSHR MERGED:          0
LLC RFO MSHR MERGED:          0
LLC PREFETCH MSHR MERGED:          0
LLC WRITEBACK MSHR MERGED:          0
LLC TOTAL ACCESSES:   14742674 HITS:    8196481 MISSES:    6546193
LLC LOAD ACCESSES:     461126 HITS:     231311 MISSES:     229815
LLC RFO ACCESSES:    2514977 HITS:    1920556 MISSES:     594421
LLC PREFETCH ACCESSES:    8866220 HITS:    3348675 MISSES:    5517545
LLC WRITEBACK ACCESSES:    2900351 HITS:    2695939 MISSES:     204412
LLC 0 RQ ACCESS:    2976103
LLC 0 RQ TO_CACHE:    2976082
LLC 0 RQ MERGED:          0
LLC 0 RQ FORWARD:          0
LLC WQ ACCESS:    2900351
LLC WQ TO_CACHE:    2900351
LLC WQ MERGED:          0
LLC WQ FORWARD:         66
Major fault: 0 Minor fault: 57518
CPU 0 L1D next line prefetcher final stats
CPU 0 L2C PC-based stride prefetcher final stats
All Misses: 7079725
All Hits: 9159063
SD Algo Stats - Switches: 0 SRR-Repls: 236145 BRR-Repls: 0

DRAM Statistics
 CHANNEL 0
 RQ ROW_BUFFER_HIT:    3660074  ROW_BUFFER_MISS:    2678969
 DBUS_CONGESTED:    2849742
 WQ ROW_BUFFER_HIT:      85715  ROW_BUFFER_MISS:     776261  FULL:          0

 AVG_CONGESTED_CYCLE: 12
LOADS RETIRED: 157818985
INSTR RETIRED: 500000000
