
*** ChampSim Multicore Out-of-Order Simulator ***

Warmup Instructions: 100000000
Simulation Instructions: 500000000
Number of CPUs: 1
LLC sets: 2048
LLC ways: 16
Clean RRIP Policies: 2223210222232102 Dirty RRIP Policies: 1203110212031102 PSEL Width: 10 Track Set: 4294967295 PSEL Mask: 1 Demote Mask: 1040100010401000DS Algo: 0Window size: 0
Off-chip DRAM Size: 4096 MB Channels: 1 Width: 64-bit Data Rate: 1600 MT/s

CPU 0 runs /mnt/beegfs/iconst01/spec2017/Xz.trace.gz
NOT SORTED
TRACE STRING: /mnt/beegfs/iconst01/spec2017/Xz.trace.gz
SORTED
TRACE STRING: /mnt/beegfs/iconst01/spec2017/Xz.trace.gz
INITIAL
TRACE STRING: /mnt/beegfs/iconst01/spec2017/Xz.trace.gz

champsim_seed used: 210

CPU 0 L1D next line prefetcher
CPU 0 L2C IP-based stride prefetcher
Initialize DRRIP state
Assign rand_sets[0]: 454  LLC: 2048
rand_sets[0]: 454
Assign rand_sets[1]: 1662  LLC: 2048
rand_sets[1]: 1662
Assign rand_sets[2]: 1921  LLC: 2048
rand_sets[2]: 1921
Assign rand_sets[3]: 1131  LLC: 2048
rand_sets[3]: 1131
Assign rand_sets[4]: 331  LLC: 2048
rand_sets[4]: 331
Assign rand_sets[5]: 1531  LLC: 2048
rand_sets[5]: 1531
Assign rand_sets[6]: 482  LLC: 2048
rand_sets[6]: 482
Assign rand_sets[7]: 1275  LLC: 2048
rand_sets[7]: 1275
Assign rand_sets[8]: 1876  LLC: 2048
rand_sets[8]: 1876
Assign rand_sets[9]: 2038  LLC: 2048
rand_sets[9]: 2038
Assign rand_sets[10]: 701  LLC: 2048
rand_sets[10]: 701
Assign rand_sets[11]: 479  LLC: 2048
rand_sets[11]: 479
Assign rand_sets[12]: 892  LLC: 2048
rand_sets[12]: 892
Assign rand_sets[13]: 1820  LLC: 2048
rand_sets[13]: 1820
Assign rand_sets[14]: 1505  LLC: 2048
rand_sets[14]: 1505
Assign rand_sets[15]: 1159  LLC: 2048
rand_sets[15]: 1159
Assign rand_sets[16]: 513  LLC: 2048
rand_sets[16]: 513
Assign rand_sets[17]: 703  LLC: 2048
rand_sets[17]: 703
Assign rand_sets[18]: 561  LLC: 2048
rand_sets[18]: 561
Assign rand_sets[19]: 990  LLC: 2048
rand_sets[19]: 990
Assign rand_sets[20]: 342  LLC: 2048
rand_sets[20]: 342
Assign rand_sets[21]: 882  LLC: 2048
rand_sets[21]: 882
Assign rand_sets[22]: 15  LLC: 2048
rand_sets[22]: 15
Assign rand_sets[23]: 71  LLC: 2048
rand_sets[23]: 71
Assign rand_sets[24]: 1127  LLC: 2048
rand_sets[24]: 1127
Assign rand_sets[25]: 1382  LLC: 2048
rand_sets[25]: 1382
Assign rand_sets[26]: 647  LLC: 2048
rand_sets[26]: 647
Assign rand_sets[27]: 857  LLC: 2048
rand_sets[27]: 857
Assign rand_sets[28]: 1450  LLC: 2048
rand_sets[28]: 1450
Assign rand_sets[29]: 1160  LLC: 2048
rand_sets[29]: 1160
Assign rand_sets[30]: 1852  LLC: 2048
rand_sets[30]: 1852
Assign rand_sets[31]: 1881  LLC: 2048
rand_sets[31]: 1881
Assign rand_sets[32]: 1770  LLC: 2048
rand_sets[32]: 1770
Assign rand_sets[33]: 1622  LLC: 2048
rand_sets[33]: 1622
Assign rand_sets[34]: 275  LLC: 2048
rand_sets[34]: 275
Assign rand_sets[35]: 635  LLC: 2048
rand_sets[35]: 635
Assign rand_sets[36]: 466  LLC: 2048
rand_sets[36]: 466
Assign rand_sets[37]: 1413  LLC: 2048
rand_sets[37]: 1413
Assign rand_sets[38]: 417  LLC: 2048
rand_sets[38]: 417
Assign rand_sets[39]: 472  LLC: 2048
rand_sets[39]: 472
Assign rand_sets[40]: 1340  LLC: 2048
rand_sets[40]: 1340
Assign rand_sets[41]: 852  LLC: 2048
rand_sets[41]: 852
Assign rand_sets[42]: 1365  LLC: 2048
rand_sets[42]: 1365
Assign rand_sets[43]: 47  LLC: 2048
rand_sets[43]: 47
Assign rand_sets[44]: 823  LLC: 2048
rand_sets[44]: 823
Assign rand_sets[45]: 686  LLC: 2048
rand_sets[45]: 686
Assign rand_sets[46]: 1637  LLC: 2048
rand_sets[46]: 1637
Assign rand_sets[47]: 1115  LLC: 2048
rand_sets[47]: 1115
Assign rand_sets[48]: 986  LLC: 2048
rand_sets[48]: 986
Assign rand_sets[49]: 258  LLC: 2048
rand_sets[49]: 258
Assign rand_sets[50]: 633  LLC: 2048
rand_sets[50]: 633
Assign rand_sets[51]: 920  LLC: 2048
rand_sets[51]: 920
Assign rand_sets[52]: 204  LLC: 2048
rand_sets[52]: 204
Assign rand_sets[53]: 227  LLC: 2048
rand_sets[53]: 227
Assign rand_sets[54]: 1818  LLC: 2048
rand_sets[54]: 1818
Assign rand_sets[55]: 886  LLC: 2048
rand_sets[55]: 886
Assign rand_sets[56]: 1422  LLC: 2048
rand_sets[56]: 1422
Assign rand_sets[57]: 607  LLC: 2048
rand_sets[57]: 607
Assign rand_sets[58]: 217  LLC: 2048
rand_sets[58]: 217
Assign rand_sets[59]: 1945  LLC: 2048
rand_sets[59]: 1945
Assign rand_sets[60]: 143  LLC: 2048
rand_sets[60]: 143
Assign rand_sets[61]: 1311  LLC: 2048
rand_sets[61]: 1311
Assign rand_sets[62]: 319  LLC: 2048
rand_sets[62]: 319
Assign rand_sets[63]: 1846  LLC: 2048
rand_sets[63]: 1846
 CLEAN-RRIP-POLICY-1: 2-2-2-3-2-1-0-2- CLEAN-RRIP-POLICY-2: 2-2-2-3-2-1-0-2-
 DIRTY-RRIP-POLICY-1: 1-2-0-3-1-1-0-2- DIRTY-RRIP-POLICY-2: 1-2-0-3-1-1-0-2-
 PSEL width: 10
Heartbeat CPU 0 instructions: 10000000 cycles: 4305270 heartbeat IPC: 2.32273 cumulative IPC: 2.32273 (Simulation time: 0 hr 0 min 12 sec) 
Heartbeat CPU 0 instructions: 20000000 cycles: 8617099 heartbeat IPC: 2.3192 cumulative IPC: 2.32097 (Simulation time: 0 hr 0 min 23 sec) 
Heartbeat CPU 0 instructions: 30000003 cycles: 13160976 heartbeat IPC: 2.20076 cumulative IPC: 2.27947 (Simulation time: 0 hr 0 min 35 sec) 
Heartbeat CPU 0 instructions: 40000000 cycles: 17515468 heartbeat IPC: 2.29648 cumulative IPC: 2.2837 (Simulation time: 0 hr 0 min 47 sec) 
Heartbeat CPU 0 instructions: 50000001 cycles: 21878269 heartbeat IPC: 2.29211 cumulative IPC: 2.28537 (Simulation time: 0 hr 0 min 58 sec) 
Heartbeat CPU 0 instructions: 60000000 cycles: 26178454 heartbeat IPC: 2.32548 cumulative IPC: 2.29196 (Simulation time: 0 hr 1 min 10 sec) 
Heartbeat CPU 0 instructions: 70000001 cycles: 30244343 heartbeat IPC: 2.45949 cumulative IPC: 2.31448 (Simulation time: 0 hr 1 min 20 sec) 
Heartbeat CPU 0 instructions: 80000000 cycles: 34523123 heartbeat IPC: 2.33711 cumulative IPC: 2.31729 (Simulation time: 0 hr 1 min 31 sec) 
Heartbeat CPU 0 instructions: 90000001 cycles: 38739736 heartbeat IPC: 2.37157 cumulative IPC: 2.3232 (Simulation time: 0 hr 1 min 42 sec) 
Heartbeat CPU 0 instructions: 100000000 cycles: 42980104 heartbeat IPC: 2.35829 cumulative IPC: 2.32666 (Simulation time: 0 hr 1 min 53 sec) 

Warmup complete CPU 0 instructions: 100000001 cycles: 42980105 (Simulation time: 0 hr 1 min 53 sec) 

Heartbeat CPU 0 instructions: 110000000 cycles: 53095444 heartbeat IPC: 0.988598 cumulative IPC: 0.988598 (Simulation time: 0 hr 2 min 10 sec) 
Heartbeat CPU 0 instructions: 120000000 cycles: 63700179 heartbeat IPC: 0.942975 cumulative IPC: 0.965247 (Simulation time: 0 hr 2 min 27 sec) 
Heartbeat CPU 0 instructions: 130000001 cycles: 74273152 heartbeat IPC: 0.945808 cumulative IPC: 0.958679 (Simulation time: 0 hr 2 min 44 sec) 
Heartbeat CPU 0 instructions: 140000000 cycles: 83950148 heartbeat IPC: 1.03338 cumulative IPC: 0.976323 (Simulation time: 0 hr 3 min 0 sec) 
Heartbeat CPU 0 instructions: 150000001 cycles: 94232060 heartbeat IPC: 0.972582 cumulative IPC: 0.975573 (Simulation time: 0 hr 3 min 17 sec) 
Heartbeat CPU 0 instructions: 160000000 cycles: 104263541 heartbeat IPC: 0.996862 cumulative IPC: 0.979057 (Simulation time: 0 hr 3 min 34 sec) 
Heartbeat CPU 0 instructions: 170000000 cycles: 113905740 heartbeat IPC: 1.03711 cumulative IPC: 0.986949 (Simulation time: 0 hr 3 min 50 sec) 
Heartbeat CPU 0 instructions: 180000000 cycles: 124417965 heartbeat IPC: 0.951273 cumulative IPC: 0.982344 (Simulation time: 0 hr 4 min 7 sec) 
Heartbeat CPU 0 instructions: 190000001 cycles: 134646868 heartbeat IPC: 0.977622 cumulative IPC: 0.981817 (Simulation time: 0 hr 4 min 23 sec) 
Heartbeat CPU 0 instructions: 200000000 cycles: 145173381 heartbeat IPC: 0.949982 cumulative IPC: 0.978538 (Simulation time: 0 hr 4 min 40 sec) 
Heartbeat CPU 0 instructions: 210000002 cycles: 157576837 heartbeat IPC: 0.806227 cumulative IPC: 0.959888 (Simulation time: 0 hr 4 min 58 sec) 
Heartbeat CPU 0 instructions: 220000000 cycles: 170067523 heartbeat IPC: 0.800596 cumulative IPC: 0.944232 (Simulation time: 0 hr 5 min 16 sec) 
Heartbeat CPU 0 instructions: 230000000 cycles: 182192796 heartbeat IPC: 0.824724 cumulative IPC: 0.933823 (Simulation time: 0 hr 5 min 34 sec) 
Heartbeat CPU 0 instructions: 240000000 cycles: 194257304 heartbeat IPC: 0.828878 cumulative IPC: 0.925453 (Simulation time: 0 hr 5 min 52 sec) 
Heartbeat CPU 0 instructions: 250000000 cycles: 206164523 heartbeat IPC: 0.839827 cumulative IPC: 0.919205 (Simulation time: 0 hr 6 min 9 sec) 
Heartbeat CPU 0 instructions: 260000000 cycles: 217663860 heartbeat IPC: 0.869615 cumulative IPC: 0.915941 (Simulation time: 0 hr 6 min 27 sec) 
Heartbeat CPU 0 instructions: 270000003 cycles: 229464333 heartbeat IPC: 0.847424 cumulative IPC: 0.911605 (Simulation time: 0 hr 6 min 44 sec) 
Heartbeat CPU 0 instructions: 280000000 cycles: 240952365 heartbeat IPC: 0.870471 cumulative IPC: 0.909218 (Simulation time: 0 hr 7 min 2 sec) 
Heartbeat CPU 0 instructions: 290000002 cycles: 252393155 heartbeat IPC: 0.874066 cumulative IPC: 0.907298 (Simulation time: 0 hr 7 min 19 sec) 
Heartbeat CPU 0 instructions: 300000000 cycles: 264765323 heartbeat IPC: 0.808266 cumulative IPC: 0.901773 (Simulation time: 0 hr 7 min 37 sec) 
Heartbeat CPU 0 instructions: 310000000 cycles: 276838776 heartbeat IPC: 0.828263 cumulative IPC: 0.897978 (Simulation time: 0 hr 7 min 55 sec) 
Heartbeat CPU 0 instructions: 320000000 cycles: 289408488 heartbeat IPC: 0.795563 cumulative IPC: 0.892754 (Simulation time: 0 hr 8 min 13 sec) 
Heartbeat CPU 0 instructions: 330000003 cycles: 301276319 heartbeat IPC: 0.842614 cumulative IPC: 0.890451 (Simulation time: 0 hr 8 min 30 sec) 
Heartbeat CPU 0 instructions: 340000000 cycles: 313313193 heartbeat IPC: 0.83078 cumulative IPC: 0.887794 (Simulation time: 0 hr 8 min 48 sec) 
Heartbeat CPU 0 instructions: 350000001 cycles: 324266812 heartbeat IPC: 0.91294 cumulative IPC: 0.888773 (Simulation time: 0 hr 9 min 5 sec) 
Heartbeat CPU 0 instructions: 360000000 cycles: 335983199 heartbeat IPC: 0.853505 cumulative IPC: 0.887363 (Simulation time: 0 hr 9 min 23 sec) 
Heartbeat CPU 0 instructions: 370000001 cycles: 347371972 heartbeat IPC: 0.878058 cumulative IPC: 0.887015 (Simulation time: 0 hr 9 min 40 sec) 
Heartbeat CPU 0 instructions: 380000000 cycles: 358345762 heartbeat IPC: 0.911262 cumulative IPC: 0.887858 (Simulation time: 0 hr 9 min 58 sec) 
Heartbeat CPU 0 instructions: 390000003 cycles: 368936297 heartbeat IPC: 0.94424 cumulative IPC: 0.88969 (Simulation time: 0 hr 10 min 15 sec) 
Heartbeat CPU 0 instructions: 400000000 cycles: 379132848 heartbeat IPC: 0.980724 cumulative IPC: 0.892451 (Simulation time: 0 hr 10 min 32 sec) 
Heartbeat CPU 0 instructions: 410000000 cycles: 389624265 heartbeat IPC: 0.95316 cumulative IPC: 0.894289 (Simulation time: 0 hr 10 min 49 sec) 
Heartbeat CPU 0 instructions: 420000000 cycles: 398996187 heartbeat IPC: 1.06702 cumulative IPC: 0.898836 (Simulation time: 0 hr 11 min 5 sec) 
Heartbeat CPU 0 instructions: 430000002 cycles: 408083046 heartbeat IPC: 1.10049 cumulative IPC: 0.903855 (Simulation time: 0 hr 11 min 22 sec) 
Heartbeat CPU 0 instructions: 440000000 cycles: 418308057 heartbeat IPC: 0.977994 cumulative IPC: 0.905874 (Simulation time: 0 hr 11 min 39 sec) 
Heartbeat CPU 0 instructions: 450000002 cycles: 429345086 heartbeat IPC: 0.906041 cumulative IPC: 0.905879 (Simulation time: 0 hr 11 min 56 sec) 
Heartbeat CPU 0 instructions: 460000000 cycles: 440844785 heartbeat IPC: 0.869588 cumulative IPC: 0.90483 (Simulation time: 0 hr 12 min 13 sec) 
Heartbeat CPU 0 instructions: 470000003 cycles: 451019646 heartbeat IPC: 0.982815 cumulative IPC: 0.906775 (Simulation time: 0 hr 12 min 30 sec) 
Heartbeat CPU 0 instructions: 480000000 cycles: 461525813 heartbeat IPC: 0.951822 cumulative IPC: 0.907906 (Simulation time: 0 hr 12 min 47 sec) 
Heartbeat CPU 0 instructions: 490000000 cycles: 471458192 heartbeat IPC: 1.00681 cumulative IPC: 0.910198 (Simulation time: 0 hr 13 min 4 sec) 
Heartbeat CPU 0 instructions: 500000000 cycles: 483189164 heartbeat IPC: 0.852444 cumulative IPC: 0.908659 (Simulation time: 0 hr 13 min 21 sec) 
Heartbeat CPU 0 instructions: 510000002 cycles: 495575286 heartbeat IPC: 0.807355 cumulative IPC: 0.905887 (Simulation time: 0 hr 13 min 39 sec) 
Heartbeat CPU 0 instructions: 520000000 cycles: 507426253 heartbeat IPC: 0.843813 cumulative IPC: 0.904303 (Simulation time: 0 hr 13 min 57 sec) 
Heartbeat CPU 0 instructions: 530000001 cycles: 519235607 heartbeat IPC: 0.846786 cumulative IPC: 0.902877 (Simulation time: 0 hr 14 min 14 sec) 
Heartbeat CPU 0 instructions: 540000000 cycles: 530789867 heartbeat IPC: 0.865482 cumulative IPC: 0.901991 (Simulation time: 0 hr 14 min 32 sec) 
Heartbeat CPU 0 instructions: 550000001 cycles: 542123305 heartbeat IPC: 0.882345 cumulative IPC: 0.901545 (Simulation time: 0 hr 14 min 49 sec) 
Heartbeat CPU 0 instructions: 560000000 cycles: 553633158 heartbeat IPC: 0.868821 cumulative IPC: 0.900807 (Simulation time: 0 hr 15 min 6 sec) 
Heartbeat CPU 0 instructions: 570000000 cycles: 564993408 heartbeat IPC: 0.880262 cumulative IPC: 0.90036 (Simulation time: 0 hr 15 min 24 sec) 
Heartbeat CPU 0 instructions: 580000000 cycles: 575727349 heartbeat IPC: 0.931624 cumulative IPC: 0.90099 (Simulation time: 0 hr 15 min 41 sec) 
Heartbeat CPU 0 instructions: 590000003 cycles: 587068010 heartbeat IPC: 0.881783 cumulative IPC: 0.90059 (Simulation time: 0 hr 15 min 58 sec) 
Heartbeat CPU 0 instructions: 600000000 cycles: 597617343 heartbeat IPC: 0.947927 cumulative IPC: 0.90149 (Simulation time: 0 hr 16 min 15 sec) 
Finished CPU 0 instructions: 500000001 cycles: 554637246 cumulative IPC: 0.90149 (Simulation time: 0 hr 16 min 15 sec) 

CPU 0 Branch Prediction Accuracy: 93.0095% MPKI: 10.0046
Number of Branches: 71558147 Number of Mispredictions: 5002285
Number of LOAD Instructions: 145708893
Number of LOAD Instructions (ROI): 145708893
Number of STORE Instructions: 40463820
Number of STORE Instructions (ROI): 40463820
Total Destination Memory Operands: 45240498
Total Destination Memory Operands (ROI): 45240498
Total Source Memory Operands: 145708893
Total Source Memory Operands (ROI): 145708893
Number of DEPENDED LOADS: 10667811
Number of DEPENDED LOADS (ROI): 10667811
Number of SQ_ADDED: 45240498
Number of SQ_ADDED (ROI): 45240498
Number of LQ_ADDED: 193326916
Number of LQ_ADDED (ROI): 193326916
Number of Instructions read from trace: 600000002

ChampSim completed all CPUs

Region of Interest Statistics

CPU 0 cumulative IPC: 0.90149 instructions: 500000001 cycles: 554637246
ITLB TOTAL     ACCESS:   77992936  HIT:   77992935  MISS:          1
ITLB LOAD      ACCESS:   77992936  HIT:   77992935  MISS:          1
ITLB RFO       ACCESS:          0  HIT:          0  MISS:          0
ITLB PREFETCH  ACCESS:          0  HIT:          0  MISS:          0
ITLB WRITEBACK ACCESS:          0  HIT:          0  MISS:          0
ITLB PREFETCH  REQUESTED:          0  ISSUED:          0  USEFUL:          0  USELESS:          0
ITLB TOTAL MSHR MERGED:          0
ITLB LOAD MSHR MERGED:          0
ITLB RFO MSHR MERGED:          0
ITLB PREFETCH MSHR MERGED:          0
ITLB WRITEBACK MSHR MERGED:          0
ITLB TOTAL ACCESSES:   77992936 HITS:   77992935 MISSES:          1
ITLB LOAD ACCESSES:   77992936 HITS:   77992935 MISSES:          1
ITLB RFO ACCESSES:          0 HITS:          0 MISSES:          0
ITLB PREFETCH ACCESSES:          0 HITS:          0 MISSES:          0
ITLB WRITEBACK ACCESSES:          0 HITS:          0 MISSES:          0
ITLB RQ ACCESS:  499999995
ITLB RQ TO_CACHE:   77992936
ITLB RQ MERGED:  422007059
ITLB RQ FORWARD:          0
ITLB WQ ACCESS:          0
ITLB WQ TO_CACHE:          0
ITLB WQ MERGED:          0
ITLB WQ FORWARD:          0
DTLB TOTAL     ACCESS:   98669827  HIT:   97788490  MISS:     881337
DTLB LOAD      ACCESS:   70890192  HIT:   70028658  MISS:     861534
DTLB RFO       ACCESS:   27779635  HIT:   27759832  MISS:      19803
DTLB PREFETCH  ACCESS:          0  HIT:          0  MISS:          0
DTLB WRITEBACK ACCESS:          0  HIT:          0  MISS:          0
DTLB PREFETCH  REQUESTED:          0  ISSUED:          0  USEFUL:          0  USELESS:          0
DTLB TOTAL MSHR MERGED:      87391
DTLB LOAD MSHR MERGED:      65647
DTLB RFO MSHR MERGED:      21744
DTLB PREFETCH MSHR MERGED:          0
DTLB WRITEBACK MSHR MERGED:          0
DTLB TOTAL ACCESSES:   98757218 HITS:   97788490 MISSES:     968728
DTLB LOAD ACCESSES:   70955839 HITS:   70028658 MISSES:     927181
DTLB RFO ACCESSES:   27801379 HITS:   27759832 MISSES:      41547
DTLB PREFETCH ACCESSES:          0 HITS:          0 MISSES:          0
DTLB WRITEBACK ACCESSES:          0 HITS:          0 MISSES:          0
DTLB RQ ACCESS:  150277244
DTLB RQ TO_CACHE:   98757218
DTLB RQ MERGED:   51520026
DTLB RQ FORWARD:          0
DTLB WQ ACCESS:          0
DTLB WQ TO_CACHE:          0
DTLB WQ MERGED:          0
DTLB WQ FORWARD:          0
L1D TOTAL     ACCESS:  173334502  HIT:  169165863  MISS:    4168639
L1D LOAD      ACCESS:   75285011  HIT:   73403637  MISS:    1881374
L1D RFO       ACCESS:   36778603  HIT:   36572010  MISS:     206593
L1D PREFETCH  ACCESS:   61270888  HIT:   59190216  MISS:    2080672
L1D WRITEBACK ACCESS:          0  HIT:          0  MISS:          0
L1D PREFETCH  REQUESTED:   75388862  ISSUED:   74824681  USEFUL:     415105  USELESS:    1665556
L1D TOTAL MSHR MERGED:     376736
L1D LOAD MSHR MERGED:     112656
L1D RFO MSHR MERGED:     132877
L1D PREFETCH MSHR MERGED:     131203
L1D WRITEBACK MSHR MERGED:          0
L1D TOTAL ACCESSES:  173862739 HITS:  169317364 MISSES:    4545375
L1D LOAD ACCESSES:   75391726 HITS:   73406501 MISSES:    1985225
L1D RFO ACCESSES:   36910098 HITS:   36572010 MISSES:     338088
L1D PREFETCH ACCESSES:   61560915 HITS:   59338853 MISSES:    2222062
L1D WRITEBACK ACCESSES:          0 HITS:          0 MISSES:          0
L1D RQ ACCESS:  112614841
L1D RQ TO_CACHE:   75388862
L1D RQ MERGED:   37223115
L1D RQ FORWARD:          0
L1D WQ ACCESS:   37662403
L1D WQ TO_CACHE:   36910098
L1D WQ MERGED:     752305
L1D WQ FORWARD:     151501
L1I TOTAL     ACCESS:  100700928  HIT:  100700903  MISS:         25
L1I LOAD      ACCESS:  100700928  HIT:  100700903  MISS:         25
L1I RFO       ACCESS:          0  HIT:          0  MISS:          0
L1I PREFETCH  ACCESS:          0  HIT:          0  MISS:          0
L1I WRITEBACK ACCESS:          0  HIT:          0  MISS:          0
L1I PREFETCH  REQUESTED:          0  ISSUED:          0  USEFUL:          0  USELESS:          0
L1I TOTAL MSHR MERGED:         10
L1I LOAD MSHR MERGED:         10
L1I RFO MSHR MERGED:          0
L1I PREFETCH MSHR MERGED:          0
L1I WRITEBACK MSHR MERGED:          0
L1I TOTAL ACCESSES:  100700938 HITS:  100700903 MISSES:         35
L1I LOAD ACCESSES:  100700938 HITS:  100700903 MISSES:         35
L1I RFO ACCESSES:          0 HITS:          0 MISSES:          0
L1I PREFETCH ACCESSES:          0 HITS:          0 MISSES:          0
L1I WRITEBACK ACCESSES:          0 HITS:          0 MISSES:          0
L1I RQ ACCESS:  499999995
L1I RQ TO_CACHE:  100700938
L1I RQ MERGED:  399299057
L1I RQ FORWARD:          0
L1I WQ ACCESS:          0
L1I WQ TO_CACHE:          0
L1I WQ MERGED:          0
L1I WQ FORWARD:          0
L2C TOTAL     ACCESS:    5852602  HIT:    4009406  MISS:    1843196
L2C LOAD      ACCESS:    1872468  HIT:    1061519  MISS:     810949
L2C RFO       ACCESS:     205206  HIT:     100567  MISS:     104639
L2C PREFETCH  ACCESS:    2169292  HIT:    1246106  MISS:     923186
L2C WRITEBACK ACCESS:    1605636  HIT:    1601214  MISS:       4422
L2C PREFETCH  REQUESTED:      91712  ISSUED:      91712  USEFUL:      86461  USELESS:     836748
L2C TOTAL MSHR MERGED:       1025
L2C LOAD MSHR MERGED:        252
L2C RFO MSHR MERGED:          0
L2C PREFETCH MSHR MERGED:        773
L2C WRITEBACK MSHR MERGED:          0
L2C TOTAL ACCESSES:    5853940 HITS:    4009574 MISSES:    1844366
L2C LOAD ACCESSES:    1872594 HITS:    1061645 MISSES:     810949
L2C RFO ACCESSES:     205211 HITS:     100572 MISSES:     104639
L2C PREFETCH ACCESSES:    2170499 HITS:    1246143 MISSES:     924356
L2C WRITEBACK ACCESSES:    1605636 HITS:    1601214 MISSES:       4422
L2C RQ ACCESS:    2077805
L2C RQ TO_CACHE:    2077674
L2C RQ MERGED:          0
L2C RQ FORWARD:          0
L2C WQ ACCESS:    1605636
L2C WQ TO_CACHE:    1605636
L2C WQ MERGED:          0
L2C WQ FORWARD:        168
LLC TOTAL     ACCESS:    2673566  HIT:    2215032  MISS:     458534
LLC LOAD      ACCESS:     810687  HIT:     647753  MISS:     162934
LLC RFO       ACCESS:     104639  HIT:      61051  MISS:      43588
LLC PREFETCH  ACCESS:     923567  HIT:     679137  MISS:     244430
LLC WRITEBACK ACCESS:     834673  HIT:     827091  MISS:       7582
LLC PREFETCH  REQUESTED:          0  ISSUED:          0  USEFUL:       7019  USELESS:     237890
LLC TOTAL MSHR MERGED:          2
LLC LOAD MSHR MERGED:          0
LLC RFO MSHR MERGED:          0
LLC PREFETCH MSHR MERGED:          2
LLC WRITEBACK MSHR MERGED:          0
LLC TOTAL ACCESSES:    2673580 HITS:    2215044 MISSES:     458536
LLC LOAD ACCESSES:     810697 HITS:     647763 MISSES:     162934
LLC RFO ACCESSES:     104639 HITS:      61051 MISSES:      43588
LLC PREFETCH ACCESSES:     923571 HITS:     679139 MISSES:     244432
LLC WRITEBACK ACCESSES:     834673 HITS:     827091 MISSES:       7582
LLC 0 RQ ACCESS:     915336
LLC 0 RQ TO_CACHE:     915326
LLC 0 RQ MERGED:          0
LLC 0 RQ FORWARD:          0
LLC WQ ACCESS:     834673
LLC WQ TO_CACHE:     834673
LLC WQ MERGED:          0
LLC WQ FORWARD:         12
Major fault: 0 Minor fault: 11278
CPU 0 L1D next line prefetcher final stats
CPU 0 L2C PC-based stride prefetcher final stats
All Misses: 565603
All Hits: 2488981
SD Algo Stats - Switches: 0 SRR-Repls: 195869 BRR-Repls: 0

DRAM Statistics
 CHANNEL 0
 RQ ROW_BUFFER_HIT:      29723  ROW_BUFFER_MISS:     420981
 DBUS_CONGESTED:     328357
 WQ ROW_BUFFER_HIT:      11888  ROW_BUFFER_MISS:     184630  FULL:          0

 AVG_CONGESTED_CYCLE: 13
LOADS RETIRED: 121769268
INSTR RETIRED: 500000000
