
*** ChampSim Multicore Out-of-Order Simulator ***

Warmup Instructions: 100000000
Simulation Instructions: 500000000
Number of CPUs: 1
LLC sets: 2048
LLC ways: 16
Clean RRIP Policies: 1213230112132301 Dirty RRIP Policies: 2213130122131301 PSEL Width: 10 Track Set: 4294967295 PSEL Mask: 1 Demote Mask: 1043100210431002DS Algo: 0Window size: 0
Off-chip DRAM Size: 4096 MB Channels: 1 Width: 64-bit Data Rate: 1600 MT/s

CPU 0 runs /mnt/beegfs/iconst01/spec2017/cactuBSSN.trace.gz
NOT SORTED
TRACE STRING: /mnt/beegfs/iconst01/spec2017/cactuBSSN.trace.gz
SORTED
TRACE STRING: /mnt/beegfs/iconst01/spec2017/cactuBSSN.trace.gz
INITIAL
TRACE STRING: /mnt/beegfs/iconst01/spec2017/cactuBSSN.trace.gz

champsim_seed used: 838

CPU 0 L1D next line prefetcher
CPU 0 L2C IP-based stride prefetcher
Initialize DRRIP state
Assign rand_sets[0]: 454  LLC: 2048
rand_sets[0]: 454
Assign rand_sets[1]: 1662  LLC: 2048
rand_sets[1]: 1662
Assign rand_sets[2]: 1921  LLC: 2048
rand_sets[2]: 1921
Assign rand_sets[3]: 1131  LLC: 2048
rand_sets[3]: 1131
Assign rand_sets[4]: 331  LLC: 2048
rand_sets[4]: 331
Assign rand_sets[5]: 1531  LLC: 2048
rand_sets[5]: 1531
Assign rand_sets[6]: 482  LLC: 2048
rand_sets[6]: 482
Assign rand_sets[7]: 1275  LLC: 2048
rand_sets[7]: 1275
Assign rand_sets[8]: 1876  LLC: 2048
rand_sets[8]: 1876
Assign rand_sets[9]: 2038  LLC: 2048
rand_sets[9]: 2038
Assign rand_sets[10]: 701  LLC: 2048
rand_sets[10]: 701
Assign rand_sets[11]: 479  LLC: 2048
rand_sets[11]: 479
Assign rand_sets[12]: 892  LLC: 2048
rand_sets[12]: 892
Assign rand_sets[13]: 1820  LLC: 2048
rand_sets[13]: 1820
Assign rand_sets[14]: 1505  LLC: 2048
rand_sets[14]: 1505
Assign rand_sets[15]: 1159  LLC: 2048
rand_sets[15]: 1159
Assign rand_sets[16]: 513  LLC: 2048
rand_sets[16]: 513
Assign rand_sets[17]: 703  LLC: 2048
rand_sets[17]: 703
Assign rand_sets[18]: 561  LLC: 2048
rand_sets[18]: 561
Assign rand_sets[19]: 990  LLC: 2048
rand_sets[19]: 990
Assign rand_sets[20]: 342  LLC: 2048
rand_sets[20]: 342
Assign rand_sets[21]: 882  LLC: 2048
rand_sets[21]: 882
Assign rand_sets[22]: 15  LLC: 2048
rand_sets[22]: 15
Assign rand_sets[23]: 71  LLC: 2048
rand_sets[23]: 71
Assign rand_sets[24]: 1127  LLC: 2048
rand_sets[24]: 1127
Assign rand_sets[25]: 1382  LLC: 2048
rand_sets[25]: 1382
Assign rand_sets[26]: 647  LLC: 2048
rand_sets[26]: 647
Assign rand_sets[27]: 857  LLC: 2048
rand_sets[27]: 857
Assign rand_sets[28]: 1450  LLC: 2048
rand_sets[28]: 1450
Assign rand_sets[29]: 1160  LLC: 2048
rand_sets[29]: 1160
Assign rand_sets[30]: 1852  LLC: 2048
rand_sets[30]: 1852
Assign rand_sets[31]: 1881  LLC: 2048
rand_sets[31]: 1881
Assign rand_sets[32]: 1770  LLC: 2048
rand_sets[32]: 1770
Assign rand_sets[33]: 1622  LLC: 2048
rand_sets[33]: 1622
Assign rand_sets[34]: 275  LLC: 2048
rand_sets[34]: 275
Assign rand_sets[35]: 635  LLC: 2048
rand_sets[35]: 635
Assign rand_sets[36]: 466  LLC: 2048
rand_sets[36]: 466
Assign rand_sets[37]: 1413  LLC: 2048
rand_sets[37]: 1413
Assign rand_sets[38]: 417  LLC: 2048
rand_sets[38]: 417
Assign rand_sets[39]: 472  LLC: 2048
rand_sets[39]: 472
Assign rand_sets[40]: 1340  LLC: 2048
rand_sets[40]: 1340
Assign rand_sets[41]: 852  LLC: 2048
rand_sets[41]: 852
Assign rand_sets[42]: 1365  LLC: 2048
rand_sets[42]: 1365
Assign rand_sets[43]: 47  LLC: 2048
rand_sets[43]: 47
Assign rand_sets[44]: 823  LLC: 2048
rand_sets[44]: 823
Assign rand_sets[45]: 686  LLC: 2048
rand_sets[45]: 686
Assign rand_sets[46]: 1637  LLC: 2048
rand_sets[46]: 1637
Assign rand_sets[47]: 1115  LLC: 2048
rand_sets[47]: 1115
Assign rand_sets[48]: 986  LLC: 2048
rand_sets[48]: 986
Assign rand_sets[49]: 258  LLC: 2048
rand_sets[49]: 258
Assign rand_sets[50]: 633  LLC: 2048
rand_sets[50]: 633
Assign rand_sets[51]: 920  LLC: 2048
rand_sets[51]: 920
Assign rand_sets[52]: 204  LLC: 2048
rand_sets[52]: 204
Assign rand_sets[53]: 227  LLC: 2048
rand_sets[53]: 227
Assign rand_sets[54]: 1818  LLC: 2048
rand_sets[54]: 1818
Assign rand_sets[55]: 886  LLC: 2048
rand_sets[55]: 886
Assign rand_sets[56]: 1422  LLC: 2048
rand_sets[56]: 1422
Assign rand_sets[57]: 607  LLC: 2048
rand_sets[57]: 607
Assign rand_sets[58]: 217  LLC: 2048
rand_sets[58]: 217
Assign rand_sets[59]: 1945  LLC: 2048
rand_sets[59]: 1945
Assign rand_sets[60]: 143  LLC: 2048
rand_sets[60]: 143
Assign rand_sets[61]: 1311  LLC: 2048
rand_sets[61]: 1311
Assign rand_sets[62]: 319  LLC: 2048
rand_sets[62]: 319
Assign rand_sets[63]: 1846  LLC: 2048
rand_sets[63]: 1846
 CLEAN-RRIP-POLICY-1: 1-2-1-3-2-3-0-1- CLEAN-RRIP-POLICY-2: 1-2-1-3-2-3-0-1-
 DIRTY-RRIP-POLICY-1: 2-2-1-3-1-3-0-1- DIRTY-RRIP-POLICY-2: 2-2-1-3-1-3-0-1-
 PSEL width: 10
Heartbeat CPU 0 instructions: 10000000 cycles: 6588002 heartbeat IPC: 1.51791 cumulative IPC: 1.51791 (Simulation time: 0 hr 0 min 23 sec) 
Heartbeat CPU 0 instructions: 20000000 cycles: 13179598 heartbeat IPC: 1.51708 cumulative IPC: 1.5175 (Simulation time: 0 hr 0 min 47 sec) 
Heartbeat CPU 0 instructions: 30000003 cycles: 19772925 heartbeat IPC: 1.51669 cumulative IPC: 1.51723 (Simulation time: 0 hr 1 min 11 sec) 
Heartbeat CPU 0 instructions: 40000000 cycles: 26364672 heartbeat IPC: 1.51705 cumulative IPC: 1.51718 (Simulation time: 0 hr 1 min 36 sec) 
Heartbeat CPU 0 instructions: 50000001 cycles: 32957354 heartbeat IPC: 1.51683 cumulative IPC: 1.51711 (Simulation time: 0 hr 2 min 0 sec) 
Heartbeat CPU 0 instructions: 60000000 cycles: 39556171 heartbeat IPC: 1.51542 cumulative IPC: 1.51683 (Simulation time: 0 hr 2 min 24 sec) 
Heartbeat CPU 0 instructions: 70000003 cycles: 46154558 heartbeat IPC: 1.51552 cumulative IPC: 1.51664 (Simulation time: 0 hr 2 min 49 sec) 
Heartbeat CPU 0 instructions: 80000000 cycles: 52752597 heartbeat IPC: 1.5156 cumulative IPC: 1.51651 (Simulation time: 0 hr 3 min 13 sec) 
Heartbeat CPU 0 instructions: 90000002 cycles: 59348253 heartbeat IPC: 1.51615 cumulative IPC: 1.51647 (Simulation time: 0 hr 3 min 37 sec) 
Heartbeat CPU 0 instructions: 100000000 cycles: 65943308 heartbeat IPC: 1.51629 cumulative IPC: 1.51645 (Simulation time: 0 hr 4 min 2 sec) 

Warmup complete CPU 0 instructions: 100000002 cycles: 65943309 (Simulation time: 0 hr 4 min 2 sec) 

Heartbeat CPU 0 instructions: 110000000 cycles: 79181399 heartbeat IPC: 0.755396 cumulative IPC: 0.755396 (Simulation time: 0 hr 4 min 31 sec) 
Heartbeat CPU 0 instructions: 120000000 cycles: 92387644 heartbeat IPC: 0.757218 cumulative IPC: 0.756306 (Simulation time: 0 hr 5 min 1 sec) 
Heartbeat CPU 0 instructions: 130000001 cycles: 105654875 heartbeat IPC: 0.753737 cumulative IPC: 0.755447 (Simulation time: 0 hr 5 min 31 sec) 
Heartbeat CPU 0 instructions: 140000000 cycles: 118827336 heartbeat IPC: 0.75916 cumulative IPC: 0.756372 (Simulation time: 0 hr 6 min 1 sec) 
Heartbeat CPU 0 instructions: 150000001 cycles: 132016703 heartbeat IPC: 0.758187 cumulative IPC: 0.756734 (Simulation time: 0 hr 6 min 30 sec) 
Heartbeat CPU 0 instructions: 160000000 cycles: 145253050 heartbeat IPC: 0.755495 cumulative IPC: 0.756527 (Simulation time: 0 hr 7 min 0 sec) 
Heartbeat CPU 0 instructions: 170000000 cycles: 158470165 heartbeat IPC: 0.756595 cumulative IPC: 0.756537 (Simulation time: 0 hr 7 min 30 sec) 
Heartbeat CPU 0 instructions: 180000000 cycles: 171674137 heartbeat IPC: 0.757348 cumulative IPC: 0.756638 (Simulation time: 0 hr 7 min 59 sec) 
Heartbeat CPU 0 instructions: 190000000 cycles: 184835413 heartbeat IPC: 0.759805 cumulative IPC: 0.756989 (Simulation time: 0 hr 8 min 29 sec) 
Heartbeat CPU 0 instructions: 200000000 cycles: 198086402 heartbeat IPC: 0.754661 cumulative IPC: 0.756755 (Simulation time: 0 hr 8 min 59 sec) 
Heartbeat CPU 0 instructions: 210000002 cycles: 211300787 heartbeat IPC: 0.756751 cumulative IPC: 0.756755 (Simulation time: 0 hr 9 min 29 sec) 
Heartbeat CPU 0 instructions: 220000000 cycles: 224474933 heartbeat IPC: 0.759062 cumulative IPC: 0.756947 (Simulation time: 0 hr 9 min 58 sec) 
Heartbeat CPU 0 instructions: 230000003 cycles: 237719298 heartbeat IPC: 0.755038 cumulative IPC: 0.7568 (Simulation time: 0 hr 10 min 28 sec) 
Heartbeat CPU 0 instructions: 240000000 cycles: 250910604 heartbeat IPC: 0.758075 cumulative IPC: 0.756891 (Simulation time: 0 hr 10 min 58 sec) 
Heartbeat CPU 0 instructions: 250000001 cycles: 264134099 heartbeat IPC: 0.75623 cumulative IPC: 0.756846 (Simulation time: 0 hr 11 min 27 sec) 
Heartbeat CPU 0 instructions: 260000000 cycles: 277346410 heartbeat IPC: 0.75687 cumulative IPC: 0.756848 (Simulation time: 0 hr 11 min 57 sec) 
Heartbeat CPU 0 instructions: 270000003 cycles: 290582239 heartbeat IPC: 0.755525 cumulative IPC: 0.75677 (Simulation time: 0 hr 12 min 26 sec) 
Heartbeat CPU 0 instructions: 280000000 cycles: 303782085 heartbeat IPC: 0.757584 cumulative IPC: 0.756815 (Simulation time: 0 hr 12 min 55 sec) 
Heartbeat CPU 0 instructions: 290000000 cycles: 316957232 heartbeat IPC: 0.759005 cumulative IPC: 0.75693 (Simulation time: 0 hr 13 min 24 sec) 
Heartbeat CPU 0 instructions: 300000000 cycles: 330214291 heartbeat IPC: 0.754315 cumulative IPC: 0.756799 (Simulation time: 0 hr 13 min 54 sec) 
Heartbeat CPU 0 instructions: 310000001 cycles: 343393249 heartbeat IPC: 0.758785 cumulative IPC: 0.756893 (Simulation time: 0 hr 14 min 23 sec) 
Heartbeat CPU 0 instructions: 320000000 cycles: 356586379 heartbeat IPC: 0.75797 cumulative IPC: 0.756942 (Simulation time: 0 hr 14 min 52 sec) 
Heartbeat CPU 0 instructions: 330000002 cycles: 369787307 heartbeat IPC: 0.757523 cumulative IPC: 0.756967 (Simulation time: 0 hr 15 min 21 sec) 
Heartbeat CPU 0 instructions: 340000000 cycles: 383024478 heartbeat IPC: 0.755448 cumulative IPC: 0.756904 (Simulation time: 0 hr 15 min 50 sec) 
Heartbeat CPU 0 instructions: 350000000 cycles: 396279537 heartbeat IPC: 0.754429 cumulative IPC: 0.756805 (Simulation time: 0 hr 16 min 19 sec) 
Heartbeat CPU 0 instructions: 360000000 cycles: 409500065 heartbeat IPC: 0.756399 cumulative IPC: 0.756789 (Simulation time: 0 hr 16 min 48 sec) 
Heartbeat CPU 0 instructions: 370000002 cycles: 422775372 heartbeat IPC: 0.753278 cumulative IPC: 0.756658 (Simulation time: 0 hr 17 min 17 sec) 
Heartbeat CPU 0 instructions: 380000000 cycles: 435988319 heartbeat IPC: 0.756833 cumulative IPC: 0.756665 (Simulation time: 0 hr 17 min 46 sec) 
Heartbeat CPU 0 instructions: 390000000 cycles: 449165484 heartbeat IPC: 0.758889 cumulative IPC: 0.756741 (Simulation time: 0 hr 18 min 15 sec) 
Heartbeat CPU 0 instructions: 400000000 cycles: 462360186 heartbeat IPC: 0.75788 cumulative IPC: 0.756779 (Simulation time: 0 hr 18 min 43 sec) 
Heartbeat CPU 0 instructions: 410000001 cycles: 475610662 heartbeat IPC: 0.75469 cumulative IPC: 0.756711 (Simulation time: 0 hr 19 min 12 sec) 
Heartbeat CPU 0 instructions: 420000000 cycles: 488792520 heartbeat IPC: 0.758618 cumulative IPC: 0.756771 (Simulation time: 0 hr 19 min 41 sec) 
Heartbeat CPU 0 instructions: 430000001 cycles: 501980524 heartbeat IPC: 0.758265 cumulative IPC: 0.756816 (Simulation time: 0 hr 20 min 10 sec) 
Heartbeat CPU 0 instructions: 440000000 cycles: 515155709 heartbeat IPC: 0.759003 cumulative IPC: 0.75688 (Simulation time: 0 hr 20 min 39 sec) 
Heartbeat CPU 0 instructions: 450000002 cycles: 528464289 heartbeat IPC: 0.751395 cumulative IPC: 0.756722 (Simulation time: 0 hr 21 min 8 sec) 
Heartbeat CPU 0 instructions: 460000000 cycles: 541680818 heartbeat IPC: 0.756628 cumulative IPC: 0.75672 (Simulation time: 0 hr 21 min 37 sec) 
Heartbeat CPU 0 instructions: 470000003 cycles: 554880457 heartbeat IPC: 0.757597 cumulative IPC: 0.756743 (Simulation time: 0 hr 22 min 6 sec) 
Heartbeat CPU 0 instructions: 480000000 cycles: 568124932 heartbeat IPC: 0.755032 cumulative IPC: 0.756698 (Simulation time: 0 hr 22 min 34 sec) 
Heartbeat CPU 0 instructions: 490000000 cycles: 581334554 heartbeat IPC: 0.757024 cumulative IPC: 0.756707 (Simulation time: 0 hr 23 min 3 sec) 
Heartbeat CPU 0 instructions: 500000000 cycles: 594531311 heartbeat IPC: 0.757762 cumulative IPC: 0.756733 (Simulation time: 0 hr 23 min 32 sec) 
Heartbeat CPU 0 instructions: 510000001 cycles: 607703883 heartbeat IPC: 0.759153 cumulative IPC: 0.756792 (Simulation time: 0 hr 24 min 1 sec) 
Heartbeat CPU 0 instructions: 520000000 cycles: 620992439 heartbeat IPC: 0.752527 cumulative IPC: 0.75669 (Simulation time: 0 hr 24 min 30 sec) 
Heartbeat CPU 0 instructions: 530000000 cycles: 634241956 heartbeat IPC: 0.754744 cumulative IPC: 0.756644 (Simulation time: 0 hr 24 min 59 sec) 
Heartbeat CPU 0 instructions: 540000000 cycles: 647473088 heartbeat IPC: 0.755793 cumulative IPC: 0.756625 (Simulation time: 0 hr 25 min 28 sec) 
Heartbeat CPU 0 instructions: 550000002 cycles: 660727319 heartbeat IPC: 0.754476 cumulative IPC: 0.756577 (Simulation time: 0 hr 25 min 57 sec) 
Heartbeat CPU 0 instructions: 560000000 cycles: 673922690 heartbeat IPC: 0.757841 cumulative IPC: 0.756605 (Simulation time: 0 hr 26 min 25 sec) 
Heartbeat CPU 0 instructions: 570000001 cycles: 687127012 heartbeat IPC: 0.757328 cumulative IPC: 0.75662 (Simulation time: 0 hr 26 min 54 sec) 
Heartbeat CPU 0 instructions: 580000000 cycles: 700331950 heartbeat IPC: 0.757292 cumulative IPC: 0.756634 (Simulation time: 0 hr 27 min 23 sec) 
Heartbeat CPU 0 instructions: 590000003 cycles: 713563697 heartbeat IPC: 0.755758 cumulative IPC: 0.756616 (Simulation time: 0 hr 27 min 52 sec) 
Heartbeat CPU 0 instructions: 600000000 cycles: 726821606 heartbeat IPC: 0.754267 cumulative IPC: 0.756569 (Simulation time: 0 hr 28 min 21 sec) 
Finished CPU 0 instructions: 500000000 cycles: 660878307 cumulative IPC: 0.756569 (Simulation time: 0 hr 28 min 21 sec) 

CPU 0 Branch Prediction Accuracy: 99.968% MPKI: 0.002246
Number of Branches: 3513331 Number of Mispredictions: 1123
Number of LOAD Instructions: 287251172
Number of LOAD Instructions (ROI): 287251172
Number of STORE Instructions: 51060820
Number of STORE Instructions (ROI): 51060820
Total Destination Memory Operands: 51166221
Total Destination Memory Operands (ROI): 51166221
Total Source Memory Operands: 287251172
Total Source Memory Operands (ROI): 287251172
Number of DEPENDED LOADS: 9555458
Number of DEPENDED LOADS (ROI): 9555458
Number of SQ_ADDED: 51166208
Number of SQ_ADDED (ROI): 51166208
Number of LQ_ADDED: 290419970
Number of LQ_ADDED (ROI): 290419970
Number of Instructions read from trace: 600000257

ChampSim completed all CPUs

Region of Interest Statistics

CPU 0 cumulative IPC: 0.756569 instructions: 500000000 cycles: 660878307
ITLB TOTAL     ACCESS:  108951459  HIT:  108951459  MISS:          0
ITLB LOAD      ACCESS:  108951459  HIT:  108951459  MISS:          0
ITLB RFO       ACCESS:          0  HIT:          0  MISS:          0
ITLB PREFETCH  ACCESS:          0  HIT:          0  MISS:          0
ITLB WRITEBACK ACCESS:          0  HIT:          0  MISS:          0
ITLB PREFETCH  REQUESTED:          0  ISSUED:          0  USEFUL:          0  USELESS:          0
ITLB TOTAL MSHR MERGED:          0
ITLB LOAD MSHR MERGED:          0
ITLB RFO MSHR MERGED:          0
ITLB PREFETCH MSHR MERGED:          0
ITLB WRITEBACK MSHR MERGED:          0
ITLB TOTAL ACCESSES:  108951459 HITS:  108951459 MISSES:          0
ITLB LOAD ACCESSES:  108951459 HITS:  108951459 MISSES:          0
ITLB RFO ACCESSES:          0 HITS:          0 MISSES:          0
ITLB PREFETCH ACCESSES:          0 HITS:          0 MISSES:          0
ITLB WRITEBACK ACCESSES:          0 HITS:          0 MISSES:          0
ITLB RQ ACCESS:  500000001
ITLB RQ TO_CACHE:  108951459
ITLB RQ MERGED:  391048542
ITLB RQ FORWARD:          0
ITLB WQ ACCESS:          0
ITLB WQ TO_CACHE:          0
ITLB WQ MERGED:          0
ITLB WQ FORWARD:          0
DTLB TOTAL     ACCESS:  171131086  HIT:  161114773  MISS:   10016313
DTLB LOAD      ACCESS:  143471914  HIT:  135595851  MISS:    7876063
DTLB RFO       ACCESS:   27659172  HIT:   25518922  MISS:    2140250
DTLB PREFETCH  ACCESS:          0  HIT:          0  MISS:          0
DTLB WRITEBACK ACCESS:          0  HIT:          0  MISS:          0
DTLB PREFETCH  REQUESTED:          0  ISSUED:          0  USEFUL:          0  USELESS:          0
DTLB TOTAL MSHR MERGED:     360467
DTLB LOAD MSHR MERGED:     360467
DTLB RFO MSHR MERGED:          0
DTLB PREFETCH MSHR MERGED:          0
DTLB WRITEBACK MSHR MERGED:          0
DTLB TOTAL ACCESSES:  171491553 HITS:  161114773 MISSES:   10376780
DTLB LOAD ACCESSES:  143832381 HITS:  135595851 MISSES:    8236530
DTLB RFO ACCESSES:   27659172 HITS:   25518922 MISSES:    2140250
DTLB PREFETCH ACCESSES:          0 HITS:          0 MISSES:          0
DTLB WRITEBACK ACCESSES:          0 HITS:          0 MISSES:          0
DTLB RQ ACCESS:  274072359
DTLB RQ TO_CACHE:  171491553
DTLB RQ MERGED:  102580806
DTLB RQ FORWARD:          0
DTLB WQ ACCESS:          0
DTLB WQ TO_CACHE:          0
DTLB WQ MERGED:          0
DTLB WQ FORWARD:          0
L1D TOTAL     ACCESS:  350948955  HIT:  283749783  MISS:   67199172
L1D LOAD      ACCESS:  175626902  HIT:  142587701  MISS:   33039201
L1D RFO       ACCESS:   42020200  HIT:   39214676  MISS:    2805524
L1D PREFETCH  ACCESS:  133301853  HIT:  101947406  MISS:   31354447
L1D WRITEBACK ACCESS:          0  HIT:          0  MISS:          0
L1D PREFETCH  REQUESTED:  176230922  ISSUED:  175292455  USEFUL:    2180601  USELESS:   29173848
L1D TOTAL MSHR MERGED:    1482618
L1D LOAD MSHR MERGED:     704014
L1D RFO MSHR MERGED:     348934
L1D PREFETCH MSHR MERGED:     429670
L1D WRITEBACK MSHR MERGED:          0
L1D TOTAL ACCESSES:  352544128 HITS:  283862338 MISSES:   68681790
L1D LOAD ACCESSES:  176237553 HITS:  142594332 MISSES:   33643221
L1D RFO ACCESSES:   42368466 HITS:   39214676 MISSES:    3153790
L1D PREFETCH ACCESSES:  133938109 HITS:  102053330 MISSES:   31884779
L1D WRITEBACK ACCESSES:          0 HITS:          0 MISSES:          0
L1D RQ ACCESS:  231433886
L1D RQ TO_CACHE:  176230922
L1D RQ MERGED:   55196333
L1D RQ FORWARD:          0
L1D WQ ACCESS:   42638475
L1D WQ TO_CACHE:   42368466
L1D WQ MERGED:     270009
L1D WQ FORWARD:     112555
L1I TOTAL     ACCESS:  109345232  HIT:   77829528  MISS:   31515704
L1I LOAD      ACCESS:  109345232  HIT:   77829528  MISS:   31515704
L1I RFO       ACCESS:          0  HIT:          0  MISS:          0
L1I PREFETCH  ACCESS:          0  HIT:          0  MISS:          0
L1I WRITEBACK ACCESS:          0  HIT:          0  MISS:          0
L1I PREFETCH  REQUESTED:          0  ISSUED:          0  USEFUL:          0  USELESS:          0
L1I TOTAL MSHR MERGED:   30750118
L1I LOAD MSHR MERGED:   30750118
L1I RFO MSHR MERGED:          0
L1I PREFETCH MSHR MERGED:          0
L1I WRITEBACK MSHR MERGED:          0
L1I TOTAL ACCESSES:  140095352 HITS:   77829528 MISSES:   62265824
L1I LOAD ACCESSES:  140095352 HITS:   77829528 MISSES:   62265824
L1I RFO ACCESSES:          0 HITS:          0 MISSES:          0
L1I PREFETCH ACCESSES:          0 HITS:          0 MISSES:          0
L1I WRITEBACK ACCESSES:          0 HITS:          0 MISSES:          0
L1I RQ ACCESS:  500000003
L1I RQ TO_CACHE:  140095352
L1I RQ MERGED:  359904651
L1I RQ FORWARD:          0
L1I WQ ACCESS:          0
L1I WQ TO_CACHE:          0
L1I WQ MERGED:          0
L1I WQ FORWARD:          0
L2C TOTAL     ACCESS:  113698373  HIT:  110696046  MISS:    3002327
L2C LOAD      ACCESS:   64453048  HIT:   63892568  MISS:     560480
L2C RFO       ACCESS:    2802963  HIT:    2193476  MISS:     609487
L2C PREFETCH  ACCESS:   43281414  HIT:   41455330  MISS:    1826084
L2C WRITEBACK ACCESS:    3160948  HIT:    3154672  MISS:       6276
L2C PREFETCH  REQUESTED:   15134478  ISSUED:   14621131  USEFUL:    1701076  USELESS:     125014
L2C TOTAL MSHR MERGED:      12730
L2C LOAD MSHR MERGED:          0
L2C RFO MSHR MERGED:          0
L2C PREFETCH MSHR MERGED:      12730
L2C WRITEBACK MSHR MERGED:          0
L2C TOTAL ACCESSES:  113904448 HITS:  110701907 MISSES:    3202541
L2C LOAD ACCESSES:   64454912 HITS:   63894431 MISSES:     560481
L2C RFO ACCESSES:    2804856 HITS:    2195369 MISSES:     609487
L2C PREFETCH ACCESSES:   43483732 HITS:   41457435 MISSES:    2026297
L2C WRITEBACK ACCESSES:    3160948 HITS:    3154672 MISSES:       6276
L2C RQ ACCESS:   67259769
L2C RQ TO_CACHE:   67256013
L2C RQ MERGED:          0
L2C RQ FORWARD:          0
L2C WQ ACCESS:    3160948
L2C WQ TO_CACHE:    3160948
L2C WQ MERGED:          0
L2C WQ FORWARD:       5861
LLC TOTAL     ACCESS:    3714735  HIT:    1841811  MISS:    1872924
LLC LOAD      ACCESS:     560450  HIT:     496447  MISS:      64003
LLC RFO       ACCESS:     527393  HIT:     239261  MISS:     288132
LLC PREFETCH  ACCESS:    2008380  HIT:     637882  MISS:    1370498
LLC WRITEBACK ACCESS:     618512  HIT:     468221  MISS:     150291
LLC PREFETCH  REQUESTED:          0  ISSUED:          0  USEFUL:      43902  USELESS:    1320677
LLC TOTAL MSHR MERGED:       4542
LLC LOAD MSHR MERGED:          0
LLC RFO MSHR MERGED:          0
LLC PREFETCH MSHR MERGED:       4542
LLC WRITEBACK MSHR MERGED:          0
LLC TOTAL ACCESSES:    3801488 HITS:    1924022 MISSES:    1877466
LLC LOAD ACCESSES:     560480 HITS:     496477 MISSES:      64003
LLC RFO ACCESSES:     609487 HITS:     321355 MISSES:     288132
LLC PREFETCH ACCESSES:    2013009 HITS:     637969 MISSES:    1375040
LLC WRITEBACK ACCESSES:     618512 HITS:     468221 MISSES:     150291
LLC 0 RQ ACCESS:    1169968
LLC 0 RQ TO_CACHE:    1087844
LLC 0 RQ MERGED:          0
LLC 0 RQ FORWARD:          0
LLC WQ ACCESS:     618512
LLC WQ TO_CACHE:     618512
LLC WQ MERGED:          0
LLC WQ FORWARD:      82211
Major fault: 0 Minor fault: 12800
CPU 0 L1D next line prefetcher final stats
CPU 0 L2C PC-based stride prefetcher final stats
All Misses: 2271018
All Hits: 2294672
SD Algo Stats - Switches: 0 SRR-Repls: 81542 BRR-Repls: 0

DRAM Statistics
 CHANNEL 0
 RQ ROW_BUFFER_HIT:     850562  ROW_BUFFER_MISS:     872039
 DBUS_CONGESTED:     913004
 WQ ROW_BUFFER_HIT:      29758  ROW_BUFFER_MISS:     260993  FULL:          0

 AVG_CONGESTED_CYCLE: 13
LOADS RETIRED: 239375970
INSTR RETIRED: 500000000
