
*** ChampSim Multicore Out-of-Order Simulator ***

Warmup Instructions: 100000000
Simulation Instructions: 500000000
Number of CPUs: 1
LLC sets: 2048
LLC ways: 16
Clean RRIP Policies: 1220012112200121 Dirty RRIP Policies: 2200212122002121 PSEL Width: 10 Track Set: 4294967295 PSEL Mask: 1 Demote Mask: 2340021223400212DS Algo: 0Window size: 0
Off-chip DRAM Size: 4096 MB Channels: 1 Width: 64-bit Data Rate: 1600 MT/s

CPU 0 runs /mnt/beegfs/iconst01/spec2017/Cam4.trace.gz
NOT SORTED
TRACE STRING: /mnt/beegfs/iconst01/spec2017/Cam4.trace.gz
SORTED
TRACE STRING: /mnt/beegfs/iconst01/spec2017/Cam4.trace.gz
INITIAL
TRACE STRING: /mnt/beegfs/iconst01/spec2017/Cam4.trace.gz

champsim_seed used: 325

CPU 0 L1D next line prefetcher
CPU 0 L2C IP-based stride prefetcher
Initialize DRRIP state
Assign rand_sets[0]: 454  LLC: 2048
rand_sets[0]: 454
Assign rand_sets[1]: 1662  LLC: 2048
rand_sets[1]: 1662
Assign rand_sets[2]: 1921  LLC: 2048
rand_sets[2]: 1921
Assign rand_sets[3]: 1131  LLC: 2048
rand_sets[3]: 1131
Assign rand_sets[4]: 331  LLC: 2048
rand_sets[4]: 331
Assign rand_sets[5]: 1531  LLC: 2048
rand_sets[5]: 1531
Assign rand_sets[6]: 482  LLC: 2048
rand_sets[6]: 482
Assign rand_sets[7]: 1275  LLC: 2048
rand_sets[7]: 1275
Assign rand_sets[8]: 1876  LLC: 2048
rand_sets[8]: 1876
Assign rand_sets[9]: 2038  LLC: 2048
rand_sets[9]: 2038
Assign rand_sets[10]: 701  LLC: 2048
rand_sets[10]: 701
Assign rand_sets[11]: 479  LLC: 2048
rand_sets[11]: 479
Assign rand_sets[12]: 892  LLC: 2048
rand_sets[12]: 892
Assign rand_sets[13]: 1820  LLC: 2048
rand_sets[13]: 1820
Assign rand_sets[14]: 1505  LLC: 2048
rand_sets[14]: 1505
Assign rand_sets[15]: 1159  LLC: 2048
rand_sets[15]: 1159
Assign rand_sets[16]: 513  LLC: 2048
rand_sets[16]: 513
Assign rand_sets[17]: 703  LLC: 2048
rand_sets[17]: 703
Assign rand_sets[18]: 561  LLC: 2048
rand_sets[18]: 561
Assign rand_sets[19]: 990  LLC: 2048
rand_sets[19]: 990
Assign rand_sets[20]: 342  LLC: 2048
rand_sets[20]: 342
Assign rand_sets[21]: 882  LLC: 2048
rand_sets[21]: 882
Assign rand_sets[22]: 15  LLC: 2048
rand_sets[22]: 15
Assign rand_sets[23]: 71  LLC: 2048
rand_sets[23]: 71
Assign rand_sets[24]: 1127  LLC: 2048
rand_sets[24]: 1127
Assign rand_sets[25]: 1382  LLC: 2048
rand_sets[25]: 1382
Assign rand_sets[26]: 647  LLC: 2048
rand_sets[26]: 647
Assign rand_sets[27]: 857  LLC: 2048
rand_sets[27]: 857
Assign rand_sets[28]: 1450  LLC: 2048
rand_sets[28]: 1450
Assign rand_sets[29]: 1160  LLC: 2048
rand_sets[29]: 1160
Assign rand_sets[30]: 1852  LLC: 2048
rand_sets[30]: 1852
Assign rand_sets[31]: 1881  LLC: 2048
rand_sets[31]: 1881
Assign rand_sets[32]: 1770  LLC: 2048
rand_sets[32]: 1770
Assign rand_sets[33]: 1622  LLC: 2048
rand_sets[33]: 1622
Assign rand_sets[34]: 275  LLC: 2048
rand_sets[34]: 275
Assign rand_sets[35]: 635  LLC: 2048
rand_sets[35]: 635
Assign rand_sets[36]: 466  LLC: 2048
rand_sets[36]: 466
Assign rand_sets[37]: 1413  LLC: 2048
rand_sets[37]: 1413
Assign rand_sets[38]: 417  LLC: 2048
rand_sets[38]: 417
Assign rand_sets[39]: 472  LLC: 2048
rand_sets[39]: 472
Assign rand_sets[40]: 1340  LLC: 2048
rand_sets[40]: 1340
Assign rand_sets[41]: 852  LLC: 2048
rand_sets[41]: 852
Assign rand_sets[42]: 1365  LLC: 2048
rand_sets[42]: 1365
Assign rand_sets[43]: 47  LLC: 2048
rand_sets[43]: 47
Assign rand_sets[44]: 823  LLC: 2048
rand_sets[44]: 823
Assign rand_sets[45]: 686  LLC: 2048
rand_sets[45]: 686
Assign rand_sets[46]: 1637  LLC: 2048
rand_sets[46]: 1637
Assign rand_sets[47]: 1115  LLC: 2048
rand_sets[47]: 1115
Assign rand_sets[48]: 986  LLC: 2048
rand_sets[48]: 986
Assign rand_sets[49]: 258  LLC: 2048
rand_sets[49]: 258
Assign rand_sets[50]: 633  LLC: 2048
rand_sets[50]: 633
Assign rand_sets[51]: 920  LLC: 2048
rand_sets[51]: 920
Assign rand_sets[52]: 204  LLC: 2048
rand_sets[52]: 204
Assign rand_sets[53]: 227  LLC: 2048
rand_sets[53]: 227
Assign rand_sets[54]: 1818  LLC: 2048
rand_sets[54]: 1818
Assign rand_sets[55]: 886  LLC: 2048
rand_sets[55]: 886
Assign rand_sets[56]: 1422  LLC: 2048
rand_sets[56]: 1422
Assign rand_sets[57]: 607  LLC: 2048
rand_sets[57]: 607
Assign rand_sets[58]: 217  LLC: 2048
rand_sets[58]: 217
Assign rand_sets[59]: 1945  LLC: 2048
rand_sets[59]: 1945
Assign rand_sets[60]: 143  LLC: 2048
rand_sets[60]: 143
Assign rand_sets[61]: 1311  LLC: 2048
rand_sets[61]: 1311
Assign rand_sets[62]: 319  LLC: 2048
rand_sets[62]: 319
Assign rand_sets[63]: 1846  LLC: 2048
rand_sets[63]: 1846
 CLEAN-RRIP-POLICY-1: 1-2-2-0-0-1-2-1- CLEAN-RRIP-POLICY-2: 1-2-2-0-0-1-2-1-
 DIRTY-RRIP-POLICY-1: 2-2-0-0-2-1-2-1- DIRTY-RRIP-POLICY-2: 2-2-0-0-2-1-2-1-
 PSEL width: 10
Heartbeat CPU 0 instructions: 10000000 cycles: 4859184 heartbeat IPC: 2.05796 cumulative IPC: 2.05796 (Simulation time: 0 hr 0 min 17 sec) 
Heartbeat CPU 0 instructions: 20000000 cycles: 9790761 heartbeat IPC: 2.02775 cumulative IPC: 2.04274 (Simulation time: 0 hr 0 min 34 sec) 
Heartbeat CPU 0 instructions: 30000001 cycles: 14563130 heartbeat IPC: 2.0954 cumulative IPC: 2.06 (Simulation time: 0 hr 0 min 49 sec) 
Heartbeat CPU 0 instructions: 40000000 cycles: 19400164 heartbeat IPC: 2.06738 cumulative IPC: 2.06184 (Simulation time: 0 hr 1 min 6 sec) 
Heartbeat CPU 0 instructions: 50000000 cycles: 24256757 heartbeat IPC: 2.05906 cumulative IPC: 2.06128 (Simulation time: 0 hr 1 min 24 sec) 
Heartbeat CPU 0 instructions: 60000000 cycles: 29182342 heartbeat IPC: 2.03022 cumulative IPC: 2.05604 (Simulation time: 0 hr 1 min 41 sec) 
Heartbeat CPU 0 instructions: 70000001 cycles: 33957178 heartbeat IPC: 2.09431 cumulative IPC: 2.06142 (Simulation time: 0 hr 1 min 57 sec) 
Heartbeat CPU 0 instructions: 80000000 cycles: 38793473 heartbeat IPC: 2.0677 cumulative IPC: 2.0622 (Simulation time: 0 hr 2 min 14 sec) 
Heartbeat CPU 0 instructions: 90000002 cycles: 43647554 heartbeat IPC: 2.06012 cumulative IPC: 2.06197 (Simulation time: 0 hr 2 min 32 sec) 
Heartbeat CPU 0 instructions: 100000000 cycles: 48566419 heartbeat IPC: 2.03299 cumulative IPC: 2.05904 (Simulation time: 0 hr 2 min 49 sec) 

Warmup complete CPU 0 instructions: 100000001 cycles: 48566420 (Simulation time: 0 hr 2 min 49 sec) 

Heartbeat CPU 0 instructions: 110000000 cycles: 61885533 heartbeat IPC: 0.750801 cumulative IPC: 0.750801 (Simulation time: 0 hr 3 min 13 sec) 
Heartbeat CPU 0 instructions: 120000000 cycles: 75656196 heartbeat IPC: 0.726181 cumulative IPC: 0.738286 (Simulation time: 0 hr 3 min 40 sec) 
Heartbeat CPU 0 instructions: 130000000 cycles: 89428523 heartbeat IPC: 0.726094 cumulative IPC: 0.734177 (Simulation time: 0 hr 4 min 6 sec) 
Heartbeat CPU 0 instructions: 140000000 cycles: 103774822 heartbeat IPC: 0.697044 cumulative IPC: 0.724527 (Simulation time: 0 hr 4 min 32 sec) 
Heartbeat CPU 0 instructions: 150000003 cycles: 117141386 heartbeat IPC: 0.748136 cumulative IPC: 0.729129 (Simulation time: 0 hr 4 min 56 sec) 
Heartbeat CPU 0 instructions: 160000000 cycles: 130908147 heartbeat IPC: 0.726387 cumulative IPC: 0.728671 (Simulation time: 0 hr 5 min 23 sec) 
Heartbeat CPU 0 instructions: 170000001 cycles: 144709496 heartbeat IPC: 0.724567 cumulative IPC: 0.728082 (Simulation time: 0 hr 5 min 49 sec) 
Heartbeat CPU 0 instructions: 180000000 cycles: 159030356 heartbeat IPC: 0.698282 cumulative IPC: 0.724218 (Simulation time: 0 hr 6 min 15 sec) 
Heartbeat CPU 0 instructions: 190000003 cycles: 172390423 heartbeat IPC: 0.748499 cumulative IPC: 0.726838 (Simulation time: 0 hr 6 min 39 sec) 
Heartbeat CPU 0 instructions: 200000000 cycles: 186154165 heartbeat IPC: 0.726546 cumulative IPC: 0.726809 (Simulation time: 0 hr 7 min 6 sec) 
Heartbeat CPU 0 instructions: 210000002 cycles: 199965535 heartbeat IPC: 0.724041 cumulative IPC: 0.726556 (Simulation time: 0 hr 7 min 32 sec) 
Heartbeat CPU 0 instructions: 220000000 cycles: 214292898 heartbeat IPC: 0.697965 cumulative IPC: 0.724085 (Simulation time: 0 hr 7 min 59 sec) 
Heartbeat CPU 0 instructions: 230000001 cycles: 227591319 heartbeat IPC: 0.751969 cumulative IPC: 0.726156 (Simulation time: 0 hr 8 min 23 sec) 
Heartbeat CPU 0 instructions: 240000000 cycles: 241347894 heartbeat IPC: 0.726925 cumulative IPC: 0.726211 (Simulation time: 0 hr 8 min 49 sec) 
Heartbeat CPU 0 instructions: 250000001 cycles: 255108118 heartbeat IPC: 0.726732 cumulative IPC: 0.726246 (Simulation time: 0 hr 9 min 15 sec) 
Heartbeat CPU 0 instructions: 260000000 cycles: 269305848 heartbeat IPC: 0.704338 cumulative IPC: 0.724837 (Simulation time: 0 hr 9 min 42 sec) 
Heartbeat CPU 0 instructions: 270000003 cycles: 282746451 heartbeat IPC: 0.744014 cumulative IPC: 0.725937 (Simulation time: 0 hr 10 min 6 sec) 
Heartbeat CPU 0 instructions: 280000000 cycles: 296520406 heartbeat IPC: 0.726008 cumulative IPC: 0.725941 (Simulation time: 0 hr 10 min 32 sec) 
Heartbeat CPU 0 instructions: 290000001 cycles: 310323640 heartbeat IPC: 0.724468 cumulative IPC: 0.725863 (Simulation time: 0 hr 10 min 58 sec) 
Heartbeat CPU 0 instructions: 300000000 cycles: 324449697 heartbeat IPC: 0.707912 cumulative IPC: 0.724944 (Simulation time: 0 hr 11 min 25 sec) 
Heartbeat CPU 0 instructions: 310000000 cycles: 337937833 heartbeat IPC: 0.741392 cumulative IPC: 0.725711 (Simulation time: 0 hr 11 min 49 sec) 
Heartbeat CPU 0 instructions: 320000000 cycles: 351752442 heartbeat IPC: 0.723871 cumulative IPC: 0.725627 (Simulation time: 0 hr 12 min 15 sec) 
Heartbeat CPU 0 instructions: 330000000 cycles: 365566466 heartbeat IPC: 0.723902 cumulative IPC: 0.725552 (Simulation time: 0 hr 12 min 41 sec) 
Heartbeat CPU 0 instructions: 340000000 cycles: 379650787 heartbeat IPC: 0.710009 cumulative IPC: 0.724891 (Simulation time: 0 hr 13 min 7 sec) 
Heartbeat CPU 0 instructions: 350000000 cycles: 393204401 heartbeat IPC: 0.737811 cumulative IPC: 0.725399 (Simulation time: 0 hr 13 min 30 sec) 
Heartbeat CPU 0 instructions: 360000000 cycles: 407059236 heartbeat IPC: 0.72177 cumulative IPC: 0.725259 (Simulation time: 0 hr 13 min 56 sec) 
Heartbeat CPU 0 instructions: 370000003 cycles: 420877533 heartbeat IPC: 0.723678 cumulative IPC: 0.7252 (Simulation time: 0 hr 14 min 22 sec) 
Heartbeat CPU 0 instructions: 380000000 cycles: 434929424 heartbeat IPC: 0.711648 cumulative IPC: 0.724707 (Simulation time: 0 hr 14 min 48 sec) 
Heartbeat CPU 0 instructions: 390000003 cycles: 448506074 heartbeat IPC: 0.736559 cumulative IPC: 0.725109 (Simulation time: 0 hr 15 min 11 sec) 
Heartbeat CPU 0 instructions: 400000000 cycles: 462347562 heartbeat IPC: 0.722465 cumulative IPC: 0.725021 (Simulation time: 0 hr 15 min 37 sec) 
Heartbeat CPU 0 instructions: 410000000 cycles: 476133890 heartbeat IPC: 0.725356 cumulative IPC: 0.725032 (Simulation time: 0 hr 16 min 2 sec) 
Heartbeat CPU 0 instructions: 420000000 cycles: 490168364 heartbeat IPC: 0.712531 cumulative IPC: 0.724634 (Simulation time: 0 hr 16 min 28 sec) 
Heartbeat CPU 0 instructions: 430000003 cycles: 503764336 heartbeat IPC: 0.735512 cumulative IPC: 0.724959 (Simulation time: 0 hr 16 min 51 sec) 
Heartbeat CPU 0 instructions: 440000000 cycles: 517604936 heartbeat IPC: 0.722512 cumulative IPC: 0.724887 (Simulation time: 0 hr 17 min 16 sec) 
Heartbeat CPU 0 instructions: 450000000 cycles: 531416171 heartbeat IPC: 0.724048 cumulative IPC: 0.724863 (Simulation time: 0 hr 17 min 41 sec) 
Heartbeat CPU 0 instructions: 460000000 cycles: 545434976 heartbeat IPC: 0.713328 cumulative IPC: 0.724538 (Simulation time: 0 hr 18 min 6 sec) 
Heartbeat CPU 0 instructions: 470000001 cycles: 559019427 heartbeat IPC: 0.736136 cumulative IPC: 0.724846 (Simulation time: 0 hr 18 min 29 sec) 
Heartbeat CPU 0 instructions: 480000000 cycles: 572833358 heartbeat IPC: 0.723907 cumulative IPC: 0.724822 (Simulation time: 0 hr 18 min 54 sec) 
Heartbeat CPU 0 instructions: 490000002 cycles: 586614683 heartbeat IPC: 0.72562 cumulative IPC: 0.724842 (Simulation time: 0 hr 19 min 19 sec) 
Heartbeat CPU 0 instructions: 500000000 cycles: 600631824 heartbeat IPC: 0.713412 cumulative IPC: 0.724552 (Simulation time: 0 hr 19 min 44 sec) 
Heartbeat CPU 0 instructions: 510000002 cycles: 614201118 heartbeat IPC: 0.736958 cumulative IPC: 0.724849 (Simulation time: 0 hr 20 min 7 sec) 
Heartbeat CPU 0 instructions: 520000000 cycles: 628009093 heartbeat IPC: 0.724219 cumulative IPC: 0.724834 (Simulation time: 0 hr 20 min 32 sec) 
Heartbeat CPU 0 instructions: 530000003 cycles: 641770464 heartbeat IPC: 0.726672 cumulative IPC: 0.724877 (Simulation time: 0 hr 20 min 57 sec) 
Heartbeat CPU 0 instructions: 540000000 cycles: 655804978 heartbeat IPC: 0.712529 cumulative IPC: 0.724592 (Simulation time: 0 hr 21 min 22 sec) 
Heartbeat CPU 0 instructions: 550000003 cycles: 669389928 heartbeat IPC: 0.736109 cumulative IPC: 0.724844 (Simulation time: 0 hr 21 min 45 sec) 
Heartbeat CPU 0 instructions: 560000000 cycles: 683169182 heartbeat IPC: 0.725728 cumulative IPC: 0.724863 (Simulation time: 0 hr 22 min 10 sec) 
Heartbeat CPU 0 instructions: 570000001 cycles: 696959935 heartbeat IPC: 0.725124 cumulative IPC: 0.724868 (Simulation time: 0 hr 22 min 34 sec) 
Heartbeat CPU 0 instructions: 580000000 cycles: 711015892 heartbeat IPC: 0.711442 cumulative IPC: 0.724584 (Simulation time: 0 hr 23 min 0 sec) 
Heartbeat CPU 0 instructions: 590000000 cycles: 724544871 heartbeat IPC: 0.739154 cumulative IPC: 0.724875 (Simulation time: 0 hr 23 min 22 sec) 
Heartbeat CPU 0 instructions: 600000000 cycles: 738336630 heartbeat IPC: 0.725071 cumulative IPC: 0.724879 (Simulation time: 0 hr 23 min 47 sec) 
Finished CPU 0 instructions: 500000001 cycles: 689770218 cumulative IPC: 0.724879 (Simulation time: 0 hr 23 min 47 sec) 

CPU 0 Branch Prediction Accuracy: 97.5275% MPKI: 2.1997
Number of Branches: 44482865 Number of Mispredictions: 1099852
Number of LOAD Instructions: 144955155
Number of LOAD Instructions (ROI): 144955155
Number of STORE Instructions: 55921098
Number of STORE Instructions (ROI): 55921098
Total Destination Memory Operands: 57111147
Total Destination Memory Operands (ROI): 57111147
Total Source Memory Operands: 144955155
Total Source Memory Operands (ROI): 144955155
Number of DEPENDED LOADS: 13455415
Number of DEPENDED LOADS (ROI): 13455415
Number of SQ_ADDED: 57111126
Number of SQ_ADDED (ROI): 57111126
Number of LQ_ADDED: 174716678
Number of LQ_ADDED (ROI): 174716678
Number of Instructions read from trace: 600000256

ChampSim completed all CPUs

Region of Interest Statistics

CPU 0 cumulative IPC: 0.724879 instructions: 500000001 cycles: 689770218
ITLB TOTAL     ACCESS:  136053338  HIT:  136050785  MISS:       2553
ITLB LOAD      ACCESS:  136053338  HIT:  136050785  MISS:       2553
ITLB RFO       ACCESS:          0  HIT:          0  MISS:          0
ITLB PREFETCH  ACCESS:          0  HIT:          0  MISS:          0
ITLB WRITEBACK ACCESS:          0  HIT:          0  MISS:          0
ITLB PREFETCH  REQUESTED:          0  ISSUED:          0  USEFUL:          0  USELESS:          0
ITLB TOTAL MSHR MERGED:       4399
ITLB LOAD MSHR MERGED:       4399
ITLB RFO MSHR MERGED:          0
ITLB PREFETCH MSHR MERGED:          0
ITLB WRITEBACK MSHR MERGED:          0
ITLB TOTAL ACCESSES:  136057737 HITS:  136050785 MISSES:       6952
ITLB LOAD ACCESSES:  136057737 HITS:  136050785 MISSES:       6952
ITLB RFO ACCESSES:          0 HITS:          0 MISSES:          0
ITLB PREFETCH ACCESSES:          0 HITS:          0 MISSES:          0
ITLB WRITEBACK ACCESSES:          0 HITS:          0 MISSES:          0
ITLB RQ ACCESS:  500000202
ITLB RQ TO_CACHE:  136057737
ITLB RQ MERGED:  363942465
ITLB RQ FORWARD:          0
ITLB WQ ACCESS:          0
ITLB WQ TO_CACHE:          0
ITLB WQ MERGED:          0
ITLB WQ FORWARD:          0
DTLB TOTAL     ACCESS:  111537378  HIT:  111401188  MISS:     136190
DTLB LOAD      ACCESS:   78943966  HIT:   78818345  MISS:     125621
DTLB RFO       ACCESS:   32593412  HIT:   32582843  MISS:      10569
DTLB PREFETCH  ACCESS:          0  HIT:          0  MISS:          0
DTLB WRITEBACK ACCESS:          0  HIT:          0  MISS:          0
DTLB PREFETCH  REQUESTED:          0  ISSUED:          0  USEFUL:          0  USELESS:          0
DTLB TOTAL MSHR MERGED:      63310
DTLB LOAD MSHR MERGED:      50965
DTLB RFO MSHR MERGED:      12345
DTLB PREFETCH MSHR MERGED:          0
DTLB WRITEBACK MSHR MERGED:          0
DTLB TOTAL ACCESSES:  111600688 HITS:  111401188 MISSES:     199500
DTLB LOAD ACCESSES:   78994931 HITS:   78818345 MISSES:     176586
DTLB RFO ACCESSES:   32605757 HITS:   32582843 MISSES:      22914
DTLB PREFETCH ACCESSES:          0 HITS:          0 MISSES:          0
DTLB WRITEBACK ACCESSES:          0 HITS:          0 MISSES:          0
DTLB RQ ACCESS:  157180014
DTLB RQ TO_CACHE:  111600688
DTLB RQ MERGED:   45579326
DTLB RQ FORWARD:          0
DTLB WQ ACCESS:          0
DTLB WQ TO_CACHE:          0
DTLB WQ MERGED:          0
DTLB WQ FORWARD:          0
L1D TOTAL     ACCESS:  198145054  HIT:  188304182  MISS:    9840872
L1D LOAD      ACCESS:   79938390  HIT:   75677527  MISS:    4260863
L1D RFO       ACCESS:   44460105  HIT:   43559394  MISS:     900711
L1D PREFETCH  ACCESS:   73746559  HIT:   69067261  MISS:    4679298
L1D WRITEBACK ACCESS:          0  HIT:          0  MISS:          0
L1D PREFETCH  REQUESTED:   80337240  ISSUED:   79881687  USEFUL:    1821079  USELESS:    2858128
L1D TOTAL MSHR MERGED:    2560990
L1D LOAD MSHR MERGED:     520360
L1D RFO MSHR MERGED:    1489208
L1D PREFETCH MSHR MERGED:     551422
L1D WRITEBACK MSHR MERGED:          0
L1D TOTAL ACCESSES:  200730628 HITS:  188328766 MISSES:   12401862
L1D LOAD ACCESSES:   80353110 HITS:   75693397 MISSES:    4659713
L1D RFO ACCESSES:   45946262 HITS:   43559394 MISSES:    2386868
L1D PREFETCH ACCESSES:   74431256 HITS:   69075975 MISSES:    5355281
L1D WRITEBACK ACCESSES:          0 HITS:          0 MISSES:          0
L1D RQ ACCESS:  109538044
L1D RQ TO_CACHE:   80337240
L1D RQ MERGED:   29184934
L1D RQ FORWARD:          0
L1D WQ ACCESS:   47641970
L1D WQ TO_CACHE:   45946262
L1D WQ MERGED:    1695708
L1D WQ FORWARD:      24584
L1I TOTAL     ACCESS:  161523093  HIT:  161259120  MISS:     263973
L1I LOAD      ACCESS:  161523093  HIT:  161259120  MISS:     263973
L1I RFO       ACCESS:          0  HIT:          0  MISS:          0
L1I PREFETCH  ACCESS:          0  HIT:          0  MISS:          0
L1I WRITEBACK ACCESS:          0  HIT:          0  MISS:          0
L1I PREFETCH  REQUESTED:          0  ISSUED:          0  USEFUL:          0  USELESS:          0
L1I TOTAL MSHR MERGED:     260754
L1I LOAD MSHR MERGED:     260754
L1I RFO MSHR MERGED:          0
L1I PREFETCH MSHR MERGED:          0
L1I WRITEBACK MSHR MERGED:          0
L1I TOTAL ACCESSES:  161783847 HITS:  161259120 MISSES:     524727
L1I LOAD ACCESSES:  161783847 HITS:  161259120 MISSES:     524727
L1I RFO ACCESSES:          0 HITS:          0 MISSES:          0
L1I PREFETCH ACCESSES:          0 HITS:          0 MISSES:          0
L1I WRITEBACK ACCESSES:          0 HITS:          0 MISSES:          0
L1I RQ ACCESS:  500000202
L1I RQ TO_CACHE:  161783847
L1I RQ MERGED:  338216355
L1I RQ FORWARD:          0
L1I WQ ACCESS:          0
L1I WQ TO_CACHE:          0
L1I WQ MERGED:          0
L1I WQ FORWARD:          0
L2C TOTAL     ACCESS:   11771898  HIT:   10382601  MISS:    1389297
L2C LOAD      ACCESS:    4403262  HIT:    3906911  MISS:     496351
L2C RFO       ACCESS:     897594  HIT:     536159  MISS:     361435
L2C PREFETCH  ACCESS:    5283578  HIT:    4755008  MISS:     528570
L2C WRITEBACK ACCESS:    1187464  HIT:    1184523  MISS:       2941
L2C PREFETCH  REQUESTED:     504468  ISSUED:     504468  USEFUL:     114980  USELESS:     413782
L2C TOTAL MSHR MERGED:       2025
L2C LOAD MSHR MERGED:        383
L2C RFO MSHR MERGED:          0
L2C PREFETCH MSHR MERGED:       1642
L2C WRITEBACK MSHR MERGED:          0
L2C TOTAL ACCESSES:   11776286 HITS:   10382818 MISSES:    1393468
L2C LOAD ACCESSES:    4403326 HITS:    3906975 MISSES:     496351
L2C RFO ACCESSES:     897660 HITS:     536225 MISSES:     361435
L2C PREFETCH ACCESSES:    5287836 HITS:    4755095 MISSES:     532741
L2C WRITEBACK ACCESSES:    1187464 HITS:    1184523 MISSES:       2941
L2C RQ ACCESS:    5300986
L2C RQ TO_CACHE:    5300856
L2C RQ MERGED:          0
L2C RQ FORWARD:          0
L2C WQ ACCESS:    1187464
L2C WQ TO_CACHE:    1187464
L2C WQ MERGED:          0
L2C WQ FORWARD:        217
LLC TOTAL     ACCESS:    1849141  HIT:    1155169  MISS:     693972
LLC LOAD      ACCESS:     495966  HIT:     256426  MISS:     239540
LLC RFO       ACCESS:     361432  HIT:     108169  MISS:     253263
LLC PREFETCH  ACCESS:     531029  HIT:     351393  MISS:     179636
LLC WRITEBACK ACCESS:     460714  HIT:     439181  MISS:      21533
LLC PREFETCH  REQUESTED:          0  ISSUED:          0  USEFUL:      19458  USELESS:     161914
LLC TOTAL MSHR MERGED:         50
LLC LOAD MSHR MERGED:         24
LLC RFO MSHR MERGED:          0
LLC PREFETCH MSHR MERGED:         26
LLC WRITEBACK MSHR MERGED:          0
LLC TOTAL ACCESSES:    1849215 HITS:    1155193 MISSES:     694022
LLC LOAD ACCESSES:     495968 HITS:     256428 MISSES:     239540
LLC RFO ACCESSES:     361435 HITS:     108172 MISSES:     253263
LLC PREFETCH ACCESSES:     531098 HITS:     351412 MISSES:     179686
LLC WRITEBACK ACCESSES:     460714 HITS:     439181 MISSES:      21533
LLC 0 RQ ACCESS:     857403
LLC 0 RQ TO_CACHE:     857398
LLC 0 RQ MERGED:          0
LLC 0 RQ FORWARD:          0
LLC WQ ACCESS:     460714
LLC WQ TO_CACHE:     460714
LLC WQ MERGED:          0
LLC WQ FORWARD:         24
Major fault: 0 Minor fault: 3073
CPU 0 L1D next line prefetcher final stats
CPU 0 L2C PC-based stride prefetcher final stats
All Misses: 828487
All Hits: 1347351
SD Algo Stats - Switches: 0 SRR-Repls: 278434 BRR-Repls: 0

DRAM Statistics
 CHANNEL 0
 RQ ROW_BUFFER_HIT:     384078  ROW_BUFFER_MISS:     287788
 DBUS_CONGESTED:     599154
 WQ ROW_BUFFER_HIT:      36965  ROW_BUFFER_MISS:     251588  FULL:          0

 AVG_CONGESTED_CYCLE: 13
LOADS RETIRED: 120673965
INSTR RETIRED: 500000000
