
*** ChampSim Multicore Out-of-Order Simulator ***

Warmup Instructions: 100000000
Simulation Instructions: 500000000
Number of CPUs: 1
LLC sets: 2048
LLC ways: 16
Clean RRIP Policies: 1213230212132302 Dirty RRIP Policies: 2203130222031302 PSEL Width: 10 Track Set: 4294967295 PSEL Mask: 1 Demote Mask: 3040100030401000DS Algo: 0Window size: 0
Off-chip DRAM Size: 4096 MB Channels: 1 Width: 64-bit Data Rate: 1600 MT/s

CPU 0 runs /mnt/beegfs/iconst01/spec2017/Gcc.trace.gz
NOT SORTED
TRACE STRING: /mnt/beegfs/iconst01/spec2017/Gcc.trace.gz
SORTED
TRACE STRING: /mnt/beegfs/iconst01/spec2017/Gcc.trace.gz
INITIAL
TRACE STRING: /mnt/beegfs/iconst01/spec2017/Gcc.trace.gz

champsim_seed used: 269

CPU 0 L1D next line prefetcher
CPU 0 L2C IP-based stride prefetcher
Initialize DRRIP state
Assign rand_sets[0]: 454  LLC: 2048
rand_sets[0]: 454
Assign rand_sets[1]: 1662  LLC: 2048
rand_sets[1]: 1662
Assign rand_sets[2]: 1921  LLC: 2048
rand_sets[2]: 1921
Assign rand_sets[3]: 1131  LLC: 2048
rand_sets[3]: 1131
Assign rand_sets[4]: 331  LLC: 2048
rand_sets[4]: 331
Assign rand_sets[5]: 1531  LLC: 2048
rand_sets[5]: 1531
Assign rand_sets[6]: 482  LLC: 2048
rand_sets[6]: 482
Assign rand_sets[7]: 1275  LLC: 2048
rand_sets[7]: 1275
Assign rand_sets[8]: 1876  LLC: 2048
rand_sets[8]: 1876
Assign rand_sets[9]: 2038  LLC: 2048
rand_sets[9]: 2038
Assign rand_sets[10]: 701  LLC: 2048
rand_sets[10]: 701
Assign rand_sets[11]: 479  LLC: 2048
rand_sets[11]: 479
Assign rand_sets[12]: 892  LLC: 2048
rand_sets[12]: 892
Assign rand_sets[13]: 1820  LLC: 2048
rand_sets[13]: 1820
Assign rand_sets[14]: 1505  LLC: 2048
rand_sets[14]: 1505
Assign rand_sets[15]: 1159  LLC: 2048
rand_sets[15]: 1159
Assign rand_sets[16]: 513  LLC: 2048
rand_sets[16]: 513
Assign rand_sets[17]: 703  LLC: 2048
rand_sets[17]: 703
Assign rand_sets[18]: 561  LLC: 2048
rand_sets[18]: 561
Assign rand_sets[19]: 990  LLC: 2048
rand_sets[19]: 990
Assign rand_sets[20]: 342  LLC: 2048
rand_sets[20]: 342
Assign rand_sets[21]: 882  LLC: 2048
rand_sets[21]: 882
Assign rand_sets[22]: 15  LLC: 2048
rand_sets[22]: 15
Assign rand_sets[23]: 71  LLC: 2048
rand_sets[23]: 71
Assign rand_sets[24]: 1127  LLC: 2048
rand_sets[24]: 1127
Assign rand_sets[25]: 1382  LLC: 2048
rand_sets[25]: 1382
Assign rand_sets[26]: 647  LLC: 2048
rand_sets[26]: 647
Assign rand_sets[27]: 857  LLC: 2048
rand_sets[27]: 857
Assign rand_sets[28]: 1450  LLC: 2048
rand_sets[28]: 1450
Assign rand_sets[29]: 1160  LLC: 2048
rand_sets[29]: 1160
Assign rand_sets[30]: 1852  LLC: 2048
rand_sets[30]: 1852
Assign rand_sets[31]: 1881  LLC: 2048
rand_sets[31]: 1881
Assign rand_sets[32]: 1770  LLC: 2048
rand_sets[32]: 1770
Assign rand_sets[33]: 1622  LLC: 2048
rand_sets[33]: 1622
Assign rand_sets[34]: 275  LLC: 2048
rand_sets[34]: 275
Assign rand_sets[35]: 635  LLC: 2048
rand_sets[35]: 635
Assign rand_sets[36]: 466  LLC: 2048
rand_sets[36]: 466
Assign rand_sets[37]: 1413  LLC: 2048
rand_sets[37]: 1413
Assign rand_sets[38]: 417  LLC: 2048
rand_sets[38]: 417
Assign rand_sets[39]: 472  LLC: 2048
rand_sets[39]: 472
Assign rand_sets[40]: 1340  LLC: 2048
rand_sets[40]: 1340
Assign rand_sets[41]: 852  LLC: 2048
rand_sets[41]: 852
Assign rand_sets[42]: 1365  LLC: 2048
rand_sets[42]: 1365
Assign rand_sets[43]: 47  LLC: 2048
rand_sets[43]: 47
Assign rand_sets[44]: 823  LLC: 2048
rand_sets[44]: 823
Assign rand_sets[45]: 686  LLC: 2048
rand_sets[45]: 686
Assign rand_sets[46]: 1637  LLC: 2048
rand_sets[46]: 1637
Assign rand_sets[47]: 1115  LLC: 2048
rand_sets[47]: 1115
Assign rand_sets[48]: 986  LLC: 2048
rand_sets[48]: 986
Assign rand_sets[49]: 258  LLC: 2048
rand_sets[49]: 258
Assign rand_sets[50]: 633  LLC: 2048
rand_sets[50]: 633
Assign rand_sets[51]: 920  LLC: 2048
rand_sets[51]: 920
Assign rand_sets[52]: 204  LLC: 2048
rand_sets[52]: 204
Assign rand_sets[53]: 227  LLC: 2048
rand_sets[53]: 227
Assign rand_sets[54]: 1818  LLC: 2048
rand_sets[54]: 1818
Assign rand_sets[55]: 886  LLC: 2048
rand_sets[55]: 886
Assign rand_sets[56]: 1422  LLC: 2048
rand_sets[56]: 1422
Assign rand_sets[57]: 607  LLC: 2048
rand_sets[57]: 607
Assign rand_sets[58]: 217  LLC: 2048
rand_sets[58]: 217
Assign rand_sets[59]: 1945  LLC: 2048
rand_sets[59]: 1945
Assign rand_sets[60]: 143  LLC: 2048
rand_sets[60]: 143
Assign rand_sets[61]: 1311  LLC: 2048
rand_sets[61]: 1311
Assign rand_sets[62]: 319  LLC: 2048
rand_sets[62]: 319
Assign rand_sets[63]: 1846  LLC: 2048
rand_sets[63]: 1846
 CLEAN-RRIP-POLICY-1: 1-2-1-3-2-3-0-2- CLEAN-RRIP-POLICY-2: 1-2-1-3-2-3-0-2-
 DIRTY-RRIP-POLICY-1: 2-2-0-3-1-3-0-2- DIRTY-RRIP-POLICY-2: 2-2-0-3-1-3-0-2-
 PSEL width: 10
Heartbeat CPU 0 instructions: 10000001 cycles: 7315980 heartbeat IPC: 1.36687 cumulative IPC: 1.36687 (Simulation time: 0 hr 0 min 14 sec) 
Heartbeat CPU 0 instructions: 20000000 cycles: 14307714 heartbeat IPC: 1.43026 cumulative IPC: 1.39785 (Simulation time: 0 hr 0 min 27 sec) 
Heartbeat CPU 0 instructions: 30000001 cycles: 21020652 heartbeat IPC: 1.48966 cumulative IPC: 1.42717 (Simulation time: 0 hr 0 min 42 sec) 
Heartbeat CPU 0 instructions: 40000000 cycles: 27481430 heartbeat IPC: 1.5478 cumulative IPC: 1.45553 (Simulation time: 0 hr 0 min 57 sec) 
Heartbeat CPU 0 instructions: 50000001 cycles: 33583219 heartbeat IPC: 1.63886 cumulative IPC: 1.48884 (Simulation time: 0 hr 1 min 11 sec) 
Heartbeat CPU 0 instructions: 60000000 cycles: 40064466 heartbeat IPC: 1.54291 cumulative IPC: 1.49759 (Simulation time: 0 hr 1 min 26 sec) 
Heartbeat CPU 0 instructions: 70000000 cycles: 47103676 heartbeat IPC: 1.42061 cumulative IPC: 1.48608 (Simulation time: 0 hr 1 min 39 sec) 
Heartbeat CPU 0 instructions: 80000000 cycles: 54194060 heartbeat IPC: 1.41036 cumulative IPC: 1.47618 (Simulation time: 0 hr 1 min 53 sec) 
Heartbeat CPU 0 instructions: 90000003 cycles: 61198883 heartbeat IPC: 1.42759 cumulative IPC: 1.47062 (Simulation time: 0 hr 2 min 6 sec) 
Heartbeat CPU 0 instructions: 100000000 cycles: 68366499 heartbeat IPC: 1.39516 cumulative IPC: 1.4627 (Simulation time: 0 hr 2 min 20 sec) 

Warmup complete CPU 0 instructions: 100000004 cycles: 68366500 (Simulation time: 0 hr 2 min 20 sec) 

Heartbeat CPU 0 instructions: 110000003 cycles: 95999918 heartbeat IPC: 0.361881 cumulative IPC: 0.361881 (Simulation time: 0 hr 2 min 46 sec) 
Heartbeat CPU 0 instructions: 120000000 cycles: 123451556 heartbeat IPC: 0.364277 cumulative IPC: 0.363075 (Simulation time: 0 hr 3 min 12 sec) 
Heartbeat CPU 0 instructions: 130000000 cycles: 148429978 heartbeat IPC: 0.400346 cumulative IPC: 0.374703 (Simulation time: 0 hr 3 min 37 sec) 
Heartbeat CPU 0 instructions: 140000000 cycles: 178015660 heartbeat IPC: 0.338001 cumulative IPC: 0.3648 (Simulation time: 0 hr 4 min 3 sec) 
Heartbeat CPU 0 instructions: 150000000 cycles: 207905055 heartbeat IPC: 0.334567 cumulative IPC: 0.358324 (Simulation time: 0 hr 4 min 28 sec) 
Heartbeat CPU 0 instructions: 160000000 cycles: 235338404 heartbeat IPC: 0.36452 cumulative IPC: 0.359342 (Simulation time: 0 hr 4 min 53 sec) 
Heartbeat CPU 0 instructions: 170000001 cycles: 263331429 heartbeat IPC: 0.357232 cumulative IPC: 0.359039 (Simulation time: 0 hr 5 min 20 sec) 
Heartbeat CPU 0 instructions: 180000000 cycles: 291778979 heartbeat IPC: 0.351524 cumulative IPC: 0.358082 (Simulation time: 0 hr 5 min 46 sec) 
Heartbeat CPU 0 instructions: 190000002 cycles: 319776745 heartbeat IPC: 0.357171 cumulative IPC: 0.357981 (Simulation time: 0 hr 6 min 12 sec) 
Heartbeat CPU 0 instructions: 200000000 cycles: 348127069 heartbeat IPC: 0.35273 cumulative IPC: 0.357448 (Simulation time: 0 hr 6 min 38 sec) 
Heartbeat CPU 0 instructions: 210000002 cycles: 375986303 heartbeat IPC: 0.358947 cumulative IPC: 0.357584 (Simulation time: 0 hr 7 min 4 sec) 
Heartbeat CPU 0 instructions: 220000000 cycles: 405185804 heartbeat IPC: 0.342472 cumulative IPC: 0.356274 (Simulation time: 0 hr 7 min 29 sec) 
Heartbeat CPU 0 instructions: 230000000 cycles: 432711277 heartbeat IPC: 0.3633 cumulative IPC: 0.356805 (Simulation time: 0 hr 7 min 54 sec) 
Heartbeat CPU 0 instructions: 240000000 cycles: 458642140 heartbeat IPC: 0.385641 cumulative IPC: 0.358721 (Simulation time: 0 hr 8 min 19 sec) 
Heartbeat CPU 0 instructions: 250000000 cycles: 488759289 heartbeat IPC: 0.332037 cumulative IPC: 0.356809 (Simulation time: 0 hr 8 min 46 sec) 
Heartbeat CPU 0 instructions: 260000000 cycles: 515845691 heartbeat IPC: 0.369189 cumulative IPC: 0.357559 (Simulation time: 0 hr 9 min 11 sec) 
Heartbeat CPU 0 instructions: 270000003 cycles: 544260715 heartbeat IPC: 0.351927 cumulative IPC: 0.357222 (Simulation time: 0 hr 9 min 38 sec) 
Heartbeat CPU 0 instructions: 280000000 cycles: 572439457 heartbeat IPC: 0.354877 cumulative IPC: 0.357091 (Simulation time: 0 hr 10 min 5 sec) 
Heartbeat CPU 0 instructions: 290000000 cycles: 601365818 heartbeat IPC: 0.345705 cumulative IPC: 0.356473 (Simulation time: 0 hr 10 min 31 sec) 
Heartbeat CPU 0 instructions: 300000000 cycles: 631402238 heartbeat IPC: 0.332929 cumulative IPC: 0.355217 (Simulation time: 0 hr 10 min 57 sec) 
Heartbeat CPU 0 instructions: 310000001 cycles: 660844585 heartbeat IPC: 0.339647 cumulative IPC: 0.354443 (Simulation time: 0 hr 11 min 22 sec) 
Heartbeat CPU 0 instructions: 320000000 cycles: 689099140 heartbeat IPC: 0.353925 cumulative IPC: 0.35442 (Simulation time: 0 hr 11 min 48 sec) 
Heartbeat CPU 0 instructions: 330000000 cycles: 717747056 heartbeat IPC: 0.349066 cumulative IPC: 0.354184 (Simulation time: 0 hr 12 min 13 sec) 
Heartbeat CPU 0 instructions: 340000000 cycles: 747019616 heartbeat IPC: 0.341617 cumulative IPC: 0.353642 (Simulation time: 0 hr 12 min 38 sec) 
Heartbeat CPU 0 instructions: 350000003 cycles: 774079959 heartbeat IPC: 0.369545 cumulative IPC: 0.354251 (Simulation time: 0 hr 13 min 3 sec) 
Heartbeat CPU 0 instructions: 360000000 cycles: 802246976 heartbeat IPC: 0.355025 cumulative IPC: 0.354281 (Simulation time: 0 hr 13 min 27 sec) 
Heartbeat CPU 0 instructions: 370000000 cycles: 830430497 heartbeat IPC: 0.354817 cumulative IPC: 0.354301 (Simulation time: 0 hr 13 min 51 sec) 
Heartbeat CPU 0 instructions: 380000000 cycles: 858935443 heartbeat IPC: 0.350816 cumulative IPC: 0.354175 (Simulation time: 0 hr 14 min 15 sec) 
Heartbeat CPU 0 instructions: 390000001 cycles: 886543480 heartbeat IPC: 0.362213 cumulative IPC: 0.354447 (Simulation time: 0 hr 14 min 39 sec) 
Heartbeat CPU 0 instructions: 400000000 cycles: 915174511 heartbeat IPC: 0.349271 cumulative IPC: 0.354272 (Simulation time: 0 hr 15 min 3 sec) 
Heartbeat CPU 0 instructions: 410000001 cycles: 942472396 heartbeat IPC: 0.366329 cumulative IPC: 0.354648 (Simulation time: 0 hr 15 min 27 sec) 
Heartbeat CPU 0 instructions: 420000000 cycles: 969776901 heartbeat IPC: 0.36624 cumulative IPC: 0.354999 (Simulation time: 0 hr 15 min 51 sec) 
Heartbeat CPU 0 instructions: 430000002 cycles: 997484354 heartbeat IPC: 0.360914 cumulative IPC: 0.355176 (Simulation time: 0 hr 16 min 15 sec) 
Heartbeat CPU 0 instructions: 440000000 cycles: 1027064053 heartbeat IPC: 0.33807 cumulative IPC: 0.354648 (Simulation time: 0 hr 16 min 39 sec) 
Heartbeat CPU 0 instructions: 450000002 cycles: 1056303447 heartbeat IPC: 0.342004 cumulative IPC: 0.354274 (Simulation time: 0 hr 17 min 3 sec) 
Heartbeat CPU 0 instructions: 460000000 cycles: 1084009264 heartbeat IPC: 0.360935 cumulative IPC: 0.354455 (Simulation time: 0 hr 17 min 27 sec) 
Heartbeat CPU 0 instructions: 470000000 cycles: 1111642632 heartbeat IPC: 0.361881 cumulative IPC: 0.354652 (Simulation time: 0 hr 17 min 51 sec) 
Heartbeat CPU 0 instructions: 480000000 cycles: 1139528773 heartbeat IPC: 0.358601 cumulative IPC: 0.354755 (Simulation time: 0 hr 18 min 15 sec) 
Heartbeat CPU 0 instructions: 490000000 cycles: 1167118888 heartbeat IPC: 0.362449 cumulative IPC: 0.354948 (Simulation time: 0 hr 18 min 39 sec) 
Heartbeat CPU 0 instructions: 500000000 cycles: 1195441978 heartbeat IPC: 0.353069 cumulative IPC: 0.354901 (Simulation time: 0 hr 19 min 3 sec) 
Heartbeat CPU 0 instructions: 510000000 cycles: 1229570911 heartbeat IPC: 0.293007 cumulative IPC: 0.353082 (Simulation time: 0 hr 19 min 30 sec) 
Heartbeat CPU 0 instructions: 520000000 cycles: 1257574991 heartbeat IPC: 0.357091 cumulative IPC: 0.353176 (Simulation time: 0 hr 19 min 55 sec) 
Heartbeat CPU 0 instructions: 530000001 cycles: 1287124138 heartbeat IPC: 0.338419 cumulative IPC: 0.352818 (Simulation time: 0 hr 20 min 20 sec) 
Heartbeat CPU 0 instructions: 540000000 cycles: 1315230912 heartbeat IPC: 0.355786 cumulative IPC: 0.352885 (Simulation time: 0 hr 20 min 45 sec) 
Heartbeat CPU 0 instructions: 550000001 cycles: 1344412818 heartbeat IPC: 0.342678 cumulative IPC: 0.352652 (Simulation time: 0 hr 21 min 12 sec) 
Heartbeat CPU 0 instructions: 560000000 cycles: 1369812585 heartbeat IPC: 0.393704 cumulative IPC: 0.353453 (Simulation time: 0 hr 21 min 36 sec) 
Heartbeat CPU 0 instructions: 570000000 cycles: 1399308489 heartbeat IPC: 0.33903 cumulative IPC: 0.353133 (Simulation time: 0 hr 22 min 2 sec) 
Heartbeat CPU 0 instructions: 580000000 cycles: 1427269723 heartbeat IPC: 0.357638 cumulative IPC: 0.353226 (Simulation time: 0 hr 22 min 27 sec) 
Heartbeat CPU 0 instructions: 590000001 cycles: 1452007039 heartbeat IPC: 0.404248 cumulative IPC: 0.354138 (Simulation time: 0 hr 22 min 50 sec) 
Heartbeat CPU 0 instructions: 600000000 cycles: 1478078387 heartbeat IPC: 0.383563 cumulative IPC: 0.354682 (Simulation time: 0 hr 23 min 15 sec) 
Finished CPU 0 instructions: 500000000 cycles: 1409711909 cumulative IPC: 0.354682 (Simulation time: 0 hr 23 min 15 sec) 

CPU 0 Branch Prediction Accuracy: 86.4311% MPKI: 26.2662
Number of Branches: 96788573 Number of Mispredictions: 13133102
Number of LOAD Instructions: 164682285
Number of LOAD Instructions (ROI): 164682285
Number of STORE Instructions: 78194750
Number of STORE Instructions (ROI): 78194750
Total Destination Memory Operands: 83268534
Total Destination Memory Operands (ROI): 83268534
Total Source Memory Operands: 164712438
Total Source Memory Operands (ROI): 164712438
Number of DEPENDED LOADS: 7057065
Number of DEPENDED LOADS (ROI): 7057065
Number of SQ_ADDED: 83268522
Number of SQ_ADDED (ROI): 83268522
Number of LQ_ADDED: 236783996
Number of LQ_ADDED (ROI): 236783996
Number of Instructions read from trace: 600000066

ChampSim completed all CPUs

Region of Interest Statistics

CPU 0 cumulative IPC: 0.354682 instructions: 500000000 cycles: 1409711909
ITLB TOTAL     ACCESS:  100519931  HIT:  100315485  MISS:     204446
ITLB LOAD      ACCESS:  100519931  HIT:  100315485  MISS:     204446
ITLB RFO       ACCESS:          0  HIT:          0  MISS:          0
ITLB PREFETCH  ACCESS:          0  HIT:          0  MISS:          0
ITLB WRITEBACK ACCESS:          0  HIT:          0  MISS:          0
ITLB PREFETCH  REQUESTED:          0  ISSUED:          0  USEFUL:          0  USELESS:          0
ITLB TOTAL MSHR MERGED:     172424
ITLB LOAD MSHR MERGED:     172424
ITLB RFO MSHR MERGED:          0
ITLB PREFETCH MSHR MERGED:          0
ITLB WRITEBACK MSHR MERGED:          0
ITLB TOTAL ACCESSES:  100692355 HITS:  100315485 MISSES:     376870
ITLB LOAD ACCESSES:  100692355 HITS:  100315485 MISSES:     376870
ITLB RFO ACCESSES:          0 HITS:          0 MISSES:          0
ITLB PREFETCH ACCESSES:          0 HITS:          0 MISSES:          0
ITLB WRITEBACK ACCESSES:          0 HITS:          0 MISSES:          0
ITLB RQ ACCESS:  500000057
ITLB RQ TO_CACHE:  100692355
ITLB RQ MERGED:  399307702
ITLB RQ FORWARD:          0
ITLB WQ ACCESS:          0
ITLB WQ TO_CACHE:          0
ITLB WQ MERGED:          0
ITLB WQ FORWARD:          0
DTLB TOTAL     ACCESS:  165339233  HIT:  164704881  MISS:     634352
DTLB LOAD      ACCESS:  106294335  HIT:  105724412  MISS:     569923
DTLB RFO       ACCESS:   59044898  HIT:   58980469  MISS:      64429
DTLB PREFETCH  ACCESS:          0  HIT:          0  MISS:          0
DTLB WRITEBACK ACCESS:          0  HIT:          0  MISS:          0
DTLB PREFETCH  REQUESTED:          0  ISSUED:          0  USEFUL:          0  USELESS:          0
DTLB TOTAL MSHR MERGED:      99973
DTLB LOAD MSHR MERGED:      59461
DTLB RFO MSHR MERGED:      40512
DTLB PREFETCH MSHR MERGED:          0
DTLB WRITEBACK MSHR MERGED:          0
DTLB TOTAL ACCESSES:  165439206 HITS:  164704881 MISSES:     734325
DTLB LOAD ACCESSES:  106353796 HITS:  105724412 MISSES:     629384
DTLB RFO ACCESSES:   59085410 HITS:   58980469 MISSES:     104941
DTLB PREFETCH ACCESSES:          0 HITS:          0 MISSES:          0
DTLB WRITEBACK ACCESSES:          0 HITS:          0 MISSES:          0
DTLB RQ ACCESS:  200313831
DTLB RQ TO_CACHE:  165439206
DTLB RQ MERGED:   34874625
DTLB RQ FORWARD:          0
DTLB WQ ACCESS:          0
DTLB WQ TO_CACHE:          0
DTLB WQ MERGED:          0
DTLB WQ FORWARD:          0
L1D TOTAL     ACCESS:  281844375  HIT:  273935008  MISS:    7909367
L1D LOAD      ACCESS:  110420745  HIT:  107143088  MISS:    3277657
L1D RFO       ACCESS:   67121761  HIT:   66231223  MISS:     890538
L1D PREFETCH  ACCESS:  104301869  HIT:  100560697  MISS:    3741172
L1D WRITEBACK ACCESS:          0  HIT:          0  MISS:          0
L1D PREFETCH  REQUESTED:  110819753  ISSUED:  109120457  USEFUL:    1661836  USELESS:    2079300
L1D TOTAL MSHR MERGED:    2864938
L1D LOAD MSHR MERGED:     496110
L1D RFO MSHR MERGED:    1864142
L1D PREFETCH MSHR MERGED:     504686
L1D WRITEBACK MSHR MERGED:          0
L1D TOTAL ACCESSES:  284736739 HITS:  273962434 MISSES:   10774305
L1D LOAD ACCESSES:  110821195 HITS:  107144530 MISSES:    3676665
L1D RFO ACCESSES:   68974151 HITS:   66231223 MISSES:    2742928
L1D PREFETCH ACCESSES:  104941393 HITS:  100586681 MISSES:    4354712
L1D WRITEBACK ACCESSES:          0 HITS:          0 MISSES:          0
L1D RQ ACCESS:  130761228
L1D RQ TO_CACHE:  110819756
L1D RQ MERGED:   19940030
L1D RQ FORWARD:          0
L1D WQ ACCESS:   69552603
L1D WQ TO_CACHE:   68974152
L1D WQ MERGED:     578451
L1D WQ FORWARD:      27426
L1I TOTAL     ACCESS:  126567131  HIT:  122328577  MISS:    4238554
L1I LOAD      ACCESS:  126567131  HIT:  122328577  MISS:    4238554
L1I RFO       ACCESS:          0  HIT:          0  MISS:          0
L1I PREFETCH  ACCESS:          0  HIT:          0  MISS:          0
L1I WRITEBACK ACCESS:          0  HIT:          0  MISS:          0
L1I PREFETCH  REQUESTED:          0  ISSUED:          0  USEFUL:          0  USELESS:          0
L1I TOTAL MSHR MERGED:    1834690
L1I LOAD MSHR MERGED:    1834690
L1I RFO MSHR MERGED:          0
L1I PREFETCH MSHR MERGED:          0
L1I WRITEBACK MSHR MERGED:          0
L1I TOTAL ACCESSES:  128401824 HITS:  122328577 MISSES:    6073247
L1I LOAD ACCESSES:  128401824 HITS:  122328577 MISSES:    6073247
L1I RFO ACCESSES:          0 HITS:          0 MISSES:          0
L1I PREFETCH ACCESSES:          0 HITS:          0 MISSES:          0
L1I WRITEBACK ACCESSES:          0 HITS:          0 MISSES:          0
L1I RQ ACCESS:  500000057
L1I RQ TO_CACHE:  128401824
L1I RQ MERGED:  371598233
L1I RQ FORWARD:          0
L1I WQ ACCESS:          0
L1I WQ TO_CACHE:          0
L1I WQ MERGED:          0
L1I WQ FORWARD:          0
L2C TOTAL     ACCESS:   14905279  HIT:   11158800  MISS:    3746479
L2C LOAD      ACCESS:    7418901  HIT:    5098872  MISS:    2320029
L2C RFO       ACCESS:     878688  HIT:     409891  MISS:     468797
L2C PREFETCH  ACCESS:    4568441  HIT:    3628041  MISS:     940400
L2C WRITEBACK ACCESS:    2039249  HIT:    2021996  MISS:      17253
L2C PREFETCH  REQUESTED:     842826  ISSUED:     842826  USEFUL:     203365  USELESS:     736741
L2C TOTAL MSHR MERGED:       7096
L2C LOAD MSHR MERGED:        809
L2C RFO MSHR MERGED:          0
L2C PREFETCH MSHR MERGED:       6287
L2C WRITEBACK MSHR MERGED:          0
L2C TOTAL ACCESSES:   14913256 HITS:   11159249 MISSES:    3754007
L2C LOAD ACCESSES:    7419109 HITS:    5099080 MISSES:    2320029
L2C RFO ACCESSES:     878786 HITS:     409989 MISSES:     468797
L2C PREFETCH ACCESSES:    4576112 HITS:    3628184 MISSES:     947928
L2C WRITEBACK ACCESSES:    2039249 HITS:    2021996 MISSES:      17253
L2C RQ ACCESS:    8297898
L2C RQ TO_CACHE:    8297592
L2C RQ MERGED:          0
L2C RQ FORWARD:          0
L2C WQ ACCESS:    2039249
L2C WQ TO_CACHE:    2039249
L2C WQ MERGED:          0
L2C WQ FORWARD:        449
LLC TOTAL     ACCESS:    4609823  HIT:    3976035  MISS:     633788
LLC LOAD      ACCESS:    2319204  HIT:    2068410  MISS:     250794
LLC RFO       ACCESS:     468787  HIT:     408802  MISS:      59985
LLC PREFETCH  ACCESS:     941532  HIT:     667090  MISS:     274442
LLC WRITEBACK ACCESS:     880300  HIT:     831733  MISS:      48567
LLC PREFETCH  REQUESTED:          0  ISSUED:          0  USEFUL:      15577  USELESS:     259015
LLC TOTAL MSHR MERGED:         93
LLC LOAD MSHR MERGED:         27
LLC RFO MSHR MERGED:          0
LLC PREFETCH MSHR MERGED:         66
LLC WRITEBACK MSHR MERGED:          0
LLC TOTAL ACCESSES:    4609952 HITS:    3976071 MISSES:     633881
LLC LOAD ACCESSES:    2319220 HITS:    2068426 MISSES:     250794
LLC RFO ACCESSES:     468797 HITS:     408812 MISSES:      59985
LLC PREFETCH ACCESSES:     941635 HITS:     667100 MISSES:     274535
LLC WRITEBACK ACCESSES:     880300 HITS:     831733 MISSES:      48567
LLC 0 RQ ACCESS:    2788017
LLC 0 RQ TO_CACHE:    2787991
LLC 0 RQ MERGED:          0
LLC 0 RQ FORWARD:          0
LLC WQ ACCESS:     880300
LLC WQ TO_CACHE:     880300
LLC WQ MERGED:          0
LLC WQ FORWARD:         36
Major fault: 0 Minor fault: 12862
CPU 0 L1D next line prefetcher final stats
CPU 0 L2C PC-based stride prefetcher final stats
All Misses: 760205
All Hits: 4666624
SD Algo Stats - Switches: 0 SRR-Repls: 297899 BRR-Repls: 0

DRAM Statistics
 CHANNEL 0
 RQ ROW_BUFFER_HIT:     122129  ROW_BUFFER_MISS:     462138
 DBUS_CONGESTED:     323180
 WQ ROW_BUFFER_HIT:      10820  ROW_BUFFER_MISS:     155397  FULL:          0

 AVG_CONGESTED_CYCLE: 13
LOADS RETIRED: 136549171
INSTR RETIRED: 500000000
