
*** ChampSim Multicore Out-of-Order Simulator ***

Warmup Instructions: 100000000
Simulation Instructions: 500000000
Number of CPUs: 1
LLC sets: 2048
LLC ways: 16
Clean RRIP Policies: 1213230112132301 Dirty RRIP Policies: 2213130122131301 PSEL Width: 10 Track Set: 4294967295 PSEL Mask: 1 Demote Mask: 1330101013301010DS Algo: 0Window size: 0
Off-chip DRAM Size: 4096 MB Channels: 1 Width: 64-bit Data Rate: 1600 MT/s

CPU 0 runs /mnt/beegfs/iconst01/spec2017/cactuBSSN.trace.gz
NOT SORTED
TRACE STRING: /mnt/beegfs/iconst01/spec2017/cactuBSSN.trace.gz
SORTED
TRACE STRING: /mnt/beegfs/iconst01/spec2017/cactuBSSN.trace.gz
INITIAL
TRACE STRING: /mnt/beegfs/iconst01/spec2017/cactuBSSN.trace.gz

champsim_seed used: 838

CPU 0 L1D next line prefetcher
CPU 0 L2C IP-based stride prefetcher
Initialize DRRIP state
Assign rand_sets[0]: 454  LLC: 2048
rand_sets[0]: 454
Assign rand_sets[1]: 1662  LLC: 2048
rand_sets[1]: 1662
Assign rand_sets[2]: 1921  LLC: 2048
rand_sets[2]: 1921
Assign rand_sets[3]: 1131  LLC: 2048
rand_sets[3]: 1131
Assign rand_sets[4]: 331  LLC: 2048
rand_sets[4]: 331
Assign rand_sets[5]: 1531  LLC: 2048
rand_sets[5]: 1531
Assign rand_sets[6]: 482  LLC: 2048
rand_sets[6]: 482
Assign rand_sets[7]: 1275  LLC: 2048
rand_sets[7]: 1275
Assign rand_sets[8]: 1876  LLC: 2048
rand_sets[8]: 1876
Assign rand_sets[9]: 2038  LLC: 2048
rand_sets[9]: 2038
Assign rand_sets[10]: 701  LLC: 2048
rand_sets[10]: 701
Assign rand_sets[11]: 479  LLC: 2048
rand_sets[11]: 479
Assign rand_sets[12]: 892  LLC: 2048
rand_sets[12]: 892
Assign rand_sets[13]: 1820  LLC: 2048
rand_sets[13]: 1820
Assign rand_sets[14]: 1505  LLC: 2048
rand_sets[14]: 1505
Assign rand_sets[15]: 1159  LLC: 2048
rand_sets[15]: 1159
Assign rand_sets[16]: 513  LLC: 2048
rand_sets[16]: 513
Assign rand_sets[17]: 703  LLC: 2048
rand_sets[17]: 703
Assign rand_sets[18]: 561  LLC: 2048
rand_sets[18]: 561
Assign rand_sets[19]: 990  LLC: 2048
rand_sets[19]: 990
Assign rand_sets[20]: 342  LLC: 2048
rand_sets[20]: 342
Assign rand_sets[21]: 882  LLC: 2048
rand_sets[21]: 882
Assign rand_sets[22]: 15  LLC: 2048
rand_sets[22]: 15
Assign rand_sets[23]: 71  LLC: 2048
rand_sets[23]: 71
Assign rand_sets[24]: 1127  LLC: 2048
rand_sets[24]: 1127
Assign rand_sets[25]: 1382  LLC: 2048
rand_sets[25]: 1382
Assign rand_sets[26]: 647  LLC: 2048
rand_sets[26]: 647
Assign rand_sets[27]: 857  LLC: 2048
rand_sets[27]: 857
Assign rand_sets[28]: 1450  LLC: 2048
rand_sets[28]: 1450
Assign rand_sets[29]: 1160  LLC: 2048
rand_sets[29]: 1160
Assign rand_sets[30]: 1852  LLC: 2048
rand_sets[30]: 1852
Assign rand_sets[31]: 1881  LLC: 2048
rand_sets[31]: 1881
Assign rand_sets[32]: 1770  LLC: 2048
rand_sets[32]: 1770
Assign rand_sets[33]: 1622  LLC: 2048
rand_sets[33]: 1622
Assign rand_sets[34]: 275  LLC: 2048
rand_sets[34]: 275
Assign rand_sets[35]: 635  LLC: 2048
rand_sets[35]: 635
Assign rand_sets[36]: 466  LLC: 2048
rand_sets[36]: 466
Assign rand_sets[37]: 1413  LLC: 2048
rand_sets[37]: 1413
Assign rand_sets[38]: 417  LLC: 2048
rand_sets[38]: 417
Assign rand_sets[39]: 472  LLC: 2048
rand_sets[39]: 472
Assign rand_sets[40]: 1340  LLC: 2048
rand_sets[40]: 1340
Assign rand_sets[41]: 852  LLC: 2048
rand_sets[41]: 852
Assign rand_sets[42]: 1365  LLC: 2048
rand_sets[42]: 1365
Assign rand_sets[43]: 47  LLC: 2048
rand_sets[43]: 47
Assign rand_sets[44]: 823  LLC: 2048
rand_sets[44]: 823
Assign rand_sets[45]: 686  LLC: 2048
rand_sets[45]: 686
Assign rand_sets[46]: 1637  LLC: 2048
rand_sets[46]: 1637
Assign rand_sets[47]: 1115  LLC: 2048
rand_sets[47]: 1115
Assign rand_sets[48]: 986  LLC: 2048
rand_sets[48]: 986
Assign rand_sets[49]: 258  LLC: 2048
rand_sets[49]: 258
Assign rand_sets[50]: 633  LLC: 2048
rand_sets[50]: 633
Assign rand_sets[51]: 920  LLC: 2048
rand_sets[51]: 920
Assign rand_sets[52]: 204  LLC: 2048
rand_sets[52]: 204
Assign rand_sets[53]: 227  LLC: 2048
rand_sets[53]: 227
Assign rand_sets[54]: 1818  LLC: 2048
rand_sets[54]: 1818
Assign rand_sets[55]: 886  LLC: 2048
rand_sets[55]: 886
Assign rand_sets[56]: 1422  LLC: 2048
rand_sets[56]: 1422
Assign rand_sets[57]: 607  LLC: 2048
rand_sets[57]: 607
Assign rand_sets[58]: 217  LLC: 2048
rand_sets[58]: 217
Assign rand_sets[59]: 1945  LLC: 2048
rand_sets[59]: 1945
Assign rand_sets[60]: 143  LLC: 2048
rand_sets[60]: 143
Assign rand_sets[61]: 1311  LLC: 2048
rand_sets[61]: 1311
Assign rand_sets[62]: 319  LLC: 2048
rand_sets[62]: 319
Assign rand_sets[63]: 1846  LLC: 2048
rand_sets[63]: 1846
 CLEAN-RRIP-POLICY-1: 1-2-1-3-2-3-0-1- CLEAN-RRIP-POLICY-2: 1-2-1-3-2-3-0-1-
 DIRTY-RRIP-POLICY-1: 2-2-1-3-1-3-0-1- DIRTY-RRIP-POLICY-2: 2-2-1-3-1-3-0-1-
 PSEL width: 10
Heartbeat CPU 0 instructions: 10000000 cycles: 6588002 heartbeat IPC: 1.51791 cumulative IPC: 1.51791 (Simulation time: 0 hr 0 min 24 sec) 
Heartbeat CPU 0 instructions: 20000000 cycles: 13179597 heartbeat IPC: 1.51708 cumulative IPC: 1.5175 (Simulation time: 0 hr 0 min 48 sec) 
Heartbeat CPU 0 instructions: 30000003 cycles: 19772916 heartbeat IPC: 1.51669 cumulative IPC: 1.51723 (Simulation time: 0 hr 1 min 11 sec) 
Heartbeat CPU 0 instructions: 40000000 cycles: 26364659 heartbeat IPC: 1.51705 cumulative IPC: 1.51718 (Simulation time: 0 hr 1 min 35 sec) 
Heartbeat CPU 0 instructions: 50000001 cycles: 32957339 heartbeat IPC: 1.51683 cumulative IPC: 1.51711 (Simulation time: 0 hr 1 min 59 sec) 
Heartbeat CPU 0 instructions: 60000000 cycles: 39556172 heartbeat IPC: 1.51542 cumulative IPC: 1.51683 (Simulation time: 0 hr 2 min 23 sec) 
Heartbeat CPU 0 instructions: 70000003 cycles: 46154551 heartbeat IPC: 1.51552 cumulative IPC: 1.51664 (Simulation time: 0 hr 2 min 46 sec) 
Heartbeat CPU 0 instructions: 80000000 cycles: 52752615 heartbeat IPC: 1.5156 cumulative IPC: 1.51651 (Simulation time: 0 hr 3 min 10 sec) 
Heartbeat CPU 0 instructions: 90000002 cycles: 59348291 heartbeat IPC: 1.51615 cumulative IPC: 1.51647 (Simulation time: 0 hr 3 min 34 sec) 
Heartbeat CPU 0 instructions: 100000000 cycles: 65943387 heartbeat IPC: 1.51628 cumulative IPC: 1.51645 (Simulation time: 0 hr 3 min 58 sec) 

Warmup complete CPU 0 instructions: 100000002 cycles: 65943388 (Simulation time: 0 hr 3 min 58 sec) 

Heartbeat CPU 0 instructions: 110000000 cycles: 79178726 heartbeat IPC: 0.755553 cumulative IPC: 0.755553 (Simulation time: 0 hr 4 min 26 sec) 
Heartbeat CPU 0 instructions: 120000000 cycles: 92373505 heartbeat IPC: 0.757876 cumulative IPC: 0.756712 (Simulation time: 0 hr 4 min 55 sec) 
Heartbeat CPU 0 instructions: 130000001 cycles: 105640378 heartbeat IPC: 0.753757 cumulative IPC: 0.755725 (Simulation time: 0 hr 5 min 24 sec) 
Heartbeat CPU 0 instructions: 140000000 cycles: 118808795 heartbeat IPC: 0.759393 cumulative IPC: 0.756638 (Simulation time: 0 hr 5 min 53 sec) 
Heartbeat CPU 0 instructions: 150000001 cycles: 131998842 heartbeat IPC: 0.758147 cumulative IPC: 0.75694 (Simulation time: 0 hr 6 min 22 sec) 
Heartbeat CPU 0 instructions: 160000000 cycles: 145241069 heartbeat IPC: 0.75516 cumulative IPC: 0.756643 (Simulation time: 0 hr 6 min 51 sec) 
Heartbeat CPU 0 instructions: 170000000 cycles: 158451619 heartbeat IPC: 0.756971 cumulative IPC: 0.756689 (Simulation time: 0 hr 7 min 20 sec) 
Heartbeat CPU 0 instructions: 180000000 cycles: 171652945 heartbeat IPC: 0.7575 cumulative IPC: 0.756791 (Simulation time: 0 hr 7 min 49 sec) 
Heartbeat CPU 0 instructions: 190000000 cycles: 184811708 heartbeat IPC: 0.75995 cumulative IPC: 0.75714 (Simulation time: 0 hr 8 min 18 sec) 
Heartbeat CPU 0 instructions: 200000000 cycles: 198073355 heartbeat IPC: 0.754054 cumulative IPC: 0.756831 (Simulation time: 0 hr 8 min 47 sec) 
Heartbeat CPU 0 instructions: 210000002 cycles: 211284276 heartbeat IPC: 0.75695 cumulative IPC: 0.756841 (Simulation time: 0 hr 9 min 16 sec) 
Heartbeat CPU 0 instructions: 220000000 cycles: 224463009 heartbeat IPC: 0.758798 cumulative IPC: 0.757004 (Simulation time: 0 hr 9 min 45 sec) 
Heartbeat CPU 0 instructions: 230000003 cycles: 237710143 heartbeat IPC: 0.75488 cumulative IPC: 0.75684 (Simulation time: 0 hr 10 min 14 sec) 
Heartbeat CPU 0 instructions: 240000000 cycles: 250891999 heartbeat IPC: 0.758618 cumulative IPC: 0.756967 (Simulation time: 0 hr 10 min 43 sec) 
Heartbeat CPU 0 instructions: 250000001 cycles: 264115916 heartbeat IPC: 0.756206 cumulative IPC: 0.756916 (Simulation time: 0 hr 11 min 12 sec) 
Heartbeat CPU 0 instructions: 260000000 cycles: 277329444 heartbeat IPC: 0.7568 cumulative IPC: 0.756909 (Simulation time: 0 hr 11 min 41 sec) 
Heartbeat CPU 0 instructions: 270000003 cycles: 290577833 heartbeat IPC: 0.754809 cumulative IPC: 0.756785 (Simulation time: 0 hr 12 min 10 sec) 
Heartbeat CPU 0 instructions: 280000000 cycles: 303782059 heartbeat IPC: 0.757333 cumulative IPC: 0.756815 (Simulation time: 0 hr 12 min 39 sec) 
Heartbeat CPU 0 instructions: 290000000 cycles: 316954030 heartbeat IPC: 0.759188 cumulative IPC: 0.75694 (Simulation time: 0 hr 13 min 7 sec) 
Heartbeat CPU 0 instructions: 300000000 cycles: 330211924 heartbeat IPC: 0.754268 cumulative IPC: 0.756806 (Simulation time: 0 hr 13 min 36 sec) 
Heartbeat CPU 0 instructions: 310000001 cycles: 343391712 heartbeat IPC: 0.758738 cumulative IPC: 0.756898 (Simulation time: 0 hr 14 min 5 sec) 
Heartbeat CPU 0 instructions: 320000000 cycles: 356579955 heartbeat IPC: 0.758251 cumulative IPC: 0.756959 (Simulation time: 0 hr 14 min 34 sec) 
Heartbeat CPU 0 instructions: 330000002 cycles: 369782027 heartbeat IPC: 0.757457 cumulative IPC: 0.756981 (Simulation time: 0 hr 15 min 3 sec) 
Heartbeat CPU 0 instructions: 340000000 cycles: 383024129 heartbeat IPC: 0.755167 cumulative IPC: 0.756905 (Simulation time: 0 hr 15 min 31 sec) 
Heartbeat CPU 0 instructions: 350000000 cycles: 396283341 heartbeat IPC: 0.754193 cumulative IPC: 0.756796 (Simulation time: 0 hr 16 min 0 sec) 
Heartbeat CPU 0 instructions: 360000000 cycles: 409507513 heartbeat IPC: 0.756191 cumulative IPC: 0.756773 (Simulation time: 0 hr 16 min 29 sec) 
Heartbeat CPU 0 instructions: 370000002 cycles: 422787394 heartbeat IPC: 0.753019 cumulative IPC: 0.756633 (Simulation time: 0 hr 16 min 58 sec) 
Heartbeat CPU 0 instructions: 380000000 cycles: 435994356 heartbeat IPC: 0.757176 cumulative IPC: 0.756653 (Simulation time: 0 hr 17 min 27 sec) 
Heartbeat CPU 0 instructions: 390000000 cycles: 449169686 heartbeat IPC: 0.758994 cumulative IPC: 0.756733 (Simulation time: 0 hr 17 min 56 sec) 
Heartbeat CPU 0 instructions: 400000000 cycles: 462363963 heartbeat IPC: 0.757904 cumulative IPC: 0.756772 (Simulation time: 0 hr 18 min 24 sec) 
Heartbeat CPU 0 instructions: 410000001 cycles: 475618678 heartbeat IPC: 0.754449 cumulative IPC: 0.756697 (Simulation time: 0 hr 18 min 53 sec) 
Heartbeat CPU 0 instructions: 420000000 cycles: 488802361 heartbeat IPC: 0.758513 cumulative IPC: 0.756754 (Simulation time: 0 hr 19 min 22 sec) 
Heartbeat CPU 0 instructions: 430000001 cycles: 501987430 heartbeat IPC: 0.758434 cumulative IPC: 0.756804 (Simulation time: 0 hr 19 min 51 sec) 
Heartbeat CPU 0 instructions: 440000000 cycles: 515154676 heartbeat IPC: 0.75946 cumulative IPC: 0.756882 (Simulation time: 0 hr 20 min 19 sec) 
Heartbeat CPU 0 instructions: 450000002 cycles: 528465904 heartbeat IPC: 0.751246 cumulative IPC: 0.75672 (Simulation time: 0 hr 20 min 48 sec) 
Heartbeat CPU 0 instructions: 460000000 cycles: 541680935 heartbeat IPC: 0.756714 cumulative IPC: 0.75672 (Simulation time: 0 hr 21 min 17 sec) 
Heartbeat CPU 0 instructions: 470000003 cycles: 554873369 heartbeat IPC: 0.75801 cumulative IPC: 0.756755 (Simulation time: 0 hr 21 min 46 sec) 
Heartbeat CPU 0 instructions: 480000000 cycles: 568121452 heartbeat IPC: 0.754826 cumulative IPC: 0.756704 (Simulation time: 0 hr 22 min 15 sec) 
Heartbeat CPU 0 instructions: 490000000 cycles: 581338791 heartbeat IPC: 0.756582 cumulative IPC: 0.756701 (Simulation time: 0 hr 22 min 43 sec) 
Heartbeat CPU 0 instructions: 500000000 cycles: 594533903 heartbeat IPC: 0.757856 cumulative IPC: 0.756729 (Simulation time: 0 hr 23 min 12 sec) 
Heartbeat CPU 0 instructions: 510000001 cycles: 607703829 heartbeat IPC: 0.759306 cumulative IPC: 0.756792 (Simulation time: 0 hr 23 min 41 sec) 
Heartbeat CPU 0 instructions: 520000000 cycles: 621000280 heartbeat IPC: 0.75208 cumulative IPC: 0.756679 (Simulation time: 0 hr 24 min 10 sec) 
Heartbeat CPU 0 instructions: 530000000 cycles: 634245694 heartbeat IPC: 0.754978 cumulative IPC: 0.75664 (Simulation time: 0 hr 24 min 39 sec) 
Heartbeat CPU 0 instructions: 540000000 cycles: 647483066 heartbeat IPC: 0.755437 cumulative IPC: 0.756612 (Simulation time: 0 hr 25 min 7 sec) 
Heartbeat CPU 0 instructions: 550000002 cycles: 660743841 heartbeat IPC: 0.754104 cumulative IPC: 0.756556 (Simulation time: 0 hr 25 min 36 sec) 
Heartbeat CPU 0 instructions: 560000000 cycles: 673935464 heartbeat IPC: 0.758057 cumulative IPC: 0.756589 (Simulation time: 0 hr 26 min 5 sec) 
Heartbeat CPU 0 instructions: 570000001 cycles: 687139783 heartbeat IPC: 0.757328 cumulative IPC: 0.756604 (Simulation time: 0 hr 26 min 34 sec) 
Heartbeat CPU 0 instructions: 580000000 cycles: 700343739 heartbeat IPC: 0.757349 cumulative IPC: 0.75662 (Simulation time: 0 hr 27 min 3 sec) 
Heartbeat CPU 0 instructions: 590000003 cycles: 713581046 heartbeat IPC: 0.755441 cumulative IPC: 0.756596 (Simulation time: 0 hr 27 min 32 sec) 
Heartbeat CPU 0 instructions: 600000000 cycles: 726838988 heartbeat IPC: 0.754265 cumulative IPC: 0.756549 (Simulation time: 0 hr 28 min 1 sec) 
Finished CPU 0 instructions: 500000000 cycles: 660895610 cumulative IPC: 0.756549 (Simulation time: 0 hr 28 min 1 sec) 

CPU 0 Branch Prediction Accuracy: 99.968% MPKI: 0.002246
Number of Branches: 3513331 Number of Mispredictions: 1123
Number of LOAD Instructions: 287251172
Number of LOAD Instructions (ROI): 287251172
Number of STORE Instructions: 51060820
Number of STORE Instructions (ROI): 51060820
Total Destination Memory Operands: 51166221
Total Destination Memory Operands (ROI): 51166221
Total Source Memory Operands: 287251172
Total Source Memory Operands (ROI): 287251172
Number of DEPENDED LOADS: 9555309
Number of DEPENDED LOADS (ROI): 9555309
Number of SQ_ADDED: 51166208
Number of SQ_ADDED (ROI): 51166208
Number of LQ_ADDED: 290421160
Number of LQ_ADDED (ROI): 290421160
Number of Instructions read from trace: 600000257

ChampSim completed all CPUs

Region of Interest Statistics

CPU 0 cumulative IPC: 0.756549 instructions: 500000000 cycles: 660895610
ITLB TOTAL     ACCESS:  108951055  HIT:  108951055  MISS:          0
ITLB LOAD      ACCESS:  108951055  HIT:  108951055  MISS:          0
ITLB RFO       ACCESS:          0  HIT:          0  MISS:          0
ITLB PREFETCH  ACCESS:          0  HIT:          0  MISS:          0
ITLB WRITEBACK ACCESS:          0  HIT:          0  MISS:          0
ITLB PREFETCH  REQUESTED:          0  ISSUED:          0  USEFUL:          0  USELESS:          0
ITLB TOTAL MSHR MERGED:          0
ITLB LOAD MSHR MERGED:          0
ITLB RFO MSHR MERGED:          0
ITLB PREFETCH MSHR MERGED:          0
ITLB WRITEBACK MSHR MERGED:          0
ITLB TOTAL ACCESSES:  108951055 HITS:  108951055 MISSES:          0
ITLB LOAD ACCESSES:  108951055 HITS:  108951055 MISSES:          0
ITLB RFO ACCESSES:          0 HITS:          0 MISSES:          0
ITLB PREFETCH ACCESSES:          0 HITS:          0 MISSES:          0
ITLB WRITEBACK ACCESSES:          0 HITS:          0 MISSES:          0
ITLB RQ ACCESS:  500000001
ITLB RQ TO_CACHE:  108951055
ITLB RQ MERGED:  391048946
ITLB RQ FORWARD:          0
ITLB WQ ACCESS:          0
ITLB WQ TO_CACHE:          0
ITLB WQ MERGED:          0
ITLB WQ FORWARD:          0
DTLB TOTAL     ACCESS:  171131754  HIT:  161115439  MISS:   10016315
DTLB LOAD      ACCESS:  143472331  HIT:  135596266  MISS:    7876065
DTLB RFO       ACCESS:   27659423  HIT:   25519173  MISS:    2140250
DTLB PREFETCH  ACCESS:          0  HIT:          0  MISS:          0
DTLB WRITEBACK ACCESS:          0  HIT:          0  MISS:          0
DTLB PREFETCH  REQUESTED:          0  ISSUED:          0  USEFUL:          0  USELESS:          0
DTLB TOTAL MSHR MERGED:     360376
DTLB LOAD MSHR MERGED:     360376
DTLB RFO MSHR MERGED:          0
DTLB PREFETCH MSHR MERGED:          0
DTLB WRITEBACK MSHR MERGED:          0
DTLB TOTAL ACCESSES:  171492130 HITS:  161115439 MISSES:   10376691
DTLB LOAD ACCESSES:  143832707 HITS:  135596266 MISSES:    8236441
DTLB RFO ACCESSES:   27659423 HITS:   25519173 MISSES:    2140250
DTLB PREFETCH ACCESSES:          0 HITS:          0 MISSES:          0
DTLB WRITEBACK ACCESSES:          0 HITS:          0 MISSES:          0
DTLB RQ ACCESS:  274072508
DTLB RQ TO_CACHE:  171492130
DTLB RQ MERGED:  102580378
DTLB RQ FORWARD:          0
DTLB WQ ACCESS:          0
DTLB WQ TO_CACHE:          0
DTLB WQ MERGED:          0
DTLB WQ FORWARD:          0
L1D TOTAL     ACCESS:  350913383  HIT:  283714079  MISS:   67199304
L1D LOAD      ACCESS:  175624591  HIT:  142585369  MISS:   33039222
L1D RFO       ACCESS:   42018492  HIT:   39212576  MISS:    2805916
L1D PREFETCH  ACCESS:  133270300  HIT:  101916134  MISS:   31354166
L1D WRITEBACK ACCESS:          0  HIT:          0  MISS:          0
L1D PREFETCH  REQUESTED:  176228579  ISSUED:  175290150  USEFUL:    2180195  USELESS:   29173973
L1D TOTAL MSHR MERGED:    1484548
L1D LOAD MSHR MERGED:     703892
L1D RFO MSHR MERGED:     350478
L1D PREFETCH MSHR MERGED:     430178
L1D WRITEBACK MSHR MERGED:          0
L1D TOTAL ACCESSES:  352513045 HITS:  283829193 MISSES:   68683852
L1D LOAD ACCESSES:  176237419 HITS:  142594209 MISSES:   33643210
L1D RFO ACCESSES:   42368277 HITS:   39212576 MISSES:    3155701
L1D PREFETCH ACCESSES:  133907349 HITS:  102022408 MISSES:   31884941
L1D WRITEBACK ACCESSES:          0 HITS:          0 MISSES:          0
L1D RQ ACCESS:  231434035
L1D RQ TO_CACHE:  176228579
L1D RQ MERGED:   55196616
L1D RQ FORWARD:          0
L1D WQ ACCESS:   42638475
L1D WQ TO_CACHE:   42368277
L1D WQ MERGED:     270198
L1D WQ FORWARD:     115114
L1I TOTAL     ACCESS:  109345056  HIT:   77829352  MISS:   31515704
L1I LOAD      ACCESS:  109345056  HIT:   77829352  MISS:   31515704
L1I RFO       ACCESS:          0  HIT:          0  MISS:          0
L1I PREFETCH  ACCESS:          0  HIT:          0  MISS:          0
L1I WRITEBACK ACCESS:          0  HIT:          0  MISS:          0
L1I PREFETCH  REQUESTED:          0  ISSUED:          0  USEFUL:          0  USELESS:          0
L1I TOTAL MSHR MERGED:   30750071
L1I LOAD MSHR MERGED:   30750071
L1I RFO MSHR MERGED:          0
L1I PREFETCH MSHR MERGED:          0
L1I WRITEBACK MSHR MERGED:          0
L1I TOTAL ACCESSES:  140095129 HITS:   77829352 MISSES:   62265777
L1I LOAD ACCESSES:  140095129 HITS:   77829352 MISSES:   62265777
L1I RFO ACCESSES:          0 HITS:          0 MISSES:          0
L1I PREFETCH ACCESSES:          0 HITS:          0 MISSES:          0
L1I WRITEBACK ACCESSES:          0 HITS:          0 MISSES:          0
L1I RQ ACCESS:  500000003
L1I RQ TO_CACHE:  140095129
L1I RQ MERGED:  359904874
L1I RQ FORWARD:          0
L1I WQ ACCESS:          0
L1I WQ TO_CACHE:          0
L1I WQ MERGED:          0
L1I WQ FORWARD:          0
L2C TOTAL     ACCESS:  113686837  HIT:  110686119  MISS:    3000718
L2C LOAD      ACCESS:   64453151  HIT:   63892893  MISS:     560258
L2C RFO       ACCESS:    2803349  HIT:    2194121  MISS:     609228
L2C PREFETCH  ACCESS:   43269417  HIT:   41444461  MISS:    1824956
L2C WRITEBACK ACCESS:    3160920  HIT:    3154644  MISS:       6276
L2C PREFETCH  REQUESTED:   15134609  ISSUED:   14620827  USEFUL:    1700409  USELESS:     124553
L2C TOTAL MSHR MERGED:      13023
L2C LOAD MSHR MERGED:          0
L2C RFO MSHR MERGED:          0
L2C PREFETCH MSHR MERGED:      13023
L2C WRITEBACK MSHR MERGED:          0
L2C TOTAL ACCESSES:  113908217 HITS:  110691962 MISSES:    3216255
L2C LOAD ACCESSES:   64455023 HITS:   63894764 MISSES:     560259
L2C RFO ACCESSES:    2805223 HITS:    2195995 MISSES:     609228
L2C PREFETCH ACCESSES:   43487051 HITS:   41446559 MISSES:    2040492
L2C WRITEBACK ACCESSES:    3160920 HITS:    3154644 MISSES:       6276
L2C RQ ACCESS:   67260247
L2C RQ TO_CACHE:   67256502
L2C RQ MERGED:          0
L2C RQ FORWARD:          0
L2C WQ ACCESS:    3160920
L2C WQ TO_CACHE:    3160920
L2C WQ MERGED:          0
L2C WQ FORWARD:       5843
LLC TOTAL     ACCESS:    3727263  HIT:    1747193  MISS:    1980070
LLC LOAD      ACCESS:     560229  HIT:     493788  MISS:      66441
LLC RFO       ACCESS:     527227  HIT:     238824  MISS:     288403
LLC PREFETCH  ACCESS:    2021570  HIT:     559969  MISS:    1461601
LLC WRITEBACK ACCESS:     618237  HIT:     454612  MISS:     163625
LLC PREFETCH  REQUESTED:          0  ISSUED:          0  USEFUL:      43024  USELESS:    1417432
LLC TOTAL MSHR MERGED:       5278
LLC LOAD MSHR MERGED:          0
LLC RFO MSHR MERGED:          0
LLC PREFETCH MSHR MERGED:       5278
LLC WRITEBACK MSHR MERGED:          0
LLC TOTAL ACCESSES:    3814655 HITS:    1829307 MISSES:    1985348
LLC LOAD ACCESSES:     560258 HITS:     493817 MISSES:      66441
LLC RFO ACCESSES:     609228 HITS:     320825 MISSES:     288403
LLC PREFETCH ACCESSES:    2026932 HITS:     560053 MISSES:    1466879
LLC WRITEBACK ACCESSES:     618237 HITS:     454612 MISSES:     163625
LLC 0 RQ ACCESS:    1169487
LLC 0 RQ TO_CACHE:    1087457
LLC 0 RQ MERGED:          0
LLC 0 RQ FORWARD:          0
LLC WQ ACCESS:     618237
LLC WQ TO_CACHE:     618237
LLC WQ MERGED:          0
LLC WQ FORWARD:      82114
Major fault: 0 Minor fault: 12800
CPU 0 L1D next line prefetcher final stats
CPU 0 L2C PC-based stride prefetcher final stats
All Misses: 2387581
All Hits: 2190600
SD Algo Stats - Switches: 0 SRR-Repls: 84404 BRR-Repls: 0

DRAM Statistics
 CHANNEL 0
 RQ ROW_BUFFER_HIT:     908687  ROW_BUFFER_MISS:     907460
 DBUS_CONGESTED:     977816
 WQ ROW_BUFFER_HIT:      30953  ROW_BUFFER_MISS:     261137  FULL:          0

 AVG_CONGESTED_CYCLE: 13
LOADS RETIRED: 239375970
INSTR RETIRED: 500000000
