
*** ChampSim Multicore Out-of-Order Simulator ***

Warmup Instructions: 100000000
Simulation Instructions: 500000000
Number of CPUs: 1
LLC sets: 2048
LLC ways: 16
Clean RRIP Policies: 1213230112132301 Dirty RRIP Policies: 2213031122130311 PSEL Width: 10 Track Set: 4294967295 PSEL Mask: 1 Demote Mask: 1320011013200110DS Algo: 0Window size: 0
Off-chip DRAM Size: 4096 MB Channels: 1 Width: 64-bit Data Rate: 1600 MT/s

CPU 0 runs /mnt/beegfs/iconst01/spec2017/Parest.trace.gz
NOT SORTED
TRACE STRING: /mnt/beegfs/iconst01/spec2017/Parest.trace.gz
SORTED
TRACE STRING: /mnt/beegfs/iconst01/spec2017/Parest.trace.gz
INITIAL
TRACE STRING: /mnt/beegfs/iconst01/spec2017/Parest.trace.gz

champsim_seed used: 623

CPU 0 L1D next line prefetcher
CPU 0 L2C IP-based stride prefetcher
Initialize DRRIP state
Assign rand_sets[0]: 454  LLC: 2048
rand_sets[0]: 454
Assign rand_sets[1]: 1662  LLC: 2048
rand_sets[1]: 1662
Assign rand_sets[2]: 1921  LLC: 2048
rand_sets[2]: 1921
Assign rand_sets[3]: 1131  LLC: 2048
rand_sets[3]: 1131
Assign rand_sets[4]: 331  LLC: 2048
rand_sets[4]: 331
Assign rand_sets[5]: 1531  LLC: 2048
rand_sets[5]: 1531
Assign rand_sets[6]: 482  LLC: 2048
rand_sets[6]: 482
Assign rand_sets[7]: 1275  LLC: 2048
rand_sets[7]: 1275
Assign rand_sets[8]: 1876  LLC: 2048
rand_sets[8]: 1876
Assign rand_sets[9]: 2038  LLC: 2048
rand_sets[9]: 2038
Assign rand_sets[10]: 701  LLC: 2048
rand_sets[10]: 701
Assign rand_sets[11]: 479  LLC: 2048
rand_sets[11]: 479
Assign rand_sets[12]: 892  LLC: 2048
rand_sets[12]: 892
Assign rand_sets[13]: 1820  LLC: 2048
rand_sets[13]: 1820
Assign rand_sets[14]: 1505  LLC: 2048
rand_sets[14]: 1505
Assign rand_sets[15]: 1159  LLC: 2048
rand_sets[15]: 1159
Assign rand_sets[16]: 513  LLC: 2048
rand_sets[16]: 513
Assign rand_sets[17]: 703  LLC: 2048
rand_sets[17]: 703
Assign rand_sets[18]: 561  LLC: 2048
rand_sets[18]: 561
Assign rand_sets[19]: 990  LLC: 2048
rand_sets[19]: 990
Assign rand_sets[20]: 342  LLC: 2048
rand_sets[20]: 342
Assign rand_sets[21]: 882  LLC: 2048
rand_sets[21]: 882
Assign rand_sets[22]: 15  LLC: 2048
rand_sets[22]: 15
Assign rand_sets[23]: 71  LLC: 2048
rand_sets[23]: 71
Assign rand_sets[24]: 1127  LLC: 2048
rand_sets[24]: 1127
Assign rand_sets[25]: 1382  LLC: 2048
rand_sets[25]: 1382
Assign rand_sets[26]: 647  LLC: 2048
rand_sets[26]: 647
Assign rand_sets[27]: 857  LLC: 2048
rand_sets[27]: 857
Assign rand_sets[28]: 1450  LLC: 2048
rand_sets[28]: 1450
Assign rand_sets[29]: 1160  LLC: 2048
rand_sets[29]: 1160
Assign rand_sets[30]: 1852  LLC: 2048
rand_sets[30]: 1852
Assign rand_sets[31]: 1881  LLC: 2048
rand_sets[31]: 1881
Assign rand_sets[32]: 1770  LLC: 2048
rand_sets[32]: 1770
Assign rand_sets[33]: 1622  LLC: 2048
rand_sets[33]: 1622
Assign rand_sets[34]: 275  LLC: 2048
rand_sets[34]: 275
Assign rand_sets[35]: 635  LLC: 2048
rand_sets[35]: 635
Assign rand_sets[36]: 466  LLC: 2048
rand_sets[36]: 466
Assign rand_sets[37]: 1413  LLC: 2048
rand_sets[37]: 1413
Assign rand_sets[38]: 417  LLC: 2048
rand_sets[38]: 417
Assign rand_sets[39]: 472  LLC: 2048
rand_sets[39]: 472
Assign rand_sets[40]: 1340  LLC: 2048
rand_sets[40]: 1340
Assign rand_sets[41]: 852  LLC: 2048
rand_sets[41]: 852
Assign rand_sets[42]: 1365  LLC: 2048
rand_sets[42]: 1365
Assign rand_sets[43]: 47  LLC: 2048
rand_sets[43]: 47
Assign rand_sets[44]: 823  LLC: 2048
rand_sets[44]: 823
Assign rand_sets[45]: 686  LLC: 2048
rand_sets[45]: 686
Assign rand_sets[46]: 1637  LLC: 2048
rand_sets[46]: 1637
Assign rand_sets[47]: 1115  LLC: 2048
rand_sets[47]: 1115
Assign rand_sets[48]: 986  LLC: 2048
rand_sets[48]: 986
Assign rand_sets[49]: 258  LLC: 2048
rand_sets[49]: 258
Assign rand_sets[50]: 633  LLC: 2048
rand_sets[50]: 633
Assign rand_sets[51]: 920  LLC: 2048
rand_sets[51]: 920
Assign rand_sets[52]: 204  LLC: 2048
rand_sets[52]: 204
Assign rand_sets[53]: 227  LLC: 2048
rand_sets[53]: 227
Assign rand_sets[54]: 1818  LLC: 2048
rand_sets[54]: 1818
Assign rand_sets[55]: 886  LLC: 2048
rand_sets[55]: 886
Assign rand_sets[56]: 1422  LLC: 2048
rand_sets[56]: 1422
Assign rand_sets[57]: 607  LLC: 2048
rand_sets[57]: 607
Assign rand_sets[58]: 217  LLC: 2048
rand_sets[58]: 217
Assign rand_sets[59]: 1945  LLC: 2048
rand_sets[59]: 1945
Assign rand_sets[60]: 143  LLC: 2048
rand_sets[60]: 143
Assign rand_sets[61]: 1311  LLC: 2048
rand_sets[61]: 1311
Assign rand_sets[62]: 319  LLC: 2048
rand_sets[62]: 319
Assign rand_sets[63]: 1846  LLC: 2048
rand_sets[63]: 1846
 CLEAN-RRIP-POLICY-1: 1-2-1-3-2-3-0-1- CLEAN-RRIP-POLICY-2: 1-2-1-3-2-3-0-1-
 DIRTY-RRIP-POLICY-1: 2-2-1-3-0-3-1-1- DIRTY-RRIP-POLICY-2: 2-2-1-3-0-3-1-1-
 PSEL width: 10
Heartbeat CPU 0 instructions: 10000001 cycles: 4387119 heartbeat IPC: 2.2794 cumulative IPC: 2.2794 (Simulation time: 0 hr 0 min 14 sec) 
Heartbeat CPU 0 instructions: 20000000 cycles: 8781246 heartbeat IPC: 2.27576 cumulative IPC: 2.27758 (Simulation time: 0 hr 0 min 29 sec) 
Heartbeat CPU 0 instructions: 30000003 cycles: 13213195 heartbeat IPC: 2.25634 cumulative IPC: 2.27046 (Simulation time: 0 hr 0 min 44 sec) 
Heartbeat CPU 0 instructions: 40000000 cycles: 17643829 heartbeat IPC: 2.25701 cumulative IPC: 2.26708 (Simulation time: 0 hr 0 min 58 sec) 
Heartbeat CPU 0 instructions: 50000000 cycles: 22052024 heartbeat IPC: 2.2685 cumulative IPC: 2.26737 (Simulation time: 0 hr 1 min 13 sec) 
Heartbeat CPU 0 instructions: 60000000 cycles: 26457714 heartbeat IPC: 2.26979 cumulative IPC: 2.26777 (Simulation time: 0 hr 1 min 27 sec) 
Heartbeat CPU 0 instructions: 70000000 cycles: 30858547 heartbeat IPC: 2.2723 cumulative IPC: 2.26842 (Simulation time: 0 hr 1 min 42 sec) 
Heartbeat CPU 0 instructions: 80000000 cycles: 35254131 heartbeat IPC: 2.27501 cumulative IPC: 2.26924 (Simulation time: 0 hr 1 min 57 sec) 
Heartbeat CPU 0 instructions: 90000000 cycles: 39648417 heartbeat IPC: 2.27568 cumulative IPC: 2.26995 (Simulation time: 0 hr 2 min 12 sec) 
Heartbeat CPU 0 instructions: 100000000 cycles: 44045738 heartbeat IPC: 2.27411 cumulative IPC: 2.27037 (Simulation time: 0 hr 2 min 27 sec) 

Warmup complete CPU 0 instructions: 100000002 cycles: 44045748 (Simulation time: 0 hr 2 min 27 sec) 

Heartbeat CPU 0 instructions: 110000000 cycles: 54549480 heartbeat IPC: 0.952042 cumulative IPC: 0.952042 (Simulation time: 0 hr 2 min 46 sec) 
Heartbeat CPU 0 instructions: 120000000 cycles: 64213374 heartbeat IPC: 1.03478 cumulative IPC: 0.991688 (Simulation time: 0 hr 3 min 5 sec) 
Heartbeat CPU 0 instructions: 130000000 cycles: 73803513 heartbeat IPC: 1.04274 cumulative IPC: 1.00814 (Simulation time: 0 hr 3 min 24 sec) 
Heartbeat CPU 0 instructions: 140000000 cycles: 83613024 heartbeat IPC: 1.01942 cumulative IPC: 1.01094 (Simulation time: 0 hr 3 min 44 sec) 
Heartbeat CPU 0 instructions: 150000000 cycles: 94541285 heartbeat IPC: 0.915059 cumulative IPC: 0.990186 (Simulation time: 0 hr 4 min 3 sec) 
Heartbeat CPU 0 instructions: 160000000 cycles: 104614913 heartbeat IPC: 0.992691 cumulative IPC: 0.990603 (Simulation time: 0 hr 4 min 22 sec) 
Heartbeat CPU 0 instructions: 170000003 cycles: 114599028 heartbeat IPC: 1.00159 cumulative IPC: 0.992158 (Simulation time: 0 hr 4 min 40 sec) 
Heartbeat CPU 0 instructions: 180000000 cycles: 124598632 heartbeat IPC: 1.00004 cumulative IPC: 0.993136 (Simulation time: 0 hr 4 min 59 sec) 
Heartbeat CPU 0 instructions: 190000002 cycles: 134749799 heartbeat IPC: 0.985109 cumulative IPC: 0.992238 (Simulation time: 0 hr 5 min 18 sec) 
Heartbeat CPU 0 instructions: 200000000 cycles: 144493376 heartbeat IPC: 1.02632 cumulative IPC: 0.995544 (Simulation time: 0 hr 5 min 37 sec) 
Heartbeat CPU 0 instructions: 210000000 cycles: 154525364 heartbeat IPC: 0.996811 cumulative IPC: 0.995659 (Simulation time: 0 hr 5 min 57 sec) 
Heartbeat CPU 0 instructions: 220000000 cycles: 164097729 heartbeat IPC: 1.04467 cumulative IPC: 0.999567 (Simulation time: 0 hr 6 min 16 sec) 
Heartbeat CPU 0 instructions: 230000001 cycles: 176428120 heartbeat IPC: 0.811004 cumulative IPC: 0.982004 (Simulation time: 0 hr 6 min 36 sec) 
Heartbeat CPU 0 instructions: 240000000 cycles: 186977944 heartbeat IPC: 0.947883 cumulative IPC: 0.979485 (Simulation time: 0 hr 6 min 56 sec) 
Heartbeat CPU 0 instructions: 250000002 cycles: 196997829 heartbeat IPC: 0.998016 cumulative IPC: 0.980699 (Simulation time: 0 hr 7 min 14 sec) 
Heartbeat CPU 0 instructions: 260000000 cycles: 206857594 heartbeat IPC: 1.01422 cumulative IPC: 0.982729 (Simulation time: 0 hr 7 min 33 sec) 
Heartbeat CPU 0 instructions: 270000001 cycles: 216668957 heartbeat IPC: 1.01923 cumulative IPC: 0.984804 (Simulation time: 0 hr 7 min 52 sec) 
Heartbeat CPU 0 instructions: 280000000 cycles: 226720652 heartbeat IPC: 0.994857 cumulative IPC: 0.985357 (Simulation time: 0 hr 8 min 11 sec) 
Heartbeat CPU 0 instructions: 290000002 cycles: 236314934 heartbeat IPC: 1.04229 cumulative IPC: 0.988198 (Simulation time: 0 hr 8 min 30 sec) 
Heartbeat CPU 0 instructions: 300000000 cycles: 246223543 heartbeat IPC: 1.00922 cumulative IPC: 0.989228 (Simulation time: 0 hr 8 min 49 sec) 
Heartbeat CPU 0 instructions: 310000000 cycles: 255747023 heartbeat IPC: 1.05004 cumulative IPC: 0.991964 (Simulation time: 0 hr 9 min 8 sec) 
Heartbeat CPU 0 instructions: 320000000 cycles: 265309269 heartbeat IPC: 1.04578 cumulative IPC: 0.99429 (Simulation time: 0 hr 9 min 27 sec) 
Heartbeat CPU 0 instructions: 330000003 cycles: 274963376 heartbeat IPC: 1.03583 cumulative IPC: 0.996026 (Simulation time: 0 hr 9 min 46 sec) 
Heartbeat CPU 0 instructions: 340000000 cycles: 285088604 heartbeat IPC: 0.987632 cumulative IPC: 0.995674 (Simulation time: 0 hr 10 min 5 sec) 
Heartbeat CPU 0 instructions: 350000000 cycles: 295284464 heartbeat IPC: 0.98079 cumulative IPC: 0.99507 (Simulation time: 0 hr 10 min 24 sec) 
Heartbeat CPU 0 instructions: 360000000 cycles: 305134590 heartbeat IPC: 1.01522 cumulative IPC: 0.99583 (Simulation time: 0 hr 10 min 43 sec) 
Heartbeat CPU 0 instructions: 370000000 cycles: 314879602 heartbeat IPC: 1.02617 cumulative IPC: 0.996921 (Simulation time: 0 hr 11 min 2 sec) 
Heartbeat CPU 0 instructions: 380000000 cycles: 324632579 heartbeat IPC: 1.02533 cumulative IPC: 0.997909 (Simulation time: 0 hr 11 min 21 sec) 
Heartbeat CPU 0 instructions: 390000002 cycles: 334229453 heartbeat IPC: 1.04201 cumulative IPC: 0.999367 (Simulation time: 0 hr 11 min 40 sec) 
Heartbeat CPU 0 instructions: 400000000 cycles: 344122479 heartbeat IPC: 1.01081 cumulative IPC: 0.999744 (Simulation time: 0 hr 11 min 58 sec) 
Heartbeat CPU 0 instructions: 410000000 cycles: 353601794 heartbeat IPC: 1.05493 cumulative IPC: 1.00143 (Simulation time: 0 hr 12 min 17 sec) 
Heartbeat CPU 0 instructions: 420000000 cycles: 364788957 heartbeat IPC: 0.893882 cumulative IPC: 0.997683 (Simulation time: 0 hr 12 min 37 sec) 
Heartbeat CPU 0 instructions: 430000000 cycles: 375639842 heartbeat IPC: 0.921584 cumulative IPC: 0.995193 (Simulation time: 0 hr 12 min 56 sec) 
Heartbeat CPU 0 instructions: 440000000 cycles: 385701052 heartbeat IPC: 0.993916 cumulative IPC: 0.995155 (Simulation time: 0 hr 13 min 15 sec) 
Heartbeat CPU 0 instructions: 450000000 cycles: 395743762 heartbeat IPC: 0.995747 cumulative IPC: 0.995172 (Simulation time: 0 hr 13 min 33 sec) 
Heartbeat CPU 0 instructions: 460000000 cycles: 405806468 heartbeat IPC: 0.993768 cumulative IPC: 0.995133 (Simulation time: 0 hr 13 min 52 sec) 
Heartbeat CPU 0 instructions: 470000001 cycles: 415959378 heartbeat IPC: 0.984939 cumulative IPC: 0.994855 (Simulation time: 0 hr 14 min 11 sec) 
Heartbeat CPU 0 instructions: 480000000 cycles: 425681482 heartbeat IPC: 1.02858 cumulative IPC: 0.995714 (Simulation time: 0 hr 14 min 29 sec) 
Heartbeat CPU 0 instructions: 490000002 cycles: 435752070 heartbeat IPC: 0.992991 cumulative IPC: 0.995644 (Simulation time: 0 hr 14 min 48 sec) 
Heartbeat CPU 0 instructions: 500000000 cycles: 445522263 heartbeat IPC: 1.02352 cumulative IPC: 0.996322 (Simulation time: 0 hr 15 min 7 sec) 
Heartbeat CPU 0 instructions: 510000000 cycles: 455107562 heartbeat IPC: 1.04326 cumulative IPC: 0.997417 (Simulation time: 0 hr 15 min 25 sec) 
Heartbeat CPU 0 instructions: 520000000 cycles: 464860497 heartbeat IPC: 1.02533 cumulative IPC: 0.998064 (Simulation time: 0 hr 15 min 44 sec) 
Heartbeat CPU 0 instructions: 530000001 cycles: 475252353 heartbeat IPC: 0.962292 cumulative IPC: 0.997202 (Simulation time: 0 hr 16 min 3 sec) 
Heartbeat CPU 0 instructions: 540000000 cycles: 485631418 heartbeat IPC: 0.963478 cumulative IPC: 0.996409 (Simulation time: 0 hr 16 min 21 sec) 
Heartbeat CPU 0 instructions: 550000003 cycles: 495705243 heartbeat IPC: 0.992672 cumulative IPC: 0.996326 (Simulation time: 0 hr 16 min 40 sec) 
Heartbeat CPU 0 instructions: 560000000 cycles: 505646338 heartbeat IPC: 1.00593 cumulative IPC: 0.996532 (Simulation time: 0 hr 16 min 58 sec) 
Heartbeat CPU 0 instructions: 570000002 cycles: 515570593 heartbeat IPC: 1.00763 cumulative IPC: 0.996766 (Simulation time: 0 hr 17 min 16 sec) 
Heartbeat CPU 0 instructions: 580000000 cycles: 525352986 heartbeat IPC: 1.02224 cumulative IPC: 0.997284 (Simulation time: 0 hr 17 min 35 sec) 
Heartbeat CPU 0 instructions: 590000001 cycles: 535384510 heartbeat IPC: 0.996858 cumulative IPC: 0.997275 (Simulation time: 0 hr 17 min 53 sec) 
Heartbeat CPU 0 instructions: 600000000 cycles: 545106748 heartbeat IPC: 1.02857 cumulative IPC: 0.997882 (Simulation time: 0 hr 18 min 12 sec) 
Finished CPU 0 instructions: 500000000 cycles: 501061014 cumulative IPC: 0.997882 (Simulation time: 0 hr 18 min 12 sec) 

CPU 0 Branch Prediction Accuracy: 97.8526% MPKI: 2.66709
Number of Branches: 62099103 Number of Mispredictions: 1333545
Number of LOAD Instructions: 210576465
Number of LOAD Instructions (ROI): 210576465
Number of STORE Instructions: 16915507
Number of STORE Instructions (ROI): 16915507
Total Destination Memory Operands: 16918869
Total Destination Memory Operands (ROI): 16918869
Total Source Memory Operands: 210576465
Total Source Memory Operands (ROI): 210576465
Number of DEPENDED LOADS: 344780
Number of DEPENDED LOADS (ROI): 344780
Number of SQ_ADDED: 16918826
Number of SQ_ADDED (ROI): 16918826
Number of LQ_ADDED: 210608911
Number of LQ_ADDED (ROI): 210608911
Number of Instructions read from trace: 600000257

ChampSim completed all CPUs

Region of Interest Statistics

CPU 0 cumulative IPC: 0.997882 instructions: 500000000 cycles: 501061014
ITLB TOTAL     ACCESS:   76257779  HIT:   76257741  MISS:         38
ITLB LOAD      ACCESS:   76257779  HIT:   76257741  MISS:         38
ITLB RFO       ACCESS:          0  HIT:          0  MISS:          0
ITLB PREFETCH  ACCESS:          0  HIT:          0  MISS:          0
ITLB WRITEBACK ACCESS:          0  HIT:          0  MISS:          0
ITLB PREFETCH  REQUESTED:          0  ISSUED:          0  USEFUL:          0  USELESS:          0
ITLB TOTAL MSHR MERGED:         37
ITLB LOAD MSHR MERGED:         37
ITLB RFO MSHR MERGED:          0
ITLB PREFETCH MSHR MERGED:          0
ITLB WRITEBACK MSHR MERGED:          0
ITLB TOTAL ACCESSES:   76257816 HITS:   76257741 MISSES:         75
ITLB LOAD ACCESSES:   76257816 HITS:   76257741 MISSES:         75
ITLB RFO ACCESSES:          0 HITS:          0 MISSES:          0
ITLB PREFETCH ACCESSES:          0 HITS:          0 MISSES:          0
ITLB WRITEBACK ACCESSES:          0 HITS:          0 MISSES:          0
ITLB RQ ACCESS:  500000188
ITLB RQ TO_CACHE:   76257817
ITLB RQ MERGED:  423742371
ITLB RQ FORWARD:          0
ITLB WQ ACCESS:          0
ITLB WQ TO_CACHE:          0
ITLB WQ MERGED:          0
ITLB WQ FORWARD:          0
DTLB TOTAL     ACCESS:  136871329  HIT:  136668534  MISS:     202795
DTLB LOAD      ACCESS:  128808622  HIT:  128608548  MISS:     200074
DTLB RFO       ACCESS:    8062707  HIT:    8059986  MISS:       2721
DTLB PREFETCH  ACCESS:          0  HIT:          0  MISS:          0
DTLB WRITEBACK ACCESS:          0  HIT:          0  MISS:          0
DTLB PREFETCH  REQUESTED:          0  ISSUED:          0  USEFUL:          0  USELESS:          0
DTLB TOTAL MSHR MERGED:     447801
DTLB LOAD MSHR MERGED:     444200
DTLB RFO MSHR MERGED:       3601
DTLB PREFETCH MSHR MERGED:          0
DTLB WRITEBACK MSHR MERGED:          0
DTLB TOTAL ACCESSES:  137319130 HITS:  136668534 MISSES:     650596
DTLB LOAD ACCESSES:  129252822 HITS:  128608548 MISSES:     644274
DTLB RFO ACCESSES:    8066308 HITS:    8059986 MISSES:       6322
DTLB PREFETCH ACCESSES:          0 HITS:          0 MISSES:          0
DTLB WRITEBACK ACCESSES:          0 HITS:          0 MISSES:          0
DTLB RQ ACCESS:  189419790
DTLB RQ TO_CACHE:  137319130
DTLB RQ MERGED:   52100660
DTLB RQ FORWARD:          0
DTLB WQ ACCESS:          0
DTLB WQ TO_CACHE:          0
DTLB WQ MERGED:          0
DTLB WQ FORWARD:          0
L1D TOTAL     ACCESS:  125488280  HIT:  107931461  MISS:   17556819
L1D LOAD      ACCESS:   72328343  HIT:   62070979  MISS:   10257364
L1D RFO       ACCESS:   14013692  HIT:   13860856  MISS:     152836
L1D PREFETCH  ACCESS:   39146245  HIT:   31999626  MISS:    7146619
L1D WRITEBACK ACCESS:          0  HIT:          0  MISS:          0
L1D PREFETCH  REQUESTED:   85571632  ISSUED:   84249267  USEFUL:    5887400  USELESS:    1259230
L1D TOTAL MSHR MERGED:   31466497
L1D LOAD MSHR MERGED:   18397139
L1D RFO MSHR MERGED:     267626
L1D PREFETCH MSHR MERGED:   12801732
L1D WRITEBACK MSHR MERGED:          0
L1D TOTAL ACCESSES:  156955280 HITS:  107931965 MISSES:   49023315
L1D LOAD ACCESSES:   85571648 HITS:   62070995 MISSES:   23500653
L1D RFO ACCESSES:   14281290 HITS:   13860856 MISSES:     420434
L1D PREFETCH ACCESSES:   57102342 HITS:   32000114 MISSES:   25102228
L1D WRITEBACK ACCESSES:          0 HITS:          0 MISSES:          0
L1D RQ ACCESS:  175130768
L1D RQ TO_CACHE:   85571632
L1D RQ MERGED:   89559120
L1D RQ FORWARD:          0
L1D WQ ACCESS:   14289037
L1D WQ TO_CACHE:   14281290
L1D WQ MERGED:       7747
L1D WQ FORWARD:        504
L1I TOTAL     ACCESS:   93279357  HIT:   93277561  MISS:       1796
L1I LOAD      ACCESS:   93279357  HIT:   93277561  MISS:       1796
L1I RFO       ACCESS:          0  HIT:          0  MISS:          0
L1I PREFETCH  ACCESS:          0  HIT:          0  MISS:          0
L1I WRITEBACK ACCESS:          0  HIT:          0  MISS:          0
L1I PREFETCH  REQUESTED:          0  ISSUED:          0  USEFUL:          0  USELESS:          0
L1I TOTAL MSHR MERGED:       2303
L1I LOAD MSHR MERGED:       2303
L1I RFO MSHR MERGED:          0
L1I PREFETCH MSHR MERGED:          0
L1I WRITEBACK MSHR MERGED:          0
L1I TOTAL ACCESSES:   93281660 HITS:   93277561 MISSES:       4099
L1I LOAD ACCESSES:   93281660 HITS:   93277561 MISSES:       4099
L1I RFO ACCESSES:          0 HITS:          0 MISSES:          0
L1I PREFETCH ACCESSES:          0 HITS:          0 MISSES:          0
L1I WRITEBACK ACCESSES:          0 HITS:          0 MISSES:          0
L1I RQ ACCESS:  500000187
L1I RQ TO_CACHE:   93281660
L1I RQ MERGED:  406718527
L1I RQ FORWARD:          0
L1I WQ ACCESS:          0
L1I WQ TO_CACHE:          0
L1I WQ MERGED:          0
L1I WQ FORWARD:          0
L2C TOTAL     ACCESS:   20890726  HIT:    8661168  MISS:   12229558
L2C LOAD      ACCESS:    5105287  HIT:    2139197  MISS:    2966090
L2C RFO       ACCESS:     152808  HIT:       6505  MISS:     146303
L2C PREFETCH  ACCESS:   13859876  HIT:    4742821  MISS:    9117055
L2C WRITEBACK ACCESS:    1772755  HIT:    1772645  MISS:        110
L2C PREFETCH  REQUESTED:    1800955  ISSUED:    1800955  USEFUL:    1068793  USELESS:    8049883
L2C TOTAL MSHR MERGED:      97666
L2C LOAD MSHR MERGED:      22784
L2C RFO MSHR MERGED:          0
L2C PREFETCH MSHR MERGED:      74882
L2C WRITEBACK MSHR MERGED:          0
L2C TOTAL ACCESSES:   21018603 HITS:    8661207 MISSES:   12357396
L2C LOAD ACCESSES:    5105310 HITS:    2139220 MISSES:    2966090
L2C RFO ACCESSES:     152808 HITS:       6505 MISSES:     146303
L2C PREFETCH ACCESSES:   13987730 HITS:    4742837 MISSES:    9244893
L2C WRITEBACK ACCESSES:    1772755 HITS:    1772645 MISSES:        110
L2C RQ ACCESS:    5258118
L2C RQ TO_CACHE:    5258095
L2C RQ MERGED:          0
L2C RQ FORWARD:          0
L2C WQ ACCESS:    1772755
L2C WQ TO_CACHE:    1772755
L2C WQ MERGED:          0
L2C WQ FORWARD:         39
LLC TOTAL     ACCESS:   12536011  HIT:    6490884  MISS:    6045127
LLC LOAD      ACCESS:    2943283  HIT:    2442579  MISS:     500704
LLC RFO       ACCESS:     146303  HIT:      43607  MISS:     102696
LLC PREFETCH  ACCESS:    9160449  HIT:    3811762  MISS:    5348687
LLC WRITEBACK ACCESS:     285976  HIT:     192936  MISS:      93040
LLC PREFETCH  REQUESTED:          0  ISSUED:          0  USEFUL:      20313  USELESS:    5328921
LLC TOTAL MSHR MERGED:       4477
LLC LOAD MSHR MERGED:       1269
LLC RFO MSHR MERGED:          0
LLC PREFETCH MSHR MERGED:       3208
LLC WRITEBACK MSHR MERGED:          0
LLC TOTAL ACCESSES:   12540522 HITS:    6490918 MISSES:    6049604
LLC LOAD ACCESSES:    2943306 HITS:    2442602 MISSES:     500704
LLC RFO ACCESSES:     146303 HITS:      43607 MISSES:     102696
LLC PREFETCH ACCESSES:    9164937 HITS:    3811773 MISSES:    5353164
LLC WRITEBACK ACCESSES:     285976 HITS:     192936 MISSES:      93040
LLC 0 RQ ACCESS:    3089609
LLC 0 RQ TO_CACHE:    3089586
LLC 0 RQ MERGED:          0
LLC 0 RQ FORWARD:          0
LLC WQ ACCESS:     285976
LLC WQ TO_CACHE:     285976
LLC WQ MERGED:          0
LLC WQ FORWARD:         34
Major fault: 0 Minor fault: 6524
CPU 0 L1D next line prefetcher final stats
CPU 0 L2C PC-based stride prefetcher final stats
All Misses: 7863184
All Hits: 7197840
SD Algo Stats - Switches: 0 SRR-Repls: 533558 BRR-Repls: 0

DRAM Statistics
 CHANNEL 0
 RQ ROW_BUFFER_HIT:    5048927  ROW_BUFFER_MISS:     891003
 DBUS_CONGESTED:    2052492
 WQ ROW_BUFFER_HIT:      29868  ROW_BUFFER_MISS:     122145  FULL:          0

 AVG_CONGESTED_CYCLE: 12
LOADS RETIRED: 175418235
INSTR RETIRED: 500000000
