
*** ChampSim Multicore Out-of-Order Simulator ***

Warmup Instructions: 100000000
Simulation Instructions: 500000000
Number of CPUs: 1
LLC sets: 2048
LLC ways: 16
Clean RRIP Policies: 2113230221132302 Dirty RRIP Policies: 1103130211031302 PSEL Width: 10 Track Set: 4294967295 PSEL Mask: 1 Demote Mask: 1040100010401000DS Algo: 0Window size: 0
Off-chip DRAM Size: 4096 MB Channels: 1 Width: 64-bit Data Rate: 1600 MT/s

CPU 0 runs /mnt/beegfs/iconst01/spec2017/x264.trace.gz
NOT SORTED
TRACE STRING: /mnt/beegfs/iconst01/spec2017/x264.trace.gz
SORTED
TRACE STRING: /mnt/beegfs/iconst01/spec2017/x264.trace.gz
INITIAL
TRACE STRING: /mnt/beegfs/iconst01/spec2017/x264.trace.gz

champsim_seed used: 276

CPU 0 L1D next line prefetcher
CPU 0 L2C IP-based stride prefetcher
Initialize DRRIP state
Assign rand_sets[0]: 454  LLC: 2048
rand_sets[0]: 454
Assign rand_sets[1]: 1662  LLC: 2048
rand_sets[1]: 1662
Assign rand_sets[2]: 1921  LLC: 2048
rand_sets[2]: 1921
Assign rand_sets[3]: 1131  LLC: 2048
rand_sets[3]: 1131
Assign rand_sets[4]: 331  LLC: 2048
rand_sets[4]: 331
Assign rand_sets[5]: 1531  LLC: 2048
rand_sets[5]: 1531
Assign rand_sets[6]: 482  LLC: 2048
rand_sets[6]: 482
Assign rand_sets[7]: 1275  LLC: 2048
rand_sets[7]: 1275
Assign rand_sets[8]: 1876  LLC: 2048
rand_sets[8]: 1876
Assign rand_sets[9]: 2038  LLC: 2048
rand_sets[9]: 2038
Assign rand_sets[10]: 701  LLC: 2048
rand_sets[10]: 701
Assign rand_sets[11]: 479  LLC: 2048
rand_sets[11]: 479
Assign rand_sets[12]: 892  LLC: 2048
rand_sets[12]: 892
Assign rand_sets[13]: 1820  LLC: 2048
rand_sets[13]: 1820
Assign rand_sets[14]: 1505  LLC: 2048
rand_sets[14]: 1505
Assign rand_sets[15]: 1159  LLC: 2048
rand_sets[15]: 1159
Assign rand_sets[16]: 513  LLC: 2048
rand_sets[16]: 513
Assign rand_sets[17]: 703  LLC: 2048
rand_sets[17]: 703
Assign rand_sets[18]: 561  LLC: 2048
rand_sets[18]: 561
Assign rand_sets[19]: 990  LLC: 2048
rand_sets[19]: 990
Assign rand_sets[20]: 342  LLC: 2048
rand_sets[20]: 342
Assign rand_sets[21]: 882  LLC: 2048
rand_sets[21]: 882
Assign rand_sets[22]: 15  LLC: 2048
rand_sets[22]: 15
Assign rand_sets[23]: 71  LLC: 2048
rand_sets[23]: 71
Assign rand_sets[24]: 1127  LLC: 2048
rand_sets[24]: 1127
Assign rand_sets[25]: 1382  LLC: 2048
rand_sets[25]: 1382
Assign rand_sets[26]: 647  LLC: 2048
rand_sets[26]: 647
Assign rand_sets[27]: 857  LLC: 2048
rand_sets[27]: 857
Assign rand_sets[28]: 1450  LLC: 2048
rand_sets[28]: 1450
Assign rand_sets[29]: 1160  LLC: 2048
rand_sets[29]: 1160
Assign rand_sets[30]: 1852  LLC: 2048
rand_sets[30]: 1852
Assign rand_sets[31]: 1881  LLC: 2048
rand_sets[31]: 1881
Assign rand_sets[32]: 1770  LLC: 2048
rand_sets[32]: 1770
Assign rand_sets[33]: 1622  LLC: 2048
rand_sets[33]: 1622
Assign rand_sets[34]: 275  LLC: 2048
rand_sets[34]: 275
Assign rand_sets[35]: 635  LLC: 2048
rand_sets[35]: 635
Assign rand_sets[36]: 466  LLC: 2048
rand_sets[36]: 466
Assign rand_sets[37]: 1413  LLC: 2048
rand_sets[37]: 1413
Assign rand_sets[38]: 417  LLC: 2048
rand_sets[38]: 417
Assign rand_sets[39]: 472  LLC: 2048
rand_sets[39]: 472
Assign rand_sets[40]: 1340  LLC: 2048
rand_sets[40]: 1340
Assign rand_sets[41]: 852  LLC: 2048
rand_sets[41]: 852
Assign rand_sets[42]: 1365  LLC: 2048
rand_sets[42]: 1365
Assign rand_sets[43]: 47  LLC: 2048
rand_sets[43]: 47
Assign rand_sets[44]: 823  LLC: 2048
rand_sets[44]: 823
Assign rand_sets[45]: 686  LLC: 2048
rand_sets[45]: 686
Assign rand_sets[46]: 1637  LLC: 2048
rand_sets[46]: 1637
Assign rand_sets[47]: 1115  LLC: 2048
rand_sets[47]: 1115
Assign rand_sets[48]: 986  LLC: 2048
rand_sets[48]: 986
Assign rand_sets[49]: 258  LLC: 2048
rand_sets[49]: 258
Assign rand_sets[50]: 633  LLC: 2048
rand_sets[50]: 633
Assign rand_sets[51]: 920  LLC: 2048
rand_sets[51]: 920
Assign rand_sets[52]: 204  LLC: 2048
rand_sets[52]: 204
Assign rand_sets[53]: 227  LLC: 2048
rand_sets[53]: 227
Assign rand_sets[54]: 1818  LLC: 2048
rand_sets[54]: 1818
Assign rand_sets[55]: 886  LLC: 2048
rand_sets[55]: 886
Assign rand_sets[56]: 1422  LLC: 2048
rand_sets[56]: 1422
Assign rand_sets[57]: 607  LLC: 2048
rand_sets[57]: 607
Assign rand_sets[58]: 217  LLC: 2048
rand_sets[58]: 217
Assign rand_sets[59]: 1945  LLC: 2048
rand_sets[59]: 1945
Assign rand_sets[60]: 143  LLC: 2048
rand_sets[60]: 143
Assign rand_sets[61]: 1311  LLC: 2048
rand_sets[61]: 1311
Assign rand_sets[62]: 319  LLC: 2048
rand_sets[62]: 319
Assign rand_sets[63]: 1846  LLC: 2048
rand_sets[63]: 1846
 CLEAN-RRIP-POLICY-1: 2-1-1-3-2-3-0-2- CLEAN-RRIP-POLICY-2: 2-1-1-3-2-3-0-2-
 DIRTY-RRIP-POLICY-1: 1-1-0-3-1-3-0-2- DIRTY-RRIP-POLICY-2: 1-1-0-3-1-3-0-2-
 PSEL width: 10
Heartbeat CPU 0 instructions: 10000000 cycles: 4124759 heartbeat IPC: 2.42438 cumulative IPC: 2.42438 (Simulation time: 0 hr 0 min 14 sec) 
Heartbeat CPU 0 instructions: 20000000 cycles: 8233863 heartbeat IPC: 2.43362 cumulative IPC: 2.42899 (Simulation time: 0 hr 0 min 27 sec) 
Heartbeat CPU 0 instructions: 30000003 cycles: 12464696 heartbeat IPC: 2.3636 cumulative IPC: 2.4068 (Simulation time: 0 hr 0 min 39 sec) 
Heartbeat CPU 0 instructions: 40000000 cycles: 16636669 heartbeat IPC: 2.39695 cumulative IPC: 2.40433 (Simulation time: 0 hr 0 min 53 sec) 
Heartbeat CPU 0 instructions: 50000000 cycles: 20699150 heartbeat IPC: 2.46155 cumulative IPC: 2.41556 (Simulation time: 0 hr 1 min 6 sec) 
Heartbeat CPU 0 instructions: 60000000 cycles: 25022634 heartbeat IPC: 2.31295 cumulative IPC: 2.39783 (Simulation time: 0 hr 1 min 19 sec) 
Heartbeat CPU 0 instructions: 70000000 cycles: 29370909 heartbeat IPC: 2.29976 cumulative IPC: 2.38331 (Simulation time: 0 hr 1 min 32 sec) 
Heartbeat CPU 0 instructions: 80000000 cycles: 33721042 heartbeat IPC: 2.29878 cumulative IPC: 2.37241 (Simulation time: 0 hr 1 min 45 sec) 
Heartbeat CPU 0 instructions: 90000002 cycles: 38032029 heartbeat IPC: 2.31965 cumulative IPC: 2.36643 (Simulation time: 0 hr 1 min 58 sec) 
Heartbeat CPU 0 instructions: 100000000 cycles: 42328942 heartbeat IPC: 2.32725 cumulative IPC: 2.36245 (Simulation time: 0 hr 2 min 11 sec) 

Warmup complete CPU 0 instructions: 100000001 cycles: 42328943 (Simulation time: 0 hr 2 min 11 sec) 

Heartbeat CPU 0 instructions: 110000001 cycles: 49382342 heartbeat IPC: 1.41776 cumulative IPC: 1.41776 (Simulation time: 0 hr 2 min 28 sec) 
Heartbeat CPU 0 instructions: 120000000 cycles: 58870559 heartbeat IPC: 1.05394 cumulative IPC: 1.20907 (Simulation time: 0 hr 2 min 47 sec) 
Heartbeat CPU 0 instructions: 130000000 cycles: 63672703 heartbeat IPC: 2.0824 cumulative IPC: 1.40556 (Simulation time: 0 hr 3 min 4 sec) 
Heartbeat CPU 0 instructions: 140000000 cycles: 68571058 heartbeat IPC: 2.0415 cumulative IPC: 1.52427 (Simulation time: 0 hr 3 min 20 sec) 
Heartbeat CPU 0 instructions: 150000002 cycles: 75406512 heartbeat IPC: 1.46296 cumulative IPC: 1.5116 (Simulation time: 0 hr 3 min 38 sec) 
Heartbeat CPU 0 instructions: 160000000 cycles: 83243826 heartbeat IPC: 1.27595 cumulative IPC: 1.46646 (Simulation time: 0 hr 3 min 55 sec) 
Heartbeat CPU 0 instructions: 170000000 cycles: 90649232 heartbeat IPC: 1.35036 cumulative IPC: 1.44867 (Simulation time: 0 hr 4 min 12 sec) 
Heartbeat CPU 0 instructions: 180000000 cycles: 97951864 heartbeat IPC: 1.36937 cumulative IPC: 1.43826 (Simulation time: 0 hr 4 min 29 sec) 
Heartbeat CPU 0 instructions: 190000002 cycles: 105121191 heartbeat IPC: 1.39483 cumulative IPC: 1.4333 (Simulation time: 0 hr 4 min 46 sec) 
Heartbeat CPU 0 instructions: 200000000 cycles: 112355023 heartbeat IPC: 1.38239 cumulative IPC: 1.42804 (Simulation time: 0 hr 5 min 3 sec) 
Heartbeat CPU 0 instructions: 210000000 cycles: 119227169 heartbeat IPC: 1.45515 cumulative IPC: 1.43046 (Simulation time: 0 hr 5 min 19 sec) 
Heartbeat CPU 0 instructions: 220000000 cycles: 126000490 heartbeat IPC: 1.47638 cumulative IPC: 1.43418 (Simulation time: 0 hr 5 min 35 sec) 
Heartbeat CPU 0 instructions: 230000003 cycles: 132729924 heartbeat IPC: 1.48601 cumulative IPC: 1.43804 (Simulation time: 0 hr 5 min 52 sec) 
Heartbeat CPU 0 instructions: 240000000 cycles: 139482725 heartbeat IPC: 1.48087 cumulative IPC: 1.44101 (Simulation time: 0 hr 6 min 8 sec) 
Heartbeat CPU 0 instructions: 250000001 cycles: 146210112 heartbeat IPC: 1.48646 cumulative IPC: 1.44396 (Simulation time: 0 hr 6 min 24 sec) 
Heartbeat CPU 0 instructions: 260000000 cycles: 152916105 heartbeat IPC: 1.4912 cumulative IPC: 1.44682 (Simulation time: 0 hr 6 min 40 sec) 
Heartbeat CPU 0 instructions: 270000001 cycles: 159891165 heartbeat IPC: 1.43368 cumulative IPC: 1.44604 (Simulation time: 0 hr 6 min 57 sec) 
Heartbeat CPU 0 instructions: 280000000 cycles: 167418755 heartbeat IPC: 1.32845 cumulative IPC: 1.43897 (Simulation time: 0 hr 7 min 14 sec) 
Heartbeat CPU 0 instructions: 290000000 cycles: 175338181 heartbeat IPC: 1.26272 cumulative IPC: 1.42847 (Simulation time: 0 hr 7 min 31 sec) 
Heartbeat CPU 0 instructions: 300000000 cycles: 183507202 heartbeat IPC: 1.22414 cumulative IPC: 1.41665 (Simulation time: 0 hr 7 min 49 sec) 
Heartbeat CPU 0 instructions: 310000002 cycles: 191812110 heartbeat IPC: 1.20411 cumulative IPC: 1.40484 (Simulation time: 0 hr 8 min 7 sec) 
Heartbeat CPU 0 instructions: 320000000 cycles: 201757193 heartbeat IPC: 1.00552 cumulative IPC: 1.37993 (Simulation time: 0 hr 8 min 26 sec) 
Heartbeat CPU 0 instructions: 330000002 cycles: 206384064 heartbeat IPC: 2.16129 cumulative IPC: 1.40197 (Simulation time: 0 hr 8 min 43 sec) 
Heartbeat CPU 0 instructions: 340000000 cycles: 211612634 heartbeat IPC: 1.91257 cumulative IPC: 1.41774 (Simulation time: 0 hr 9 min 0 sec) 
Heartbeat CPU 0 instructions: 350000000 cycles: 218844968 heartbeat IPC: 1.38268 cumulative IPC: 1.4163 (Simulation time: 0 hr 9 min 17 sec) 
Heartbeat CPU 0 instructions: 360000000 cycles: 226511145 heartbeat IPC: 1.30443 cumulative IPC: 1.41165 (Simulation time: 0 hr 9 min 35 sec) 
Heartbeat CPU 0 instructions: 370000000 cycles: 233919894 heartbeat IPC: 1.34976 cumulative IPC: 1.40925 (Simulation time: 0 hr 9 min 52 sec) 
Heartbeat CPU 0 instructions: 380000000 cycles: 241193850 heartbeat IPC: 1.37477 cumulative IPC: 1.40799 (Simulation time: 0 hr 10 min 8 sec) 
Heartbeat CPU 0 instructions: 390000000 cycles: 249310183 heartbeat IPC: 1.23208 cumulative IPC: 1.40109 (Simulation time: 0 hr 10 min 26 sec) 
Heartbeat CPU 0 instructions: 400000000 cycles: 257516166 heartbeat IPC: 1.21862 cumulative IPC: 1.39413 (Simulation time: 0 hr 10 min 44 sec) 
Heartbeat CPU 0 instructions: 410000001 cycles: 265338520 heartbeat IPC: 1.27839 cumulative IPC: 1.39007 (Simulation time: 0 hr 11 min 1 sec) 
Heartbeat CPU 0 instructions: 420000000 cycles: 273389505 heartbeat IPC: 1.24208 cumulative IPC: 1.38492 (Simulation time: 0 hr 11 min 19 sec) 
Heartbeat CPU 0 instructions: 430000001 cycles: 281647279 heartbeat IPC: 1.21098 cumulative IPC: 1.37892 (Simulation time: 0 hr 11 min 37 sec) 
Heartbeat CPU 0 instructions: 440000000 cycles: 289688296 heartbeat IPC: 1.24362 cumulative IPC: 1.37452 (Simulation time: 0 hr 11 min 54 sec) 
Heartbeat CPU 0 instructions: 450000001 cycles: 297553526 heartbeat IPC: 1.27142 cumulative IPC: 1.37134 (Simulation time: 0 hr 12 min 12 sec) 
Heartbeat CPU 0 instructions: 460000000 cycles: 307453921 heartbeat IPC: 1.01006 cumulative IPC: 1.35785 (Simulation time: 0 hr 12 min 31 sec) 
Heartbeat CPU 0 instructions: 470000002 cycles: 312075840 heartbeat IPC: 2.1636 cumulative IPC: 1.37166 (Simulation time: 0 hr 12 min 47 sec) 
Heartbeat CPU 0 instructions: 480000000 cycles: 317318576 heartbeat IPC: 1.9074 cumulative IPC: 1.38187 (Simulation time: 0 hr 13 min 3 sec) 
Heartbeat CPU 0 instructions: 490000001 cycles: 324641798 heartbeat IPC: 1.36552 cumulative IPC: 1.38145 (Simulation time: 0 hr 13 min 22 sec) 
Heartbeat CPU 0 instructions: 500000000 cycles: 333373024 heartbeat IPC: 1.14531 cumulative IPC: 1.37436 (Simulation time: 0 hr 13 min 41 sec) 
Heartbeat CPU 0 instructions: 510000002 cycles: 342106493 heartbeat IPC: 1.14502 cumulative IPC: 1.36768 (Simulation time: 0 hr 14 min 1 sec) 
Heartbeat CPU 0 instructions: 520000000 cycles: 350835568 heartbeat IPC: 1.1456 cumulative IPC: 1.3614 (Simulation time: 0 hr 14 min 20 sec) 
Heartbeat CPU 0 instructions: 530000000 cycles: 359543547 heartbeat IPC: 1.14837 cumulative IPC: 1.35555 (Simulation time: 0 hr 14 min 39 sec) 
Heartbeat CPU 0 instructions: 540000000 cycles: 367800535 heartbeat IPC: 1.2111 cumulative IPC: 1.35188 (Simulation time: 0 hr 14 min 58 sec) 
Heartbeat CPU 0 instructions: 550000000 cycles: 374840848 heartbeat IPC: 1.42039 cumulative IPC: 1.35334 (Simulation time: 0 hr 15 min 15 sec) 
Heartbeat CPU 0 instructions: 560000000 cycles: 381452655 heartbeat IPC: 1.51245 cumulative IPC: 1.35644 (Simulation time: 0 hr 15 min 32 sec) 
Heartbeat CPU 0 instructions: 570000002 cycles: 388049839 heartbeat IPC: 1.5158 cumulative IPC: 1.35948 (Simulation time: 0 hr 15 min 48 sec) 
Heartbeat CPU 0 instructions: 580000000 cycles: 394695091 heartbeat IPC: 1.50483 cumulative IPC: 1.36222 (Simulation time: 0 hr 16 min 5 sec) 
Heartbeat CPU 0 instructions: 590000002 cycles: 401386766 heartbeat IPC: 1.49439 cumulative IPC: 1.36468 (Simulation time: 0 hr 16 min 21 sec) 
Heartbeat CPU 0 instructions: 600000000 cycles: 408197346 heartbeat IPC: 1.4683 cumulative IPC: 1.36661 (Simulation time: 0 hr 16 min 38 sec) 
Finished CPU 0 instructions: 500000000 cycles: 365868411 cumulative IPC: 1.36661 (Simulation time: 0 hr 16 min 38 sec) 

CPU 0 Branch Prediction Accuracy: 93.4682% MPKI: 2.44079
Number of Branches: 18683822 Number of Mispredictions: 1220394
Number of LOAD Instructions: 142551610
Number of LOAD Instructions (ROI): 142551610
Number of STORE Instructions: 44807454
Number of STORE Instructions (ROI): 44807454
Total Destination Memory Operands: 48357071
Total Destination Memory Operands (ROI): 48357071
Total Source Memory Operands: 142551610
Total Source Memory Operands (ROI): 142551610
Number of DEPENDED LOADS: 7395137
Number of DEPENDED LOADS (ROI): 7395137
Number of SQ_ADDED: 48357051
Number of SQ_ADDED (ROI): 48357051
Number of LQ_ADDED: 157236460
Number of LQ_ADDED (ROI): 157236460
Number of Instructions read from trace: 600000256

ChampSim completed all CPUs

Region of Interest Statistics

CPU 0 cumulative IPC: 1.36661 instructions: 500000000 cycles: 365868411
ITLB TOTAL     ACCESS:   88177699  HIT:   88177630  MISS:         69
ITLB LOAD      ACCESS:   88177699  HIT:   88177630  MISS:         69
ITLB RFO       ACCESS:          0  HIT:          0  MISS:          0
ITLB PREFETCH  ACCESS:          0  HIT:          0  MISS:          0
ITLB WRITEBACK ACCESS:          0  HIT:          0  MISS:          0
ITLB PREFETCH  REQUESTED:          0  ISSUED:          0  USEFUL:          0  USELESS:          0
ITLB TOTAL MSHR MERGED:         85
ITLB LOAD MSHR MERGED:         85
ITLB RFO MSHR MERGED:          0
ITLB PREFETCH MSHR MERGED:          0
ITLB WRITEBACK MSHR MERGED:          0
ITLB TOTAL ACCESSES:   88177784 HITS:   88177630 MISSES:        154
ITLB LOAD ACCESSES:   88177784 HITS:   88177630 MISSES:        154
ITLB RFO ACCESSES:          0 HITS:          0 MISSES:          0
ITLB PREFETCH ACCESSES:          0 HITS:          0 MISSES:          0
ITLB WRITEBACK ACCESSES:          0 HITS:          0 MISSES:          0
ITLB RQ ACCESS:  500000000
ITLB RQ TO_CACHE:   88177784
ITLB RQ MERGED:  411822216
ITLB RQ FORWARD:          0
ITLB WQ ACCESS:          0
ITLB WQ TO_CACHE:          0
ITLB WQ MERGED:          0
ITLB WQ FORWARD:          0
DTLB TOTAL     ACCESS:   88203711  HIT:   88076296  MISS:     127415
DTLB LOAD      ACCESS:   59485806  HIT:   59393354  MISS:      92452
DTLB RFO       ACCESS:   28717905  HIT:   28682942  MISS:      34963
DTLB PREFETCH  ACCESS:          0  HIT:          0  MISS:          0
DTLB WRITEBACK ACCESS:          0  HIT:          0  MISS:          0
DTLB PREFETCH  REQUESTED:          0  ISSUED:          0  USEFUL:          0  USELESS:          0
DTLB TOTAL MSHR MERGED:     141109
DTLB LOAD MSHR MERGED:     107640
DTLB RFO MSHR MERGED:      33469
DTLB PREFETCH MSHR MERGED:          0
DTLB WRITEBACK MSHR MERGED:          0
DTLB TOTAL ACCESSES:   88344820 HITS:   88076296 MISSES:     268524
DTLB LOAD ACCESSES:   59593446 HITS:   59393354 MISSES:     200092
DTLB RFO ACCESSES:   28751374 HITS:   28682942 MISSES:      68432
DTLB PREFETCH ACCESSES:          0 HITS:          0 MISSES:          0
DTLB WRITEBACK ACCESSES:          0 HITS:          0 MISSES:          0
DTLB RQ ACCESS:  154558762
DTLB RQ TO_CACHE:   88344820
DTLB RQ MERGED:   66213942
DTLB RQ FORWARD:          0
DTLB WQ ACCESS:          0
DTLB WQ TO_CACHE:          0
DTLB WQ MERGED:          0
DTLB WQ FORWARD:          0
L1D TOTAL     ACCESS:  128130631  HIT:  124905979  MISS:    3224652
L1D LOAD      ACCESS:   53172350  HIT:   51977145  MISS:    1195205
L1D RFO       ACCESS:   37368524  HIT:   36754243  MISS:     614281
L1D PREFETCH  ACCESS:   37589757  HIT:   36174591  MISS:    1415166
L1D WRITEBACK ACCESS:          0  HIT:          0  MISS:          0
L1D PREFETCH  REQUESTED:   53657282  ISSUED:   52455415  USEFUL:     352123  USELESS:    1063008
L1D TOTAL MSHR MERGED:    2781643
L1D LOAD MSHR MERGED:     523584
L1D RFO MSHR MERGED:    1585680
L1D PREFETCH MSHR MERGED:     672379
L1D WRITEBACK MSHR MERGED:          0
L1D TOTAL ACCESSES:  130947185 HITS:  124940890 MISSES:    6006295
L1D LOAD ACCESSES:   53660191 HITS:   51980054 MISSES:    1680137
L1D RFO ACCESSES:   38952863 HITS:   36754243 MISSES:    2198620
L1D PREFETCH ACCESSES:   38334131 HITS:   36206593 MISSES:    2127538
L1D WRITEBACK ACCESSES:          0 HITS:          0 MISSES:          0
L1D RQ ACCESS:  113713870
L1D RQ TO_CACHE:   53657282
L1D RQ MERGED:   60053679
L1D RQ FORWARD:          0
L1D WQ ACCESS:   40844891
L1D WQ TO_CACHE:   38952863
L1D WQ MERGED:    1892028
L1D WQ FORWARD:      34911
L1I TOTAL     ACCESS:  108369184  HIT:  107810051  MISS:     559133
L1I LOAD      ACCESS:  108369184  HIT:  107810051  MISS:     559133
L1I RFO       ACCESS:          0  HIT:          0  MISS:          0
L1I PREFETCH  ACCESS:          0  HIT:          0  MISS:          0
L1I WRITEBACK ACCESS:          0  HIT:          0  MISS:          0
L1I PREFETCH  REQUESTED:          0  ISSUED:          0  USEFUL:          0  USELESS:          0
L1I TOTAL MSHR MERGED:     525706
L1I LOAD MSHR MERGED:     525706
L1I RFO MSHR MERGED:          0
L1I PREFETCH MSHR MERGED:          0
L1I WRITEBACK MSHR MERGED:          0
L1I TOTAL ACCESSES:  108894890 HITS:  107810051 MISSES:    1084839
L1I LOAD ACCESSES:  108894890 HITS:  107810051 MISSES:    1084839
L1I RFO ACCESSES:          0 HITS:          0 MISSES:          0
L1I PREFETCH ACCESSES:          0 HITS:          0 MISSES:          0
L1I WRITEBACK ACCESSES:          0 HITS:          0 MISSES:          0
L1I RQ ACCESS:  500000002
L1I RQ TO_CACHE:  108894890
L1I RQ MERGED:  391105112
L1I RQ FORWARD:          0
L1I WQ ACCESS:          0
L1I WQ TO_CACHE:          0
L1I WQ MERGED:          0
L1I WQ FORWARD:          0
L2C TOTAL     ACCESS:    4691425  HIT:    3866258  MISS:     825167
L2C LOAD      ACCESS:    1715573  HIT:    1562886  MISS:     152687
L2C RFO       ACCESS:     611518  HIT:     421242  MISS:     190276
L2C PREFETCH  ACCESS:    1661444  HIT:    1181425  MISS:     480019
L2C WRITEBACK ACCESS:     702890  HIT:     700705  MISS:       2185
L2C PREFETCH  REQUESTED:     256270  ISSUED:     256270  USEFUL:     173378  USELESS:     307307
L2C TOTAL MSHR MERGED:      13311
L2C LOAD MSHR MERGED:       4007
L2C RFO MSHR MERGED:          0
L2C PREFETCH MSHR MERGED:       9304
L2C WRITEBACK MSHR MERGED:          0
L2C TOTAL ACCESSES:    4710920 HITS:    3867862 MISSES:     843058
L2C LOAD ACCESSES:    1715686 HITS:    1562999 MISSES:     152687
L2C RFO ACCESSES:     612940 HITS:     422664 MISSES:     190276
L2C PREFETCH ACCESSES:    1679404 HITS:    1181494 MISSES:     497910
L2C WRITEBACK ACCESSES:     702890 HITS:     700705 MISSES:       2185
L2C RQ ACCESS:    2328626
L2C RQ TO_CACHE:    2327091
L2C RQ MERGED:          0
L2C RQ FORWARD:          0
L2C WQ ACCESS:     702890
L2C WQ TO_CACHE:     702890
L2C WQ MERGED:          0
L2C WQ FORWARD:       1604
LLC TOTAL     ACCESS:    1046594  HIT:     302776  MISS:     743818
LLC LOAD      ACCESS:     148676  HIT:      90469  MISS:      58207
LLC RFO       ACCESS:     190267  HIT:       5968  MISS:     184299
LLC PREFETCH  ACCESS:     486776  HIT:     167175  MISS:     319601
LLC WRITEBACK ACCESS:     220875  HIT:      39164  MISS:     181711
LLC PREFETCH  REQUESTED:          0  ISSUED:          0  USEFUL:       2313  USELESS:     317715
LLC TOTAL MSHR MERGED:       1193
LLC LOAD MSHR MERGED:        352
LLC RFO MSHR MERGED:          0
LLC PREFETCH MSHR MERGED:        841
LLC WRITEBACK MSHR MERGED:          0
LLC TOTAL ACCESSES:    1047800 HITS:     302789 MISSES:     745011
LLC LOAD ACCESSES:     148680 HITS:      90473 MISSES:      58207
LLC RFO ACCESSES:     190276 HITS:       5977 MISSES:     184299
LLC PREFETCH ACCESSES:     487969 HITS:     167175 MISSES:     320794
LLC WRITEBACK ACCESSES:     220875 HITS:      39164 MISSES:     181711
LLC 0 RQ ACCESS:     338956
LLC 0 RQ TO_CACHE:     338943
LLC 0 RQ MERGED:          0
LLC 0 RQ FORWARD:          0
LLC WQ ACCESS:     220875
LLC WQ TO_CACHE:     220875
LLC WQ MERGED:          0
LLC WQ FORWARD:         13
Major fault: 0 Minor fault: 6811
CPU 0 L1D next line prefetcher final stats
CPU 0 L2C PC-based stride prefetcher final stats
All Misses: 882905
All Hits: 370672
SD Algo Stats - Switches: 0 SRR-Repls: 65749 BRR-Repls: 0

DRAM Statistics
 CHANNEL 0
 RQ ROW_BUFFER_HIT:     279031  ROW_BUFFER_MISS:     283031
 DBUS_CONGESTED:     391955
 WQ ROW_BUFFER_HIT:      23722  ROW_BUFFER_MISS:     193068  FULL:          0

 AVG_CONGESTED_CYCLE: 13
LOADS RETIRED: 119922929
INSTR RETIRED: 500000000
