
*** ChampSim Multicore Out-of-Order Simulator ***

Warmup Instructions: 100000000
Simulation Instructions: 500000000
Number of CPUs: 1
LLC sets: 2048
LLC ways: 16
Clean RRIP Policies: 2213230222132302 Dirty RRIP Policies: 2203130222031302 PSEL Width: 10 Track Set: 4294967295 PSEL Mask: 1 Demote Mask: 3044100030441000DS Algo: 0Window size: 0
Off-chip DRAM Size: 4096 MB Channels: 1 Width: 64-bit Data Rate: 1600 MT/s

CPU 0 runs /mnt/beegfs/iconst01/spec2017/Cam4.trace.gz
NOT SORTED
TRACE STRING: /mnt/beegfs/iconst01/spec2017/Cam4.trace.gz
SORTED
TRACE STRING: /mnt/beegfs/iconst01/spec2017/Cam4.trace.gz
INITIAL
TRACE STRING: /mnt/beegfs/iconst01/spec2017/Cam4.trace.gz

champsim_seed used: 325

CPU 0 L1D next line prefetcher
CPU 0 L2C IP-based stride prefetcher
Initialize DRRIP state
Assign rand_sets[0]: 454  LLC: 2048
rand_sets[0]: 454
Assign rand_sets[1]: 1662  LLC: 2048
rand_sets[1]: 1662
Assign rand_sets[2]: 1921  LLC: 2048
rand_sets[2]: 1921
Assign rand_sets[3]: 1131  LLC: 2048
rand_sets[3]: 1131
Assign rand_sets[4]: 331  LLC: 2048
rand_sets[4]: 331
Assign rand_sets[5]: 1531  LLC: 2048
rand_sets[5]: 1531
Assign rand_sets[6]: 482  LLC: 2048
rand_sets[6]: 482
Assign rand_sets[7]: 1275  LLC: 2048
rand_sets[7]: 1275
Assign rand_sets[8]: 1876  LLC: 2048
rand_sets[8]: 1876
Assign rand_sets[9]: 2038  LLC: 2048
rand_sets[9]: 2038
Assign rand_sets[10]: 701  LLC: 2048
rand_sets[10]: 701
Assign rand_sets[11]: 479  LLC: 2048
rand_sets[11]: 479
Assign rand_sets[12]: 892  LLC: 2048
rand_sets[12]: 892
Assign rand_sets[13]: 1820  LLC: 2048
rand_sets[13]: 1820
Assign rand_sets[14]: 1505  LLC: 2048
rand_sets[14]: 1505
Assign rand_sets[15]: 1159  LLC: 2048
rand_sets[15]: 1159
Assign rand_sets[16]: 513  LLC: 2048
rand_sets[16]: 513
Assign rand_sets[17]: 703  LLC: 2048
rand_sets[17]: 703
Assign rand_sets[18]: 561  LLC: 2048
rand_sets[18]: 561
Assign rand_sets[19]: 990  LLC: 2048
rand_sets[19]: 990
Assign rand_sets[20]: 342  LLC: 2048
rand_sets[20]: 342
Assign rand_sets[21]: 882  LLC: 2048
rand_sets[21]: 882
Assign rand_sets[22]: 15  LLC: 2048
rand_sets[22]: 15
Assign rand_sets[23]: 71  LLC: 2048
rand_sets[23]: 71
Assign rand_sets[24]: 1127  LLC: 2048
rand_sets[24]: 1127
Assign rand_sets[25]: 1382  LLC: 2048
rand_sets[25]: 1382
Assign rand_sets[26]: 647  LLC: 2048
rand_sets[26]: 647
Assign rand_sets[27]: 857  LLC: 2048
rand_sets[27]: 857
Assign rand_sets[28]: 1450  LLC: 2048
rand_sets[28]: 1450
Assign rand_sets[29]: 1160  LLC: 2048
rand_sets[29]: 1160
Assign rand_sets[30]: 1852  LLC: 2048
rand_sets[30]: 1852
Assign rand_sets[31]: 1881  LLC: 2048
rand_sets[31]: 1881
Assign rand_sets[32]: 1770  LLC: 2048
rand_sets[32]: 1770
Assign rand_sets[33]: 1622  LLC: 2048
rand_sets[33]: 1622
Assign rand_sets[34]: 275  LLC: 2048
rand_sets[34]: 275
Assign rand_sets[35]: 635  LLC: 2048
rand_sets[35]: 635
Assign rand_sets[36]: 466  LLC: 2048
rand_sets[36]: 466
Assign rand_sets[37]: 1413  LLC: 2048
rand_sets[37]: 1413
Assign rand_sets[38]: 417  LLC: 2048
rand_sets[38]: 417
Assign rand_sets[39]: 472  LLC: 2048
rand_sets[39]: 472
Assign rand_sets[40]: 1340  LLC: 2048
rand_sets[40]: 1340
Assign rand_sets[41]: 852  LLC: 2048
rand_sets[41]: 852
Assign rand_sets[42]: 1365  LLC: 2048
rand_sets[42]: 1365
Assign rand_sets[43]: 47  LLC: 2048
rand_sets[43]: 47
Assign rand_sets[44]: 823  LLC: 2048
rand_sets[44]: 823
Assign rand_sets[45]: 686  LLC: 2048
rand_sets[45]: 686
Assign rand_sets[46]: 1637  LLC: 2048
rand_sets[46]: 1637
Assign rand_sets[47]: 1115  LLC: 2048
rand_sets[47]: 1115
Assign rand_sets[48]: 986  LLC: 2048
rand_sets[48]: 986
Assign rand_sets[49]: 258  LLC: 2048
rand_sets[49]: 258
Assign rand_sets[50]: 633  LLC: 2048
rand_sets[50]: 633
Assign rand_sets[51]: 920  LLC: 2048
rand_sets[51]: 920
Assign rand_sets[52]: 204  LLC: 2048
rand_sets[52]: 204
Assign rand_sets[53]: 227  LLC: 2048
rand_sets[53]: 227
Assign rand_sets[54]: 1818  LLC: 2048
rand_sets[54]: 1818
Assign rand_sets[55]: 886  LLC: 2048
rand_sets[55]: 886
Assign rand_sets[56]: 1422  LLC: 2048
rand_sets[56]: 1422
Assign rand_sets[57]: 607  LLC: 2048
rand_sets[57]: 607
Assign rand_sets[58]: 217  LLC: 2048
rand_sets[58]: 217
Assign rand_sets[59]: 1945  LLC: 2048
rand_sets[59]: 1945
Assign rand_sets[60]: 143  LLC: 2048
rand_sets[60]: 143
Assign rand_sets[61]: 1311  LLC: 2048
rand_sets[61]: 1311
Assign rand_sets[62]: 319  LLC: 2048
rand_sets[62]: 319
Assign rand_sets[63]: 1846  LLC: 2048
rand_sets[63]: 1846
 CLEAN-RRIP-POLICY-1: 2-2-1-3-2-3-0-2- CLEAN-RRIP-POLICY-2: 2-2-1-3-2-3-0-2-
 DIRTY-RRIP-POLICY-1: 2-2-0-3-1-3-0-2- DIRTY-RRIP-POLICY-2: 2-2-0-3-1-3-0-2-
 PSEL width: 10
Heartbeat CPU 0 instructions: 10000000 cycles: 4859184 heartbeat IPC: 2.05796 cumulative IPC: 2.05796 (Simulation time: 0 hr 0 min 16 sec) 
Heartbeat CPU 0 instructions: 20000000 cycles: 9790786 heartbeat IPC: 2.02774 cumulative IPC: 2.04274 (Simulation time: 0 hr 0 min 33 sec) 
Heartbeat CPU 0 instructions: 30000001 cycles: 14562961 heartbeat IPC: 2.09548 cumulative IPC: 2.06002 (Simulation time: 0 hr 0 min 48 sec) 
Heartbeat CPU 0 instructions: 40000000 cycles: 19399960 heartbeat IPC: 2.0674 cumulative IPC: 2.06186 (Simulation time: 0 hr 1 min 5 sec) 
Heartbeat CPU 0 instructions: 50000000 cycles: 24256487 heartbeat IPC: 2.05908 cumulative IPC: 2.0613 (Simulation time: 0 hr 1 min 22 sec) 
Heartbeat CPU 0 instructions: 60000000 cycles: 29181924 heartbeat IPC: 2.03028 cumulative IPC: 2.05607 (Simulation time: 0 hr 1 min 39 sec) 
Heartbeat CPU 0 instructions: 70000001 cycles: 33956967 heartbeat IPC: 2.09422 cumulative IPC: 2.06143 (Simulation time: 0 hr 1 min 54 sec) 
Heartbeat CPU 0 instructions: 80000000 cycles: 38793228 heartbeat IPC: 2.06771 cumulative IPC: 2.06222 (Simulation time: 0 hr 2 min 11 sec) 
Heartbeat CPU 0 instructions: 90000002 cycles: 43647286 heartbeat IPC: 2.06013 cumulative IPC: 2.06198 (Simulation time: 0 hr 2 min 28 sec) 
Heartbeat CPU 0 instructions: 100000000 cycles: 48566105 heartbeat IPC: 2.03301 cumulative IPC: 2.05905 (Simulation time: 0 hr 2 min 45 sec) 

Warmup complete CPU 0 instructions: 100000001 cycles: 48566106 (Simulation time: 0 hr 2 min 45 sec) 

Heartbeat CPU 0 instructions: 110000000 cycles: 61622270 heartbeat IPC: 0.765922 cumulative IPC: 0.765922 (Simulation time: 0 hr 3 min 9 sec) 
Heartbeat CPU 0 instructions: 120000000 cycles: 75379412 heartbeat IPC: 0.726895 cumulative IPC: 0.745898 (Simulation time: 0 hr 3 min 34 sec) 
Heartbeat CPU 0 instructions: 130000000 cycles: 89131732 heartbeat IPC: 0.72715 cumulative IPC: 0.739542 (Simulation time: 0 hr 3 min 59 sec) 
Heartbeat CPU 0 instructions: 140000000 cycles: 103398470 heartbeat IPC: 0.700931 cumulative IPC: 0.729496 (Simulation time: 0 hr 4 min 25 sec) 
Heartbeat CPU 0 instructions: 150000003 cycles: 116553436 heartbeat IPC: 0.760169 cumulative IPC: 0.735431 (Simulation time: 0 hr 4 min 48 sec) 
Heartbeat CPU 0 instructions: 160000000 cycles: 130309996 heartbeat IPC: 0.726926 cumulative IPC: 0.734 (Simulation time: 0 hr 5 min 14 sec) 
Heartbeat CPU 0 instructions: 170000001 cycles: 144096613 heartbeat IPC: 0.725341 cumulative IPC: 0.73275 (Simulation time: 0 hr 5 min 40 sec) 
Heartbeat CPU 0 instructions: 180000000 cycles: 158350144 heartbeat IPC: 0.70158 cumulative IPC: 0.728703 (Simulation time: 0 hr 6 min 5 sec) 
Heartbeat CPU 0 instructions: 190000003 cycles: 171475781 heartbeat IPC: 0.761868 cumulative IPC: 0.732245 (Simulation time: 0 hr 6 min 28 sec) 
Heartbeat CPU 0 instructions: 200000000 cycles: 185233541 heartbeat IPC: 0.726862 cumulative IPC: 0.731703 (Simulation time: 0 hr 6 min 54 sec) 
Heartbeat CPU 0 instructions: 210000002 cycles: 199022618 heartbeat IPC: 0.725212 cumulative IPC: 0.731108 (Simulation time: 0 hr 7 min 19 sec) 
Heartbeat CPU 0 instructions: 220000000 cycles: 213276738 heartbeat IPC: 0.701551 cumulative IPC: 0.72855 (Simulation time: 0 hr 7 min 45 sec) 
Heartbeat CPU 0 instructions: 230000001 cycles: 226336905 heartbeat IPC: 0.765687 cumulative IPC: 0.731279 (Simulation time: 0 hr 8 min 8 sec) 
Heartbeat CPU 0 instructions: 240000000 cycles: 240084758 heartbeat IPC: 0.727386 cumulative IPC: 0.730999 (Simulation time: 0 hr 8 min 34 sec) 
Heartbeat CPU 0 instructions: 250000001 cycles: 253819019 heartbeat IPC: 0.728106 cumulative IPC: 0.730806 (Simulation time: 0 hr 8 min 59 sec) 
Heartbeat CPU 0 instructions: 260000000 cycles: 267965347 heartbeat IPC: 0.706897 cumulative IPC: 0.729264 (Simulation time: 0 hr 9 min 25 sec) 
Heartbeat CPU 0 instructions: 270000003 cycles: 281147796 heartbeat IPC: 0.758585 cumulative IPC: 0.730926 (Simulation time: 0 hr 9 min 48 sec) 
Heartbeat CPU 0 instructions: 280000000 cycles: 294905197 heartbeat IPC: 0.726881 cumulative IPC: 0.7307 (Simulation time: 0 hr 10 min 13 sec) 
Heartbeat CPU 0 instructions: 290000001 cycles: 308685469 heartbeat IPC: 0.725675 cumulative IPC: 0.730434 (Simulation time: 0 hr 10 min 39 sec) 
Heartbeat CPU 0 instructions: 300000000 cycles: 322772411 heartbeat IPC: 0.709877 cumulative IPC: 0.729378 (Simulation time: 0 hr 11 min 5 sec) 
Heartbeat CPU 0 instructions: 310000000 cycles: 335973173 heartbeat IPC: 0.757532 cumulative IPC: 0.730671 (Simulation time: 0 hr 11 min 28 sec) 
Heartbeat CPU 0 instructions: 320000000 cycles: 349774805 heartbeat IPC: 0.724552 cumulative IPC: 0.730391 (Simulation time: 0 hr 11 min 53 sec) 
Heartbeat CPU 0 instructions: 330000000 cycles: 363573385 heartbeat IPC: 0.724712 cumulative IPC: 0.730142 (Simulation time: 0 hr 12 min 19 sec) 
Heartbeat CPU 0 instructions: 340000000 cycles: 377634567 heartbeat IPC: 0.711178 cumulative IPC: 0.729331 (Simulation time: 0 hr 12 min 44 sec) 
Heartbeat CPU 0 instructions: 350000000 cycles: 390865948 heartbeat IPC: 0.755779 cumulative IPC: 0.730354 (Simulation time: 0 hr 13 min 6 sec) 
Heartbeat CPU 0 instructions: 360000000 cycles: 404697769 heartbeat IPC: 0.722971 cumulative IPC: 0.730067 (Simulation time: 0 hr 13 min 31 sec) 
Heartbeat CPU 0 instructions: 370000003 cycles: 418496516 heartbeat IPC: 0.724704 cumulative IPC: 0.729867 (Simulation time: 0 hr 13 min 57 sec) 
Heartbeat CPU 0 instructions: 380000000 cycles: 432522362 heartbeat IPC: 0.712969 cumulative IPC: 0.72925 (Simulation time: 0 hr 14 min 22 sec) 
Heartbeat CPU 0 instructions: 390000003 cycles: 445772730 heartbeat IPC: 0.754696 cumulative IPC: 0.730099 (Simulation time: 0 hr 14 min 45 sec) 
Heartbeat CPU 0 instructions: 400000000 cycles: 459598274 heartbeat IPC: 0.723299 cumulative IPC: 0.72987 (Simulation time: 0 hr 15 min 10 sec) 
Heartbeat CPU 0 instructions: 410000000 cycles: 473367313 heartbeat IPC: 0.726267 cumulative IPC: 0.729753 (Simulation time: 0 hr 15 min 35 sec) 
Heartbeat CPU 0 instructions: 420000000 cycles: 487381814 heartbeat IPC: 0.713547 cumulative IPC: 0.729236 (Simulation time: 0 hr 16 min 0 sec) 
Heartbeat CPU 0 instructions: 430000003 cycles: 500646895 heartbeat IPC: 0.753859 cumulative IPC: 0.729958 (Simulation time: 0 hr 16 min 22 sec) 
Heartbeat CPU 0 instructions: 440000000 cycles: 514471709 heartbeat IPC: 0.723337 cumulative IPC: 0.729762 (Simulation time: 0 hr 16 min 47 sec) 
Heartbeat CPU 0 instructions: 450000000 cycles: 528258130 heartbeat IPC: 0.725351 cumulative IPC: 0.729635 (Simulation time: 0 hr 17 min 12 sec) 
Heartbeat CPU 0 instructions: 460000000 cycles: 542250972 heartbeat IPC: 0.714651 cumulative IPC: 0.72921 (Simulation time: 0 hr 17 min 37 sec) 
Heartbeat CPU 0 instructions: 470000001 cycles: 555520293 heartbeat IPC: 0.753618 cumulative IPC: 0.729849 (Simulation time: 0 hr 18 min 0 sec) 
Heartbeat CPU 0 instructions: 480000000 cycles: 569318285 heartbeat IPC: 0.724743 cumulative IPC: 0.729714 (Simulation time: 0 hr 18 min 25 sec) 
Heartbeat CPU 0 instructions: 490000002 cycles: 583077126 heartbeat IPC: 0.726806 cumulative IPC: 0.729639 (Simulation time: 0 hr 18 min 50 sec) 
Heartbeat CPU 0 instructions: 500000000 cycles: 597074076 heartbeat IPC: 0.714441 cumulative IPC: 0.729251 (Simulation time: 0 hr 19 min 15 sec) 
Heartbeat CPU 0 instructions: 510000002 cycles: 610389186 heartbeat IPC: 0.751027 cumulative IPC: 0.729767 (Simulation time: 0 hr 19 min 37 sec) 
Heartbeat CPU 0 instructions: 520000000 cycles: 624179398 heartbeat IPC: 0.725152 cumulative IPC: 0.729657 (Simulation time: 0 hr 20 min 2 sec) 
Heartbeat CPU 0 instructions: 530000003 cycles: 637921090 heartbeat IPC: 0.727713 cumulative IPC: 0.729611 (Simulation time: 0 hr 20 min 27 sec) 
Heartbeat CPU 0 instructions: 540000000 cycles: 651938821 heartbeat IPC: 0.713382 cumulative IPC: 0.729234 (Simulation time: 0 hr 20 min 52 sec) 
Heartbeat CPU 0 instructions: 550000003 cycles: 665242979 heartbeat IPC: 0.751645 cumulative IPC: 0.729718 (Simulation time: 0 hr 21 min 15 sec) 
Heartbeat CPU 0 instructions: 560000000 cycles: 679009359 heartbeat IPC: 0.726407 cumulative IPC: 0.729645 (Simulation time: 0 hr 21 min 40 sec) 
Heartbeat CPU 0 instructions: 570000001 cycles: 692779454 heartbeat IPC: 0.726211 cumulative IPC: 0.729572 (Simulation time: 0 hr 22 min 4 sec) 
Heartbeat CPU 0 instructions: 580000000 cycles: 706820509 heartbeat IPC: 0.712197 cumulative IPC: 0.729201 (Simulation time: 0 hr 22 min 30 sec) 
Heartbeat CPU 0 instructions: 590000000 cycles: 720065668 heartbeat IPC: 0.754993 cumulative IPC: 0.72971 (Simulation time: 0 hr 22 min 52 sec) 
Heartbeat CPU 0 instructions: 600000000 cycles: 733840329 heartbeat IPC: 0.725971 cumulative IPC: 0.729635 (Simulation time: 0 hr 23 min 17 sec) 
Finished CPU 0 instructions: 500000001 cycles: 685274231 cumulative IPC: 0.729635 (Simulation time: 0 hr 23 min 17 sec) 

CPU 0 Branch Prediction Accuracy: 97.5275% MPKI: 2.1997
Number of Branches: 44482865 Number of Mispredictions: 1099852
Number of LOAD Instructions: 144955155
Number of LOAD Instructions (ROI): 144955155
Number of STORE Instructions: 55921098
Number of STORE Instructions (ROI): 55921098
Total Destination Memory Operands: 57111147
Total Destination Memory Operands (ROI): 57111147
Total Source Memory Operands: 144955155
Total Source Memory Operands (ROI): 144955155
Number of DEPENDED LOADS: 13454708
Number of DEPENDED LOADS (ROI): 13454708
Number of SQ_ADDED: 57111126
Number of SQ_ADDED (ROI): 57111126
Number of LQ_ADDED: 174240588
Number of LQ_ADDED (ROI): 174240588
Number of Instructions read from trace: 600000256

ChampSim completed all CPUs

Region of Interest Statistics

CPU 0 cumulative IPC: 0.729635 instructions: 500000001 cycles: 685274231
ITLB TOTAL     ACCESS:  136067278  HIT:  136064725  MISS:       2553
ITLB LOAD      ACCESS:  136067278  HIT:  136064725  MISS:       2553
ITLB RFO       ACCESS:          0  HIT:          0  MISS:          0
ITLB PREFETCH  ACCESS:          0  HIT:          0  MISS:          0
ITLB WRITEBACK ACCESS:          0  HIT:          0  MISS:          0
ITLB PREFETCH  REQUESTED:          0  ISSUED:          0  USEFUL:          0  USELESS:          0
ITLB TOTAL MSHR MERGED:       4366
ITLB LOAD MSHR MERGED:       4366
ITLB RFO MSHR MERGED:          0
ITLB PREFETCH MSHR MERGED:          0
ITLB WRITEBACK MSHR MERGED:          0
ITLB TOTAL ACCESSES:  136071644 HITS:  136064725 MISSES:       6919
ITLB LOAD ACCESSES:  136071644 HITS:  136064725 MISSES:       6919
ITLB RFO ACCESSES:          0 HITS:          0 MISSES:          0
ITLB PREFETCH ACCESSES:          0 HITS:          0 MISSES:          0
ITLB WRITEBACK ACCESSES:          0 HITS:          0 MISSES:          0
ITLB RQ ACCESS:  500000202
ITLB RQ TO_CACHE:  136071644
ITLB RQ MERGED:  363928558
ITLB RQ FORWARD:          0
ITLB WQ ACCESS:          0
ITLB WQ TO_CACHE:          0
ITLB WQ MERGED:          0
ITLB WQ FORWARD:          0
DTLB TOTAL     ACCESS:  111552806  HIT:  111416613  MISS:     136193
DTLB LOAD      ACCESS:   78951770  HIT:   78826146  MISS:     125624
DTLB RFO       ACCESS:   32601036  HIT:   32590467  MISS:      10569
DTLB PREFETCH  ACCESS:          0  HIT:          0  MISS:          0
DTLB WRITEBACK ACCESS:          0  HIT:          0  MISS:          0
DTLB PREFETCH  REQUESTED:          0  ISSUED:          0  USEFUL:          0  USELESS:          0
DTLB TOTAL MSHR MERGED:      63759
DTLB LOAD MSHR MERGED:      50895
DTLB RFO MSHR MERGED:      12864
DTLB PREFETCH MSHR MERGED:          0
DTLB WRITEBACK MSHR MERGED:          0
DTLB TOTAL ACCESSES:  111616565 HITS:  111416613 MISSES:     199952
DTLB LOAD ACCESSES:   79002665 HITS:   78826146 MISSES:     176519
DTLB RFO ACCESSES:   32613900 HITS:   32590467 MISSES:      23433
DTLB PREFETCH ACCESSES:          0 HITS:          0 MISSES:          0
DTLB WRITEBACK ACCESSES:          0 HITS:          0 MISSES:          0
DTLB RQ ACCESS:  157180716
DTLB RQ TO_CACHE:  111616565
DTLB RQ MERGED:   45564151
DTLB RQ FORWARD:          0
DTLB WQ ACCESS:          0
DTLB WQ TO_CACHE:          0
DTLB WQ MERGED:          0
DTLB WQ FORWARD:          0
L1D TOTAL     ACCESS:  198250662  HIT:  188409598  MISS:    9841064
L1D LOAD      ACCESS:   79950926  HIT:   75688775  MISS:    4262151
L1D RFO       ACCESS:   44543182  HIT:   43642918  MISS:     900264
L1D PREFETCH  ACCESS:   73756554  HIT:   69077905  MISS:    4678649
L1D WRITEBACK ACCESS:          0  HIT:          0  MISS:          0
L1D PREFETCH  REQUESTED:   80347408  ISSUED:   79891785  USEFUL:    1820369  USELESS:    2858189
L1D TOTAL MSHR MERGED:    2482134
L1D LOAD MSHR MERGED:     520199
L1D RFO MSHR MERGED:    1409606
L1D PREFETCH MSHR MERGED:     552329
L1D WRITEBACK MSHR MERGED:          0
L1D TOTAL ACCESSES:  200753946 HITS:  188430748 MISSES:   12323198
L1D LOAD ACCESSES:   80359939 HITS:   75701306 MISSES:    4658633
L1D RFO ACCESSES:   45949876 HITS:   43642918 MISSES:    2306958
L1D PREFETCH ACCESSES:   74444131 HITS:   69086524 MISSES:    5357607
L1D WRITEBACK ACCESSES:          0 HITS:          0 MISSES:          0
L1D RQ ACCESS:  109538746
L1D RQ TO_CACHE:   80347408
L1D RQ MERGED:   29178807
L1D RQ FORWARD:          0
L1D WQ ACCESS:   47641970
L1D WQ TO_CACHE:   45949876
L1D WQ MERGED:    1692094
L1D WQ FORWARD:      21150
L1I TOTAL     ACCESS:  161537614  HIT:  161273649  MISS:     263965
L1I LOAD      ACCESS:  161537614  HIT:  161273649  MISS:     263965
L1I RFO       ACCESS:          0  HIT:          0  MISS:          0
L1I PREFETCH  ACCESS:          0  HIT:          0  MISS:          0
L1I WRITEBACK ACCESS:          0  HIT:          0  MISS:          0
L1I PREFETCH  REQUESTED:          0  ISSUED:          0  USEFUL:          0  USELESS:          0
L1I TOTAL MSHR MERGED:     261205
L1I LOAD MSHR MERGED:     261205
L1I RFO MSHR MERGED:          0
L1I PREFETCH MSHR MERGED:          0
L1I WRITEBACK MSHR MERGED:          0
L1I TOTAL ACCESSES:  161798819 HITS:  161273649 MISSES:     525170
L1I LOAD ACCESSES:  161798819 HITS:  161273649 MISSES:     525170
L1I RFO ACCESSES:          0 HITS:          0 MISSES:          0
L1I PREFETCH ACCESSES:          0 HITS:          0 MISSES:          0
L1I WRITEBACK ACCESSES:          0 HITS:          0 MISSES:          0
L1I RQ ACCESS:  500000202
L1I RQ TO_CACHE:  161798819
L1I RQ MERGED:  338201383
L1I RQ FORWARD:          0
L1I WQ ACCESS:          0
L1I WQ TO_CACHE:          0
L1I WQ MERGED:          0
L1I WQ FORWARD:          0
L2C TOTAL     ACCESS:   11771656  HIT:   10382360  MISS:    1389296
L2C LOAD      ACCESS:    4402334  HIT:    3905744  MISS:     496590
L2C RFO       ACCESS:     897286  HIT:     536254  MISS:     361032
L2C PREFETCH  ACCESS:    5284472  HIT:    4755742  MISS:     528730
L2C WRITEBACK ACCESS:    1187564  HIT:    1184620  MISS:       2944
L2C PREFETCH  REQUESTED:     504531  ISSUED:     504531  USEFUL:     114899  USELESS:     414024
L2C TOTAL MSHR MERGED:       2063
L2C LOAD MSHR MERGED:        422
L2C RFO MSHR MERGED:          0
L2C PREFETCH MSHR MERGED:       1641
L2C WRITEBACK MSHR MERGED:          0
L2C TOTAL ACCESSES:   11776467 HITS:   10382580 MISSES:    1393887
L2C LOAD ACCESSES:    4402399 HITS:    3905809 MISSES:     496590
L2C RFO ACCESSES:     897352 HITS:     536320 MISSES:     361032
L2C PREFETCH ACCESSES:    5289152 HITS:    4755831 MISSES:     533321
L2C WRITEBACK ACCESSES:    1187564 HITS:    1184620 MISSES:       2944
L2C RQ ACCESS:    5299751
L2C RQ TO_CACHE:    5299620
L2C RQ MERGED:          0
L2C RQ FORWARD:          0
L2C WQ ACCESS:    1187564
L2C WQ TO_CACHE:    1187564
L2C WQ MERGED:          0
L2C WQ FORWARD:        220
LLC TOTAL     ACCESS:    1849502  HIT:    1173768  MISS:     675734
LLC LOAD      ACCESS:     496166  HIT:     222885  MISS:     273281
LLC RFO       ACCESS:     361028  HIT:     260161  MISS:     100867
LLC PREFETCH  ACCESS:     531572  HIT:     312300  MISS:     219272
LLC WRITEBACK ACCESS:     460736  HIT:     378422  MISS:      82314
LLC PREFETCH  REQUESTED:          0  ISSUED:          0  USEFUL:       3431  USELESS:     215977
LLC TOTAL MSHR MERGED:         76
LLC LOAD MSHR MERGED:         34
LLC RFO MSHR MERGED:          0
LLC PREFETCH MSHR MERGED:         42
LLC WRITEBACK MSHR MERGED:          0
LLC TOTAL ACCESSES:    1849605 HITS:    1173795 MISSES:     675810
LLC LOAD ACCESSES:     496168 HITS:     222887 MISSES:     273281
LLC RFO ACCESSES:     361032 HITS:     260165 MISSES:     100867
LLC PREFETCH ACCESSES:     531669 HITS:     312321 MISSES:     219348
LLC WRITEBACK ACCESSES:     460736 HITS:     378422 MISSES:      82314
LLC 0 RQ ACCESS:     857200
LLC 0 RQ TO_CACHE:     857194
LLC 0 RQ MERGED:          0
LLC 0 RQ FORWARD:          0
LLC WQ ACCESS:     460736
LLC WQ TO_CACHE:     460736
LLC WQ MERGED:          0
LLC WQ FORWARD:         27
Major fault: 0 Minor fault: 3073
CPU 0 L1D next line prefetcher final stats
CPU 0 L2C PC-based stride prefetcher final stats
All Misses: 826587
All Hits: 1349607
SD Algo Stats - Switches: 0 SRR-Repls: 312011 BRR-Repls: 0

DRAM Statistics
 CHANNEL 0
 RQ ROW_BUFFER_HIT:     402646  ROW_BUFFER_MISS:     190552
 DBUS_CONGESTED:     404154
 WQ ROW_BUFFER_HIT:      11368  ROW_BUFFER_MISS:      95759  FULL:          0

 AVG_CONGESTED_CYCLE: 13
LOADS RETIRED: 120673965
INSTR RETIRED: 500000000
