
*** ChampSim Multicore Out-of-Order Simulator ***

Warmup Instructions: 100000000
Simulation Instructions: 500000000
Number of CPUs: 1
LLC sets: 2048
LLC ways: 16
Clean RRIP Policies: 1122031111220311 Dirty RRIP Policies: 2112131121121311 PSEL Width: 10 Track Set: 4294967295 PSEL Mask: 1 Demote Mask: 3234141032341410DS Algo: 0Window size: 0
Off-chip DRAM Size: 4096 MB Channels: 1 Width: 64-bit Data Rate: 1600 MT/s

CPU 0 runs /mnt/beegfs/iconst01/spec2017/Gcc.trace.gz
NOT SORTED
TRACE STRING: /mnt/beegfs/iconst01/spec2017/Gcc.trace.gz
SORTED
TRACE STRING: /mnt/beegfs/iconst01/spec2017/Gcc.trace.gz
INITIAL
TRACE STRING: /mnt/beegfs/iconst01/spec2017/Gcc.trace.gz

champsim_seed used: 269

CPU 0 L1D next line prefetcher
CPU 0 L2C IP-based stride prefetcher
Initialize DRRIP state
Assign rand_sets[0]: 454  LLC: 2048
rand_sets[0]: 454
Assign rand_sets[1]: 1662  LLC: 2048
rand_sets[1]: 1662
Assign rand_sets[2]: 1921  LLC: 2048
rand_sets[2]: 1921
Assign rand_sets[3]: 1131  LLC: 2048
rand_sets[3]: 1131
Assign rand_sets[4]: 331  LLC: 2048
rand_sets[4]: 331
Assign rand_sets[5]: 1531  LLC: 2048
rand_sets[5]: 1531
Assign rand_sets[6]: 482  LLC: 2048
rand_sets[6]: 482
Assign rand_sets[7]: 1275  LLC: 2048
rand_sets[7]: 1275
Assign rand_sets[8]: 1876  LLC: 2048
rand_sets[8]: 1876
Assign rand_sets[9]: 2038  LLC: 2048
rand_sets[9]: 2038
Assign rand_sets[10]: 701  LLC: 2048
rand_sets[10]: 701
Assign rand_sets[11]: 479  LLC: 2048
rand_sets[11]: 479
Assign rand_sets[12]: 892  LLC: 2048
rand_sets[12]: 892
Assign rand_sets[13]: 1820  LLC: 2048
rand_sets[13]: 1820
Assign rand_sets[14]: 1505  LLC: 2048
rand_sets[14]: 1505
Assign rand_sets[15]: 1159  LLC: 2048
rand_sets[15]: 1159
Assign rand_sets[16]: 513  LLC: 2048
rand_sets[16]: 513
Assign rand_sets[17]: 703  LLC: 2048
rand_sets[17]: 703
Assign rand_sets[18]: 561  LLC: 2048
rand_sets[18]: 561
Assign rand_sets[19]: 990  LLC: 2048
rand_sets[19]: 990
Assign rand_sets[20]: 342  LLC: 2048
rand_sets[20]: 342
Assign rand_sets[21]: 882  LLC: 2048
rand_sets[21]: 882
Assign rand_sets[22]: 15  LLC: 2048
rand_sets[22]: 15
Assign rand_sets[23]: 71  LLC: 2048
rand_sets[23]: 71
Assign rand_sets[24]: 1127  LLC: 2048
rand_sets[24]: 1127
Assign rand_sets[25]: 1382  LLC: 2048
rand_sets[25]: 1382
Assign rand_sets[26]: 647  LLC: 2048
rand_sets[26]: 647
Assign rand_sets[27]: 857  LLC: 2048
rand_sets[27]: 857
Assign rand_sets[28]: 1450  LLC: 2048
rand_sets[28]: 1450
Assign rand_sets[29]: 1160  LLC: 2048
rand_sets[29]: 1160
Assign rand_sets[30]: 1852  LLC: 2048
rand_sets[30]: 1852
Assign rand_sets[31]: 1881  LLC: 2048
rand_sets[31]: 1881
Assign rand_sets[32]: 1770  LLC: 2048
rand_sets[32]: 1770
Assign rand_sets[33]: 1622  LLC: 2048
rand_sets[33]: 1622
Assign rand_sets[34]: 275  LLC: 2048
rand_sets[34]: 275
Assign rand_sets[35]: 635  LLC: 2048
rand_sets[35]: 635
Assign rand_sets[36]: 466  LLC: 2048
rand_sets[36]: 466
Assign rand_sets[37]: 1413  LLC: 2048
rand_sets[37]: 1413
Assign rand_sets[38]: 417  LLC: 2048
rand_sets[38]: 417
Assign rand_sets[39]: 472  LLC: 2048
rand_sets[39]: 472
Assign rand_sets[40]: 1340  LLC: 2048
rand_sets[40]: 1340
Assign rand_sets[41]: 852  LLC: 2048
rand_sets[41]: 852
Assign rand_sets[42]: 1365  LLC: 2048
rand_sets[42]: 1365
Assign rand_sets[43]: 47  LLC: 2048
rand_sets[43]: 47
Assign rand_sets[44]: 823  LLC: 2048
rand_sets[44]: 823
Assign rand_sets[45]: 686  LLC: 2048
rand_sets[45]: 686
Assign rand_sets[46]: 1637  LLC: 2048
rand_sets[46]: 1637
Assign rand_sets[47]: 1115  LLC: 2048
rand_sets[47]: 1115
Assign rand_sets[48]: 986  LLC: 2048
rand_sets[48]: 986
Assign rand_sets[49]: 258  LLC: 2048
rand_sets[49]: 258
Assign rand_sets[50]: 633  LLC: 2048
rand_sets[50]: 633
Assign rand_sets[51]: 920  LLC: 2048
rand_sets[51]: 920
Assign rand_sets[52]: 204  LLC: 2048
rand_sets[52]: 204
Assign rand_sets[53]: 227  LLC: 2048
rand_sets[53]: 227
Assign rand_sets[54]: 1818  LLC: 2048
rand_sets[54]: 1818
Assign rand_sets[55]: 886  LLC: 2048
rand_sets[55]: 886
Assign rand_sets[56]: 1422  LLC: 2048
rand_sets[56]: 1422
Assign rand_sets[57]: 607  LLC: 2048
rand_sets[57]: 607
Assign rand_sets[58]: 217  LLC: 2048
rand_sets[58]: 217
Assign rand_sets[59]: 1945  LLC: 2048
rand_sets[59]: 1945
Assign rand_sets[60]: 143  LLC: 2048
rand_sets[60]: 143
Assign rand_sets[61]: 1311  LLC: 2048
rand_sets[61]: 1311
Assign rand_sets[62]: 319  LLC: 2048
rand_sets[62]: 319
Assign rand_sets[63]: 1846  LLC: 2048
rand_sets[63]: 1846
 CLEAN-RRIP-POLICY-1: 1-1-2-2-0-3-1-1- CLEAN-RRIP-POLICY-2: 1-1-2-2-0-3-1-1-
 DIRTY-RRIP-POLICY-1: 2-1-1-2-1-3-1-1- DIRTY-RRIP-POLICY-2: 2-1-1-2-1-3-1-1-
 PSEL width: 10
Heartbeat CPU 0 instructions: 10000001 cycles: 7315910 heartbeat IPC: 1.36688 cumulative IPC: 1.36688 (Simulation time: 0 hr 0 min 14 sec) 
Heartbeat CPU 0 instructions: 20000000 cycles: 14307775 heartbeat IPC: 1.43023 cumulative IPC: 1.39784 (Simulation time: 0 hr 0 min 29 sec) 
Heartbeat CPU 0 instructions: 30000001 cycles: 21021203 heartbeat IPC: 1.48955 cumulative IPC: 1.42713 (Simulation time: 0 hr 0 min 45 sec) 
Heartbeat CPU 0 instructions: 40000000 cycles: 27482199 heartbeat IPC: 1.54775 cumulative IPC: 1.45549 (Simulation time: 0 hr 1 min 2 sec) 
Heartbeat CPU 0 instructions: 50000001 cycles: 33584266 heartbeat IPC: 1.63879 cumulative IPC: 1.48879 (Simulation time: 0 hr 1 min 17 sec) 
Heartbeat CPU 0 instructions: 60000000 cycles: 40065664 heartbeat IPC: 1.54288 cumulative IPC: 1.49754 (Simulation time: 0 hr 1 min 33 sec) 
Heartbeat CPU 0 instructions: 70000000 cycles: 47106661 heartbeat IPC: 1.42025 cumulative IPC: 1.48599 (Simulation time: 0 hr 1 min 48 sec) 
Heartbeat CPU 0 instructions: 80000000 cycles: 54199608 heartbeat IPC: 1.40985 cumulative IPC: 1.47603 (Simulation time: 0 hr 2 min 3 sec) 
Heartbeat CPU 0 instructions: 90000003 cycles: 61207996 heartbeat IPC: 1.42686 cumulative IPC: 1.4704 (Simulation time: 0 hr 2 min 18 sec) 
Heartbeat CPU 0 instructions: 100000000 cycles: 68379613 heartbeat IPC: 1.39439 cumulative IPC: 1.46242 (Simulation time: 0 hr 2 min 32 sec) 

Warmup complete CPU 0 instructions: 100000004 cycles: 68379614 (Simulation time: 0 hr 2 min 32 sec) 

Heartbeat CPU 0 instructions: 110000003 cycles: 96641715 heartbeat IPC: 0.353831 cumulative IPC: 0.353831 (Simulation time: 0 hr 3 min 1 sec) 
Heartbeat CPU 0 instructions: 120000000 cycles: 124285785 heartbeat IPC: 0.361741 cumulative IPC: 0.357742 (Simulation time: 0 hr 3 min 31 sec) 
Heartbeat CPU 0 instructions: 130000000 cycles: 149450500 heartbeat IPC: 0.397382 cumulative IPC: 0.370046 (Simulation time: 0 hr 3 min 59 sec) 
Heartbeat CPU 0 instructions: 140000000 cycles: 180282176 heartbeat IPC: 0.324342 cumulative IPC: 0.357454 (Simulation time: 0 hr 4 min 28 sec) 
Heartbeat CPU 0 instructions: 150000000 cycles: 210978018 heartbeat IPC: 0.325777 cumulative IPC: 0.350635 (Simulation time: 0 hr 4 min 57 sec) 
Heartbeat CPU 0 instructions: 160000000 cycles: 238632001 heartbeat IPC: 0.361612 cumulative IPC: 0.352418 (Simulation time: 0 hr 5 min 25 sec) 
Heartbeat CPU 0 instructions: 170000001 cycles: 267046197 heartbeat IPC: 0.351937 cumulative IPC: 0.352349 (Simulation time: 0 hr 5 min 55 sec) 
Heartbeat CPU 0 instructions: 180000000 cycles: 295895078 heartbeat IPC: 0.346634 cumulative IPC: 0.351624 (Simulation time: 0 hr 6 min 25 sec) 
Heartbeat CPU 0 instructions: 190000002 cycles: 324533207 heartbeat IPC: 0.349185 cumulative IPC: 0.351352 (Simulation time: 0 hr 6 min 54 sec) 
Heartbeat CPU 0 instructions: 200000000 cycles: 353358893 heartbeat IPC: 0.346913 cumulative IPC: 0.350903 (Simulation time: 0 hr 7 min 24 sec) 
Heartbeat CPU 0 instructions: 210000002 cycles: 381783974 heartbeat IPC: 0.351802 cumulative IPC: 0.350984 (Simulation time: 0 hr 7 min 53 sec) 
Heartbeat CPU 0 instructions: 220000000 cycles: 412418473 heartbeat IPC: 0.326429 cumulative IPC: 0.348798 (Simulation time: 0 hr 8 min 21 sec) 
Heartbeat CPU 0 instructions: 230000000 cycles: 440559784 heartbeat IPC: 0.355349 cumulative IPC: 0.349293 (Simulation time: 0 hr 8 min 49 sec) 
Heartbeat CPU 0 instructions: 240000000 cycles: 466839785 heartbeat IPC: 0.380517 cumulative IPC: 0.351353 (Simulation time: 0 hr 9 min 17 sec) 
Heartbeat CPU 0 instructions: 250000000 cycles: 497289727 heartbeat IPC: 0.328408 cumulative IPC: 0.349724 (Simulation time: 0 hr 9 min 47 sec) 
Heartbeat CPU 0 instructions: 260000000 cycles: 524584676 heartbeat IPC: 0.366368 cumulative IPC: 0.350719 (Simulation time: 0 hr 10 min 15 sec) 
Heartbeat CPU 0 instructions: 270000003 cycles: 553388919 heartbeat IPC: 0.347171 cumulative IPC: 0.350509 (Simulation time: 0 hr 10 min 45 sec) 
Heartbeat CPU 0 instructions: 280000000 cycles: 582038783 heartbeat IPC: 0.349042 cumulative IPC: 0.350427 (Simulation time: 0 hr 11 min 15 sec) 
Heartbeat CPU 0 instructions: 290000000 cycles: 611320471 heartbeat IPC: 0.34151 cumulative IPC: 0.349946 (Simulation time: 0 hr 11 min 45 sec) 
Heartbeat CPU 0 instructions: 300000000 cycles: 642638859 heartbeat IPC: 0.319301 cumulative IPC: 0.348275 (Simulation time: 0 hr 12 min 14 sec) 
Heartbeat CPU 0 instructions: 310000001 cycles: 672942691 heartbeat IPC: 0.329991 cumulative IPC: 0.347358 (Simulation time: 0 hr 12 min 43 sec) 
Heartbeat CPU 0 instructions: 320000000 cycles: 702246315 heartbeat IPC: 0.341255 cumulative IPC: 0.347076 (Simulation time: 0 hr 13 min 11 sec) 
Heartbeat CPU 0 instructions: 330000000 cycles: 731700022 heartbeat IPC: 0.339516 cumulative IPC: 0.34674 (Simulation time: 0 hr 13 min 40 sec) 
Heartbeat CPU 0 instructions: 340000000 cycles: 761813146 heartbeat IPC: 0.332081 cumulative IPC: 0.346104 (Simulation time: 0 hr 14 min 9 sec) 
Heartbeat CPU 0 instructions: 350000003 cycles: 789371910 heartbeat IPC: 0.362861 cumulative IPC: 0.346744 (Simulation time: 0 hr 14 min 37 sec) 
Heartbeat CPU 0 instructions: 360000000 cycles: 820217568 heartbeat IPC: 0.324195 cumulative IPC: 0.345819 (Simulation time: 0 hr 15 min 6 sec) 
Heartbeat CPU 0 instructions: 370000000 cycles: 851099049 heartbeat IPC: 0.323819 cumulative IPC: 0.344951 (Simulation time: 0 hr 15 min 34 sec) 
Heartbeat CPU 0 instructions: 380000000 cycles: 882281694 heartbeat IPC: 0.320691 cumulative IPC: 0.344022 (Simulation time: 0 hr 16 min 3 sec) 
Heartbeat CPU 0 instructions: 390000001 cycles: 912375728 heartbeat IPC: 0.332292 cumulative IPC: 0.343603 (Simulation time: 0 hr 16 min 31 sec) 
Heartbeat CPU 0 instructions: 400000000 cycles: 943597099 heartbeat IPC: 0.320293 cumulative IPC: 0.342772 (Simulation time: 0 hr 17 min 0 sec) 
Heartbeat CPU 0 instructions: 410000001 cycles: 973312907 heartbeat IPC: 0.336521 cumulative IPC: 0.342567 (Simulation time: 0 hr 17 min 28 sec) 
Heartbeat CPU 0 instructions: 420000000 cycles: 1003004990 heartbeat IPC: 0.33679 cumulative IPC: 0.342383 (Simulation time: 0 hr 17 min 56 sec) 
Heartbeat CPU 0 instructions: 430000002 cycles: 1033192517 heartbeat IPC: 0.331263 cumulative IPC: 0.342035 (Simulation time: 0 hr 18 min 24 sec) 
Heartbeat CPU 0 instructions: 440000000 cycles: 1064884417 heartbeat IPC: 0.315538 cumulative IPC: 0.341193 (Simulation time: 0 hr 18 min 53 sec) 
Heartbeat CPU 0 instructions: 450000002 cycles: 1096488467 heartbeat IPC: 0.316415 cumulative IPC: 0.340431 (Simulation time: 0 hr 19 min 21 sec) 
Heartbeat CPU 0 instructions: 460000000 cycles: 1126575228 heartbeat IPC: 0.332372 cumulative IPC: 0.340202 (Simulation time: 0 hr 19 min 49 sec) 
Heartbeat CPU 0 instructions: 470000000 cycles: 1156242171 heartbeat IPC: 0.337076 cumulative IPC: 0.340117 (Simulation time: 0 hr 20 min 16 sec) 
Heartbeat CPU 0 instructions: 480000000 cycles: 1186107800 heartbeat IPC: 0.334833 cumulative IPC: 0.339975 (Simulation time: 0 hr 20 min 43 sec) 
Heartbeat CPU 0 instructions: 490000000 cycles: 1215697698 heartbeat IPC: 0.337953 cumulative IPC: 0.339923 (Simulation time: 0 hr 21 min 11 sec) 
Heartbeat CPU 0 instructions: 500000000 cycles: 1245824158 heartbeat IPC: 0.331934 cumulative IPC: 0.339719 (Simulation time: 0 hr 21 min 38 sec) 
Heartbeat CPU 0 instructions: 510000000 cycles: 1280726942 heartbeat IPC: 0.28651 cumulative IPC: 0.338187 (Simulation time: 0 hr 22 min 9 sec) 
Heartbeat CPU 0 instructions: 520000000 cycles: 1309120255 heartbeat IPC: 0.352196 cumulative IPC: 0.338507 (Simulation time: 0 hr 22 min 37 sec) 
Heartbeat CPU 0 instructions: 530000001 cycles: 1340134979 heartbeat IPC: 0.322428 cumulative IPC: 0.338115 (Simulation time: 0 hr 23 min 5 sec) 
Heartbeat CPU 0 instructions: 540000000 cycles: 1369242320 heartbeat IPC: 0.343556 cumulative IPC: 0.338237 (Simulation time: 0 hr 23 min 33 sec) 
Heartbeat CPU 0 instructions: 550000001 cycles: 1398843977 heartbeat IPC: 0.337819 cumulative IPC: 0.338228 (Simulation time: 0 hr 24 min 3 sec) 
Heartbeat CPU 0 instructions: 560000000 cycles: 1424611394 heartbeat IPC: 0.388087 cumulative IPC: 0.339175 (Simulation time: 0 hr 24 min 30 sec) 
Heartbeat CPU 0 instructions: 570000000 cycles: 1455284058 heartbeat IPC: 0.326023 cumulative IPC: 0.338884 (Simulation time: 0 hr 24 min 59 sec) 
Heartbeat CPU 0 instructions: 580000000 cycles: 1484085922 heartbeat IPC: 0.3472 cumulative IPC: 0.339053 (Simulation time: 0 hr 25 min 27 sec) 
Heartbeat CPU 0 instructions: 590000001 cycles: 1509166044 heartbeat IPC: 0.398722 cumulative IPC: 0.340092 (Simulation time: 0 hr 25 min 53 sec) 
Heartbeat CPU 0 instructions: 600000000 cycles: 1535935384 heartbeat IPC: 0.373562 cumulative IPC: 0.340703 (Simulation time: 0 hr 26 min 21 sec) 
Finished CPU 0 instructions: 500000000 cycles: 1467555792 cumulative IPC: 0.340703 (Simulation time: 0 hr 26 min 21 sec) 

CPU 0 Branch Prediction Accuracy: 86.4311% MPKI: 26.2662
Number of Branches: 96788573 Number of Mispredictions: 13133102
Number of LOAD Instructions: 164682285
Number of LOAD Instructions (ROI): 164682285
Number of STORE Instructions: 78194750
Number of STORE Instructions (ROI): 78194750
Total Destination Memory Operands: 83268534
Total Destination Memory Operands (ROI): 83268534
Total Source Memory Operands: 164712438
Total Source Memory Operands (ROI): 164712438
Number of DEPENDED LOADS: 7051054
Number of DEPENDED LOADS (ROI): 7051054
Number of SQ_ADDED: 83268522
Number of SQ_ADDED (ROI): 83268522
Number of LQ_ADDED: 236714287
Number of LQ_ADDED (ROI): 236714287
Number of Instructions read from trace: 600000066

ChampSim completed all CPUs

Region of Interest Statistics

CPU 0 cumulative IPC: 0.340703 instructions: 500000000 cycles: 1467555792
ITLB TOTAL     ACCESS:  100537738  HIT:  100333292  MISS:     204446
ITLB LOAD      ACCESS:  100537738  HIT:  100333292  MISS:     204446
ITLB RFO       ACCESS:          0  HIT:          0  MISS:          0
ITLB PREFETCH  ACCESS:          0  HIT:          0  MISS:          0
ITLB WRITEBACK ACCESS:          0  HIT:          0  MISS:          0
ITLB PREFETCH  REQUESTED:          0  ISSUED:          0  USEFUL:          0  USELESS:          0
ITLB TOTAL MSHR MERGED:     172422
ITLB LOAD MSHR MERGED:     172422
ITLB RFO MSHR MERGED:          0
ITLB PREFETCH MSHR MERGED:          0
ITLB WRITEBACK MSHR MERGED:          0
ITLB TOTAL ACCESSES:  100710160 HITS:  100333292 MISSES:     376868
ITLB LOAD ACCESSES:  100710160 HITS:  100333292 MISSES:     376868
ITLB RFO ACCESSES:          0 HITS:          0 MISSES:          0
ITLB PREFETCH ACCESSES:          0 HITS:          0 MISSES:          0
ITLB WRITEBACK ACCESSES:          0 HITS:          0 MISSES:          0
ITLB RQ ACCESS:  500000057
ITLB RQ TO_CACHE:  100710160
ITLB RQ MERGED:  399289897
ITLB RQ FORWARD:          0
ITLB WQ ACCESS:          0
ITLB WQ TO_CACHE:          0
ITLB WQ MERGED:          0
ITLB WQ FORWARD:          0
DTLB TOTAL     ACCESS:  165358404  HIT:  164724046  MISS:     634358
DTLB LOAD      ACCESS:  106307235  HIT:  105737232  MISS:     570003
DTLB RFO       ACCESS:   59051169  HIT:   58986814  MISS:      64355
DTLB PREFETCH  ACCESS:          0  HIT:          0  MISS:          0
DTLB WRITEBACK ACCESS:          0  HIT:          0  MISS:          0
DTLB PREFETCH  REQUESTED:          0  ISSUED:          0  USEFUL:          0  USELESS:          0
DTLB TOTAL MSHR MERGED:      99635
DTLB LOAD MSHR MERGED:      59215
DTLB RFO MSHR MERGED:      40420
DTLB PREFETCH MSHR MERGED:          0
DTLB WRITEBACK MSHR MERGED:          0
DTLB TOTAL ACCESSES:  165458039 HITS:  164724046 MISSES:     733993
DTLB LOAD ACCESSES:  106366450 HITS:  105737232 MISSES:     629218
DTLB RFO ACCESSES:   59091589 HITS:   58986814 MISSES:     104775
DTLB PREFETCH ACCESSES:          0 HITS:          0 MISSES:          0
DTLB WRITEBACK ACCESSES:          0 HITS:          0 MISSES:          0
DTLB RQ ACCESS:  200319815
DTLB RQ TO_CACHE:  165458039
DTLB RQ MERGED:   34861776
DTLB RQ FORWARD:          0
DTLB WQ ACCESS:          0
DTLB WQ TO_CACHE:          0
DTLB WQ MERGED:          0
DTLB WQ FORWARD:          0
L1D TOTAL     ACCESS:  281874193  HIT:  273964738  MISS:    7909455
L1D LOAD      ACCESS:  110438047  HIT:  107157403  MISS:    3280644
L1D RFO       ACCESS:   67135545  HIT:   66245638  MISS:     889907
L1D PREFETCH  ACCESS:  104300601  HIT:  100561697  MISS:    3738904
L1D WRITEBACK ACCESS:          0  HIT:          0  MISS:          0
L1D PREFETCH  REQUESTED:  110836800  ISSUED:  109137319  USEFUL:    1659449  USELESS:    2079419
L1D TOTAL MSHR MERGED:    2874964
L1D LOAD MSHR MERGED:     499160
L1D RFO MSHR MERGED:    1849727
L1D PREFETCH MSHR MERGED:     526077
L1D WRITEBACK MSHR MERGED:          0
L1D TOTAL ACCESSES:  284776471 HITS:  273992052 MISSES:   10784419
L1D LOAD ACCESSES:  110838201 HITS:  107158804 MISSES:    3679397
L1D RFO ACCESSES:   68974123 HITS:   66245638 MISSES:    2728485
L1D PREFETCH ACCESSES:  104964147 HITS:  100587610 MISSES:    4376537
L1D WRITEBACK ACCESSES:          0 HITS:          0 MISSES:          0
L1D RQ ACCESS:  130767212
L1D RQ TO_CACHE:  110836803
L1D RQ MERGED:   19929008
L1D RQ FORWARD:          0
L1D WQ ACCESS:   69552603
L1D WQ TO_CACHE:   68974124
L1D WQ MERGED:     578479
L1D WQ FORWARD:      27314
L1I TOTAL     ACCESS:  126582203  HIT:  122343673  MISS:    4238530
L1I LOAD      ACCESS:  126582203  HIT:  122343673  MISS:    4238530
L1I RFO       ACCESS:          0  HIT:          0  MISS:          0
L1I PREFETCH  ACCESS:          0  HIT:          0  MISS:          0
L1I WRITEBACK ACCESS:          0  HIT:          0  MISS:          0
L1I PREFETCH  REQUESTED:          0  ISSUED:          0  USEFUL:          0  USELESS:          0
L1I TOTAL MSHR MERGED:    1837594
L1I LOAD MSHR MERGED:    1837594
L1I RFO MSHR MERGED:          0
L1I PREFETCH MSHR MERGED:          0
L1I WRITEBACK MSHR MERGED:          0
L1I TOTAL ACCESSES:  128419800 HITS:  122343673 MISSES:    6076127
L1I LOAD ACCESSES:  128419800 HITS:  122343673 MISSES:    6076127
L1I RFO ACCESSES:          0 HITS:          0 MISSES:          0
L1I PREFETCH ACCESSES:          0 HITS:          0 MISSES:          0
L1I WRITEBACK ACCESSES:          0 HITS:          0 MISSES:          0
L1I RQ ACCESS:  500000057
L1I RQ TO_CACHE:  128419800
L1I RQ MERGED:  371580257
L1I RQ FORWARD:          0
L1I WQ ACCESS:          0
L1I WQ TO_CACHE:          0
L1I WQ MERGED:          0
L1I WQ FORWARD:          0
L2C TOTAL     ACCESS:   14905879  HIT:   11159372  MISS:    3746507
L2C LOAD      ACCESS:    7418562  HIT:    5098849  MISS:    2319713
L2C RFO       ACCESS:     878661  HIT:     409958  MISS:     468703
L2C PREFETCH  ACCESS:    4569395  HIT:    3628564  MISS:     940831
L2C WRITEBACK ACCESS:    2039261  HIT:    2022001  MISS:      17260
L2C PREFETCH  REQUESTED:     842811  ISSUED:     842811  USEFUL:     203662  USELESS:     736875
L2C TOTAL MSHR MERGED:       6510
L2C LOAD MSHR MERGED:        592
L2C RFO MSHR MERGED:          0
L2C PREFETCH MSHR MERGED:       5918
L2C WRITEBACK MSHR MERGED:          0
L2C TOTAL ACCESSES:   14913310 HITS:   11159814 MISSES:    3753496
L2C LOAD ACCESSES:    7418767 HITS:    5099054 MISSES:    2319713
L2C RFO ACCESSES:     878758 HITS:     410055 MISSES:     468703
L2C PREFETCH ACCESSES:    4576524 HITS:    3628704 MISSES:     947820
L2C WRITEBACK ACCESSES:    2039261 HITS:    2022001 MISSES:      17260
L2C RQ ACCESS:    8297528
L2C RQ TO_CACHE:    8297226
L2C RQ MERGED:          0
L2C RQ FORWARD:          0
L2C WQ ACCESS:    2039261
L2C WQ TO_CACHE:    2039261
L2C WQ MERGED:          0
L2C WQ FORWARD:        442
LLC TOTAL     ACCESS:    4609863  HIT:    3284245  MISS:    1325618
LLC LOAD      ACCESS:    2319106  HIT:    1480673  MISS:     838433
LLC RFO       ACCESS:     468698  HIT:     422879  MISS:      45819
LLC PREFETCH  ACCESS:     941780  HIT:     554945  MISS:     386835
LLC WRITEBACK ACCESS:     880279  HIT:     825748  MISS:      54531
LLC PREFETCH  REQUESTED:          0  ISSUED:          0  USEFUL:      17366  USELESS:     368554
LLC TOTAL MSHR MERGED:         98
LLC LOAD MSHR MERGED:         27
LLC RFO MSHR MERGED:          0
LLC PREFETCH MSHR MERGED:         71
LLC WRITEBACK MSHR MERGED:          0
LLC TOTAL ACCESSES:    4609994 HITS:    3284278 MISSES:    1325716
LLC LOAD ACCESSES:    2319121 HITS:    1480688 MISSES:     838433
LLC RFO ACCESSES:     468703 HITS:     422884 MISSES:      45819
LLC PREFETCH ACCESSES:     941891 HITS:     554958 MISSES:     386933
LLC WRITEBACK ACCESSES:     880279 HITS:     825748 MISSES:      54531
LLC 0 RQ ACCESS:    2787824
LLC 0 RQ TO_CACHE:    2787804
LLC 0 RQ MERGED:          0
LLC 0 RQ FORWARD:          0
LLC WQ ACCESS:     880279
LLC WQ TO_CACHE:     880279
LLC WQ MERGED:          0
LLC WQ FORWARD:         33
Major fault: 0 Minor fault: 12862
CPU 0 L1D next line prefetcher final stats
CPU 0 L2C PC-based stride prefetcher final stats
All Misses: 1476446
All Hits: 3950423
SD Algo Stats - Switches: 0 SRR-Repls: 893147 BRR-Repls: 0

DRAM Statistics
 CHANNEL 0
 RQ ROW_BUFFER_HIT:     371352  ROW_BUFFER_MISS:     897558
 DBUS_CONGESTED:     440548
 WQ ROW_BUFFER_HIT:       5921  ROW_BUFFER_MISS:     136577  FULL:          0

 AVG_CONGESTED_CYCLE: 13
LOADS RETIRED: 136549171
INSTR RETIRED: 500000000
