
*** ChampSim Multicore Out-of-Order Simulator ***

Warmup Instructions: 100000000
Simulation Instructions: 500000000
Number of CPUs: 1
LLC sets: 2048
LLC ways: 16
Clean RRIP Policies: 2213230222132302 Dirty RRIP Policies: 1203130212031302 PSEL Width: 10 Track Set: 4294967295 PSEL Mask: 1 Demote Mask: 1000100010001000DS Algo: 0Window size: 0
Off-chip DRAM Size: 4096 MB Channels: 1 Width: 64-bit Data Rate: 1600 MT/s

CPU 0 runs /mnt/beegfs/iconst01/spec2017/Cam4.trace.gz
NOT SORTED
TRACE STRING: /mnt/beegfs/iconst01/spec2017/Cam4.trace.gz
SORTED
TRACE STRING: /mnt/beegfs/iconst01/spec2017/Cam4.trace.gz
INITIAL
TRACE STRING: /mnt/beegfs/iconst01/spec2017/Cam4.trace.gz

champsim_seed used: 325

CPU 0 L1D next line prefetcher
CPU 0 L2C IP-based stride prefetcher
Initialize DRRIP state
Assign rand_sets[0]: 454  LLC: 2048
rand_sets[0]: 454
Assign rand_sets[1]: 1662  LLC: 2048
rand_sets[1]: 1662
Assign rand_sets[2]: 1921  LLC: 2048
rand_sets[2]: 1921
Assign rand_sets[3]: 1131  LLC: 2048
rand_sets[3]: 1131
Assign rand_sets[4]: 331  LLC: 2048
rand_sets[4]: 331
Assign rand_sets[5]: 1531  LLC: 2048
rand_sets[5]: 1531
Assign rand_sets[6]: 482  LLC: 2048
rand_sets[6]: 482
Assign rand_sets[7]: 1275  LLC: 2048
rand_sets[7]: 1275
Assign rand_sets[8]: 1876  LLC: 2048
rand_sets[8]: 1876
Assign rand_sets[9]: 2038  LLC: 2048
rand_sets[9]: 2038
Assign rand_sets[10]: 701  LLC: 2048
rand_sets[10]: 701
Assign rand_sets[11]: 479  LLC: 2048
rand_sets[11]: 479
Assign rand_sets[12]: 892  LLC: 2048
rand_sets[12]: 892
Assign rand_sets[13]: 1820  LLC: 2048
rand_sets[13]: 1820
Assign rand_sets[14]: 1505  LLC: 2048
rand_sets[14]: 1505
Assign rand_sets[15]: 1159  LLC: 2048
rand_sets[15]: 1159
Assign rand_sets[16]: 513  LLC: 2048
rand_sets[16]: 513
Assign rand_sets[17]: 703  LLC: 2048
rand_sets[17]: 703
Assign rand_sets[18]: 561  LLC: 2048
rand_sets[18]: 561
Assign rand_sets[19]: 990  LLC: 2048
rand_sets[19]: 990
Assign rand_sets[20]: 342  LLC: 2048
rand_sets[20]: 342
Assign rand_sets[21]: 882  LLC: 2048
rand_sets[21]: 882
Assign rand_sets[22]: 15  LLC: 2048
rand_sets[22]: 15
Assign rand_sets[23]: 71  LLC: 2048
rand_sets[23]: 71
Assign rand_sets[24]: 1127  LLC: 2048
rand_sets[24]: 1127
Assign rand_sets[25]: 1382  LLC: 2048
rand_sets[25]: 1382
Assign rand_sets[26]: 647  LLC: 2048
rand_sets[26]: 647
Assign rand_sets[27]: 857  LLC: 2048
rand_sets[27]: 857
Assign rand_sets[28]: 1450  LLC: 2048
rand_sets[28]: 1450
Assign rand_sets[29]: 1160  LLC: 2048
rand_sets[29]: 1160
Assign rand_sets[30]: 1852  LLC: 2048
rand_sets[30]: 1852
Assign rand_sets[31]: 1881  LLC: 2048
rand_sets[31]: 1881
Assign rand_sets[32]: 1770  LLC: 2048
rand_sets[32]: 1770
Assign rand_sets[33]: 1622  LLC: 2048
rand_sets[33]: 1622
Assign rand_sets[34]: 275  LLC: 2048
rand_sets[34]: 275
Assign rand_sets[35]: 635  LLC: 2048
rand_sets[35]: 635
Assign rand_sets[36]: 466  LLC: 2048
rand_sets[36]: 466
Assign rand_sets[37]: 1413  LLC: 2048
rand_sets[37]: 1413
Assign rand_sets[38]: 417  LLC: 2048
rand_sets[38]: 417
Assign rand_sets[39]: 472  LLC: 2048
rand_sets[39]: 472
Assign rand_sets[40]: 1340  LLC: 2048
rand_sets[40]: 1340
Assign rand_sets[41]: 852  LLC: 2048
rand_sets[41]: 852
Assign rand_sets[42]: 1365  LLC: 2048
rand_sets[42]: 1365
Assign rand_sets[43]: 47  LLC: 2048
rand_sets[43]: 47
Assign rand_sets[44]: 823  LLC: 2048
rand_sets[44]: 823
Assign rand_sets[45]: 686  LLC: 2048
rand_sets[45]: 686
Assign rand_sets[46]: 1637  LLC: 2048
rand_sets[46]: 1637
Assign rand_sets[47]: 1115  LLC: 2048
rand_sets[47]: 1115
Assign rand_sets[48]: 986  LLC: 2048
rand_sets[48]: 986
Assign rand_sets[49]: 258  LLC: 2048
rand_sets[49]: 258
Assign rand_sets[50]: 633  LLC: 2048
rand_sets[50]: 633
Assign rand_sets[51]: 920  LLC: 2048
rand_sets[51]: 920
Assign rand_sets[52]: 204  LLC: 2048
rand_sets[52]: 204
Assign rand_sets[53]: 227  LLC: 2048
rand_sets[53]: 227
Assign rand_sets[54]: 1818  LLC: 2048
rand_sets[54]: 1818
Assign rand_sets[55]: 886  LLC: 2048
rand_sets[55]: 886
Assign rand_sets[56]: 1422  LLC: 2048
rand_sets[56]: 1422
Assign rand_sets[57]: 607  LLC: 2048
rand_sets[57]: 607
Assign rand_sets[58]: 217  LLC: 2048
rand_sets[58]: 217
Assign rand_sets[59]: 1945  LLC: 2048
rand_sets[59]: 1945
Assign rand_sets[60]: 143  LLC: 2048
rand_sets[60]: 143
Assign rand_sets[61]: 1311  LLC: 2048
rand_sets[61]: 1311
Assign rand_sets[62]: 319  LLC: 2048
rand_sets[62]: 319
Assign rand_sets[63]: 1846  LLC: 2048
rand_sets[63]: 1846
 CLEAN-RRIP-POLICY-1: 2-2-1-3-2-3-0-2- CLEAN-RRIP-POLICY-2: 2-2-1-3-2-3-0-2-
 DIRTY-RRIP-POLICY-1: 1-2-0-3-1-3-0-2- DIRTY-RRIP-POLICY-2: 1-2-0-3-1-3-0-2-
 PSEL width: 10
Heartbeat CPU 0 instructions: 10000000 cycles: 4859184 heartbeat IPC: 2.05796 cumulative IPC: 2.05796 (Simulation time: 0 hr 0 min 17 sec) 
Heartbeat CPU 0 instructions: 20000000 cycles: 9790786 heartbeat IPC: 2.02774 cumulative IPC: 2.04274 (Simulation time: 0 hr 0 min 33 sec) 
Heartbeat CPU 0 instructions: 30000001 cycles: 14562945 heartbeat IPC: 2.09549 cumulative IPC: 2.06002 (Simulation time: 0 hr 0 min 48 sec) 
Heartbeat CPU 0 instructions: 40000000 cycles: 19399935 heartbeat IPC: 2.0674 cumulative IPC: 2.06186 (Simulation time: 0 hr 1 min 5 sec) 
Heartbeat CPU 0 instructions: 50000000 cycles: 24256459 heartbeat IPC: 2.05909 cumulative IPC: 2.06131 (Simulation time: 0 hr 1 min 21 sec) 
Heartbeat CPU 0 instructions: 60000000 cycles: 29181857 heartbeat IPC: 2.03029 cumulative IPC: 2.05607 (Simulation time: 0 hr 1 min 38 sec) 
Heartbeat CPU 0 instructions: 70000001 cycles: 33956957 heartbeat IPC: 2.0942 cumulative IPC: 2.06143 (Simulation time: 0 hr 1 min 53 sec) 
Heartbeat CPU 0 instructions: 80000000 cycles: 38793180 heartbeat IPC: 2.06773 cumulative IPC: 2.06222 (Simulation time: 0 hr 2 min 10 sec) 
Heartbeat CPU 0 instructions: 90000002 cycles: 43647195 heartbeat IPC: 2.06015 cumulative IPC: 2.06199 (Simulation time: 0 hr 2 min 27 sec) 
Heartbeat CPU 0 instructions: 100000000 cycles: 48565973 heartbeat IPC: 2.03302 cumulative IPC: 2.05905 (Simulation time: 0 hr 2 min 43 sec) 

Warmup complete CPU 0 instructions: 100000001 cycles: 48565974 (Simulation time: 0 hr 2 min 43 sec) 

Heartbeat CPU 0 instructions: 110000000 cycles: 61657805 heartbeat IPC: 0.763835 cumulative IPC: 0.763835 (Simulation time: 0 hr 3 min 6 sec) 
Heartbeat CPU 0 instructions: 120000000 cycles: 75406677 heartbeat IPC: 0.727332 cumulative IPC: 0.745137 (Simulation time: 0 hr 3 min 31 sec) 
Heartbeat CPU 0 instructions: 130000000 cycles: 89150648 heartbeat IPC: 0.727592 cumulative IPC: 0.739195 (Simulation time: 0 hr 3 min 56 sec) 
Heartbeat CPU 0 instructions: 140000000 cycles: 103401699 heartbeat IPC: 0.701703 cumulative IPC: 0.729451 (Simulation time: 0 hr 4 min 21 sec) 
Heartbeat CPU 0 instructions: 150000003 cycles: 116579381 heartbeat IPC: 0.758859 cumulative IPC: 0.735149 (Simulation time: 0 hr 4 min 44 sec) 
Heartbeat CPU 0 instructions: 160000000 cycles: 130323781 heartbeat IPC: 0.727569 cumulative IPC: 0.733875 (Simulation time: 0 hr 5 min 9 sec) 
Heartbeat CPU 0 instructions: 170000001 cycles: 144100113 heartbeat IPC: 0.725883 cumulative IPC: 0.732722 (Simulation time: 0 hr 5 min 34 sec) 
Heartbeat CPU 0 instructions: 180000000 cycles: 158336104 heartbeat IPC: 0.702445 cumulative IPC: 0.728796 (Simulation time: 0 hr 5 min 59 sec) 
Heartbeat CPU 0 instructions: 190000003 cycles: 171479961 heartbeat IPC: 0.760812 cumulative IPC: 0.732219 (Simulation time: 0 hr 6 min 21 sec) 
Heartbeat CPU 0 instructions: 200000000 cycles: 185219241 heartbeat IPC: 0.72784 cumulative IPC: 0.731779 (Simulation time: 0 hr 6 min 46 sec) 
Heartbeat CPU 0 instructions: 210000002 cycles: 198995540 heartbeat IPC: 0.725884 cumulative IPC: 0.731239 (Simulation time: 0 hr 7 min 12 sec) 
Heartbeat CPU 0 instructions: 220000000 cycles: 213229918 heartbeat IPC: 0.702524 cumulative IPC: 0.728757 (Simulation time: 0 hr 7 min 37 sec) 
Heartbeat CPU 0 instructions: 230000001 cycles: 226318171 heartbeat IPC: 0.764044 cumulative IPC: 0.731355 (Simulation time: 0 hr 7 min 59 sec) 
Heartbeat CPU 0 instructions: 240000000 cycles: 240044668 heartbeat IPC: 0.728518 cumulative IPC: 0.731152 (Simulation time: 0 hr 8 min 24 sec) 
Heartbeat CPU 0 instructions: 250000001 cycles: 253767869 heartbeat IPC: 0.728693 cumulative IPC: 0.730987 (Simulation time: 0 hr 8 min 49 sec) 
Heartbeat CPU 0 instructions: 260000000 cycles: 267903879 heartbeat IPC: 0.707413 cumulative IPC: 0.729468 (Simulation time: 0 hr 9 min 14 sec) 
Heartbeat CPU 0 instructions: 270000003 cycles: 281105499 heartbeat IPC: 0.757483 cumulative IPC: 0.731059 (Simulation time: 0 hr 9 min 37 sec) 
Heartbeat CPU 0 instructions: 280000000 cycles: 294850510 heartbeat IPC: 0.727536 cumulative IPC: 0.730862 (Simulation time: 0 hr 10 min 2 sec) 
Heartbeat CPU 0 instructions: 290000001 cycles: 308617809 heartbeat IPC: 0.726359 cumulative IPC: 0.730624 (Simulation time: 0 hr 10 min 27 sec) 
Heartbeat CPU 0 instructions: 300000000 cycles: 322699804 heartbeat IPC: 0.710127 cumulative IPC: 0.729571 (Simulation time: 0 hr 10 min 52 sec) 
Heartbeat CPU 0 instructions: 310000000 cycles: 335920652 heartbeat IPC: 0.756381 cumulative IPC: 0.730804 (Simulation time: 0 hr 11 min 15 sec) 
Heartbeat CPU 0 instructions: 320000000 cycles: 349702934 heartbeat IPC: 0.725569 cumulative IPC: 0.730565 (Simulation time: 0 hr 11 min 40 sec) 
Heartbeat CPU 0 instructions: 330000000 cycles: 363489625 heartbeat IPC: 0.725337 cumulative IPC: 0.730336 (Simulation time: 0 hr 12 min 5 sec) 
Heartbeat CPU 0 instructions: 340000000 cycles: 377548641 heartbeat IPC: 0.711287 cumulative IPC: 0.729522 (Simulation time: 0 hr 12 min 30 sec) 
Heartbeat CPU 0 instructions: 350000000 cycles: 390792924 heartbeat IPC: 0.755043 cumulative IPC: 0.730509 (Simulation time: 0 hr 12 min 52 sec) 
Heartbeat CPU 0 instructions: 360000000 cycles: 404606339 heartbeat IPC: 0.723934 cumulative IPC: 0.730254 (Simulation time: 0 hr 13 min 17 sec) 
Heartbeat CPU 0 instructions: 370000003 cycles: 418395229 heartbeat IPC: 0.725222 cumulative IPC: 0.730067 (Simulation time: 0 hr 13 min 42 sec) 
Heartbeat CPU 0 instructions: 380000000 cycles: 432418425 heartbeat IPC: 0.713104 cumulative IPC: 0.729447 (Simulation time: 0 hr 14 min 7 sec) 
Heartbeat CPU 0 instructions: 390000003 cycles: 445675857 heartbeat IPC: 0.754294 cumulative IPC: 0.730276 (Simulation time: 0 hr 14 min 29 sec) 
Heartbeat CPU 0 instructions: 400000000 cycles: 459484772 heartbeat IPC: 0.72417 cumulative IPC: 0.730071 (Simulation time: 0 hr 14 min 54 sec) 
Heartbeat CPU 0 instructions: 410000000 cycles: 473244586 heartbeat IPC: 0.726754 cumulative IPC: 0.729964 (Simulation time: 0 hr 15 min 19 sec) 
Heartbeat CPU 0 instructions: 420000000 cycles: 487256498 heartbeat IPC: 0.713678 cumulative IPC: 0.729444 (Simulation time: 0 hr 15 min 44 sec) 
Heartbeat CPU 0 instructions: 430000003 cycles: 500536516 heartbeat IPC: 0.753011 cumulative IPC: 0.730136 (Simulation time: 0 hr 16 min 6 sec) 
Heartbeat CPU 0 instructions: 440000000 cycles: 514341082 heartbeat IPC: 0.724398 cumulative IPC: 0.729966 (Simulation time: 0 hr 16 min 31 sec) 
Heartbeat CPU 0 instructions: 450000000 cycles: 528118252 heartbeat IPC: 0.725838 cumulative IPC: 0.729847 (Simulation time: 0 hr 16 min 56 sec) 
Heartbeat CPU 0 instructions: 460000000 cycles: 542110269 heartbeat IPC: 0.714693 cumulative IPC: 0.729418 (Simulation time: 0 hr 17 min 21 sec) 
Heartbeat CPU 0 instructions: 470000001 cycles: 555371672 heartbeat IPC: 0.754068 cumulative IPC: 0.730063 (Simulation time: 0 hr 17 min 43 sec) 
Heartbeat CPU 0 instructions: 480000000 cycles: 569153345 heartbeat IPC: 0.725601 cumulative IPC: 0.729945 (Simulation time: 0 hr 18 min 8 sec) 
Heartbeat CPU 0 instructions: 490000002 cycles: 582906255 heartbeat IPC: 0.727119 cumulative IPC: 0.729872 (Simulation time: 0 hr 18 min 33 sec) 
Heartbeat CPU 0 instructions: 500000000 cycles: 596894907 heartbeat IPC: 0.714865 cumulative IPC: 0.729489 (Simulation time: 0 hr 18 min 57 sec) 
Heartbeat CPU 0 instructions: 510000002 cycles: 610192429 heartbeat IPC: 0.75202 cumulative IPC: 0.730023 (Simulation time: 0 hr 19 min 20 sec) 
Heartbeat CPU 0 instructions: 520000000 cycles: 623957572 heartbeat IPC: 0.726472 cumulative IPC: 0.729938 (Simulation time: 0 hr 19 min 45 sec) 
Heartbeat CPU 0 instructions: 530000003 cycles: 637688654 heartbeat IPC: 0.728275 cumulative IPC: 0.729899 (Simulation time: 0 hr 20 min 9 sec) 
Heartbeat CPU 0 instructions: 540000000 cycles: 651697677 heartbeat IPC: 0.713825 cumulative IPC: 0.729526 (Simulation time: 0 hr 20 min 34 sec) 
Heartbeat CPU 0 instructions: 550000003 cycles: 664996126 heartbeat IPC: 0.751968 cumulative IPC: 0.73001 (Simulation time: 0 hr 20 min 57 sec) 
Heartbeat CPU 0 instructions: 560000000 cycles: 678741212 heartbeat IPC: 0.727533 cumulative IPC: 0.729956 (Simulation time: 0 hr 21 min 22 sec) 
Heartbeat CPU 0 instructions: 570000001 cycles: 692502101 heartbeat IPC: 0.726697 cumulative IPC: 0.729886 (Simulation time: 0 hr 21 min 46 sec) 
Heartbeat CPU 0 instructions: 580000000 cycles: 706536125 heartbeat IPC: 0.712554 cumulative IPC: 0.729516 (Simulation time: 0 hr 22 min 11 sec) 
Heartbeat CPU 0 instructions: 590000000 cycles: 719771656 heartbeat IPC: 0.755542 cumulative IPC: 0.73003 (Simulation time: 0 hr 22 min 34 sec) 
Heartbeat CPU 0 instructions: 600000000 cycles: 733523738 heartbeat IPC: 0.727163 cumulative IPC: 0.729972 (Simulation time: 0 hr 22 min 59 sec) 
Finished CPU 0 instructions: 500000001 cycles: 684957772 cumulative IPC: 0.729972 (Simulation time: 0 hr 22 min 59 sec) 

CPU 0 Branch Prediction Accuracy: 97.5275% MPKI: 2.1997
Number of Branches: 44482865 Number of Mispredictions: 1099852
Number of LOAD Instructions: 144955155
Number of LOAD Instructions (ROI): 144955155
Number of STORE Instructions: 55921098
Number of STORE Instructions (ROI): 55921098
Total Destination Memory Operands: 57111147
Total Destination Memory Operands (ROI): 57111147
Total Source Memory Operands: 144955155
Total Source Memory Operands (ROI): 144955155
Number of DEPENDED LOADS: 13454943
Number of DEPENDED LOADS (ROI): 13454943
Number of SQ_ADDED: 57111126
Number of SQ_ADDED (ROI): 57111126
Number of LQ_ADDED: 174218064
Number of LQ_ADDED (ROI): 174218064
Number of Instructions read from trace: 600000256

ChampSim completed all CPUs

Region of Interest Statistics

CPU 0 cumulative IPC: 0.729972 instructions: 500000001 cycles: 684957772
ITLB TOTAL     ACCESS:  136064077  HIT:  136061524  MISS:       2553
ITLB LOAD      ACCESS:  136064077  HIT:  136061524  MISS:       2553
ITLB RFO       ACCESS:          0  HIT:          0  MISS:          0
ITLB PREFETCH  ACCESS:          0  HIT:          0  MISS:          0
ITLB WRITEBACK ACCESS:          0  HIT:          0  MISS:          0
ITLB PREFETCH  REQUESTED:          0  ISSUED:          0  USEFUL:          0  USELESS:          0
ITLB TOTAL MSHR MERGED:       4363
ITLB LOAD MSHR MERGED:       4363
ITLB RFO MSHR MERGED:          0
ITLB PREFETCH MSHR MERGED:          0
ITLB WRITEBACK MSHR MERGED:          0
ITLB TOTAL ACCESSES:  136068440 HITS:  136061524 MISSES:       6916
ITLB LOAD ACCESSES:  136068440 HITS:  136061524 MISSES:       6916
ITLB RFO ACCESSES:          0 HITS:          0 MISSES:          0
ITLB PREFETCH ACCESSES:          0 HITS:          0 MISSES:          0
ITLB WRITEBACK ACCESSES:          0 HITS:          0 MISSES:          0
ITLB RQ ACCESS:  500000202
ITLB RQ TO_CACHE:  136068440
ITLB RQ MERGED:  363931762
ITLB RQ FORWARD:          0
ITLB WQ ACCESS:          0
ITLB WQ TO_CACHE:          0
ITLB WQ MERGED:          0
ITLB WQ FORWARD:          0
DTLB TOTAL     ACCESS:  111547886  HIT:  111411691  MISS:     136195
DTLB LOAD      ACCESS:   78949959  HIT:   78824332  MISS:     125627
DTLB RFO       ACCESS:   32597927  HIT:   32587359  MISS:      10568
DTLB PREFETCH  ACCESS:          0  HIT:          0  MISS:          0
DTLB WRITEBACK ACCESS:          0  HIT:          0  MISS:          0
DTLB PREFETCH  REQUESTED:          0  ISSUED:          0  USEFUL:          0  USELESS:          0
DTLB TOTAL MSHR MERGED:      63628
DTLB LOAD MSHR MERGED:      50946
DTLB RFO MSHR MERGED:      12682
DTLB PREFETCH MSHR MERGED:          0
DTLB WRITEBACK MSHR MERGED:          0
DTLB TOTAL ACCESSES:  111611514 HITS:  111411691 MISSES:     199823
DTLB LOAD ACCESSES:   79000905 HITS:   78824332 MISSES:     176573
DTLB RFO ACCESSES:   32610609 HITS:   32587359 MISSES:      23250
DTLB PREFETCH ACCESSES:          0 HITS:          0 MISSES:          0
DTLB WRITEBACK ACCESSES:          0 HITS:          0 MISSES:          0
DTLB RQ ACCESS:  157180487
DTLB RQ TO_CACHE:  111611514
DTLB RQ MERGED:   45568973
DTLB RQ FORWARD:          0
DTLB WQ ACCESS:          0
DTLB WQ TO_CACHE:          0
DTLB WQ MERGED:          0
DTLB WQ FORWARD:          0
L1D TOTAL     ACCESS:  198238321  HIT:  188397235  MISS:    9841086
L1D LOAD      ACCESS:   79950459  HIT:   75688542  MISS:    4261917
L1D RFO       ACCESS:   44533279  HIT:   43632771  MISS:     900508
L1D PREFETCH  ACCESS:   73754583  HIT:   69075922  MISS:    4678661
L1D WRITEBACK ACCESS:          0  HIT:          0  MISS:          0
L1D PREFETCH  REQUESTED:   80345500  ISSUED:   79889928  USEFUL:    1820395  USELESS:    2858175
L1D TOTAL MSHR MERGED:    2489618
L1D LOAD MSHR MERGED:     518351
L1D RFO MSHR MERGED:    1419491
L1D PREFETCH MSHR MERGED:     551776
L1D WRITEBACK MSHR MERGED:          0
L1D TOTAL ACCESSES:  200749227 HITS:  188418523 MISSES:   12330704
L1D LOAD ACCESSES:   80358154 HITS:   75701196 MISSES:    4656958
L1D RFO ACCESSES:   45949658 HITS:   43632771 MISSES:    2316887
L1D PREFETCH ACCESSES:   74441415 HITS:   69084556 MISSES:    5356859
L1D WRITEBACK ACCESSES:          0 HITS:          0 MISSES:          0
L1D RQ ACCESS:  109538517
L1D RQ TO_CACHE:   80345500
L1D RQ MERGED:   29180363
L1D RQ FORWARD:          0
L1D WQ ACCESS:   47641970
L1D WQ TO_CACHE:   45949658
L1D WQ MERGED:    1692312
L1D WQ FORWARD:      21288
L1I TOTAL     ACCESS:  161534834  HIT:  161270861  MISS:     263973
L1I LOAD      ACCESS:  161534834  HIT:  161270861  MISS:     263973
L1I RFO       ACCESS:          0  HIT:          0  MISS:          0
L1I PREFETCH  ACCESS:          0  HIT:          0  MISS:          0
L1I WRITEBACK ACCESS:          0  HIT:          0  MISS:          0
L1I PREFETCH  REQUESTED:          0  ISSUED:          0  USEFUL:          0  USELESS:          0
L1I TOTAL MSHR MERGED:     260959
L1I LOAD MSHR MERGED:     260959
L1I RFO MSHR MERGED:          0
L1I PREFETCH MSHR MERGED:          0
L1I WRITEBACK MSHR MERGED:          0
L1I TOTAL ACCESSES:  161795793 HITS:  161270861 MISSES:     524932
L1I LOAD ACCESSES:  161795793 HITS:  161270861 MISSES:     524932
L1I RFO ACCESSES:          0 HITS:          0 MISSES:          0
L1I PREFETCH ACCESSES:          0 HITS:          0 MISSES:          0
L1I WRITEBACK ACCESSES:          0 HITS:          0 MISSES:          0
L1I RQ ACCESS:  500000202
L1I RQ TO_CACHE:  161795793
L1I RQ MERGED:  338204409
L1I RQ FORWARD:          0
L1I WQ ACCESS:          0
L1I WQ TO_CACHE:          0
L1I WQ MERGED:          0
L1I WQ FORWARD:          0
L2C TOTAL     ACCESS:   11771779  HIT:   10382478  MISS:    1389301
L2C LOAD      ACCESS:    4402514  HIT:    3905862  MISS:     496652
L2C RFO       ACCESS:     897330  HIT:     536292  MISS:     361038
L2C PREFETCH  ACCESS:    5284393  HIT:    4755731  MISS:     528662
L2C WRITEBACK ACCESS:    1187542  HIT:    1184593  MISS:       2949
L2C PREFETCH  REQUESTED:     504657  ISSUED:     504657  USEFUL:     114967  USELESS:     413888
L2C TOTAL MSHR MERGED:       1997
L2C LOAD MSHR MERGED:        394
L2C RFO MSHR MERGED:          0
L2C PREFETCH MSHR MERGED:       1603
L2C WRITEBACK MSHR MERGED:          0
L2C TOTAL ACCESSES:   11776526 HITS:   10382701 MISSES:    1393825
L2C LOAD ACCESSES:    4402580 HITS:    3905928 MISSES:     496652
L2C RFO ACCESSES:     897396 HITS:     536358 MISSES:     361038
L2C PREFETCH ACCESSES:    5289008 HITS:    4755822 MISSES:     533186
L2C WRITEBACK ACCESSES:    1187542 HITS:    1184593 MISSES:       2949
L2C RQ ACCESS:    5299976
L2C RQ TO_CACHE:    5299844
L2C RQ MERGED:          0
L2C RQ FORWARD:          0
L2C WQ ACCESS:    1187542
L2C WQ TO_CACHE:    1187542
L2C WQ MERGED:          0
L2C WQ FORWARD:        223
LLC TOTAL     ACCESS:    1849518  HIT:    1147015  MISS:     702503
LLC LOAD      ACCESS:     496256  HIT:     239148  MISS:     257108
LLC RFO       ACCESS:     361032  HIT:     233732  MISS:     127300
LLC PREFETCH  ACCESS:     531497  HIT:     319585  MISS:     211912
LLC WRITEBACK ACCESS:     460733  HIT:     354550  MISS:     106183
LLC PREFETCH  REQUESTED:          0  ISSUED:          0  USEFUL:       2573  USELESS:     209469
LLC TOTAL MSHR MERGED:         60
LLC LOAD MSHR MERGED:         28
LLC RFO MSHR MERGED:          0
LLC PREFETCH MSHR MERGED:         32
LLC WRITEBACK MSHR MERGED:          0
LLC TOTAL ACCESSES:    1849605 HITS:    1147042 MISSES:     702563
LLC LOAD ACCESSES:     496258 HITS:     239150 MISSES:     257108
LLC RFO ACCESSES:     361038 HITS:     233738 MISSES:     127300
LLC PREFETCH ACCESSES:     531576 HITS:     319604 MISSES:     211972
LLC WRITEBACK ACCESSES:     460733 HITS:     354550 MISSES:     106183
LLC 0 RQ ACCESS:     857296
LLC 0 RQ TO_CACHE:     857288
LLC 0 RQ MERGED:          0
LLC 0 RQ FORWARD:          0
LLC WQ ACCESS:     460733
LLC WQ TO_CACHE:     460733
LLC WQ MERGED:          0
LLC WQ FORWARD:         27
Major fault: 0 Minor fault: 3073
CPU 0 L1D next line prefetcher final stats
CPU 0 L2C PC-based stride prefetcher final stats
All Misses: 855845
All Hits: 1320364
SD Algo Stats - Switches: 0 SRR-Repls: 295323 BRR-Repls: 0

DRAM Statistics
 CHANNEL 0
 RQ ROW_BUFFER_HIT:     410401  ROW_BUFFER_MISS:     185662
 DBUS_CONGESTED:     442971
 WQ ROW_BUFFER_HIT:      18345  ROW_BUFFER_MISS:     115757  FULL:          0

 AVG_CONGESTED_CYCLE: 13
LOADS RETIRED: 120673965
INSTR RETIRED: 500000000
