
*** ChampSim Multicore Out-of-Order Simulator ***

Warmup Instructions: 100000000
Simulation Instructions: 500000000
Number of CPUs: 1
LLC sets: 2048
LLC ways: 16
Clean RRIP Policies: 1213230212132302 Dirty RRIP Policies: 2203130222031302 PSEL Width: 10 Track Set: 4294967295 PSEL Mask: 1 Demote Mask: 3040100030401000DS Algo: 0Window size: 0
Off-chip DRAM Size: 4096 MB Channels: 1 Width: 64-bit Data Rate: 1600 MT/s

CPU 0 runs /mnt/beegfs/iconst01/spec2017/x264.trace.gz
NOT SORTED
TRACE STRING: /mnt/beegfs/iconst01/spec2017/x264.trace.gz
SORTED
TRACE STRING: /mnt/beegfs/iconst01/spec2017/x264.trace.gz
INITIAL
TRACE STRING: /mnt/beegfs/iconst01/spec2017/x264.trace.gz

champsim_seed used: 276

CPU 0 L1D next line prefetcher
CPU 0 L2C IP-based stride prefetcher
Initialize DRRIP state
Assign rand_sets[0]: 454  LLC: 2048
rand_sets[0]: 454
Assign rand_sets[1]: 1662  LLC: 2048
rand_sets[1]: 1662
Assign rand_sets[2]: 1921  LLC: 2048
rand_sets[2]: 1921
Assign rand_sets[3]: 1131  LLC: 2048
rand_sets[3]: 1131
Assign rand_sets[4]: 331  LLC: 2048
rand_sets[4]: 331
Assign rand_sets[5]: 1531  LLC: 2048
rand_sets[5]: 1531
Assign rand_sets[6]: 482  LLC: 2048
rand_sets[6]: 482
Assign rand_sets[7]: 1275  LLC: 2048
rand_sets[7]: 1275
Assign rand_sets[8]: 1876  LLC: 2048
rand_sets[8]: 1876
Assign rand_sets[9]: 2038  LLC: 2048
rand_sets[9]: 2038
Assign rand_sets[10]: 701  LLC: 2048
rand_sets[10]: 701
Assign rand_sets[11]: 479  LLC: 2048
rand_sets[11]: 479
Assign rand_sets[12]: 892  LLC: 2048
rand_sets[12]: 892
Assign rand_sets[13]: 1820  LLC: 2048
rand_sets[13]: 1820
Assign rand_sets[14]: 1505  LLC: 2048
rand_sets[14]: 1505
Assign rand_sets[15]: 1159  LLC: 2048
rand_sets[15]: 1159
Assign rand_sets[16]: 513  LLC: 2048
rand_sets[16]: 513
Assign rand_sets[17]: 703  LLC: 2048
rand_sets[17]: 703
Assign rand_sets[18]: 561  LLC: 2048
rand_sets[18]: 561
Assign rand_sets[19]: 990  LLC: 2048
rand_sets[19]: 990
Assign rand_sets[20]: 342  LLC: 2048
rand_sets[20]: 342
Assign rand_sets[21]: 882  LLC: 2048
rand_sets[21]: 882
Assign rand_sets[22]: 15  LLC: 2048
rand_sets[22]: 15
Assign rand_sets[23]: 71  LLC: 2048
rand_sets[23]: 71
Assign rand_sets[24]: 1127  LLC: 2048
rand_sets[24]: 1127
Assign rand_sets[25]: 1382  LLC: 2048
rand_sets[25]: 1382
Assign rand_sets[26]: 647  LLC: 2048
rand_sets[26]: 647
Assign rand_sets[27]: 857  LLC: 2048
rand_sets[27]: 857
Assign rand_sets[28]: 1450  LLC: 2048
rand_sets[28]: 1450
Assign rand_sets[29]: 1160  LLC: 2048
rand_sets[29]: 1160
Assign rand_sets[30]: 1852  LLC: 2048
rand_sets[30]: 1852
Assign rand_sets[31]: 1881  LLC: 2048
rand_sets[31]: 1881
Assign rand_sets[32]: 1770  LLC: 2048
rand_sets[32]: 1770
Assign rand_sets[33]: 1622  LLC: 2048
rand_sets[33]: 1622
Assign rand_sets[34]: 275  LLC: 2048
rand_sets[34]: 275
Assign rand_sets[35]: 635  LLC: 2048
rand_sets[35]: 635
Assign rand_sets[36]: 466  LLC: 2048
rand_sets[36]: 466
Assign rand_sets[37]: 1413  LLC: 2048
rand_sets[37]: 1413
Assign rand_sets[38]: 417  LLC: 2048
rand_sets[38]: 417
Assign rand_sets[39]: 472  LLC: 2048
rand_sets[39]: 472
Assign rand_sets[40]: 1340  LLC: 2048
rand_sets[40]: 1340
Assign rand_sets[41]: 852  LLC: 2048
rand_sets[41]: 852
Assign rand_sets[42]: 1365  LLC: 2048
rand_sets[42]: 1365
Assign rand_sets[43]: 47  LLC: 2048
rand_sets[43]: 47
Assign rand_sets[44]: 823  LLC: 2048
rand_sets[44]: 823
Assign rand_sets[45]: 686  LLC: 2048
rand_sets[45]: 686
Assign rand_sets[46]: 1637  LLC: 2048
rand_sets[46]: 1637
Assign rand_sets[47]: 1115  LLC: 2048
rand_sets[47]: 1115
Assign rand_sets[48]: 986  LLC: 2048
rand_sets[48]: 986
Assign rand_sets[49]: 258  LLC: 2048
rand_sets[49]: 258
Assign rand_sets[50]: 633  LLC: 2048
rand_sets[50]: 633
Assign rand_sets[51]: 920  LLC: 2048
rand_sets[51]: 920
Assign rand_sets[52]: 204  LLC: 2048
rand_sets[52]: 204
Assign rand_sets[53]: 227  LLC: 2048
rand_sets[53]: 227
Assign rand_sets[54]: 1818  LLC: 2048
rand_sets[54]: 1818
Assign rand_sets[55]: 886  LLC: 2048
rand_sets[55]: 886
Assign rand_sets[56]: 1422  LLC: 2048
rand_sets[56]: 1422
Assign rand_sets[57]: 607  LLC: 2048
rand_sets[57]: 607
Assign rand_sets[58]: 217  LLC: 2048
rand_sets[58]: 217
Assign rand_sets[59]: 1945  LLC: 2048
rand_sets[59]: 1945
Assign rand_sets[60]: 143  LLC: 2048
rand_sets[60]: 143
Assign rand_sets[61]: 1311  LLC: 2048
rand_sets[61]: 1311
Assign rand_sets[62]: 319  LLC: 2048
rand_sets[62]: 319
Assign rand_sets[63]: 1846  LLC: 2048
rand_sets[63]: 1846
 CLEAN-RRIP-POLICY-1: 1-2-1-3-2-3-0-2- CLEAN-RRIP-POLICY-2: 1-2-1-3-2-3-0-2-
 DIRTY-RRIP-POLICY-1: 2-2-0-3-1-3-0-2- DIRTY-RRIP-POLICY-2: 2-2-0-3-1-3-0-2-
 PSEL width: 10
Heartbeat CPU 0 instructions: 10000000 cycles: 4124759 heartbeat IPC: 2.42438 cumulative IPC: 2.42438 (Simulation time: 0 hr 0 min 13 sec) 
Heartbeat CPU 0 instructions: 20000000 cycles: 8233863 heartbeat IPC: 2.43362 cumulative IPC: 2.42899 (Simulation time: 0 hr 0 min 27 sec) 
Heartbeat CPU 0 instructions: 30000003 cycles: 12464696 heartbeat IPC: 2.3636 cumulative IPC: 2.4068 (Simulation time: 0 hr 0 min 40 sec) 
Heartbeat CPU 0 instructions: 40000000 cycles: 16636669 heartbeat IPC: 2.39695 cumulative IPC: 2.40433 (Simulation time: 0 hr 0 min 53 sec) 
Heartbeat CPU 0 instructions: 50000000 cycles: 20699152 heartbeat IPC: 2.46155 cumulative IPC: 2.41556 (Simulation time: 0 hr 1 min 7 sec) 
Heartbeat CPU 0 instructions: 60000000 cycles: 25022638 heartbeat IPC: 2.31295 cumulative IPC: 2.39783 (Simulation time: 0 hr 1 min 20 sec) 
Heartbeat CPU 0 instructions: 70000000 cycles: 29370939 heartbeat IPC: 2.29975 cumulative IPC: 2.38331 (Simulation time: 0 hr 1 min 33 sec) 
Heartbeat CPU 0 instructions: 80000000 cycles: 33721085 heartbeat IPC: 2.29877 cumulative IPC: 2.3724 (Simulation time: 0 hr 1 min 47 sec) 
Heartbeat CPU 0 instructions: 90000002 cycles: 38032067 heartbeat IPC: 2.31966 cumulative IPC: 2.36642 (Simulation time: 0 hr 2 min 0 sec) 
Heartbeat CPU 0 instructions: 100000000 cycles: 42329005 heartbeat IPC: 2.32724 cumulative IPC: 2.36245 (Simulation time: 0 hr 2 min 13 sec) 

Warmup complete CPU 0 instructions: 100000001 cycles: 42329006 (Simulation time: 0 hr 2 min 13 sec) 

Heartbeat CPU 0 instructions: 110000001 cycles: 49379742 heartbeat IPC: 1.41829 cumulative IPC: 1.41829 (Simulation time: 0 hr 2 min 31 sec) 
Heartbeat CPU 0 instructions: 120000000 cycles: 58888829 heartbeat IPC: 1.05163 cumulative IPC: 1.20774 (Simulation time: 0 hr 2 min 50 sec) 
Heartbeat CPU 0 instructions: 130000000 cycles: 63698164 heartbeat IPC: 2.07929 cumulative IPC: 1.40389 (Simulation time: 0 hr 3 min 7 sec) 
Heartbeat CPU 0 instructions: 140000000 cycles: 68603777 heartbeat IPC: 2.03848 cumulative IPC: 1.52237 (Simulation time: 0 hr 3 min 24 sec) 
Heartbeat CPU 0 instructions: 150000002 cycles: 75433049 heartbeat IPC: 1.46429 cumulative IPC: 1.51039 (Simulation time: 0 hr 3 min 42 sec) 
Heartbeat CPU 0 instructions: 160000000 cycles: 83269047 heartbeat IPC: 1.27616 cumulative IPC: 1.46556 (Simulation time: 0 hr 4 min 0 sec) 
Heartbeat CPU 0 instructions: 170000000 cycles: 90670012 heartbeat IPC: 1.35118 cumulative IPC: 1.44805 (Simulation time: 0 hr 4 min 18 sec) 
Heartbeat CPU 0 instructions: 180000000 cycles: 97969047 heartbeat IPC: 1.37004 cumulative IPC: 1.43781 (Simulation time: 0 hr 4 min 35 sec) 
Heartbeat CPU 0 instructions: 190000002 cycles: 105140285 heartbeat IPC: 1.39446 cumulative IPC: 1.43286 (Simulation time: 0 hr 4 min 52 sec) 
Heartbeat CPU 0 instructions: 200000000 cycles: 112371719 heartbeat IPC: 1.38285 cumulative IPC: 1.4277 (Simulation time: 0 hr 5 min 10 sec) 
Heartbeat CPU 0 instructions: 210000000 cycles: 119246830 heartbeat IPC: 1.45452 cumulative IPC: 1.4301 (Simulation time: 0 hr 5 min 27 sec) 
Heartbeat CPU 0 instructions: 220000000 cycles: 126018645 heartbeat IPC: 1.47671 cumulative IPC: 1.43387 (Simulation time: 0 hr 5 min 43 sec) 
Heartbeat CPU 0 instructions: 230000003 cycles: 132745633 heartbeat IPC: 1.48655 cumulative IPC: 1.43779 (Simulation time: 0 hr 6 min 0 sec) 
Heartbeat CPU 0 instructions: 240000000 cycles: 139489620 heartbeat IPC: 1.4828 cumulative IPC: 1.44091 (Simulation time: 0 hr 6 min 17 sec) 
Heartbeat CPU 0 instructions: 250000001 cycles: 146217359 heartbeat IPC: 1.48638 cumulative IPC: 1.44386 (Simulation time: 0 hr 6 min 34 sec) 
Heartbeat CPU 0 instructions: 260000000 cycles: 152919511 heartbeat IPC: 1.49206 cumulative IPC: 1.44678 (Simulation time: 0 hr 6 min 51 sec) 
Heartbeat CPU 0 instructions: 270000001 cycles: 159895598 heartbeat IPC: 1.43347 cumulative IPC: 1.44599 (Simulation time: 0 hr 7 min 8 sec) 
Heartbeat CPU 0 instructions: 280000000 cycles: 167423266 heartbeat IPC: 1.32843 cumulative IPC: 1.43891 (Simulation time: 0 hr 7 min 25 sec) 
Heartbeat CPU 0 instructions: 290000000 cycles: 175339153 heartbeat IPC: 1.26328 cumulative IPC: 1.42846 (Simulation time: 0 hr 7 min 43 sec) 
Heartbeat CPU 0 instructions: 300000000 cycles: 183515946 heartbeat IPC: 1.22297 cumulative IPC: 1.41656 (Simulation time: 0 hr 8 min 2 sec) 
Heartbeat CPU 0 instructions: 310000002 cycles: 191826021 heartbeat IPC: 1.20336 cumulative IPC: 1.40471 (Simulation time: 0 hr 8 min 20 sec) 
Heartbeat CPU 0 instructions: 320000000 cycles: 201813403 heartbeat IPC: 1.00126 cumulative IPC: 1.37945 (Simulation time: 0 hr 8 min 40 sec) 
Heartbeat CPU 0 instructions: 330000002 cycles: 206448568 heartbeat IPC: 2.15742 cumulative IPC: 1.40142 (Simulation time: 0 hr 8 min 57 sec) 
Heartbeat CPU 0 instructions: 340000000 cycles: 211671450 heartbeat IPC: 1.91465 cumulative IPC: 1.41725 (Simulation time: 0 hr 9 min 15 sec) 
Heartbeat CPU 0 instructions: 350000000 cycles: 218887463 heartbeat IPC: 1.38581 cumulative IPC: 1.41596 (Simulation time: 0 hr 9 min 33 sec) 
Heartbeat CPU 0 instructions: 360000000 cycles: 226545590 heartbeat IPC: 1.3058 cumulative IPC: 1.41138 (Simulation time: 0 hr 9 min 50 sec) 
Heartbeat CPU 0 instructions: 370000000 cycles: 233949890 heartbeat IPC: 1.35057 cumulative IPC: 1.40903 (Simulation time: 0 hr 10 min 8 sec) 
Heartbeat CPU 0 instructions: 380000000 cycles: 241222747 heartbeat IPC: 1.37498 cumulative IPC: 1.40779 (Simulation time: 0 hr 10 min 25 sec) 
Heartbeat CPU 0 instructions: 390000000 cycles: 249340523 heartbeat IPC: 1.23186 cumulative IPC: 1.40089 (Simulation time: 0 hr 10 min 44 sec) 
Heartbeat CPU 0 instructions: 400000000 cycles: 257547630 heartbeat IPC: 1.21846 cumulative IPC: 1.39393 (Simulation time: 0 hr 11 min 2 sec) 
Heartbeat CPU 0 instructions: 410000001 cycles: 265369209 heartbeat IPC: 1.27851 cumulative IPC: 1.38988 (Simulation time: 0 hr 11 min 20 sec) 
Heartbeat CPU 0 instructions: 420000000 cycles: 273419690 heartbeat IPC: 1.24216 cumulative IPC: 1.38474 (Simulation time: 0 hr 11 min 38 sec) 
Heartbeat CPU 0 instructions: 430000001 cycles: 281674426 heartbeat IPC: 1.21143 cumulative IPC: 1.37876 (Simulation time: 0 hr 11 min 57 sec) 
Heartbeat CPU 0 instructions: 440000000 cycles: 289717241 heartbeat IPC: 1.24335 cumulative IPC: 1.37436 (Simulation time: 0 hr 12 min 15 sec) 
Heartbeat CPU 0 instructions: 450000001 cycles: 297586130 heartbeat IPC: 1.27083 cumulative IPC: 1.37117 (Simulation time: 0 hr 12 min 33 sec) 
Heartbeat CPU 0 instructions: 460000000 cycles: 307524342 heartbeat IPC: 1.00622 cumulative IPC: 1.35749 (Simulation time: 0 hr 12 min 53 sec) 
Heartbeat CPU 0 instructions: 470000002 cycles: 312151434 heartbeat IPC: 2.16119 cumulative IPC: 1.37127 (Simulation time: 0 hr 13 min 9 sec) 
Heartbeat CPU 0 instructions: 480000000 cycles: 317401566 heartbeat IPC: 1.90471 cumulative IPC: 1.38145 (Simulation time: 0 hr 13 min 26 sec) 
Heartbeat CPU 0 instructions: 490000001 cycles: 324720316 heartbeat IPC: 1.36635 cumulative IPC: 1.38106 (Simulation time: 0 hr 13 min 45 sec) 
Heartbeat CPU 0 instructions: 500000000 cycles: 333449822 heartbeat IPC: 1.14554 cumulative IPC: 1.374 (Simulation time: 0 hr 14 min 5 sec) 
Heartbeat CPU 0 instructions: 510000002 cycles: 342181719 heartbeat IPC: 1.14523 cumulative IPC: 1.36734 (Simulation time: 0 hr 14 min 25 sec) 
Heartbeat CPU 0 instructions: 520000000 cycles: 350911833 heartbeat IPC: 1.14546 cumulative IPC: 1.36106 (Simulation time: 0 hr 14 min 45 sec) 
Heartbeat CPU 0 instructions: 530000000 cycles: 359620316 heartbeat IPC: 1.14831 cumulative IPC: 1.35522 (Simulation time: 0 hr 15 min 5 sec) 
Heartbeat CPU 0 instructions: 540000000 cycles: 367877245 heartbeat IPC: 1.2111 cumulative IPC: 1.35157 (Simulation time: 0 hr 15 min 25 sec) 
Heartbeat CPU 0 instructions: 550000000 cycles: 374916469 heartbeat IPC: 1.42061 cumulative IPC: 1.35303 (Simulation time: 0 hr 15 min 42 sec) 
Heartbeat CPU 0 instructions: 560000000 cycles: 381530092 heartbeat IPC: 1.51203 cumulative IPC: 1.35613 (Simulation time: 0 hr 15 min 59 sec) 
Heartbeat CPU 0 instructions: 570000002 cycles: 388122990 heartbeat IPC: 1.51678 cumulative IPC: 1.35919 (Simulation time: 0 hr 16 min 16 sec) 
Heartbeat CPU 0 instructions: 580000000 cycles: 394769292 heartbeat IPC: 1.5046 cumulative IPC: 1.36193 (Simulation time: 0 hr 16 min 33 sec) 
Heartbeat CPU 0 instructions: 590000002 cycles: 401457642 heartbeat IPC: 1.49514 cumulative IPC: 1.36441 (Simulation time: 0 hr 16 min 50 sec) 
Heartbeat CPU 0 instructions: 600000000 cycles: 408267243 heartbeat IPC: 1.46851 cumulative IPC: 1.36635 (Simulation time: 0 hr 17 min 8 sec) 
Finished CPU 0 instructions: 500000000 cycles: 365938245 cumulative IPC: 1.36635 (Simulation time: 0 hr 17 min 8 sec) 

CPU 0 Branch Prediction Accuracy: 93.4682% MPKI: 2.44079
Number of Branches: 18683822 Number of Mispredictions: 1220394
Number of LOAD Instructions: 142551610
Number of LOAD Instructions (ROI): 142551610
Number of STORE Instructions: 44807454
Number of STORE Instructions (ROI): 44807454
Total Destination Memory Operands: 48357071
Total Destination Memory Operands (ROI): 48357071
Total Source Memory Operands: 142551610
Total Source Memory Operands (ROI): 142551610
Number of DEPENDED LOADS: 7395095
Number of DEPENDED LOADS (ROI): 7395095
Number of SQ_ADDED: 48357051
Number of SQ_ADDED (ROI): 48357051
Number of LQ_ADDED: 157224883
Number of LQ_ADDED (ROI): 157224883
Number of Instructions read from trace: 600000256

ChampSim completed all CPUs

Region of Interest Statistics

CPU 0 cumulative IPC: 1.36635 instructions: 500000000 cycles: 365938245
ITLB TOTAL     ACCESS:   88177286  HIT:   88177217  MISS:         69
ITLB LOAD      ACCESS:   88177286  HIT:   88177217  MISS:         69
ITLB RFO       ACCESS:          0  HIT:          0  MISS:          0
ITLB PREFETCH  ACCESS:          0  HIT:          0  MISS:          0
ITLB WRITEBACK ACCESS:          0  HIT:          0  MISS:          0
ITLB PREFETCH  REQUESTED:          0  ISSUED:          0  USEFUL:          0  USELESS:          0
ITLB TOTAL MSHR MERGED:         85
ITLB LOAD MSHR MERGED:         85
ITLB RFO MSHR MERGED:          0
ITLB PREFETCH MSHR MERGED:          0
ITLB WRITEBACK MSHR MERGED:          0
ITLB TOTAL ACCESSES:   88177371 HITS:   88177217 MISSES:        154
ITLB LOAD ACCESSES:   88177371 HITS:   88177217 MISSES:        154
ITLB RFO ACCESSES:          0 HITS:          0 MISSES:          0
ITLB PREFETCH ACCESSES:          0 HITS:          0 MISSES:          0
ITLB WRITEBACK ACCESSES:          0 HITS:          0 MISSES:          0
ITLB RQ ACCESS:  500000000
ITLB RQ TO_CACHE:   88177371
ITLB RQ MERGED:  411822629
ITLB RQ FORWARD:          0
ITLB WQ ACCESS:          0
ITLB WQ TO_CACHE:          0
ITLB WQ MERGED:          0
ITLB WQ FORWARD:          0
DTLB TOTAL     ACCESS:   88203066  HIT:   88075650  MISS:     127416
DTLB LOAD      ACCESS:   59485402  HIT:   59392938  MISS:      92464
DTLB RFO       ACCESS:   28717664  HIT:   28682712  MISS:      34952
DTLB PREFETCH  ACCESS:          0  HIT:          0  MISS:          0
DTLB WRITEBACK ACCESS:          0  HIT:          0  MISS:          0
DTLB PREFETCH  REQUESTED:          0  ISSUED:          0  USEFUL:          0  USELESS:          0
DTLB TOTAL MSHR MERGED:     141191
DTLB LOAD MSHR MERGED:     107694
DTLB RFO MSHR MERGED:      33497
DTLB PREFETCH MSHR MERGED:          0
DTLB WRITEBACK MSHR MERGED:          0
DTLB TOTAL ACCESSES:   88344257 HITS:   88075650 MISSES:     268607
DTLB LOAD ACCESSES:   59593096 HITS:   59392938 MISSES:     200158
DTLB RFO ACCESSES:   28751161 HITS:   28682712 MISSES:      68449
DTLB PREFETCH ACCESSES:          0 HITS:          0 MISSES:          0
DTLB WRITEBACK ACCESSES:          0 HITS:          0 MISSES:          0
DTLB RQ ACCESS:  154558798
DTLB RQ TO_CACHE:   88344257
DTLB RQ MERGED:   66214541
DTLB RQ FORWARD:          0
DTLB WQ ACCESS:          0
DTLB WQ TO_CACHE:          0
DTLB WQ MERGED:          0
DTLB WQ FORWARD:          0
L1D TOTAL     ACCESS:  128092756  HIT:  124867144  MISS:    3225612
L1D LOAD      ACCESS:   53172435  HIT:   51977107  MISS:    1195328
L1D RFO       ACCESS:   37380006  HIT:   36765909  MISS:     614097
L1D PREFETCH  ACCESS:   37540315  HIT:   36124128  MISS:    1416187
L1D WRITEBACK ACCESS:          0  HIT:          0  MISS:          0
L1D PREFETCH  REQUESTED:   53657279  ISSUED:   52457389  USEFUL:     352074  USELESS:    1064078
L1D TOTAL MSHR MERGED:    2812199
L1D LOAD MSHR MERGED:     523579
L1D RFO MSHR MERGED:    1574635
L1D PREFETCH MSHR MERGED:     713985
L1D WRITEBACK MSHR MERGED:          0
L1D TOTAL ACCESSES:  130939827 HITS:  124902016 MISSES:    6037811
L1D LOAD ACCESSES:   53660152 HITS:   51979980 MISSES:    1680172
L1D RFO ACCESSES:   38952825 HITS:   36765909 MISSES:    2186916
L1D PREFETCH ACCESSES:   38326850 HITS:   36156127 MISSES:    2170723
L1D WRITEBACK ACCESSES:          0 HITS:          0 MISSES:          0
L1D RQ ACCESS:  113713906
L1D RQ TO_CACHE:   53657279
L1D RQ MERGED:   60053754
L1D RQ FORWARD:          0
L1D WQ ACCESS:   40844891
L1D WQ TO_CACHE:   38952825
L1D WQ MERGED:    1892066
L1D WQ FORWARD:      34872
L1I TOTAL     ACCESS:  108369167  HIT:  107810032  MISS:     559135
L1I LOAD      ACCESS:  108369167  HIT:  107810032  MISS:     559135
L1I RFO       ACCESS:          0  HIT:          0  MISS:          0
L1I PREFETCH  ACCESS:          0  HIT:          0  MISS:          0
L1I WRITEBACK ACCESS:          0  HIT:          0  MISS:          0
L1I PREFETCH  REQUESTED:          0  ISSUED:          0  USEFUL:          0  USELESS:          0
L1I TOTAL MSHR MERGED:     525596
L1I LOAD MSHR MERGED:     525596
L1I RFO MSHR MERGED:          0
L1I PREFETCH MSHR MERGED:          0
L1I WRITEBACK MSHR MERGED:          0
L1I TOTAL ACCESSES:  108894763 HITS:  107810032 MISSES:    1084731
L1I LOAD ACCESSES:  108894763 HITS:  107810032 MISSES:    1084731
L1I RFO ACCESSES:          0 HITS:          0 MISSES:          0
L1I PREFETCH ACCESSES:          0 HITS:          0 MISSES:          0
L1I WRITEBACK ACCESSES:          0 HITS:          0 MISSES:          0
L1I RQ ACCESS:  500000002
L1I RQ TO_CACHE:  108894763
L1I RQ MERGED:  391105239
L1I RQ FORWARD:          0
L1I WQ ACCESS:          0
L1I WQ TO_CACHE:          0
L1I WQ MERGED:          0
L1I WQ FORWARD:          0
L2C TOTAL     ACCESS:    4691883  HIT:    3865775  MISS:     826108
L2C LOAD      ACCESS:    1715616  HIT:    1562722  MISS:     152894
L2C RFO       ACCESS:     610832  HIT:     421137  MISS:     189695
L2C PREFETCH  ACCESS:    1662536  HIT:    1181208  MISS:     481328
L2C WRITEBACK ACCESS:     702899  HIT:     700708  MISS:       2191
L2C PREFETCH  REQUESTED:     256327  ISSUED:     256327  USEFUL:     173120  USELESS:     308874
L2C TOTAL MSHR MERGED:      13404
L2C LOAD MSHR MERGED:       4068
L2C RFO MSHR MERGED:          0
L2C PREFETCH MSHR MERGED:       9336
L2C WRITEBACK MSHR MERGED:          0
L2C TOTAL ACCESSES:    4712140 HITS:    3867404 MISSES:     844736
L2C LOAD ACCESSES:    1715728 HITS:    1562834 MISSES:     152894
L2C RFO ACCESSES:     612281 HITS:     422586 MISSES:     189695
L2C PREFETCH ACCESSES:    1681232 HITS:    1181276 MISSES:     499956
L2C WRITEBACK ACCESSES:     702899 HITS:     700708 MISSES:       2191
L2C RQ ACCESS:    2328009
L2C RQ TO_CACHE:    2326448
L2C RQ MERGED:          0
L2C RQ FORWARD:          0
L2C WQ ACCESS:     702899
L2C WQ TO_CACHE:     702899
L2C WQ MERGED:          0
L2C WQ FORWARD:       1629
LLC TOTAL     ACCESS:    1047643  HIT:     288470  MISS:     759173
LLC LOAD      ACCESS:     148822  HIT:      89957  MISS:      58865
LLC RFO       ACCESS:     189688  HIT:       5973  MISS:     183715
LLC PREFETCH  ACCESS:     488248  HIT:     154098  MISS:     334150
LLC WRITEBACK ACCESS:     220885  HIT:      38442  MISS:     182443
LLC PREFETCH  REQUESTED:          0  ISSUED:          0  USEFUL:       2110  USELESS:     332639
LLC TOTAL MSHR MERGED:       1670
LLC LOAD MSHR MERGED:        546
LLC RFO MSHR MERGED:          0
LLC PREFETCH MSHR MERGED:       1124
LLC WRITEBACK MSHR MERGED:          0
LLC TOTAL ACCESSES:    1049324 HITS:     288481 MISSES:     760843
LLC LOAD ACCESSES:     148826 HITS:      89961 MISSES:      58865
LLC RFO ACCESSES:     189695 HITS:       5980 MISSES:     183715
LLC PREFETCH ACCESSES:     489918 HITS:     154098 MISSES:     335820
LLC WRITEBACK ACCESSES:     220885 HITS:      38442 MISSES:     182443
LLC 0 RQ ACCESS:     338521
LLC 0 RQ TO_CACHE:     338510
LLC 0 RQ MERGED:          0
LLC 0 RQ FORWARD:          0
LLC WQ ACCESS:     220885
LLC WQ TO_CACHE:     220885
LLC WQ MERGED:          0
LLC WQ FORWARD:         11
Major fault: 0 Minor fault: 6811
CPU 0 L1D next line prefetcher final stats
CPU 0 L2C PC-based stride prefetcher final stats
All Misses: 898426
All Hits: 356200
SD Algo Stats - Switches: 0 SRR-Repls: 66273 BRR-Repls: 0

DRAM Statistics
 CHANNEL 0
 RQ ROW_BUFFER_HIT:     288494  ROW_BUFFER_MISS:     288163
 DBUS_CONGESTED:     398962
 WQ ROW_BUFFER_HIT:      22420  ROW_BUFFER_MISS:     193993  FULL:          0

 AVG_CONGESTED_CYCLE: 13
LOADS RETIRED: 119922929
INSTR RETIRED: 500000000
