
*** ChampSim Multicore Out-of-Order Simulator ***

Warmup Instructions: 100000000
Simulation Instructions: 500000000
Number of CPUs: 1
LLC sets: 2048
LLC ways: 16
Clean RRIP Policies: 1103030211030302 Dirty RRIP Policies: 1103130211031302 PSEL Width: 10 Track Set: 4294967295 PSEL Mask: 1 Demote Mask: 1430244014302440DS Algo: 0Window size: 0
Off-chip DRAM Size: 4096 MB Channels: 1 Width: 64-bit Data Rate: 1600 MT/s

CPU 0 runs /mnt/beegfs/iconst01/spec2017/cactuBSSN.trace.gz
NOT SORTED
TRACE STRING: /mnt/beegfs/iconst01/spec2017/cactuBSSN.trace.gz
SORTED
TRACE STRING: /mnt/beegfs/iconst01/spec2017/cactuBSSN.trace.gz
INITIAL
TRACE STRING: /mnt/beegfs/iconst01/spec2017/cactuBSSN.trace.gz

champsim_seed used: 838

CPU 0 L1D next line prefetcher
CPU 0 L2C IP-based stride prefetcher
Initialize DRRIP state
Assign rand_sets[0]: 454  LLC: 2048
rand_sets[0]: 454
Assign rand_sets[1]: 1662  LLC: 2048
rand_sets[1]: 1662
Assign rand_sets[2]: 1921  LLC: 2048
rand_sets[2]: 1921
Assign rand_sets[3]: 1131  LLC: 2048
rand_sets[3]: 1131
Assign rand_sets[4]: 331  LLC: 2048
rand_sets[4]: 331
Assign rand_sets[5]: 1531  LLC: 2048
rand_sets[5]: 1531
Assign rand_sets[6]: 482  LLC: 2048
rand_sets[6]: 482
Assign rand_sets[7]: 1275  LLC: 2048
rand_sets[7]: 1275
Assign rand_sets[8]: 1876  LLC: 2048
rand_sets[8]: 1876
Assign rand_sets[9]: 2038  LLC: 2048
rand_sets[9]: 2038
Assign rand_sets[10]: 701  LLC: 2048
rand_sets[10]: 701
Assign rand_sets[11]: 479  LLC: 2048
rand_sets[11]: 479
Assign rand_sets[12]: 892  LLC: 2048
rand_sets[12]: 892
Assign rand_sets[13]: 1820  LLC: 2048
rand_sets[13]: 1820
Assign rand_sets[14]: 1505  LLC: 2048
rand_sets[14]: 1505
Assign rand_sets[15]: 1159  LLC: 2048
rand_sets[15]: 1159
Assign rand_sets[16]: 513  LLC: 2048
rand_sets[16]: 513
Assign rand_sets[17]: 703  LLC: 2048
rand_sets[17]: 703
Assign rand_sets[18]: 561  LLC: 2048
rand_sets[18]: 561
Assign rand_sets[19]: 990  LLC: 2048
rand_sets[19]: 990
Assign rand_sets[20]: 342  LLC: 2048
rand_sets[20]: 342
Assign rand_sets[21]: 882  LLC: 2048
rand_sets[21]: 882
Assign rand_sets[22]: 15  LLC: 2048
rand_sets[22]: 15
Assign rand_sets[23]: 71  LLC: 2048
rand_sets[23]: 71
Assign rand_sets[24]: 1127  LLC: 2048
rand_sets[24]: 1127
Assign rand_sets[25]: 1382  LLC: 2048
rand_sets[25]: 1382
Assign rand_sets[26]: 647  LLC: 2048
rand_sets[26]: 647
Assign rand_sets[27]: 857  LLC: 2048
rand_sets[27]: 857
Assign rand_sets[28]: 1450  LLC: 2048
rand_sets[28]: 1450
Assign rand_sets[29]: 1160  LLC: 2048
rand_sets[29]: 1160
Assign rand_sets[30]: 1852  LLC: 2048
rand_sets[30]: 1852
Assign rand_sets[31]: 1881  LLC: 2048
rand_sets[31]: 1881
Assign rand_sets[32]: 1770  LLC: 2048
rand_sets[32]: 1770
Assign rand_sets[33]: 1622  LLC: 2048
rand_sets[33]: 1622
Assign rand_sets[34]: 275  LLC: 2048
rand_sets[34]: 275
Assign rand_sets[35]: 635  LLC: 2048
rand_sets[35]: 635
Assign rand_sets[36]: 466  LLC: 2048
rand_sets[36]: 466
Assign rand_sets[37]: 1413  LLC: 2048
rand_sets[37]: 1413
Assign rand_sets[38]: 417  LLC: 2048
rand_sets[38]: 417
Assign rand_sets[39]: 472  LLC: 2048
rand_sets[39]: 472
Assign rand_sets[40]: 1340  LLC: 2048
rand_sets[40]: 1340
Assign rand_sets[41]: 852  LLC: 2048
rand_sets[41]: 852
Assign rand_sets[42]: 1365  LLC: 2048
rand_sets[42]: 1365
Assign rand_sets[43]: 47  LLC: 2048
rand_sets[43]: 47
Assign rand_sets[44]: 823  LLC: 2048
rand_sets[44]: 823
Assign rand_sets[45]: 686  LLC: 2048
rand_sets[45]: 686
Assign rand_sets[46]: 1637  LLC: 2048
rand_sets[46]: 1637
Assign rand_sets[47]: 1115  LLC: 2048
rand_sets[47]: 1115
Assign rand_sets[48]: 986  LLC: 2048
rand_sets[48]: 986
Assign rand_sets[49]: 258  LLC: 2048
rand_sets[49]: 258
Assign rand_sets[50]: 633  LLC: 2048
rand_sets[50]: 633
Assign rand_sets[51]: 920  LLC: 2048
rand_sets[51]: 920
Assign rand_sets[52]: 204  LLC: 2048
rand_sets[52]: 204
Assign rand_sets[53]: 227  LLC: 2048
rand_sets[53]: 227
Assign rand_sets[54]: 1818  LLC: 2048
rand_sets[54]: 1818
Assign rand_sets[55]: 886  LLC: 2048
rand_sets[55]: 886
Assign rand_sets[56]: 1422  LLC: 2048
rand_sets[56]: 1422
Assign rand_sets[57]: 607  LLC: 2048
rand_sets[57]: 607
Assign rand_sets[58]: 217  LLC: 2048
rand_sets[58]: 217
Assign rand_sets[59]: 1945  LLC: 2048
rand_sets[59]: 1945
Assign rand_sets[60]: 143  LLC: 2048
rand_sets[60]: 143
Assign rand_sets[61]: 1311  LLC: 2048
rand_sets[61]: 1311
Assign rand_sets[62]: 319  LLC: 2048
rand_sets[62]: 319
Assign rand_sets[63]: 1846  LLC: 2048
rand_sets[63]: 1846
 CLEAN-RRIP-POLICY-1: 1-1-0-3-0-3-0-2- CLEAN-RRIP-POLICY-2: 1-1-0-3-0-3-0-2-
 DIRTY-RRIP-POLICY-1: 1-1-0-3-1-3-0-2- DIRTY-RRIP-POLICY-2: 1-1-0-3-1-3-0-2-
 PSEL width: 10
Heartbeat CPU 0 instructions: 10000000 cycles: 6588002 heartbeat IPC: 1.51791 cumulative IPC: 1.51791 (Simulation time: 0 hr 0 min 29 sec) 
Heartbeat CPU 0 instructions: 20000000 cycles: 13179588 heartbeat IPC: 1.51709 cumulative IPC: 1.5175 (Simulation time: 0 hr 0 min 58 sec) 
Heartbeat CPU 0 instructions: 30000003 cycles: 19772929 heartbeat IPC: 1.51668 cumulative IPC: 1.51723 (Simulation time: 0 hr 1 min 27 sec) 
Heartbeat CPU 0 instructions: 40000000 cycles: 26364729 heartbeat IPC: 1.51704 cumulative IPC: 1.51718 (Simulation time: 0 hr 1 min 56 sec) 
Heartbeat CPU 0 instructions: 50000001 cycles: 32957453 heartbeat IPC: 1.51682 cumulative IPC: 1.51711 (Simulation time: 0 hr 2 min 26 sec) 
Heartbeat CPU 0 instructions: 60000000 cycles: 39556329 heartbeat IPC: 1.51541 cumulative IPC: 1.51682 (Simulation time: 0 hr 2 min 55 sec) 
Heartbeat CPU 0 instructions: 70000003 cycles: 46154686 heartbeat IPC: 1.51553 cumulative IPC: 1.51664 (Simulation time: 0 hr 3 min 25 sec) 
Heartbeat CPU 0 instructions: 80000000 cycles: 52752741 heartbeat IPC: 1.5156 cumulative IPC: 1.51651 (Simulation time: 0 hr 3 min 54 sec) 
Heartbeat CPU 0 instructions: 90000002 cycles: 59348509 heartbeat IPC: 1.51612 cumulative IPC: 1.51647 (Simulation time: 0 hr 4 min 24 sec) 
Heartbeat CPU 0 instructions: 100000000 cycles: 65943614 heartbeat IPC: 1.51628 cumulative IPC: 1.51645 (Simulation time: 0 hr 4 min 53 sec) 

Warmup complete CPU 0 instructions: 100000002 cycles: 65943615 (Simulation time: 0 hr 4 min 53 sec) 

Heartbeat CPU 0 instructions: 110000000 cycles: 79196033 heartbeat IPC: 0.754579 cumulative IPC: 0.754579 (Simulation time: 0 hr 5 min 29 sec) 
Heartbeat CPU 0 instructions: 120000000 cycles: 92411064 heartbeat IPC: 0.756714 cumulative IPC: 0.755645 (Simulation time: 0 hr 6 min 5 sec) 
Heartbeat CPU 0 instructions: 130000001 cycles: 105707703 heartbeat IPC: 0.75207 cumulative IPC: 0.75445 (Simulation time: 0 hr 6 min 41 sec) 
Heartbeat CPU 0 instructions: 140000000 cycles: 118893062 heartbeat IPC: 0.758417 cumulative IPC: 0.755437 (Simulation time: 0 hr 7 min 17 sec) 
Heartbeat CPU 0 instructions: 150000001 cycles: 132082709 heartbeat IPC: 0.75817 cumulative IPC: 0.755983 (Simulation time: 0 hr 7 min 53 sec) 
Heartbeat CPU 0 instructions: 160000000 cycles: 145324218 heartbeat IPC: 0.755201 cumulative IPC: 0.755852 (Simulation time: 0 hr 8 min 30 sec) 
Heartbeat CPU 0 instructions: 170000000 cycles: 158544087 heartbeat IPC: 0.756437 cumulative IPC: 0.755936 (Simulation time: 0 hr 9 min 6 sec) 
Heartbeat CPU 0 instructions: 180000000 cycles: 171742857 heartbeat IPC: 0.757646 cumulative IPC: 0.756149 (Simulation time: 0 hr 9 min 42 sec) 
Heartbeat CPU 0 instructions: 190000000 cycles: 184918345 heartbeat IPC: 0.758985 cumulative IPC: 0.756463 (Simulation time: 0 hr 10 min 18 sec) 
Heartbeat CPU 0 instructions: 200000000 cycles: 198178171 heartbeat IPC: 0.754158 cumulative IPC: 0.756232 (Simulation time: 0 hr 10 min 54 sec) 
Heartbeat CPU 0 instructions: 210000002 cycles: 211403368 heartbeat IPC: 0.756133 cumulative IPC: 0.756223 (Simulation time: 0 hr 11 min 30 sec) 
Heartbeat CPU 0 instructions: 220000000 cycles: 224584733 heartbeat IPC: 0.758647 cumulative IPC: 0.756424 (Simulation time: 0 hr 12 min 6 sec) 
Heartbeat CPU 0 instructions: 230000003 cycles: 237834756 heartbeat IPC: 0.754716 cumulative IPC: 0.756293 (Simulation time: 0 hr 12 min 42 sec) 
Heartbeat CPU 0 instructions: 240000000 cycles: 251025215 heartbeat IPC: 0.758124 cumulative IPC: 0.756423 (Simulation time: 0 hr 13 min 18 sec) 
Heartbeat CPU 0 instructions: 250000001 cycles: 264252454 heartbeat IPC: 0.756016 cumulative IPC: 0.756396 (Simulation time: 0 hr 13 min 54 sec) 
Heartbeat CPU 0 instructions: 260000000 cycles: 277471213 heartbeat IPC: 0.756501 cumulative IPC: 0.756402 (Simulation time: 0 hr 14 min 30 sec) 
Heartbeat CPU 0 instructions: 270000003 cycles: 290722977 heartbeat IPC: 0.754617 cumulative IPC: 0.756297 (Simulation time: 0 hr 15 min 5 sec) 
Heartbeat CPU 0 instructions: 280000000 cycles: 303928322 heartbeat IPC: 0.757269 cumulative IPC: 0.756351 (Simulation time: 0 hr 15 min 41 sec) 
Heartbeat CPU 0 instructions: 290000000 cycles: 317103657 heartbeat IPC: 0.758994 cumulative IPC: 0.75649 (Simulation time: 0 hr 16 min 16 sec) 
Heartbeat CPU 0 instructions: 300000000 cycles: 330362181 heartbeat IPC: 0.754232 cumulative IPC: 0.756377 (Simulation time: 0 hr 16 min 51 sec) 
Heartbeat CPU 0 instructions: 310000001 cycles: 343545893 heartbeat IPC: 0.758512 cumulative IPC: 0.756478 (Simulation time: 0 hr 17 min 27 sec) 
Heartbeat CPU 0 instructions: 320000000 cycles: 356742401 heartbeat IPC: 0.757776 cumulative IPC: 0.756537 (Simulation time: 0 hr 18 min 2 sec) 
Heartbeat CPU 0 instructions: 330000002 cycles: 369941984 heartbeat IPC: 0.7576 cumulative IPC: 0.756583 (Simulation time: 0 hr 18 min 38 sec) 
Heartbeat CPU 0 instructions: 340000000 cycles: 383185877 heartbeat IPC: 0.755065 cumulative IPC: 0.75652 (Simulation time: 0 hr 19 min 13 sec) 
Heartbeat CPU 0 instructions: 350000000 cycles: 396448259 heartbeat IPC: 0.754012 cumulative IPC: 0.756419 (Simulation time: 0 hr 19 min 47 sec) 
Heartbeat CPU 0 instructions: 360000000 cycles: 409671502 heartbeat IPC: 0.756244 cumulative IPC: 0.756412 (Simulation time: 0 hr 20 min 21 sec) 
Heartbeat CPU 0 instructions: 370000002 cycles: 422949062 heartbeat IPC: 0.753151 cumulative IPC: 0.756291 (Simulation time: 0 hr 20 min 55 sec) 
Heartbeat CPU 0 instructions: 380000000 cycles: 436156147 heartbeat IPC: 0.757169 cumulative IPC: 0.756322 (Simulation time: 0 hr 21 min 28 sec) 
Heartbeat CPU 0 instructions: 390000000 cycles: 449339314 heartbeat IPC: 0.758543 cumulative IPC: 0.756399 (Simulation time: 0 hr 22 min 2 sec) 
Heartbeat CPU 0 instructions: 400000000 cycles: 462540245 heartbeat IPC: 0.757522 cumulative IPC: 0.756436 (Simulation time: 0 hr 22 min 37 sec) 
Heartbeat CPU 0 instructions: 410000001 cycles: 475798205 heartbeat IPC: 0.754264 cumulative IPC: 0.756366 (Simulation time: 0 hr 23 min 13 sec) 
Heartbeat CPU 0 instructions: 420000000 cycles: 488988707 heartbeat IPC: 0.758121 cumulative IPC: 0.756421 (Simulation time: 0 hr 23 min 48 sec) 
Heartbeat CPU 0 instructions: 430000001 cycles: 502182024 heartbeat IPC: 0.75796 cumulative IPC: 0.756467 (Simulation time: 0 hr 24 min 23 sec) 
Heartbeat CPU 0 instructions: 440000000 cycles: 515356002 heartbeat IPC: 0.759072 cumulative IPC: 0.756543 (Simulation time: 0 hr 24 min 57 sec) 
Heartbeat CPU 0 instructions: 450000002 cycles: 528678758 heartbeat IPC: 0.750596 cumulative IPC: 0.756372 (Simulation time: 0 hr 25 min 32 sec) 
Heartbeat CPU 0 instructions: 460000000 cycles: 541900593 heartbeat IPC: 0.756325 cumulative IPC: 0.756371 (Simulation time: 0 hr 26 min 6 sec) 
Heartbeat CPU 0 instructions: 470000003 cycles: 555103814 heartbeat IPC: 0.757391 cumulative IPC: 0.756398 (Simulation time: 0 hr 26 min 41 sec) 
Heartbeat CPU 0 instructions: 480000000 cycles: 568353406 heartbeat IPC: 0.75474 cumulative IPC: 0.756355 (Simulation time: 0 hr 27 min 15 sec) 
Heartbeat CPU 0 instructions: 490000000 cycles: 581569368 heartbeat IPC: 0.756661 cumulative IPC: 0.756363 (Simulation time: 0 hr 27 min 49 sec) 
Heartbeat CPU 0 instructions: 500000000 cycles: 594771930 heartbeat IPC: 0.757429 cumulative IPC: 0.756389 (Simulation time: 0 hr 28 min 23 sec) 
Heartbeat CPU 0 instructions: 510000001 cycles: 607960379 heartbeat IPC: 0.758239 cumulative IPC: 0.756434 (Simulation time: 0 hr 28 min 56 sec) 
Heartbeat CPU 0 instructions: 520000000 cycles: 621246595 heartbeat IPC: 0.75266 cumulative IPC: 0.756344 (Simulation time: 0 hr 29 min 28 sec) 
Heartbeat CPU 0 instructions: 530000000 cycles: 634500177 heartbeat IPC: 0.754513 cumulative IPC: 0.756301 (Simulation time: 0 hr 30 min 0 sec) 
Heartbeat CPU 0 instructions: 540000000 cycles: 647736776 heartbeat IPC: 0.755481 cumulative IPC: 0.756283 (Simulation time: 0 hr 30 min 32 sec) 
Heartbeat CPU 0 instructions: 550000002 cycles: 660997991 heartbeat IPC: 0.754079 cumulative IPC: 0.756233 (Simulation time: 0 hr 31 min 4 sec) 
Heartbeat CPU 0 instructions: 560000000 cycles: 674199678 heartbeat IPC: 0.757479 cumulative IPC: 0.75626 (Simulation time: 0 hr 31 min 35 sec) 
Heartbeat CPU 0 instructions: 570000001 cycles: 687416829 heartbeat IPC: 0.756593 cumulative IPC: 0.756267 (Simulation time: 0 hr 32 min 6 sec) 
Heartbeat CPU 0 instructions: 580000000 cycles: 700627332 heartbeat IPC: 0.756973 cumulative IPC: 0.756282 (Simulation time: 0 hr 32 min 38 sec) 
Heartbeat CPU 0 instructions: 590000003 cycles: 713861117 heartbeat IPC: 0.755642 cumulative IPC: 0.756269 (Simulation time: 0 hr 33 min 9 sec) 
Heartbeat CPU 0 instructions: 600000000 cycles: 727123042 heartbeat IPC: 0.754038 cumulative IPC: 0.756224 (Simulation time: 0 hr 33 min 40 sec) 
Finished CPU 0 instructions: 500000000 cycles: 661179437 cumulative IPC: 0.756224 (Simulation time: 0 hr 33 min 40 sec) 

CPU 0 Branch Prediction Accuracy: 99.968% MPKI: 0.002246
Number of Branches: 3513331 Number of Mispredictions: 1123
Number of LOAD Instructions: 287251172
Number of LOAD Instructions (ROI): 287251172
Number of STORE Instructions: 51060820
Number of STORE Instructions (ROI): 51060820
Total Destination Memory Operands: 51166221
Total Destination Memory Operands (ROI): 51166221
Total Source Memory Operands: 287251172
Total Source Memory Operands (ROI): 287251172
Number of DEPENDED LOADS: 9555423
Number of DEPENDED LOADS (ROI): 9555423
Number of SQ_ADDED: 51166208
Number of SQ_ADDED (ROI): 51166208
Number of LQ_ADDED: 290420227
Number of LQ_ADDED (ROI): 290420227
Number of Instructions read from trace: 600000257

ChampSim completed all CPUs

Region of Interest Statistics

CPU 0 cumulative IPC: 0.756224 instructions: 500000000 cycles: 661179437
ITLB TOTAL     ACCESS:  108955389  HIT:  108955389  MISS:          0
ITLB LOAD      ACCESS:  108955389  HIT:  108955389  MISS:          0
ITLB RFO       ACCESS:          0  HIT:          0  MISS:          0
ITLB PREFETCH  ACCESS:          0  HIT:          0  MISS:          0
ITLB WRITEBACK ACCESS:          0  HIT:          0  MISS:          0
ITLB PREFETCH  REQUESTED:          0  ISSUED:          0  USEFUL:          0  USELESS:          0
ITLB TOTAL MSHR MERGED:          0
ITLB LOAD MSHR MERGED:          0
ITLB RFO MSHR MERGED:          0
ITLB PREFETCH MSHR MERGED:          0
ITLB WRITEBACK MSHR MERGED:          0
ITLB TOTAL ACCESSES:  108955389 HITS:  108955389 MISSES:          0
ITLB LOAD ACCESSES:  108955389 HITS:  108955389 MISSES:          0
ITLB RFO ACCESSES:          0 HITS:          0 MISSES:          0
ITLB PREFETCH ACCESSES:          0 HITS:          0 MISSES:          0
ITLB WRITEBACK ACCESSES:          0 HITS:          0 MISSES:          0
ITLB RQ ACCESS:  500000001
ITLB RQ TO_CACHE:  108955389
ITLB RQ MERGED:  391044612
ITLB RQ FORWARD:          0
ITLB WQ ACCESS:          0
ITLB WQ TO_CACHE:          0
ITLB WQ MERGED:          0
ITLB WQ FORWARD:          0
DTLB TOTAL     ACCESS:  171135031  HIT:  161118691  MISS:   10016340
DTLB LOAD      ACCESS:  143473987  HIT:  135597897  MISS:    7876090
DTLB RFO       ACCESS:   27661044  HIT:   25520794  MISS:    2140250
DTLB PREFETCH  ACCESS:          0  HIT:          0  MISS:          0
DTLB WRITEBACK ACCESS:          0  HIT:          0  MISS:          0
DTLB PREFETCH  REQUESTED:          0  ISSUED:          0  USEFUL:          0  USELESS:          0
DTLB TOTAL MSHR MERGED:     360420
DTLB LOAD MSHR MERGED:     360420
DTLB RFO MSHR MERGED:          0
DTLB PREFETCH MSHR MERGED:          0
DTLB WRITEBACK MSHR MERGED:          0
DTLB TOTAL ACCESSES:  171495451 HITS:  161118691 MISSES:   10376760
DTLB LOAD ACCESSES:  143834407 HITS:  135597897 MISSES:    8236510
DTLB RFO ACCESSES:   27661044 HITS:   25520794 MISSES:    2140250
DTLB PREFETCH ACCESSES:          0 HITS:          0 MISSES:          0
DTLB WRITEBACK ACCESSES:          0 HITS:          0 MISSES:          0
DTLB RQ ACCESS:  274072395
DTLB RQ TO_CACHE:  171495451
DTLB RQ MERGED:  102576944
DTLB RQ FORWARD:          0
DTLB WQ ACCESS:          0
DTLB WQ TO_CACHE:          0
DTLB WQ MERGED:          0
DTLB WQ FORWARD:          0
L1D TOTAL     ACCESS:  350961801  HIT:  283758416  MISS:   67203385
L1D LOAD      ACCESS:  175627120  HIT:  142585508  MISS:   33041612
L1D RFO       ACCESS:   42020392  HIT:   39214943  MISS:    2805449
L1D PREFETCH  ACCESS:  133314289  HIT:  101957965  MISS:   31356324
L1D WRITEBACK ACCESS:          0  HIT:          0  MISS:          0
L1D PREFETCH  REQUESTED:  176231356  ISSUED:  175293220  USEFUL:    2180720  USELESS:   29175606
L1D TOTAL MSHR MERGED:    1482869
L1D LOAD MSHR MERGED:     704116
L1D RFO MSHR MERGED:     348693
L1D PREFETCH MSHR MERGED:     430060
L1D WRITEBACK MSHR MERGED:          0
L1D TOTAL ACCESSES:  352556829 HITS:  283870575 MISSES:   68686254
L1D LOAD ACCESSES:  176237777 HITS:  142591929 MISSES:   33645848
L1D RFO ACCESSES:   42368425 HITS:   39214943 MISSES:    3153482
L1D PREFETCH ACCESSES:  133950627 HITS:  102063703 MISSES:   31886924
L1D WRITEBACK ACCESSES:          0 HITS:          0 MISSES:          0
L1D RQ ACCESS:  231433922
L1D RQ TO_CACHE:  176231356
L1D RQ MERGED:   55196145
L1D RQ FORWARD:          0
L1D WQ ACCESS:   42638475
L1D WQ TO_CACHE:   42368425
L1D WQ MERGED:     270050
L1D WQ FORWARD:     112159
L1I TOTAL     ACCESS:  109346984  HIT:   77831280  MISS:   31515704
L1I LOAD      ACCESS:  109346984  HIT:   77831280  MISS:   31515704
L1I RFO       ACCESS:          0  HIT:          0  MISS:          0
L1I PREFETCH  ACCESS:          0  HIT:          0  MISS:          0
L1I WRITEBACK ACCESS:          0  HIT:          0  MISS:          0
L1I PREFETCH  REQUESTED:          0  ISSUED:          0  USEFUL:          0  USELESS:          0
L1I TOTAL MSHR MERGED:   30749679
L1I LOAD MSHR MERGED:   30749679
L1I RFO MSHR MERGED:          0
L1I PREFETCH MSHR MERGED:          0
L1I WRITEBACK MSHR MERGED:          0
L1I TOTAL ACCESSES:  140096665 HITS:   77831280 MISSES:   62265385
L1I LOAD ACCESSES:  140096665 HITS:   77831280 MISSES:   62265385
L1I RFO ACCESSES:          0 HITS:          0 MISSES:          0
L1I PREFETCH ACCESSES:          0 HITS:          0 MISSES:          0
L1I WRITEBACK ACCESSES:          0 HITS:          0 MISSES:          0
L1I RQ ACCESS:  500000003
L1I RQ TO_CACHE:  140096665
L1I RQ MERGED:  359903338
L1I RQ FORWARD:          0
L1I WQ ACCESS:          0
L1I WQ TO_CACHE:          0
L1I WQ MERGED:          0
L1I WQ FORWARD:          0
L2C TOTAL     ACCESS:  113704414  HIT:  110704744  MISS:    2999670
L2C LOAD      ACCESS:   64455593  HIT:   63897577  MISS:     558016
L2C RFO       ACCESS:    2802939  HIT:    2193530  MISS:     609409
L2C PREFETCH  ACCESS:   43284968  HIT:   41459004  MISS:    1825964
L2C WRITEBACK ACCESS:    3160914  HIT:    3154633  MISS:       6281
L2C PREFETCH  REQUESTED:   15134681  ISSUED:   14620352  USEFUL:    1700883  USELESS:     125085
L2C TOTAL MSHR MERGED:      12647
L2C LOAD MSHR MERGED:          0
L2C RFO MSHR MERGED:          0
L2C PREFETCH MSHR MERGED:      12647
L2C WRITEBACK MSHR MERGED:          0
L2C TOTAL ACCESSES:  113906168 HITS:  110710553 MISSES:    3195615
L2C LOAD ACCESSES:   64457437 HITS:   63899420 MISSES:     558017
L2C RFO ACCESSES:    2804789 HITS:    2195380 MISSES:     609409
L2C PREFETCH ACCESSES:   43483028 HITS:   41461120 MISSES:    2021908
L2C WRITEBACK ACCESSES:    3160914 HITS:    3154633 MISSES:       6281
L2C RQ ACCESS:   67262227
L2C RQ TO_CACHE:   67258534
L2C RQ MERGED:          0
L2C RQ FORWARD:          0
L2C WQ ACCESS:    3160914
L2C WQ TO_CACHE:    3160914
L2C WQ MERGED:          0
L2C WQ FORWARD:       5809
LLC TOTAL     ACCESS:    3708141  HIT:    1862552  MISS:    1845589
LLC LOAD      ACCESS:     557986  HIT:     487225  MISS:      70761
LLC RFO       ACCESS:     527369  HIT:     239265  MISS:     288104
LLC PREFETCH  ACCESS:    2004350  HIT:     664771  MISS:    1339579
LLC WRITEBACK ACCESS:     618436  HIT:     471291  MISS:     147145
LLC PREFETCH  REQUESTED:          0  ISSUED:          0  USEFUL:      44244  USELESS:    1287310
LLC TOTAL MSHR MERGED:       4263
LLC LOAD MSHR MERGED:          0
LLC RFO MSHR MERGED:          0
LLC PREFETCH MSHR MERGED:       4263
LLC WRITEBACK MSHR MERGED:          0
LLC TOTAL ACCESSES:    3794556 HITS:    1944704 MISSES:    1849852
LLC LOAD ACCESSES:     558016 HITS:     487255 MISSES:      70761
LLC RFO ACCESSES:     609409 HITS:     321305 MISSES:     288104
LLC PREFETCH ACCESSES:    2008695 HITS:     664853 MISSES:    1343842
LLC WRITEBACK ACCESSES:     618436 HITS:     471291 MISSES:     147145
LLC 0 RQ ACCESS:    1167426
LLC 0 RQ TO_CACHE:    1085356
LLC 0 RQ MERGED:          0
LLC 0 RQ FORWARD:          0
LLC WQ ACCESS:     618436
LLC WQ TO_CACHE:     618436
LLC WQ MERGED:          0
LLC WQ FORWARD:      82152
Major fault: 0 Minor fault: 12800
CPU 0 L1D next line prefetcher final stats
CPU 0 L2C PC-based stride prefetcher final stats
All Misses: 2246137
All Hits: 2312921
SD Algo Stats - Switches: 5 SRR-Repls: 78927 BRR-Repls: 11309

DRAM Statistics
 CHANNEL 0
 RQ ROW_BUFFER_HIT:     836961  ROW_BUFFER_MISS:     861478
 DBUS_CONGESTED:     898493
 WQ ROW_BUFFER_HIT:      31204  ROW_BUFFER_MISS:     262475  FULL:          0

 AVG_CONGESTED_CYCLE: 13
LOADS RETIRED: 239375970
INSTR RETIRED: 500000000
