
*** ChampSim Multicore Out-of-Order Simulator ***

Warmup Instructions: 100000000
Simulation Instructions: 500000000
Number of CPUs: 1
LLC sets: 2048
LLC ways: 16
Clean RRIP Policies: 1103030211030302 Dirty RRIP Policies: 1103130211031302 PSEL Width: 10 Track Set: 4294967295 PSEL Mask: 1 Demote Mask: 1430244014302440DS Algo: 0Window size: 0
Off-chip DRAM Size: 4096 MB Channels: 1 Width: 64-bit Data Rate: 1600 MT/s

CPU 0 runs /mnt/beegfs/iconst01/spec2017/Gcc.trace.gz
NOT SORTED
TRACE STRING: /mnt/beegfs/iconst01/spec2017/Gcc.trace.gz
SORTED
TRACE STRING: /mnt/beegfs/iconst01/spec2017/Gcc.trace.gz
INITIAL
TRACE STRING: /mnt/beegfs/iconst01/spec2017/Gcc.trace.gz

champsim_seed used: 269

CPU 0 L1D next line prefetcher
CPU 0 L2C IP-based stride prefetcher
Initialize DRRIP state
Assign rand_sets[0]: 454  LLC: 2048
rand_sets[0]: 454
Assign rand_sets[1]: 1662  LLC: 2048
rand_sets[1]: 1662
Assign rand_sets[2]: 1921  LLC: 2048
rand_sets[2]: 1921
Assign rand_sets[3]: 1131  LLC: 2048
rand_sets[3]: 1131
Assign rand_sets[4]: 331  LLC: 2048
rand_sets[4]: 331
Assign rand_sets[5]: 1531  LLC: 2048
rand_sets[5]: 1531
Assign rand_sets[6]: 482  LLC: 2048
rand_sets[6]: 482
Assign rand_sets[7]: 1275  LLC: 2048
rand_sets[7]: 1275
Assign rand_sets[8]: 1876  LLC: 2048
rand_sets[8]: 1876
Assign rand_sets[9]: 2038  LLC: 2048
rand_sets[9]: 2038
Assign rand_sets[10]: 701  LLC: 2048
rand_sets[10]: 701
Assign rand_sets[11]: 479  LLC: 2048
rand_sets[11]: 479
Assign rand_sets[12]: 892  LLC: 2048
rand_sets[12]: 892
Assign rand_sets[13]: 1820  LLC: 2048
rand_sets[13]: 1820
Assign rand_sets[14]: 1505  LLC: 2048
rand_sets[14]: 1505
Assign rand_sets[15]: 1159  LLC: 2048
rand_sets[15]: 1159
Assign rand_sets[16]: 513  LLC: 2048
rand_sets[16]: 513
Assign rand_sets[17]: 703  LLC: 2048
rand_sets[17]: 703
Assign rand_sets[18]: 561  LLC: 2048
rand_sets[18]: 561
Assign rand_sets[19]: 990  LLC: 2048
rand_sets[19]: 990
Assign rand_sets[20]: 342  LLC: 2048
rand_sets[20]: 342
Assign rand_sets[21]: 882  LLC: 2048
rand_sets[21]: 882
Assign rand_sets[22]: 15  LLC: 2048
rand_sets[22]: 15
Assign rand_sets[23]: 71  LLC: 2048
rand_sets[23]: 71
Assign rand_sets[24]: 1127  LLC: 2048
rand_sets[24]: 1127
Assign rand_sets[25]: 1382  LLC: 2048
rand_sets[25]: 1382
Assign rand_sets[26]: 647  LLC: 2048
rand_sets[26]: 647
Assign rand_sets[27]: 857  LLC: 2048
rand_sets[27]: 857
Assign rand_sets[28]: 1450  LLC: 2048
rand_sets[28]: 1450
Assign rand_sets[29]: 1160  LLC: 2048
rand_sets[29]: 1160
Assign rand_sets[30]: 1852  LLC: 2048
rand_sets[30]: 1852
Assign rand_sets[31]: 1881  LLC: 2048
rand_sets[31]: 1881
Assign rand_sets[32]: 1770  LLC: 2048
rand_sets[32]: 1770
Assign rand_sets[33]: 1622  LLC: 2048
rand_sets[33]: 1622
Assign rand_sets[34]: 275  LLC: 2048
rand_sets[34]: 275
Assign rand_sets[35]: 635  LLC: 2048
rand_sets[35]: 635
Assign rand_sets[36]: 466  LLC: 2048
rand_sets[36]: 466
Assign rand_sets[37]: 1413  LLC: 2048
rand_sets[37]: 1413
Assign rand_sets[38]: 417  LLC: 2048
rand_sets[38]: 417
Assign rand_sets[39]: 472  LLC: 2048
rand_sets[39]: 472
Assign rand_sets[40]: 1340  LLC: 2048
rand_sets[40]: 1340
Assign rand_sets[41]: 852  LLC: 2048
rand_sets[41]: 852
Assign rand_sets[42]: 1365  LLC: 2048
rand_sets[42]: 1365
Assign rand_sets[43]: 47  LLC: 2048
rand_sets[43]: 47
Assign rand_sets[44]: 823  LLC: 2048
rand_sets[44]: 823
Assign rand_sets[45]: 686  LLC: 2048
rand_sets[45]: 686
Assign rand_sets[46]: 1637  LLC: 2048
rand_sets[46]: 1637
Assign rand_sets[47]: 1115  LLC: 2048
rand_sets[47]: 1115
Assign rand_sets[48]: 986  LLC: 2048
rand_sets[48]: 986
Assign rand_sets[49]: 258  LLC: 2048
rand_sets[49]: 258
Assign rand_sets[50]: 633  LLC: 2048
rand_sets[50]: 633
Assign rand_sets[51]: 920  LLC: 2048
rand_sets[51]: 920
Assign rand_sets[52]: 204  LLC: 2048
rand_sets[52]: 204
Assign rand_sets[53]: 227  LLC: 2048
rand_sets[53]: 227
Assign rand_sets[54]: 1818  LLC: 2048
rand_sets[54]: 1818
Assign rand_sets[55]: 886  LLC: 2048
rand_sets[55]: 886
Assign rand_sets[56]: 1422  LLC: 2048
rand_sets[56]: 1422
Assign rand_sets[57]: 607  LLC: 2048
rand_sets[57]: 607
Assign rand_sets[58]: 217  LLC: 2048
rand_sets[58]: 217
Assign rand_sets[59]: 1945  LLC: 2048
rand_sets[59]: 1945
Assign rand_sets[60]: 143  LLC: 2048
rand_sets[60]: 143
Assign rand_sets[61]: 1311  LLC: 2048
rand_sets[61]: 1311
Assign rand_sets[62]: 319  LLC: 2048
rand_sets[62]: 319
Assign rand_sets[63]: 1846  LLC: 2048
rand_sets[63]: 1846
 CLEAN-RRIP-POLICY-1: 1-1-0-3-0-3-0-2- CLEAN-RRIP-POLICY-2: 1-1-0-3-0-3-0-2-
 DIRTY-RRIP-POLICY-1: 1-1-0-3-1-3-0-2- DIRTY-RRIP-POLICY-2: 1-1-0-3-1-3-0-2-
 PSEL width: 10
Heartbeat CPU 0 instructions: 10000001 cycles: 7315979 heartbeat IPC: 1.36687 cumulative IPC: 1.36687 (Simulation time: 0 hr 0 min 16 sec) 
Heartbeat CPU 0 instructions: 20000000 cycles: 14307830 heartbeat IPC: 1.43024 cumulative IPC: 1.39784 (Simulation time: 0 hr 0 min 33 sec) 
Heartbeat CPU 0 instructions: 30000001 cycles: 21020934 heartbeat IPC: 1.48962 cumulative IPC: 1.42715 (Simulation time: 0 hr 0 min 51 sec) 
Heartbeat CPU 0 instructions: 40000000 cycles: 27481746 heartbeat IPC: 1.54779 cumulative IPC: 1.45551 (Simulation time: 0 hr 1 min 9 sec) 
Heartbeat CPU 0 instructions: 50000001 cycles: 33583547 heartbeat IPC: 1.63886 cumulative IPC: 1.48882 (Simulation time: 0 hr 1 min 26 sec) 
Heartbeat CPU 0 instructions: 60000000 cycles: 40064822 heartbeat IPC: 1.54291 cumulative IPC: 1.49757 (Simulation time: 0 hr 1 min 44 sec) 
Heartbeat CPU 0 instructions: 70000000 cycles: 47104141 heartbeat IPC: 1.42059 cumulative IPC: 1.48607 (Simulation time: 0 hr 2 min 1 sec) 
Heartbeat CPU 0 instructions: 80000000 cycles: 54194580 heartbeat IPC: 1.41035 cumulative IPC: 1.47616 (Simulation time: 0 hr 2 min 18 sec) 
Heartbeat CPU 0 instructions: 90000003 cycles: 61199466 heartbeat IPC: 1.42758 cumulative IPC: 1.4706 (Simulation time: 0 hr 2 min 34 sec) 
Heartbeat CPU 0 instructions: 100000000 cycles: 68367238 heartbeat IPC: 1.39513 cumulative IPC: 1.46269 (Simulation time: 0 hr 2 min 51 sec) 

Warmup complete CPU 0 instructions: 100000004 cycles: 68367239 (Simulation time: 0 hr 2 min 51 sec) 

Heartbeat CPU 0 instructions: 110000003 cycles: 96043106 heartbeat IPC: 0.361326 cumulative IPC: 0.361326 (Simulation time: 0 hr 3 min 23 sec) 
Heartbeat CPU 0 instructions: 120000000 cycles: 123500904 heartbeat IPC: 0.364195 cumulative IPC: 0.362755 (Simulation time: 0 hr 3 min 55 sec) 
Heartbeat CPU 0 instructions: 130000000 cycles: 148478593 heartbeat IPC: 0.400357 cumulative IPC: 0.374479 (Simulation time: 0 hr 4 min 27 sec) 
Heartbeat CPU 0 instructions: 140000000 cycles: 178120936 heartbeat IPC: 0.337355 cumulative IPC: 0.364452 (Simulation time: 0 hr 4 min 58 sec) 
Heartbeat CPU 0 instructions: 150000000 cycles: 208049281 heartbeat IPC: 0.334131 cumulative IPC: 0.357956 (Simulation time: 0 hr 5 min 30 sec) 
Heartbeat CPU 0 instructions: 160000000 cycles: 235484674 heartbeat IPC: 0.364493 cumulative IPC: 0.359029 (Simulation time: 0 hr 6 min 1 sec) 
Heartbeat CPU 0 instructions: 170000001 cycles: 263507155 heartbeat IPC: 0.356856 cumulative IPC: 0.358717 (Simulation time: 0 hr 6 min 34 sec) 
Heartbeat CPU 0 instructions: 180000000 cycles: 291991935 heartbeat IPC: 0.351065 cumulative IPC: 0.357742 (Simulation time: 0 hr 7 min 7 sec) 
Heartbeat CPU 0 instructions: 190000002 cycles: 320045993 heartbeat IPC: 0.356455 cumulative IPC: 0.357599 (Simulation time: 0 hr 7 min 39 sec) 
Heartbeat CPU 0 instructions: 200000000 cycles: 348440055 heartbeat IPC: 0.352186 cumulative IPC: 0.35705 (Simulation time: 0 hr 8 min 12 sec) 
Heartbeat CPU 0 instructions: 210000002 cycles: 376325853 heartbeat IPC: 0.358606 cumulative IPC: 0.357191 (Simulation time: 0 hr 8 min 44 sec) 
Heartbeat CPU 0 instructions: 220000000 cycles: 405615793 heartbeat IPC: 0.341414 cumulative IPC: 0.355821 (Simulation time: 0 hr 9 min 15 sec) 
Heartbeat CPU 0 instructions: 230000000 cycles: 433180180 heartbeat IPC: 0.362787 cumulative IPC: 0.356347 (Simulation time: 0 hr 9 min 46 sec) 
Heartbeat CPU 0 instructions: 240000000 cycles: 459119096 heartbeat IPC: 0.385521 cumulative IPC: 0.358284 (Simulation time: 0 hr 10 min 16 sec) 
Heartbeat CPU 0 instructions: 250000000 cycles: 489267121 heartbeat IPC: 0.331697 cumulative IPC: 0.356379 (Simulation time: 0 hr 10 min 49 sec) 
Heartbeat CPU 0 instructions: 260000000 cycles: 516362277 heartbeat IPC: 0.36907 cumulative IPC: 0.357147 (Simulation time: 0 hr 11 min 21 sec) 
Heartbeat CPU 0 instructions: 270000003 cycles: 544811199 heartbeat IPC: 0.351507 cumulative IPC: 0.35681 (Simulation time: 0 hr 11 min 54 sec) 
Heartbeat CPU 0 instructions: 280000000 cycles: 573025132 heartbeat IPC: 0.354435 cumulative IPC: 0.356677 (Simulation time: 0 hr 12 min 27 sec) 
Heartbeat CPU 0 instructions: 290000000 cycles: 601971214 heartbeat IPC: 0.34547 cumulative IPC: 0.356069 (Simulation time: 0 hr 13 min 1 sec) 
Heartbeat CPU 0 instructions: 300000000 cycles: 632066116 heartbeat IPC: 0.332282 cumulative IPC: 0.354799 (Simulation time: 0 hr 13 min 32 sec) 
Heartbeat CPU 0 instructions: 310000001 cycles: 661560402 heartbeat IPC: 0.339049 cumulative IPC: 0.354016 (Simulation time: 0 hr 14 min 4 sec) 
Heartbeat CPU 0 instructions: 320000000 cycles: 689852615 heartbeat IPC: 0.353454 cumulative IPC: 0.353991 (Simulation time: 0 hr 14 min 35 sec) 
Heartbeat CPU 0 instructions: 330000000 cycles: 718529254 heartbeat IPC: 0.348716 cumulative IPC: 0.353758 (Simulation time: 0 hr 15 min 6 sec) 
Heartbeat CPU 0 instructions: 340000000 cycles: 747855871 heartbeat IPC: 0.340987 cumulative IPC: 0.353207 (Simulation time: 0 hr 15 min 38 sec) 
Heartbeat CPU 0 instructions: 350000003 cycles: 774943051 heartbeat IPC: 0.369178 cumulative IPC: 0.353819 (Simulation time: 0 hr 16 min 8 sec) 
Heartbeat CPU 0 instructions: 360000000 cycles: 803176668 heartbeat IPC: 0.354188 cumulative IPC: 0.353833 (Simulation time: 0 hr 16 min 38 sec) 
Heartbeat CPU 0 instructions: 370000000 cycles: 831391816 heartbeat IPC: 0.35442 cumulative IPC: 0.353855 (Simulation time: 0 hr 17 min 8 sec) 
Heartbeat CPU 0 instructions: 380000000 cycles: 859926023 heartbeat IPC: 0.350457 cumulative IPC: 0.353732 (Simulation time: 0 hr 17 min 38 sec) 
Heartbeat CPU 0 instructions: 390000001 cycles: 887548178 heartbeat IPC: 0.362028 cumulative IPC: 0.354012 (Simulation time: 0 hr 18 min 7 sec) 
Heartbeat CPU 0 instructions: 400000000 cycles: 916201835 heartbeat IPC: 0.348996 cumulative IPC: 0.353843 (Simulation time: 0 hr 18 min 37 sec) 
Heartbeat CPU 0 instructions: 410000001 cycles: 943499306 heartbeat IPC: 0.366334 cumulative IPC: 0.354232 (Simulation time: 0 hr 19 min 6 sec) 
Heartbeat CPU 0 instructions: 420000000 cycles: 970810225 heartbeat IPC: 0.366154 cumulative IPC: 0.354593 (Simulation time: 0 hr 19 min 35 sec) 
Heartbeat CPU 0 instructions: 430000002 cycles: 998538552 heartbeat IPC: 0.360642 cumulative IPC: 0.354773 (Simulation time: 0 hr 20 min 4 sec) 
Heartbeat CPU 0 instructions: 440000000 cycles: 1028167771 heartbeat IPC: 0.337505 cumulative IPC: 0.35424 (Simulation time: 0 hr 20 min 33 sec) 
Heartbeat CPU 0 instructions: 450000002 cycles: 1057453344 heartbeat IPC: 0.341465 cumulative IPC: 0.353862 (Simulation time: 0 hr 21 min 1 sec) 
Heartbeat CPU 0 instructions: 460000000 cycles: 1085172983 heartbeat IPC: 0.360755 cumulative IPC: 0.35405 (Simulation time: 0 hr 21 min 29 sec) 
Heartbeat CPU 0 instructions: 470000000 cycles: 1112819536 heartbeat IPC: 0.361709 cumulative IPC: 0.354253 (Simulation time: 0 hr 21 min 57 sec) 
Heartbeat CPU 0 instructions: 480000000 cycles: 1140712585 heartbeat IPC: 0.358512 cumulative IPC: 0.354363 (Simulation time: 0 hr 22 min 26 sec) 
Heartbeat CPU 0 instructions: 490000000 cycles: 1168301307 heartbeat IPC: 0.362467 cumulative IPC: 0.354567 (Simulation time: 0 hr 22 min 56 sec) 
Heartbeat CPU 0 instructions: 500000000 cycles: 1196635081 heartbeat IPC: 0.352936 cumulative IPC: 0.354526 (Simulation time: 0 hr 23 min 26 sec) 
Heartbeat CPU 0 instructions: 510000000 cycles: 1230580704 heartbeat IPC: 0.294589 cumulative IPC: 0.352775 (Simulation time: 0 hr 24 min 0 sec) 
Heartbeat CPU 0 instructions: 520000000 cycles: 1258654862 heartbeat IPC: 0.356199 cumulative IPC: 0.352856 (Simulation time: 0 hr 24 min 30 sec) 
Heartbeat CPU 0 instructions: 530000001 cycles: 1288271762 heartbeat IPC: 0.337645 cumulative IPC: 0.352487 (Simulation time: 0 hr 25 min 1 sec) 
Heartbeat CPU 0 instructions: 540000000 cycles: 1316409932 heartbeat IPC: 0.355389 cumulative IPC: 0.352552 (Simulation time: 0 hr 25 min 31 sec) 
Heartbeat CPU 0 instructions: 550000001 cycles: 1345596191 heartbeat IPC: 0.342627 cumulative IPC: 0.352325 (Simulation time: 0 hr 26 min 3 sec) 
Heartbeat CPU 0 instructions: 560000000 cycles: 1370998052 heartbeat IPC: 0.393672 cumulative IPC: 0.353132 (Simulation time: 0 hr 26 min 32 sec) 
Heartbeat CPU 0 instructions: 570000000 cycles: 1400553032 heartbeat IPC: 0.338352 cumulative IPC: 0.352804 (Simulation time: 0 hr 27 min 3 sec) 
Heartbeat CPU 0 instructions: 580000000 cycles: 1428564981 heartbeat IPC: 0.356991 cumulative IPC: 0.35289 (Simulation time: 0 hr 27 min 33 sec) 
Heartbeat CPU 0 instructions: 590000001 cycles: 1453319703 heartbeat IPC: 0.403963 cumulative IPC: 0.353803 (Simulation time: 0 hr 28 min 1 sec) 
Heartbeat CPU 0 instructions: 600000000 cycles: 1479427584 heartbeat IPC: 0.383026 cumulative IPC: 0.354343 (Simulation time: 0 hr 28 min 30 sec) 
Finished CPU 0 instructions: 500000000 cycles: 1411060367 cumulative IPC: 0.354343 (Simulation time: 0 hr 28 min 30 sec) 

CPU 0 Branch Prediction Accuracy: 86.4311% MPKI: 26.2662
Number of Branches: 96788573 Number of Mispredictions: 13133102
Number of LOAD Instructions: 164682285
Number of LOAD Instructions (ROI): 164682285
Number of STORE Instructions: 78194750
Number of STORE Instructions (ROI): 78194750
Total Destination Memory Operands: 83268534
Total Destination Memory Operands (ROI): 83268534
Total Source Memory Operands: 164712438
Total Source Memory Operands (ROI): 164712438
Number of DEPENDED LOADS: 7056104
Number of DEPENDED LOADS (ROI): 7056104
Number of SQ_ADDED: 83268522
Number of SQ_ADDED (ROI): 83268522
Number of LQ_ADDED: 236747051
Number of LQ_ADDED (ROI): 236747051
Number of Instructions read from trace: 600000066

ChampSim completed all CPUs

Region of Interest Statistics

CPU 0 cumulative IPC: 0.354343 instructions: 500000000 cycles: 1411060367
ITLB TOTAL     ACCESS:  100520866  HIT:  100316420  MISS:     204446
ITLB LOAD      ACCESS:  100520866  HIT:  100316420  MISS:     204446
ITLB RFO       ACCESS:          0  HIT:          0  MISS:          0
ITLB PREFETCH  ACCESS:          0  HIT:          0  MISS:          0
ITLB WRITEBACK ACCESS:          0  HIT:          0  MISS:          0
ITLB PREFETCH  REQUESTED:          0  ISSUED:          0  USEFUL:          0  USELESS:          0
ITLB TOTAL MSHR MERGED:     172424
ITLB LOAD MSHR MERGED:     172424
ITLB RFO MSHR MERGED:          0
ITLB PREFETCH MSHR MERGED:          0
ITLB WRITEBACK MSHR MERGED:          0
ITLB TOTAL ACCESSES:  100693290 HITS:  100316420 MISSES:     376870
ITLB LOAD ACCESSES:  100693290 HITS:  100316420 MISSES:     376870
ITLB RFO ACCESSES:          0 HITS:          0 MISSES:          0
ITLB PREFETCH ACCESSES:          0 HITS:          0 MISSES:          0
ITLB WRITEBACK ACCESSES:          0 HITS:          0 MISSES:          0
ITLB RQ ACCESS:  500000057
ITLB RQ TO_CACHE:  100693290
ITLB RQ MERGED:  399306767
ITLB RQ FORWARD:          0
ITLB WQ ACCESS:          0
ITLB WQ TO_CACHE:          0
ITLB WQ MERGED:          0
ITLB WQ FORWARD:          0
DTLB TOTAL     ACCESS:  165340558  HIT:  164706205  MISS:     634353
DTLB LOAD      ACCESS:  106295059  HIT:  105725165  MISS:     569894
DTLB RFO       ACCESS:   59045499  HIT:   58981040  MISS:      64459
DTLB PREFETCH  ACCESS:          0  HIT:          0  MISS:          0
DTLB WRITEBACK ACCESS:          0  HIT:          0  MISS:          0
DTLB PREFETCH  REQUESTED:          0  ISSUED:          0  USEFUL:          0  USELESS:          0
DTLB TOTAL MSHR MERGED:      99924
DTLB LOAD MSHR MERGED:      59421
DTLB RFO MSHR MERGED:      40503
DTLB PREFETCH MSHR MERGED:          0
DTLB WRITEBACK MSHR MERGED:          0
DTLB TOTAL ACCESSES:  165440482 HITS:  164706205 MISSES:     734277
DTLB LOAD ACCESSES:  106354480 HITS:  105725165 MISSES:     629315
DTLB RFO ACCESSES:   59086002 HITS:   58981040 MISSES:     104962
DTLB PREFETCH ACCESSES:          0 HITS:          0 MISSES:          0
DTLB WRITEBACK ACCESSES:          0 HITS:          0 MISSES:          0
DTLB RQ ACCESS:  200314785
DTLB RQ TO_CACHE:  165440482
DTLB RQ MERGED:   34874303
DTLB RQ FORWARD:          0
DTLB WQ ACCESS:          0
DTLB WQ TO_CACHE:          0
DTLB WQ MERGED:          0
DTLB WQ FORWARD:          0
L1D TOTAL     ACCESS:  281860445  HIT:  273951051  MISS:    7909394
L1D LOAD      ACCESS:  110423564  HIT:  107146476  MISS:    3277088
L1D RFO       ACCESS:   67129227  HIT:   66239080  MISS:     890147
L1D PREFETCH  ACCESS:  104307654  HIT:  100565495  MISS:    3742159
L1D WRITEBACK ACCESS:          0  HIT:          0  MISS:          0
L1D PREFETCH  REQUESTED:  110820932  ISSUED:  109121615  USEFUL:    1662762  USELESS:    2079361
L1D TOTAL MSHR MERGED:    2851278
L1D LOAD MSHR MERGED:     493918
L1D RFO MSHR MERGED:    1856351
L1D PREFETCH MSHR MERGED:     501009
L1D WRITEBACK MSHR MERGED:          0
L1D TOTAL ACCESSES:  284739142 HITS:  273978470 MISSES:   10760672
L1D LOAD ACCESSES:  110822360 HITS:  107147904 MISSES:    3674456
L1D RFO ACCESSES:   68974222 HITS:   66239080 MISSES:    2735142
L1D PREFETCH ACCESSES:  104942560 HITS:  100591486 MISSES:    4351074
L1D WRITEBACK ACCESSES:          0 HITS:          0 MISSES:          0
L1D RQ ACCESS:  130762182
L1D RQ TO_CACHE:  110820935
L1D RQ MERGED:   19939819
L1D RQ FORWARD:          0
L1D WQ ACCESS:   69552603
L1D WQ TO_CACHE:   68974223
L1D WQ MERGED:     578380
L1D WQ FORWARD:      27419
L1I TOTAL     ACCESS:  126567898  HIT:  122329346  MISS:    4238552
L1I LOAD      ACCESS:  126567898  HIT:  122329346  MISS:    4238552
L1I RFO       ACCESS:          0  HIT:          0  MISS:          0
L1I PREFETCH  ACCESS:          0  HIT:          0  MISS:          0
L1I WRITEBACK ACCESS:          0  HIT:          0  MISS:          0
L1I PREFETCH  REQUESTED:          0  ISSUED:          0  USEFUL:          0  USELESS:          0
L1I TOTAL MSHR MERGED:    1834846
L1I LOAD MSHR MERGED:    1834846
L1I RFO MSHR MERGED:          0
L1I PREFETCH MSHR MERGED:          0
L1I WRITEBACK MSHR MERGED:          0
L1I TOTAL ACCESSES:  128402747 HITS:  122329346 MISSES:    6073401
L1I LOAD ACCESSES:  128402747 HITS:  122329346 MISSES:    6073401
L1I RFO ACCESSES:          0 HITS:          0 MISSES:          0
L1I PREFETCH ACCESSES:          0 HITS:          0 MISSES:          0
L1I WRITEBACK ACCESSES:          0 HITS:          0 MISSES:          0
L1I RQ ACCESS:  500000057
L1I RQ TO_CACHE:  128402747
L1I RQ MERGED:  371597310
L1I RQ FORWARD:          0
L1I WQ ACCESS:          0
L1I WQ TO_CACHE:          0
L1I WQ MERGED:          0
L1I WQ FORWARD:          0
L2C TOTAL     ACCESS:   14905582  HIT:   11159045  MISS:    3746537
L2C LOAD      ACCESS:    7418881  HIT:    5098952  MISS:    2319929
L2C RFO       ACCESS:     878694  HIT:     409896  MISS:     468798
L2C PREFETCH  ACCESS:    4568755  HIT:    3628199  MISS:     940556
L2C WRITEBACK ACCESS:    2039252  HIT:    2021998  MISS:      17254
L2C PREFETCH  REQUESTED:     842803  ISSUED:     842803  USEFUL:     203469  USELESS:     736793
L2C TOTAL MSHR MERGED:       6787
L2C LOAD MSHR MERGED:        720
L2C RFO MSHR MERGED:          0
L2C PREFETCH MSHR MERGED:       6067
L2C WRITEBACK MSHR MERGED:          0
L2C TOTAL ACCESSES:   14913268 HITS:   11159497 MISSES:    3753771
L2C LOAD ACCESSES:    7419090 HITS:    5099161 MISSES:    2319929
L2C RFO ACCESSES:     878791 HITS:     409993 MISSES:     468798
L2C PREFETCH ACCESSES:    4576135 HITS:    3628345 MISSES:     947790
L2C WRITEBACK ACCESSES:    2039252 HITS:    2021998 MISSES:      17254
L2C RQ ACCESS:    8297884
L2C RQ TO_CACHE:    8297578
L2C RQ MERGED:          0
L2C RQ FORWARD:          0
L2C WQ ACCESS:    2039252
L2C WQ TO_CACHE:    2039252
L2C WQ MERGED:          0
L2C WQ FORWARD:        452
LLC TOTAL     ACCESS:    4609889  HIT:    3990882  MISS:     619007
LLC LOAD      ACCESS:    2319195  HIT:    2054219  MISS:     264976
LLC RFO       ACCESS:     468788  HIT:     420849  MISS:      47939
LLC PREFETCH  ACCESS:     941604  HIT:     681502  MISS:     260102
LLC WRITEBACK ACCESS:     880302  HIT:     834312  MISS:      45990
LLC PREFETCH  REQUESTED:          0  ISSUED:          0  USEFUL:      14168  USELESS:     246256
LLC TOTAL MSHR MERGED:         99
LLC LOAD MSHR MERGED:         29
LLC RFO MSHR MERGED:          0
LLC PREFETCH MSHR MERGED:         70
LLC WRITEBACK MSHR MERGED:          0
LLC TOTAL ACCESSES:    4610024 HITS:    3990918 MISSES:     619106
LLC LOAD ACCESSES:    2319209 HITS:    2054233 MISSES:     264976
LLC RFO ACCESSES:     468798 HITS:     420859 MISSES:      47939
LLC PREFETCH ACCESSES:     941715 HITS:     681514 MISSES:     260201
LLC WRITEBACK ACCESSES:     880302 HITS:     834312 MISSES:      45990
LLC 0 RQ ACCESS:    2788007
LLC 0 RQ TO_CACHE:    2787983
LLC 0 RQ MERGED:          0
LLC 0 RQ FORWARD:          0
LLC WQ ACCESS:     880302
LLC WQ TO_CACHE:     880302
LLC WQ MERGED:          0
LLC WQ FORWARD:         36
Major fault: 0 Minor fault: 12862
CPU 0 L1D next line prefetcher final stats
CPU 0 L2C PC-based stride prefetcher final stats
All Misses: 741777
All Hits: 4685118
SD Algo Stats - Switches: 0 SRR-Repls: 313404 BRR-Repls: 0

DRAM Statistics
 CHANNEL 0
 RQ ROW_BUFFER_HIT:     119987  ROW_BUFFER_MISS:     452589
 DBUS_CONGESTED:     302991
 WQ ROW_BUFFER_HIT:       9150  ROW_BUFFER_MISS:     139473  FULL:          0

 AVG_CONGESTED_CYCLE: 13
LOADS RETIRED: 136549171
INSTR RETIRED: 500000000
