
*** ChampSim Multicore Out-of-Order Simulator ***

Warmup Instructions: 100000000
Simulation Instructions: 500000000
Number of CPUs: 1
LLC sets: 2048
LLC ways: 16
Clean RRIP Policies: 1103030211030302 Dirty RRIP Policies: 1103130211031302 PSEL Width: 10 Track Set: 4294967295 PSEL Mask: 1 Demote Mask: 1430244014302440DS Algo: 0Window size: 0
Off-chip DRAM Size: 4096 MB Channels: 1 Width: 64-bit Data Rate: 1600 MT/s

CPU 0 runs /mnt/beegfs/iconst01/spec2017/x264.trace.gz
NOT SORTED
TRACE STRING: /mnt/beegfs/iconst01/spec2017/x264.trace.gz
SORTED
TRACE STRING: /mnt/beegfs/iconst01/spec2017/x264.trace.gz
INITIAL
TRACE STRING: /mnt/beegfs/iconst01/spec2017/x264.trace.gz

champsim_seed used: 276

CPU 0 L1D next line prefetcher
CPU 0 L2C IP-based stride prefetcher
Initialize DRRIP state
Assign rand_sets[0]: 454  LLC: 2048
rand_sets[0]: 454
Assign rand_sets[1]: 1662  LLC: 2048
rand_sets[1]: 1662
Assign rand_sets[2]: 1921  LLC: 2048
rand_sets[2]: 1921
Assign rand_sets[3]: 1131  LLC: 2048
rand_sets[3]: 1131
Assign rand_sets[4]: 331  LLC: 2048
rand_sets[4]: 331
Assign rand_sets[5]: 1531  LLC: 2048
rand_sets[5]: 1531
Assign rand_sets[6]: 482  LLC: 2048
rand_sets[6]: 482
Assign rand_sets[7]: 1275  LLC: 2048
rand_sets[7]: 1275
Assign rand_sets[8]: 1876  LLC: 2048
rand_sets[8]: 1876
Assign rand_sets[9]: 2038  LLC: 2048
rand_sets[9]: 2038
Assign rand_sets[10]: 701  LLC: 2048
rand_sets[10]: 701
Assign rand_sets[11]: 479  LLC: 2048
rand_sets[11]: 479
Assign rand_sets[12]: 892  LLC: 2048
rand_sets[12]: 892
Assign rand_sets[13]: 1820  LLC: 2048
rand_sets[13]: 1820
Assign rand_sets[14]: 1505  LLC: 2048
rand_sets[14]: 1505
Assign rand_sets[15]: 1159  LLC: 2048
rand_sets[15]: 1159
Assign rand_sets[16]: 513  LLC: 2048
rand_sets[16]: 513
Assign rand_sets[17]: 703  LLC: 2048
rand_sets[17]: 703
Assign rand_sets[18]: 561  LLC: 2048
rand_sets[18]: 561
Assign rand_sets[19]: 990  LLC: 2048
rand_sets[19]: 990
Assign rand_sets[20]: 342  LLC: 2048
rand_sets[20]: 342
Assign rand_sets[21]: 882  LLC: 2048
rand_sets[21]: 882
Assign rand_sets[22]: 15  LLC: 2048
rand_sets[22]: 15
Assign rand_sets[23]: 71  LLC: 2048
rand_sets[23]: 71
Assign rand_sets[24]: 1127  LLC: 2048
rand_sets[24]: 1127
Assign rand_sets[25]: 1382  LLC: 2048
rand_sets[25]: 1382
Assign rand_sets[26]: 647  LLC: 2048
rand_sets[26]: 647
Assign rand_sets[27]: 857  LLC: 2048
rand_sets[27]: 857
Assign rand_sets[28]: 1450  LLC: 2048
rand_sets[28]: 1450
Assign rand_sets[29]: 1160  LLC: 2048
rand_sets[29]: 1160
Assign rand_sets[30]: 1852  LLC: 2048
rand_sets[30]: 1852
Assign rand_sets[31]: 1881  LLC: 2048
rand_sets[31]: 1881
Assign rand_sets[32]: 1770  LLC: 2048
rand_sets[32]: 1770
Assign rand_sets[33]: 1622  LLC: 2048
rand_sets[33]: 1622
Assign rand_sets[34]: 275  LLC: 2048
rand_sets[34]: 275
Assign rand_sets[35]: 635  LLC: 2048
rand_sets[35]: 635
Assign rand_sets[36]: 466  LLC: 2048
rand_sets[36]: 466
Assign rand_sets[37]: 1413  LLC: 2048
rand_sets[37]: 1413
Assign rand_sets[38]: 417  LLC: 2048
rand_sets[38]: 417
Assign rand_sets[39]: 472  LLC: 2048
rand_sets[39]: 472
Assign rand_sets[40]: 1340  LLC: 2048
rand_sets[40]: 1340
Assign rand_sets[41]: 852  LLC: 2048
rand_sets[41]: 852
Assign rand_sets[42]: 1365  LLC: 2048
rand_sets[42]: 1365
Assign rand_sets[43]: 47  LLC: 2048
rand_sets[43]: 47
Assign rand_sets[44]: 823  LLC: 2048
rand_sets[44]: 823
Assign rand_sets[45]: 686  LLC: 2048
rand_sets[45]: 686
Assign rand_sets[46]: 1637  LLC: 2048
rand_sets[46]: 1637
Assign rand_sets[47]: 1115  LLC: 2048
rand_sets[47]: 1115
Assign rand_sets[48]: 986  LLC: 2048
rand_sets[48]: 986
Assign rand_sets[49]: 258  LLC: 2048
rand_sets[49]: 258
Assign rand_sets[50]: 633  LLC: 2048
rand_sets[50]: 633
Assign rand_sets[51]: 920  LLC: 2048
rand_sets[51]: 920
Assign rand_sets[52]: 204  LLC: 2048
rand_sets[52]: 204
Assign rand_sets[53]: 227  LLC: 2048
rand_sets[53]: 227
Assign rand_sets[54]: 1818  LLC: 2048
rand_sets[54]: 1818
Assign rand_sets[55]: 886  LLC: 2048
rand_sets[55]: 886
Assign rand_sets[56]: 1422  LLC: 2048
rand_sets[56]: 1422
Assign rand_sets[57]: 607  LLC: 2048
rand_sets[57]: 607
Assign rand_sets[58]: 217  LLC: 2048
rand_sets[58]: 217
Assign rand_sets[59]: 1945  LLC: 2048
rand_sets[59]: 1945
Assign rand_sets[60]: 143  LLC: 2048
rand_sets[60]: 143
Assign rand_sets[61]: 1311  LLC: 2048
rand_sets[61]: 1311
Assign rand_sets[62]: 319  LLC: 2048
rand_sets[62]: 319
Assign rand_sets[63]: 1846  LLC: 2048
rand_sets[63]: 1846
 CLEAN-RRIP-POLICY-1: 1-1-0-3-0-3-0-2- CLEAN-RRIP-POLICY-2: 1-1-0-3-0-3-0-2-
 DIRTY-RRIP-POLICY-1: 1-1-0-3-1-3-0-2- DIRTY-RRIP-POLICY-2: 1-1-0-3-1-3-0-2-
 PSEL width: 10
Heartbeat CPU 0 instructions: 10000000 cycles: 4124759 heartbeat IPC: 2.42438 cumulative IPC: 2.42438 (Simulation time: 0 hr 0 min 16 sec) 
Heartbeat CPU 0 instructions: 20000000 cycles: 8233863 heartbeat IPC: 2.43362 cumulative IPC: 2.42899 (Simulation time: 0 hr 0 min 31 sec) 
Heartbeat CPU 0 instructions: 30000003 cycles: 12464696 heartbeat IPC: 2.3636 cumulative IPC: 2.4068 (Simulation time: 0 hr 0 min 47 sec) 
Heartbeat CPU 0 instructions: 40000000 cycles: 16636669 heartbeat IPC: 2.39695 cumulative IPC: 2.40433 (Simulation time: 0 hr 1 min 3 sec) 
Heartbeat CPU 0 instructions: 50000000 cycles: 20699152 heartbeat IPC: 2.46155 cumulative IPC: 2.41556 (Simulation time: 0 hr 1 min 19 sec) 
Heartbeat CPU 0 instructions: 60000000 cycles: 25022642 heartbeat IPC: 2.31295 cumulative IPC: 2.39783 (Simulation time: 0 hr 1 min 34 sec) 
Heartbeat CPU 0 instructions: 70000000 cycles: 29370958 heartbeat IPC: 2.29974 cumulative IPC: 2.38331 (Simulation time: 0 hr 1 min 50 sec) 
Heartbeat CPU 0 instructions: 80000000 cycles: 33721079 heartbeat IPC: 2.29879 cumulative IPC: 2.3724 (Simulation time: 0 hr 2 min 5 sec) 
Heartbeat CPU 0 instructions: 90000002 cycles: 38032102 heartbeat IPC: 2.31964 cumulative IPC: 2.36642 (Simulation time: 0 hr 2 min 21 sec) 
Heartbeat CPU 0 instructions: 100000000 cycles: 42329031 heartbeat IPC: 2.32724 cumulative IPC: 2.36244 (Simulation time: 0 hr 2 min 36 sec) 

Warmup complete CPU 0 instructions: 100000001 cycles: 42329032 (Simulation time: 0 hr 2 min 36 sec) 

Heartbeat CPU 0 instructions: 110000001 cycles: 49396619 heartbeat IPC: 1.41491 cumulative IPC: 1.41491 (Simulation time: 0 hr 2 min 57 sec) 
Heartbeat CPU 0 instructions: 120000000 cycles: 58916316 heartbeat IPC: 1.05045 cumulative IPC: 1.20574 (Simulation time: 0 hr 3 min 19 sec) 
Heartbeat CPU 0 instructions: 130000000 cycles: 63738443 heartbeat IPC: 2.07377 cumulative IPC: 1.40125 (Simulation time: 0 hr 3 min 39 sec) 
Heartbeat CPU 0 instructions: 140000000 cycles: 68658403 heartbeat IPC: 2.03254 cumulative IPC: 1.51922 (Simulation time: 0 hr 3 min 59 sec) 
Heartbeat CPU 0 instructions: 150000002 cycles: 75470936 heartbeat IPC: 1.46788 cumulative IPC: 1.50866 (Simulation time: 0 hr 4 min 20 sec) 
Heartbeat CPU 0 instructions: 160000000 cycles: 83334376 heartbeat IPC: 1.27171 cumulative IPC: 1.46322 (Simulation time: 0 hr 4 min 41 sec) 
Heartbeat CPU 0 instructions: 170000000 cycles: 90759406 heartbeat IPC: 1.3468 cumulative IPC: 1.44537 (Simulation time: 0 hr 5 min 2 sec) 
Heartbeat CPU 0 instructions: 180000000 cycles: 98083673 heartbeat IPC: 1.36532 cumulative IPC: 1.43486 (Simulation time: 0 hr 5 min 22 sec) 
Heartbeat CPU 0 instructions: 190000002 cycles: 105279533 heartbeat IPC: 1.38969 cumulative IPC: 1.42969 (Simulation time: 0 hr 5 min 42 sec) 
Heartbeat CPU 0 instructions: 200000000 cycles: 112531685 heartbeat IPC: 1.3789 cumulative IPC: 1.42445 (Simulation time: 0 hr 6 min 3 sec) 
Heartbeat CPU 0 instructions: 210000000 cycles: 119411843 heartbeat IPC: 1.45345 cumulative IPC: 1.42704 (Simulation time: 0 hr 6 min 23 sec) 
Heartbeat CPU 0 instructions: 220000000 cycles: 126201285 heartbeat IPC: 1.47288 cumulative IPC: 1.43075 (Simulation time: 0 hr 6 min 42 sec) 
Heartbeat CPU 0 instructions: 230000003 cycles: 132943113 heartbeat IPC: 1.48328 cumulative IPC: 1.43466 (Simulation time: 0 hr 7 min 2 sec) 
Heartbeat CPU 0 instructions: 240000000 cycles: 139714612 heartbeat IPC: 1.47678 cumulative IPC: 1.43758 (Simulation time: 0 hr 7 min 22 sec) 
Heartbeat CPU 0 instructions: 250000001 cycles: 146455885 heartbeat IPC: 1.4834 cumulative IPC: 1.44055 (Simulation time: 0 hr 7 min 41 sec) 
Heartbeat CPU 0 instructions: 260000000 cycles: 153176093 heartbeat IPC: 1.48805 cumulative IPC: 1.44343 (Simulation time: 0 hr 8 min 1 sec) 
Heartbeat CPU 0 instructions: 270000001 cycles: 160164242 heartbeat IPC: 1.43099 cumulative IPC: 1.44269 (Simulation time: 0 hr 8 min 21 sec) 
Heartbeat CPU 0 instructions: 280000000 cycles: 167716625 heartbeat IPC: 1.32409 cumulative IPC: 1.43555 (Simulation time: 0 hr 8 min 42 sec) 
Heartbeat CPU 0 instructions: 290000000 cycles: 175643879 heartbeat IPC: 1.26147 cumulative IPC: 1.4252 (Simulation time: 0 hr 9 min 3 sec) 
Heartbeat CPU 0 instructions: 300000000 cycles: 183825110 heartbeat IPC: 1.22231 cumulative IPC: 1.41347 (Simulation time: 0 hr 9 min 24 sec) 
Heartbeat CPU 0 instructions: 310000002 cycles: 192146001 heartbeat IPC: 1.20179 cumulative IPC: 1.40171 (Simulation time: 0 hr 9 min 45 sec) 
Heartbeat CPU 0 instructions: 320000000 cycles: 202199973 heartbeat IPC: 0.994632 cumulative IPC: 1.37611 (Simulation time: 0 hr 10 min 9 sec) 
Heartbeat CPU 0 instructions: 330000002 cycles: 206846888 heartbeat IPC: 2.15197 cumulative IPC: 1.39802 (Simulation time: 0 hr 10 min 29 sec) 
Heartbeat CPU 0 instructions: 340000000 cycles: 212083948 heartbeat IPC: 1.90947 cumulative IPC: 1.4138 (Simulation time: 0 hr 10 min 49 sec) 
Heartbeat CPU 0 instructions: 350000000 cycles: 219283671 heartbeat IPC: 1.38894 cumulative IPC: 1.41279 (Simulation time: 0 hr 11 min 10 sec) 
Heartbeat CPU 0 instructions: 360000000 cycles: 226969187 heartbeat IPC: 1.30115 cumulative IPC: 1.40814 (Simulation time: 0 hr 11 min 31 sec) 
Heartbeat CPU 0 instructions: 370000000 cycles: 234394862 heartbeat IPC: 1.34668 cumulative IPC: 1.40577 (Simulation time: 0 hr 11 min 52 sec) 
Heartbeat CPU 0 instructions: 380000000 cycles: 241686456 heartbeat IPC: 1.37144 cumulative IPC: 1.40451 (Simulation time: 0 hr 12 min 12 sec) 
Heartbeat CPU 0 instructions: 390000000 cycles: 249813100 heartbeat IPC: 1.23052 cumulative IPC: 1.3977 (Simulation time: 0 hr 12 min 33 sec) 
Heartbeat CPU 0 instructions: 400000000 cycles: 258021973 heartbeat IPC: 1.21819 cumulative IPC: 1.39087 (Simulation time: 0 hr 12 min 55 sec) 
Heartbeat CPU 0 instructions: 410000001 cycles: 265860343 heartbeat IPC: 1.27578 cumulative IPC: 1.38683 (Simulation time: 0 hr 13 min 16 sec) 
Heartbeat CPU 0 instructions: 420000000 cycles: 273916684 heartbeat IPC: 1.24126 cumulative IPC: 1.38177 (Simulation time: 0 hr 13 min 37 sec) 
Heartbeat CPU 0 instructions: 430000001 cycles: 282178524 heartbeat IPC: 1.21038 cumulative IPC: 1.37586 (Simulation time: 0 hr 13 min 59 sec) 
Heartbeat CPU 0 instructions: 440000000 cycles: 290232544 heartbeat IPC: 1.24162 cumulative IPC: 1.3715 (Simulation time: 0 hr 14 min 20 sec) 
Heartbeat CPU 0 instructions: 450000001 cycles: 298107310 heartbeat IPC: 1.26988 cumulative IPC: 1.36837 (Simulation time: 0 hr 14 min 41 sec) 
Heartbeat CPU 0 instructions: 460000000 cycles: 308087885 heartbeat IPC: 1.00195 cumulative IPC: 1.35461 (Simulation time: 0 hr 15 min 5 sec) 
Heartbeat CPU 0 instructions: 470000002 cycles: 312727038 heartbeat IPC: 2.15557 cumulative IPC: 1.36835 (Simulation time: 0 hr 15 min 25 sec) 
Heartbeat CPU 0 instructions: 480000000 cycles: 317973606 heartbeat IPC: 1.90601 cumulative IPC: 1.37859 (Simulation time: 0 hr 15 min 45 sec) 
Heartbeat CPU 0 instructions: 490000001 cycles: 325287585 heartbeat IPC: 1.36724 cumulative IPC: 1.37829 (Simulation time: 0 hr 16 min 7 sec) 
Heartbeat CPU 0 instructions: 500000000 cycles: 334015996 heartbeat IPC: 1.14568 cumulative IPC: 1.37133 (Simulation time: 0 hr 16 min 31 sec) 
Heartbeat CPU 0 instructions: 510000002 cycles: 342745907 heartbeat IPC: 1.14549 cumulative IPC: 1.36477 (Simulation time: 0 hr 16 min 55 sec) 
Heartbeat CPU 0 instructions: 520000000 cycles: 351472875 heartbeat IPC: 1.14587 cumulative IPC: 1.35859 (Simulation time: 0 hr 17 min 19 sec) 
Heartbeat CPU 0 instructions: 530000000 cycles: 360178141 heartbeat IPC: 1.14873 cumulative IPC: 1.35284 (Simulation time: 0 hr 17 min 43 sec) 
Heartbeat CPU 0 instructions: 540000000 cycles: 368435248 heartbeat IPC: 1.21108 cumulative IPC: 1.34925 (Simulation time: 0 hr 18 min 6 sec) 
Heartbeat CPU 0 instructions: 550000000 cycles: 375476074 heartbeat IPC: 1.42029 cumulative IPC: 1.35075 (Simulation time: 0 hr 18 min 28 sec) 
Heartbeat CPU 0 instructions: 560000000 cycles: 382083089 heartbeat IPC: 1.51354 cumulative IPC: 1.35392 (Simulation time: 0 hr 18 min 48 sec) 
Heartbeat CPU 0 instructions: 570000002 cycles: 388664417 heartbeat IPC: 1.51945 cumulative IPC: 1.35707 (Simulation time: 0 hr 19 min 8 sec) 
Heartbeat CPU 0 instructions: 580000000 cycles: 395305512 heartbeat IPC: 1.50578 cumulative IPC: 1.35986 (Simulation time: 0 hr 19 min 28 sec) 
Heartbeat CPU 0 instructions: 590000002 cycles: 401992852 heartbeat IPC: 1.49536 cumulative IPC: 1.36238 (Simulation time: 0 hr 19 min 49 sec) 
Heartbeat CPU 0 instructions: 600000000 cycles: 408803787 heartbeat IPC: 1.46823 cumulative IPC: 1.36435 (Simulation time: 0 hr 20 min 9 sec) 
Finished CPU 0 instructions: 500000000 cycles: 366474763 cumulative IPC: 1.36435 (Simulation time: 0 hr 20 min 9 sec) 

CPU 0 Branch Prediction Accuracy: 93.4682% MPKI: 2.44079
Number of Branches: 18683822 Number of Mispredictions: 1220394
Number of LOAD Instructions: 142551610
Number of LOAD Instructions (ROI): 142551610
Number of STORE Instructions: 44807454
Number of STORE Instructions (ROI): 44807454
Total Destination Memory Operands: 48357071
Total Destination Memory Operands (ROI): 48357071
Total Source Memory Operands: 142551610
Total Source Memory Operands (ROI): 142551610
Number of DEPENDED LOADS: 7394909
Number of DEPENDED LOADS (ROI): 7394909
Number of SQ_ADDED: 48357051
Number of SQ_ADDED (ROI): 48357051
Number of LQ_ADDED: 157233025
Number of LQ_ADDED (ROI): 157233025
Number of Instructions read from trace: 600000256

ChampSim completed all CPUs

Region of Interest Statistics

CPU 0 cumulative IPC: 1.36435 instructions: 500000000 cycles: 366474763
ITLB TOTAL     ACCESS:   88180241  HIT:   88180172  MISS:         69
ITLB LOAD      ACCESS:   88180241  HIT:   88180172  MISS:         69
ITLB RFO       ACCESS:          0  HIT:          0  MISS:          0
ITLB PREFETCH  ACCESS:          0  HIT:          0  MISS:          0
ITLB WRITEBACK ACCESS:          0  HIT:          0  MISS:          0
ITLB PREFETCH  REQUESTED:          0  ISSUED:          0  USEFUL:          0  USELESS:          0
ITLB TOTAL MSHR MERGED:         84
ITLB LOAD MSHR MERGED:         84
ITLB RFO MSHR MERGED:          0
ITLB PREFETCH MSHR MERGED:          0
ITLB WRITEBACK MSHR MERGED:          0
ITLB TOTAL ACCESSES:   88180325 HITS:   88180172 MISSES:        153
ITLB LOAD ACCESSES:   88180325 HITS:   88180172 MISSES:        153
ITLB RFO ACCESSES:          0 HITS:          0 MISSES:          0
ITLB PREFETCH ACCESSES:          0 HITS:          0 MISSES:          0
ITLB WRITEBACK ACCESSES:          0 HITS:          0 MISSES:          0
ITLB RQ ACCESS:  500000000
ITLB RQ TO_CACHE:   88180325
ITLB RQ MERGED:  411819675
ITLB RQ FORWARD:          0
ITLB WQ ACCESS:          0
ITLB WQ TO_CACHE:          0
ITLB WQ MERGED:          0
ITLB WQ FORWARD:          0
DTLB TOTAL     ACCESS:   88203848  HIT:   88076433  MISS:     127415
DTLB LOAD      ACCESS:   59485866  HIT:   59393406  MISS:      92460
DTLB RFO       ACCESS:   28717982  HIT:   28683027  MISS:      34955
DTLB PREFETCH  ACCESS:          0  HIT:          0  MISS:          0
DTLB WRITEBACK ACCESS:          0  HIT:          0  MISS:          0
DTLB PREFETCH  REQUESTED:          0  ISSUED:          0  USEFUL:          0  USELESS:          0
DTLB TOTAL MSHR MERGED:     140967
DTLB LOAD MSHR MERGED:     107644
DTLB RFO MSHR MERGED:      33323
DTLB PREFETCH MSHR MERGED:          0
DTLB WRITEBACK MSHR MERGED:          0
DTLB TOTAL ACCESSES:   88344815 HITS:   88076433 MISSES:     268382
DTLB LOAD ACCESSES:   59593510 HITS:   59393406 MISSES:     200104
DTLB RFO ACCESSES:   28751305 HITS:   28683027 MISSES:      68278
DTLB PREFETCH ACCESSES:          0 HITS:          0 MISSES:          0
DTLB WRITEBACK ACCESSES:          0 HITS:          0 MISSES:          0
DTLB RQ ACCESS:  154558977
DTLB RQ TO_CACHE:   88344815
DTLB RQ MERGED:   66214162
DTLB RQ FORWARD:          0
DTLB WQ ACCESS:          0
DTLB WQ TO_CACHE:          0
DTLB WQ MERGED:          0
DTLB WQ FORWARD:          0
L1D TOTAL     ACCESS:  127927201  HIT:  124701943  MISS:    3225258
L1D LOAD      ACCESS:   53172528  HIT:   51976930  MISS:    1195598
L1D RFO       ACCESS:   37355775  HIT:   36741529  MISS:     614246
L1D PREFETCH  ACCESS:   37398898  HIT:   35983484  MISS:    1415414
L1D WRITEBACK ACCESS:          0  HIT:          0  MISS:          0
L1D PREFETCH  REQUESTED:   53657898  ISSUED:   52457088  USEFUL:     351830  USELESS:    1063549
L1D TOTAL MSHR MERGED:    2928156
L1D LOAD MSHR MERGED:     524418
L1D RFO MSHR MERGED:    1598603
L1D PREFETCH MSHR MERGED:     805135
L1D WRITEBACK MSHR MERGED:          0
L1D TOTAL ACCESSES:  130890209 HITS:  124736795 MISSES:    6153414
L1D LOAD ACCESSES:   53660758 HITS:   51979790 MISSES:    1680968
L1D RFO ACCESSES:   38952848 HITS:   36741529 MISSES:    2211319
L1D PREFETCH ACCESSES:   38276603 HITS:   36015476 MISSES:    2261127
L1D WRITEBACK ACCESSES:          0 HITS:          0 MISSES:          0
L1D RQ ACCESS:  113714085
L1D RQ TO_CACHE:   53657898
L1D RQ MERGED:   60053327
L1D RQ FORWARD:          0
L1D WQ ACCESS:   40844891
L1D WQ TO_CACHE:   38952848
L1D WQ MERGED:    1892043
L1D WQ FORWARD:      34852
L1I TOTAL     ACCESS:  108370725  HIT:  107811594  MISS:     559131
L1I LOAD      ACCESS:  108370725  HIT:  107811594  MISS:     559131
L1I RFO       ACCESS:          0  HIT:          0  MISS:          0
L1I PREFETCH  ACCESS:          0  HIT:          0  MISS:          0
L1I WRITEBACK ACCESS:          0  HIT:          0  MISS:          0
L1I PREFETCH  REQUESTED:          0  ISSUED:          0  USEFUL:          0  USELESS:          0
L1I TOTAL MSHR MERGED:     526253
L1I LOAD MSHR MERGED:     526253
L1I RFO MSHR MERGED:          0
L1I PREFETCH MSHR MERGED:          0
L1I WRITEBACK MSHR MERGED:          0
L1I TOTAL ACCESSES:  108896978 HITS:  107811594 MISSES:    1085384
L1I LOAD ACCESSES:  108896978 HITS:  107811594 MISSES:    1085384
L1I RFO ACCESSES:          0 HITS:          0 MISSES:          0
L1I PREFETCH ACCESSES:          0 HITS:          0 MISSES:          0
L1I WRITEBACK ACCESSES:          0 HITS:          0 MISSES:          0
L1I RQ ACCESS:  500000002
L1I RQ TO_CACHE:  108896978
L1I RQ MERGED:  391103024
L1I RQ FORWARD:          0
L1I WQ ACCESS:          0
L1I WQ TO_CACHE:          0
L1I WQ MERGED:          0
L1I WQ FORWARD:          0
L2C TOTAL     ACCESS:    4692083  HIT:    3866329  MISS:     825754
L2C LOAD      ACCESS:    1715565  HIT:    1562915  MISS:     152650
L2C RFO       ACCESS:     611292  HIT:     421147  MISS:     190145
L2C PREFETCH  ACCESS:    1662320  HIT:    1181550  MISS:     480770
L2C WRITEBACK ACCESS:     702906  HIT:     700717  MISS:       2189
L2C PREFETCH  REQUESTED:     256312  ISSUED:     256312  USEFUL:     173310  USELESS:     308126
L2C TOTAL MSHR MERGED:      12961
L2C LOAD MSHR MERGED:       3872
L2C RFO MSHR MERGED:          0
L2C PREFETCH MSHR MERGED:       9089
L2C WRITEBACK MSHR MERGED:          0
L2C TOTAL ACCESSES:    4711715 HITS:    3867935 MISSES:     843780
L2C LOAD ACCESSES:    1715681 HITS:    1563031 MISSES:     152650
L2C RFO ACCESSES:     612716 HITS:     422571 MISSES:     190145
L2C PREFETCH ACCESSES:    1680412 HITS:    1181616 MISSES:     498796
L2C WRITEBACK ACCESSES:     702906 HITS:     700717 MISSES:       2189
L2C RQ ACCESS:    2328397
L2C RQ TO_CACHE:    2326857
L2C RQ MERGED:          0
L2C RQ FORWARD:          0
L2C WQ ACCESS:     702906
L2C WQ TO_CACHE:     702906
L2C WQ MERGED:          0
L2C WQ FORWARD:       1606
LLC TOTAL     ACCESS:    1047334  HIT:     234469  MISS:     812865
LLC LOAD      ACCESS:     148774  HIT:      83823  MISS:      64951
LLC RFO       ACCESS:     190137  HIT:       6677  MISS:     183460
LLC PREFETCH  ACCESS:     487540  HIT:     107627  MISS:     379913
LLC WRITEBACK ACCESS:     220883  HIT:      36342  MISS:     184541
LLC PREFETCH  REQUESTED:          0  ISSUED:          0  USEFUL:       2067  USELESS:     378325
LLC TOTAL MSHR MERGED:       1478
LLC LOAD MSHR MERGED:        507
LLC RFO MSHR MERGED:          0
LLC PREFETCH MSHR MERGED:        971
LLC WRITEBACK MSHR MERGED:          0
LLC TOTAL ACCESSES:    1048824 HITS:     234481 MISSES:     814343
LLC LOAD ACCESSES:     148778 HITS:      83827 MISSES:      64951
LLC RFO ACCESSES:     190145 HITS:       6685 MISSES:     183460
LLC PREFETCH ACCESSES:     489018 HITS:     107627 MISSES:     381391
LLC WRITEBACK ACCESSES:     220883 HITS:      36342 MISSES:     184541
LLC 0 RQ ACCESS:     338923
LLC 0 RQ TO_CACHE:     338911
LLC 0 RQ MERGED:          0
LLC 0 RQ FORWARD:          0
LLC WQ ACCESS:     220883
LLC WQ TO_CACHE:     220883
LLC WQ MERGED:          0
LLC WQ FORWARD:         12
Major fault: 0 Minor fault: 6811
CPU 0 L1D next line prefetcher final stats
CPU 0 L2C PC-based stride prefetcher final stats
All Misses: 952968
All Hits: 301349
SD Algo Stats - Switches: 0 SRR-Repls: 72926 BRR-Repls: 0

DRAM Statistics
 CHANNEL 0
 RQ ROW_BUFFER_HIT:     327736  ROW_BUFFER_MISS:     300546
 DBUS_CONGESTED:     432288
 WQ ROW_BUFFER_HIT:      23370  ROW_BUFFER_MISS:     190962  FULL:          0

 AVG_CONGESTED_CYCLE: 13
LOADS RETIRED: 119922929
INSTR RETIRED: 500000000
