
*** ChampSim Multicore Out-of-Order Simulator ***

Warmup Instructions: 100000000
Simulation Instructions: 500000000
Number of CPUs: 1
LLC sets: 2048
LLC ways: 16
Clean RRIP Policies: 1213230212132302 Dirty RRIP Policies: 2203130222031302 PSEL Width: 10 Track Set: 4294967295 PSEL Mask: 1 Demote Mask: 3040300030403000DS Algo: 0Window size: 0
Off-chip DRAM Size: 4096 MB Channels: 1 Width: 64-bit Data Rate: 1600 MT/s

CPU 0 runs /mnt/beegfs/iconst01/spec2017/x264.trace.gz
NOT SORTED
TRACE STRING: /mnt/beegfs/iconst01/spec2017/x264.trace.gz
SORTED
TRACE STRING: /mnt/beegfs/iconst01/spec2017/x264.trace.gz
INITIAL
TRACE STRING: /mnt/beegfs/iconst01/spec2017/x264.trace.gz

champsim_seed used: 276

CPU 0 L1D next line prefetcher
CPU 0 L2C IP-based stride prefetcher
Initialize DRRIP state
Assign rand_sets[0]: 454  LLC: 2048
rand_sets[0]: 454
Assign rand_sets[1]: 1662  LLC: 2048
rand_sets[1]: 1662
Assign rand_sets[2]: 1921  LLC: 2048
rand_sets[2]: 1921
Assign rand_sets[3]: 1131  LLC: 2048
rand_sets[3]: 1131
Assign rand_sets[4]: 331  LLC: 2048
rand_sets[4]: 331
Assign rand_sets[5]: 1531  LLC: 2048
rand_sets[5]: 1531
Assign rand_sets[6]: 482  LLC: 2048
rand_sets[6]: 482
Assign rand_sets[7]: 1275  LLC: 2048
rand_sets[7]: 1275
Assign rand_sets[8]: 1876  LLC: 2048
rand_sets[8]: 1876
Assign rand_sets[9]: 2038  LLC: 2048
rand_sets[9]: 2038
Assign rand_sets[10]: 701  LLC: 2048
rand_sets[10]: 701
Assign rand_sets[11]: 479  LLC: 2048
rand_sets[11]: 479
Assign rand_sets[12]: 892  LLC: 2048
rand_sets[12]: 892
Assign rand_sets[13]: 1820  LLC: 2048
rand_sets[13]: 1820
Assign rand_sets[14]: 1505  LLC: 2048
rand_sets[14]: 1505
Assign rand_sets[15]: 1159  LLC: 2048
rand_sets[15]: 1159
Assign rand_sets[16]: 513  LLC: 2048
rand_sets[16]: 513
Assign rand_sets[17]: 703  LLC: 2048
rand_sets[17]: 703
Assign rand_sets[18]: 561  LLC: 2048
rand_sets[18]: 561
Assign rand_sets[19]: 990  LLC: 2048
rand_sets[19]: 990
Assign rand_sets[20]: 342  LLC: 2048
rand_sets[20]: 342
Assign rand_sets[21]: 882  LLC: 2048
rand_sets[21]: 882
Assign rand_sets[22]: 15  LLC: 2048
rand_sets[22]: 15
Assign rand_sets[23]: 71  LLC: 2048
rand_sets[23]: 71
Assign rand_sets[24]: 1127  LLC: 2048
rand_sets[24]: 1127
Assign rand_sets[25]: 1382  LLC: 2048
rand_sets[25]: 1382
Assign rand_sets[26]: 647  LLC: 2048
rand_sets[26]: 647
Assign rand_sets[27]: 857  LLC: 2048
rand_sets[27]: 857
Assign rand_sets[28]: 1450  LLC: 2048
rand_sets[28]: 1450
Assign rand_sets[29]: 1160  LLC: 2048
rand_sets[29]: 1160
Assign rand_sets[30]: 1852  LLC: 2048
rand_sets[30]: 1852
Assign rand_sets[31]: 1881  LLC: 2048
rand_sets[31]: 1881
Assign rand_sets[32]: 1770  LLC: 2048
rand_sets[32]: 1770
Assign rand_sets[33]: 1622  LLC: 2048
rand_sets[33]: 1622
Assign rand_sets[34]: 275  LLC: 2048
rand_sets[34]: 275
Assign rand_sets[35]: 635  LLC: 2048
rand_sets[35]: 635
Assign rand_sets[36]: 466  LLC: 2048
rand_sets[36]: 466
Assign rand_sets[37]: 1413  LLC: 2048
rand_sets[37]: 1413
Assign rand_sets[38]: 417  LLC: 2048
rand_sets[38]: 417
Assign rand_sets[39]: 472  LLC: 2048
rand_sets[39]: 472
Assign rand_sets[40]: 1340  LLC: 2048
rand_sets[40]: 1340
Assign rand_sets[41]: 852  LLC: 2048
rand_sets[41]: 852
Assign rand_sets[42]: 1365  LLC: 2048
rand_sets[42]: 1365
Assign rand_sets[43]: 47  LLC: 2048
rand_sets[43]: 47
Assign rand_sets[44]: 823  LLC: 2048
rand_sets[44]: 823
Assign rand_sets[45]: 686  LLC: 2048
rand_sets[45]: 686
Assign rand_sets[46]: 1637  LLC: 2048
rand_sets[46]: 1637
Assign rand_sets[47]: 1115  LLC: 2048
rand_sets[47]: 1115
Assign rand_sets[48]: 986  LLC: 2048
rand_sets[48]: 986
Assign rand_sets[49]: 258  LLC: 2048
rand_sets[49]: 258
Assign rand_sets[50]: 633  LLC: 2048
rand_sets[50]: 633
Assign rand_sets[51]: 920  LLC: 2048
rand_sets[51]: 920
Assign rand_sets[52]: 204  LLC: 2048
rand_sets[52]: 204
Assign rand_sets[53]: 227  LLC: 2048
rand_sets[53]: 227
Assign rand_sets[54]: 1818  LLC: 2048
rand_sets[54]: 1818
Assign rand_sets[55]: 886  LLC: 2048
rand_sets[55]: 886
Assign rand_sets[56]: 1422  LLC: 2048
rand_sets[56]: 1422
Assign rand_sets[57]: 607  LLC: 2048
rand_sets[57]: 607
Assign rand_sets[58]: 217  LLC: 2048
rand_sets[58]: 217
Assign rand_sets[59]: 1945  LLC: 2048
rand_sets[59]: 1945
Assign rand_sets[60]: 143  LLC: 2048
rand_sets[60]: 143
Assign rand_sets[61]: 1311  LLC: 2048
rand_sets[61]: 1311
Assign rand_sets[62]: 319  LLC: 2048
rand_sets[62]: 319
Assign rand_sets[63]: 1846  LLC: 2048
rand_sets[63]: 1846
 CLEAN-RRIP-POLICY-1: 1-2-1-3-2-3-0-2- CLEAN-RRIP-POLICY-2: 1-2-1-3-2-3-0-2-
 DIRTY-RRIP-POLICY-1: 2-2-0-3-1-3-0-2- DIRTY-RRIP-POLICY-2: 2-2-0-3-1-3-0-2-
 PSEL width: 10
Heartbeat CPU 0 instructions: 10000000 cycles: 4124759 heartbeat IPC: 2.42438 cumulative IPC: 2.42438 (Simulation time: 0 hr 0 min 13 sec) 
Heartbeat CPU 0 instructions: 20000000 cycles: 8233863 heartbeat IPC: 2.43362 cumulative IPC: 2.42899 (Simulation time: 0 hr 0 min 26 sec) 
Heartbeat CPU 0 instructions: 30000003 cycles: 12464696 heartbeat IPC: 2.3636 cumulative IPC: 2.4068 (Simulation time: 0 hr 0 min 38 sec) 
Heartbeat CPU 0 instructions: 40000000 cycles: 16636669 heartbeat IPC: 2.39695 cumulative IPC: 2.40433 (Simulation time: 0 hr 0 min 51 sec) 
Heartbeat CPU 0 instructions: 50000000 cycles: 20699152 heartbeat IPC: 2.46155 cumulative IPC: 2.41556 (Simulation time: 0 hr 1 min 5 sec) 
Heartbeat CPU 0 instructions: 60000000 cycles: 25022639 heartbeat IPC: 2.31295 cumulative IPC: 2.39783 (Simulation time: 0 hr 1 min 18 sec) 
Heartbeat CPU 0 instructions: 70000000 cycles: 29370948 heartbeat IPC: 2.29974 cumulative IPC: 2.38331 (Simulation time: 0 hr 1 min 30 sec) 
Heartbeat CPU 0 instructions: 80000000 cycles: 33721084 heartbeat IPC: 2.29878 cumulative IPC: 2.3724 (Simulation time: 0 hr 1 min 43 sec) 
Heartbeat CPU 0 instructions: 90000002 cycles: 38032071 heartbeat IPC: 2.31965 cumulative IPC: 2.36642 (Simulation time: 0 hr 1 min 56 sec) 
Heartbeat CPU 0 instructions: 100000000 cycles: 42329002 heartbeat IPC: 2.32724 cumulative IPC: 2.36245 (Simulation time: 0 hr 2 min 9 sec) 

Warmup complete CPU 0 instructions: 100000001 cycles: 42329003 (Simulation time: 0 hr 2 min 9 sec) 

Heartbeat CPU 0 instructions: 110000001 cycles: 49389225 heartbeat IPC: 1.41639 cumulative IPC: 1.41639 (Simulation time: 0 hr 2 min 26 sec) 
Heartbeat CPU 0 instructions: 120000000 cycles: 58897683 heartbeat IPC: 1.0517 cumulative IPC: 1.2071 (Simulation time: 0 hr 2 min 44 sec) 
Heartbeat CPU 0 instructions: 130000000 cycles: 63708210 heartbeat IPC: 2.07877 cumulative IPC: 1.40323 (Simulation time: 0 hr 3 min 1 sec) 
Heartbeat CPU 0 instructions: 140000000 cycles: 68614566 heartbeat IPC: 2.03817 cumulative IPC: 1.52175 (Simulation time: 0 hr 3 min 17 sec) 
Heartbeat CPU 0 instructions: 150000002 cycles: 75442024 heartbeat IPC: 1.46467 cumulative IPC: 1.50998 (Simulation time: 0 hr 3 min 34 sec) 
Heartbeat CPU 0 instructions: 160000000 cycles: 83280967 heartbeat IPC: 1.27568 cumulative IPC: 1.46513 (Simulation time: 0 hr 3 min 52 sec) 
Heartbeat CPU 0 instructions: 170000000 cycles: 90678886 heartbeat IPC: 1.35173 cumulative IPC: 1.44778 (Simulation time: 0 hr 4 min 8 sec) 
Heartbeat CPU 0 instructions: 180000000 cycles: 97983829 heartbeat IPC: 1.36894 cumulative IPC: 1.43743 (Simulation time: 0 hr 4 min 25 sec) 
Heartbeat CPU 0 instructions: 190000002 cycles: 105152924 heartbeat IPC: 1.39488 cumulative IPC: 1.43258 (Simulation time: 0 hr 4 min 42 sec) 
Heartbeat CPU 0 instructions: 200000000 cycles: 112388464 heartbeat IPC: 1.38207 cumulative IPC: 1.42736 (Simulation time: 0 hr 4 min 58 sec) 
Heartbeat CPU 0 instructions: 210000000 cycles: 119262830 heartbeat IPC: 1.45468 cumulative IPC: 1.4298 (Simulation time: 0 hr 5 min 14 sec) 
Heartbeat CPU 0 instructions: 220000000 cycles: 126038701 heartbeat IPC: 1.47583 cumulative IPC: 1.43353 (Simulation time: 0 hr 5 min 30 sec) 
Heartbeat CPU 0 instructions: 230000003 cycles: 132765928 heartbeat IPC: 1.4865 cumulative IPC: 1.43747 (Simulation time: 0 hr 5 min 47 sec) 
Heartbeat CPU 0 instructions: 240000000 cycles: 139513113 heartbeat IPC: 1.4821 cumulative IPC: 1.44056 (Simulation time: 0 hr 6 min 3 sec) 
Heartbeat CPU 0 instructions: 250000001 cycles: 146240109 heartbeat IPC: 1.48655 cumulative IPC: 1.44354 (Simulation time: 0 hr 6 min 19 sec) 
Heartbeat CPU 0 instructions: 260000000 cycles: 152944426 heartbeat IPC: 1.49158 cumulative IPC: 1.44645 (Simulation time: 0 hr 6 min 35 sec) 
Heartbeat CPU 0 instructions: 270000001 cycles: 159917275 heartbeat IPC: 1.43413 cumulative IPC: 1.44572 (Simulation time: 0 hr 6 min 51 sec) 
Heartbeat CPU 0 instructions: 280000000 cycles: 167448780 heartbeat IPC: 1.32776 cumulative IPC: 1.43862 (Simulation time: 0 hr 7 min 8 sec) 
Heartbeat CPU 0 instructions: 290000000 cycles: 175371144 heartbeat IPC: 1.26225 cumulative IPC: 1.42812 (Simulation time: 0 hr 7 min 25 sec) 
Heartbeat CPU 0 instructions: 300000000 cycles: 183543432 heartbeat IPC: 1.22365 cumulative IPC: 1.41629 (Simulation time: 0 hr 7 min 43 sec) 
Heartbeat CPU 0 instructions: 310000002 cycles: 191855619 heartbeat IPC: 1.20305 cumulative IPC: 1.40443 (Simulation time: 0 hr 8 min 0 sec) 
Heartbeat CPU 0 instructions: 320000000 cycles: 201835845 heartbeat IPC: 1.00198 cumulative IPC: 1.37925 (Simulation time: 0 hr 8 min 20 sec) 
Heartbeat CPU 0 instructions: 330000002 cycles: 206467843 heartbeat IPC: 2.1589 cumulative IPC: 1.40125 (Simulation time: 0 hr 8 min 36 sec) 
Heartbeat CPU 0 instructions: 340000000 cycles: 211694154 heartbeat IPC: 1.9134 cumulative IPC: 1.41706 (Simulation time: 0 hr 8 min 53 sec) 
Heartbeat CPU 0 instructions: 350000000 cycles: 218909576 heartbeat IPC: 1.38592 cumulative IPC: 1.41578 (Simulation time: 0 hr 9 min 10 sec) 
Heartbeat CPU 0 instructions: 360000000 cycles: 226572317 heartbeat IPC: 1.30502 cumulative IPC: 1.41118 (Simulation time: 0 hr 9 min 27 sec) 
Heartbeat CPU 0 instructions: 370000000 cycles: 233974684 heartbeat IPC: 1.35092 cumulative IPC: 1.40885 (Simulation time: 0 hr 9 min 44 sec) 
Heartbeat CPU 0 instructions: 380000000 cycles: 241246184 heartbeat IPC: 1.37523 cumulative IPC: 1.40762 (Simulation time: 0 hr 10 min 0 sec) 
Heartbeat CPU 0 instructions: 390000000 cycles: 249369022 heartbeat IPC: 1.2311 cumulative IPC: 1.4007 (Simulation time: 0 hr 10 min 18 sec) 
Heartbeat CPU 0 instructions: 400000000 cycles: 257567208 heartbeat IPC: 1.21978 cumulative IPC: 1.3938 (Simulation time: 0 hr 10 min 35 sec) 
Heartbeat CPU 0 instructions: 410000001 cycles: 265391600 heartbeat IPC: 1.27805 cumulative IPC: 1.38974 (Simulation time: 0 hr 10 min 53 sec) 
Heartbeat CPU 0 instructions: 420000000 cycles: 273442609 heartbeat IPC: 1.24208 cumulative IPC: 1.3846 (Simulation time: 0 hr 11 min 10 sec) 
Heartbeat CPU 0 instructions: 430000001 cycles: 281703513 heartbeat IPC: 1.21052 cumulative IPC: 1.37859 (Simulation time: 0 hr 11 min 28 sec) 
Heartbeat CPU 0 instructions: 440000000 cycles: 289745090 heartbeat IPC: 1.24354 cumulative IPC: 1.3742 (Simulation time: 0 hr 11 min 45 sec) 
Heartbeat CPU 0 instructions: 450000001 cycles: 297612795 heartbeat IPC: 1.27102 cumulative IPC: 1.37102 (Simulation time: 0 hr 12 min 2 sec) 
Heartbeat CPU 0 instructions: 460000000 cycles: 307552348 heartbeat IPC: 1.00608 cumulative IPC: 1.35735 (Simulation time: 0 hr 12 min 21 sec) 
Heartbeat CPU 0 instructions: 470000002 cycles: 312184036 heartbeat IPC: 2.15904 cumulative IPC: 1.37111 (Simulation time: 0 hr 12 min 37 sec) 
Heartbeat CPU 0 instructions: 480000000 cycles: 317440688 heartbeat IPC: 1.90235 cumulative IPC: 1.38126 (Simulation time: 0 hr 12 min 53 sec) 
Heartbeat CPU 0 instructions: 490000001 cycles: 324755425 heartbeat IPC: 1.3671 cumulative IPC: 1.38089 (Simulation time: 0 hr 13 min 11 sec) 
Heartbeat CPU 0 instructions: 500000000 cycles: 333487287 heartbeat IPC: 1.14523 cumulative IPC: 1.37382 (Simulation time: 0 hr 13 min 31 sec) 
Heartbeat CPU 0 instructions: 510000002 cycles: 342221096 heartbeat IPC: 1.14498 cumulative IPC: 1.36716 (Simulation time: 0 hr 13 min 50 sec) 
Heartbeat CPU 0 instructions: 520000000 cycles: 350949754 heartbeat IPC: 1.14565 cumulative IPC: 1.36089 (Simulation time: 0 hr 14 min 9 sec) 
Heartbeat CPU 0 instructions: 530000000 cycles: 359657624 heartbeat IPC: 1.14839 cumulative IPC: 1.35506 (Simulation time: 0 hr 14 min 29 sec) 
Heartbeat CPU 0 instructions: 540000000 cycles: 367914276 heartbeat IPC: 1.21114 cumulative IPC: 1.35141 (Simulation time: 0 hr 14 min 47 sec) 
Heartbeat CPU 0 instructions: 550000000 cycles: 374954256 heartbeat IPC: 1.42046 cumulative IPC: 1.35287 (Simulation time: 0 hr 15 min 4 sec) 
Heartbeat CPU 0 instructions: 560000000 cycles: 381568096 heartbeat IPC: 1.51198 cumulative IPC: 1.35598 (Simulation time: 0 hr 15 min 21 sec) 
Heartbeat CPU 0 instructions: 570000002 cycles: 388158582 heartbeat IPC: 1.51734 cumulative IPC: 1.35905 (Simulation time: 0 hr 15 min 37 sec) 
Heartbeat CPU 0 instructions: 580000000 cycles: 394802976 heartbeat IPC: 1.50503 cumulative IPC: 1.3618 (Simulation time: 0 hr 15 min 54 sec) 
Heartbeat CPU 0 instructions: 590000002 cycles: 401494734 heartbeat IPC: 1.49438 cumulative IPC: 1.36427 (Simulation time: 0 hr 16 min 10 sec) 
Heartbeat CPU 0 instructions: 600000000 cycles: 408303268 heartbeat IPC: 1.46874 cumulative IPC: 1.36622 (Simulation time: 0 hr 16 min 26 sec) 
Finished CPU 0 instructions: 500000000 cycles: 365974273 cumulative IPC: 1.36622 (Simulation time: 0 hr 16 min 26 sec) 

CPU 0 Branch Prediction Accuracy: 93.4682% MPKI: 2.44079
Number of Branches: 18683822 Number of Mispredictions: 1220394
Number of LOAD Instructions: 142551610
Number of LOAD Instructions (ROI): 142551610
Number of STORE Instructions: 44807454
Number of STORE Instructions (ROI): 44807454
Total Destination Memory Operands: 48357071
Total Destination Memory Operands (ROI): 48357071
Total Source Memory Operands: 142551610
Total Source Memory Operands (ROI): 142551610
Number of DEPENDED LOADS: 7395134
Number of DEPENDED LOADS (ROI): 7395134
Number of SQ_ADDED: 48357051
Number of SQ_ADDED (ROI): 48357051
Number of LQ_ADDED: 157229403
Number of LQ_ADDED (ROI): 157229403
Number of Instructions read from trace: 600000256

ChampSim completed all CPUs

Region of Interest Statistics

CPU 0 cumulative IPC: 1.36622 instructions: 500000000 cycles: 365974273
ITLB TOTAL     ACCESS:   88177101  HIT:   88177032  MISS:         69
ITLB LOAD      ACCESS:   88177101  HIT:   88177032  MISS:         69
ITLB RFO       ACCESS:          0  HIT:          0  MISS:          0
ITLB PREFETCH  ACCESS:          0  HIT:          0  MISS:          0
ITLB WRITEBACK ACCESS:          0  HIT:          0  MISS:          0
ITLB PREFETCH  REQUESTED:          0  ISSUED:          0  USEFUL:          0  USELESS:          0
ITLB TOTAL MSHR MERGED:         85
ITLB LOAD MSHR MERGED:         85
ITLB RFO MSHR MERGED:          0
ITLB PREFETCH MSHR MERGED:          0
ITLB WRITEBACK MSHR MERGED:          0
ITLB TOTAL ACCESSES:   88177186 HITS:   88177032 MISSES:        154
ITLB LOAD ACCESSES:   88177186 HITS:   88177032 MISSES:        154
ITLB RFO ACCESSES:          0 HITS:          0 MISSES:          0
ITLB PREFETCH ACCESSES:          0 HITS:          0 MISSES:          0
ITLB WRITEBACK ACCESSES:          0 HITS:          0 MISSES:          0
ITLB RQ ACCESS:  500000000
ITLB RQ TO_CACHE:   88177186
ITLB RQ MERGED:  411822814
ITLB RQ FORWARD:          0
ITLB WQ ACCESS:          0
ITLB WQ TO_CACHE:          0
ITLB WQ MERGED:          0
ITLB WQ FORWARD:          0
DTLB TOTAL     ACCESS:   88202902  HIT:   88075486  MISS:     127416
DTLB LOAD      ACCESS:   59485207  HIT:   59392736  MISS:      92471
DTLB RFO       ACCESS:   28717695  HIT:   28682750  MISS:      34945
DTLB PREFETCH  ACCESS:          0  HIT:          0  MISS:          0
DTLB WRITEBACK ACCESS:          0  HIT:          0  MISS:          0
DTLB PREFETCH  REQUESTED:          0  ISSUED:          0  USEFUL:          0  USELESS:          0
DTLB TOTAL MSHR MERGED:     141160
DTLB LOAD MSHR MERGED:     107696
DTLB RFO MSHR MERGED:      33464
DTLB PREFETCH MSHR MERGED:          0
DTLB WRITEBACK MSHR MERGED:          0
DTLB TOTAL ACCESSES:   88344062 HITS:   88075486 MISSES:     268576
DTLB LOAD ACCESSES:   59592903 HITS:   59392736 MISSES:     200167
DTLB RFO ACCESSES:   28751159 HITS:   28682750 MISSES:      68409
DTLB PREFETCH ACCESSES:          0 HITS:          0 MISSES:          0
DTLB WRITEBACK ACCESSES:          0 HITS:          0 MISSES:          0
DTLB RQ ACCESS:  154558757
DTLB RQ TO_CACHE:   88344062
DTLB RQ MERGED:   66214695
DTLB RQ FORWARD:          0
DTLB WQ ACCESS:          0
DTLB WQ TO_CACHE:          0
DTLB WQ MERGED:          0
DTLB WQ FORWARD:          0
L1D TOTAL     ACCESS:  128095297  HIT:  124869694  MISS:    3225603
L1D LOAD      ACCESS:   53172248  HIT:   51976868  MISS:    1195380
L1D RFO       ACCESS:   37380588  HIT:   36766420  MISS:     614168
L1D PREFETCH  ACCESS:   37542461  HIT:   36126406  MISS:    1416055
L1D WRITEBACK ACCESS:          0  HIT:          0  MISS:          0
L1D PREFETCH  REQUESTED:   53657099  ISSUED:   52457094  USEFUL:     352007  USELESS:    1064013
L1D TOTAL MSHR MERGED:    2809772
L1D LOAD MSHR MERGED:     523597
L1D RFO MSHR MERGED:    1573984
L1D PREFETCH MSHR MERGED:     712191
L1D WRITEBACK MSHR MERGED:          0
L1D TOTAL ACCESSES:  130939950 HITS:  124904575 MISSES:    6035375
L1D LOAD ACCESSES:   53659982 HITS:   51979751 MISSES:    1680231
L1D RFO ACCESSES:   38952794 HITS:   36766420 MISSES:    2186374
L1D PREFETCH ACCESSES:   38327174 HITS:   36158404 MISSES:    2168770
L1D WRITEBACK ACCESSES:          0 HITS:          0 MISSES:          0
L1D RQ ACCESS:  113713865
L1D RQ TO_CACHE:   53657099
L1D RQ MERGED:   60053883
L1D RQ FORWARD:          0
L1D WQ ACCESS:   40844891
L1D WQ TO_CACHE:   38952794
L1D WQ MERGED:    1892097
L1D WQ FORWARD:      34881
L1I TOTAL     ACCESS:  108368675  HIT:  107809541  MISS:     559134
L1I LOAD      ACCESS:  108368675  HIT:  107809541  MISS:     559134
L1I RFO       ACCESS:          0  HIT:          0  MISS:          0
L1I PREFETCH  ACCESS:          0  HIT:          0  MISS:          0
L1I WRITEBACK ACCESS:          0  HIT:          0  MISS:          0
L1I PREFETCH  REQUESTED:          0  ISSUED:          0  USEFUL:          0  USELESS:          0
L1I TOTAL MSHR MERGED:     525652
L1I LOAD MSHR MERGED:     525652
L1I RFO MSHR MERGED:          0
L1I PREFETCH MSHR MERGED:          0
L1I WRITEBACK MSHR MERGED:          0
L1I TOTAL ACCESSES:  108894327 HITS:  107809541 MISSES:    1084786
L1I LOAD ACCESSES:  108894327 HITS:  107809541 MISSES:    1084786
L1I RFO ACCESSES:          0 HITS:          0 MISSES:          0
L1I PREFETCH ACCESSES:          0 HITS:          0 MISSES:          0
L1I WRITEBACK ACCESSES:          0 HITS:          0 MISSES:          0
L1I RQ ACCESS:  500000002
L1I RQ TO_CACHE:  108894327
L1I RQ MERGED:  391105675
L1I RQ FORWARD:          0
L1I WQ ACCESS:          0
L1I WQ TO_CACHE:          0
L1I WQ MERGED:          0
L1I WQ FORWARD:          0
L2C TOTAL     ACCESS:    4691979  HIT:    3865914  MISS:     826065
L2C LOAD      ACCESS:    1715652  HIT:    1562684  MISS:     152968
L2C RFO       ACCESS:     610969  HIT:     421183  MISS:     189786
L2C PREFETCH  ACCESS:    1662459  HIT:    1181339  MISS:     481120
L2C WRITEBACK ACCESS:     702899  HIT:     700708  MISS:       2191
L2C PREFETCH  REQUESTED:     256451  ISSUED:     256451  USEFUL:     173120  USELESS:     308666
L2C TOTAL MSHR MERGED:      13424
L2C LOAD MSHR MERGED:       4105
L2C RFO MSHR MERGED:          0
L2C PREFETCH MSHR MERGED:       9319
L2C WRITEBACK MSHR MERGED:          0
L2C TOTAL ACCESSES:    4712180 HITS:    3867519 MISSES:     844661
L2C LOAD ACCESSES:    1715768 HITS:    1562800 MISSES:     152968
L2C RFO ACCESSES:     612390 HITS:     422604 MISSES:     189786
L2C PREFETCH ACCESSES:    1681123 HITS:    1181407 MISSES:     499716
L2C WRITEBACK ACCESSES:     702899 HITS:     700708 MISSES:       2191
L2C RQ ACCESS:    2328158
L2C RQ TO_CACHE:    2326621
L2C RQ MERGED:          0
L2C RQ FORWARD:          0
L2C WQ ACCESS:     702899
L2C WQ TO_CACHE:     702899
L2C WQ MERGED:          0
L2C WQ FORWARD:       1605
LLC TOTAL     ACCESS:    1047496  HIT:     288532  MISS:     758964
LLC LOAD      ACCESS:     148859  HIT:      89755  MISS:      59104
LLC RFO       ACCESS:     189779  HIT:       6022  MISS:     183757
LLC PREFETCH  ACCESS:     487980  HIT:     154234  MISS:     333746
LLC WRITEBACK ACCESS:     220878  HIT:      38521  MISS:     182357
LLC PREFETCH  REQUESTED:          0  ISSUED:          0  USEFUL:       2225  USELESS:     332138
LLC TOTAL MSHR MERGED:       1699
LLC LOAD MSHR MERGED:        565
LLC RFO MSHR MERGED:          0
LLC PREFETCH MSHR MERGED:       1134
LLC WRITEBACK MSHR MERGED:          0
LLC TOTAL ACCESSES:    1049206 HITS:     288543 MISSES:     760663
LLC LOAD ACCESSES:     148863 HITS:      89759 MISSES:      59104
LLC RFO ACCESSES:     189786 HITS:       6029 MISSES:     183757
LLC PREFETCH ACCESSES:     489679 HITS:     154234 MISSES:     335445
LLC WRITEBACK ACCESSES:     220878 HITS:      38521 MISSES:     182357
LLC 0 RQ ACCESS:     338649
LLC 0 RQ TO_CACHE:     338638
LLC 0 RQ MERGED:          0
LLC 0 RQ FORWARD:          0
LLC WQ ACCESS:     220878
LLC WQ TO_CACHE:     220878
LLC WQ MERGED:          0
LLC WQ FORWARD:         11
Major fault: 0 Minor fault: 6811
CPU 0 L1D next line prefetcher final stats
CPU 0 L2C PC-based stride prefetcher final stats
All Misses: 898304
All Hits: 356175
SD Algo Stats - Switches: 0 SRR-Repls: 66602 BRR-Repls: 0

DRAM Statistics
 CHANNEL 0
 RQ ROW_BUFFER_HIT:     288645  ROW_BUFFER_MISS:     287889
 DBUS_CONGESTED:     398887
 WQ ROW_BUFFER_HIT:      22101  ROW_BUFFER_MISS:     194459  FULL:          0

 AVG_CONGESTED_CYCLE: 13
LOADS RETIRED: 119922929
INSTR RETIRED: 500000000
