
*** ChampSim Multicore Out-of-Order Simulator ***

Warmup Instructions: 100000000
Simulation Instructions: 500000000
Number of CPUs: 1
LLC sets: 2048
LLC ways: 16
Clean RRIP Policies: 1213220112132201 Dirty RRIP Policies: 2213222122132221 PSEL Width: 10 Track Set: 4294967295 PSEL Mask: 1 Demote Mask: 1340014213400142DS Algo: 0Window size: 0
Off-chip DRAM Size: 4096 MB Channels: 1 Width: 64-bit Data Rate: 1600 MT/s

CPU 0 runs /mnt/beegfs/iconst01/spec2017/Cam4.trace.gz
NOT SORTED
TRACE STRING: /mnt/beegfs/iconst01/spec2017/Cam4.trace.gz
SORTED
TRACE STRING: /mnt/beegfs/iconst01/spec2017/Cam4.trace.gz
INITIAL
TRACE STRING: /mnt/beegfs/iconst01/spec2017/Cam4.trace.gz

champsim_seed used: 325

CPU 0 L1D next line prefetcher
CPU 0 L2C IP-based stride prefetcher
Initialize DRRIP state
Assign rand_sets[0]: 454  LLC: 2048
rand_sets[0]: 454
Assign rand_sets[1]: 1662  LLC: 2048
rand_sets[1]: 1662
Assign rand_sets[2]: 1921  LLC: 2048
rand_sets[2]: 1921
Assign rand_sets[3]: 1131  LLC: 2048
rand_sets[3]: 1131
Assign rand_sets[4]: 331  LLC: 2048
rand_sets[4]: 331
Assign rand_sets[5]: 1531  LLC: 2048
rand_sets[5]: 1531
Assign rand_sets[6]: 482  LLC: 2048
rand_sets[6]: 482
Assign rand_sets[7]: 1275  LLC: 2048
rand_sets[7]: 1275
Assign rand_sets[8]: 1876  LLC: 2048
rand_sets[8]: 1876
Assign rand_sets[9]: 2038  LLC: 2048
rand_sets[9]: 2038
Assign rand_sets[10]: 701  LLC: 2048
rand_sets[10]: 701
Assign rand_sets[11]: 479  LLC: 2048
rand_sets[11]: 479
Assign rand_sets[12]: 892  LLC: 2048
rand_sets[12]: 892
Assign rand_sets[13]: 1820  LLC: 2048
rand_sets[13]: 1820
Assign rand_sets[14]: 1505  LLC: 2048
rand_sets[14]: 1505
Assign rand_sets[15]: 1159  LLC: 2048
rand_sets[15]: 1159
Assign rand_sets[16]: 513  LLC: 2048
rand_sets[16]: 513
Assign rand_sets[17]: 703  LLC: 2048
rand_sets[17]: 703
Assign rand_sets[18]: 561  LLC: 2048
rand_sets[18]: 561
Assign rand_sets[19]: 990  LLC: 2048
rand_sets[19]: 990
Assign rand_sets[20]: 342  LLC: 2048
rand_sets[20]: 342
Assign rand_sets[21]: 882  LLC: 2048
rand_sets[21]: 882
Assign rand_sets[22]: 15  LLC: 2048
rand_sets[22]: 15
Assign rand_sets[23]: 71  LLC: 2048
rand_sets[23]: 71
Assign rand_sets[24]: 1127  LLC: 2048
rand_sets[24]: 1127
Assign rand_sets[25]: 1382  LLC: 2048
rand_sets[25]: 1382
Assign rand_sets[26]: 647  LLC: 2048
rand_sets[26]: 647
Assign rand_sets[27]: 857  LLC: 2048
rand_sets[27]: 857
Assign rand_sets[28]: 1450  LLC: 2048
rand_sets[28]: 1450
Assign rand_sets[29]: 1160  LLC: 2048
rand_sets[29]: 1160
Assign rand_sets[30]: 1852  LLC: 2048
rand_sets[30]: 1852
Assign rand_sets[31]: 1881  LLC: 2048
rand_sets[31]: 1881
Assign rand_sets[32]: 1770  LLC: 2048
rand_sets[32]: 1770
Assign rand_sets[33]: 1622  LLC: 2048
rand_sets[33]: 1622
Assign rand_sets[34]: 275  LLC: 2048
rand_sets[34]: 275
Assign rand_sets[35]: 635  LLC: 2048
rand_sets[35]: 635
Assign rand_sets[36]: 466  LLC: 2048
rand_sets[36]: 466
Assign rand_sets[37]: 1413  LLC: 2048
rand_sets[37]: 1413
Assign rand_sets[38]: 417  LLC: 2048
rand_sets[38]: 417
Assign rand_sets[39]: 472  LLC: 2048
rand_sets[39]: 472
Assign rand_sets[40]: 1340  LLC: 2048
rand_sets[40]: 1340
Assign rand_sets[41]: 852  LLC: 2048
rand_sets[41]: 852
Assign rand_sets[42]: 1365  LLC: 2048
rand_sets[42]: 1365
Assign rand_sets[43]: 47  LLC: 2048
rand_sets[43]: 47
Assign rand_sets[44]: 823  LLC: 2048
rand_sets[44]: 823
Assign rand_sets[45]: 686  LLC: 2048
rand_sets[45]: 686
Assign rand_sets[46]: 1637  LLC: 2048
rand_sets[46]: 1637
Assign rand_sets[47]: 1115  LLC: 2048
rand_sets[47]: 1115
Assign rand_sets[48]: 986  LLC: 2048
rand_sets[48]: 986
Assign rand_sets[49]: 258  LLC: 2048
rand_sets[49]: 258
Assign rand_sets[50]: 633  LLC: 2048
rand_sets[50]: 633
Assign rand_sets[51]: 920  LLC: 2048
rand_sets[51]: 920
Assign rand_sets[52]: 204  LLC: 2048
rand_sets[52]: 204
Assign rand_sets[53]: 227  LLC: 2048
rand_sets[53]: 227
Assign rand_sets[54]: 1818  LLC: 2048
rand_sets[54]: 1818
Assign rand_sets[55]: 886  LLC: 2048
rand_sets[55]: 886
Assign rand_sets[56]: 1422  LLC: 2048
rand_sets[56]: 1422
Assign rand_sets[57]: 607  LLC: 2048
rand_sets[57]: 607
Assign rand_sets[58]: 217  LLC: 2048
rand_sets[58]: 217
Assign rand_sets[59]: 1945  LLC: 2048
rand_sets[59]: 1945
Assign rand_sets[60]: 143  LLC: 2048
rand_sets[60]: 143
Assign rand_sets[61]: 1311  LLC: 2048
rand_sets[61]: 1311
Assign rand_sets[62]: 319  LLC: 2048
rand_sets[62]: 319
Assign rand_sets[63]: 1846  LLC: 2048
rand_sets[63]: 1846
 CLEAN-RRIP-POLICY-1: 1-2-1-3-2-2-0-1- CLEAN-RRIP-POLICY-2: 1-2-1-3-2-2-0-1-
 DIRTY-RRIP-POLICY-1: 2-2-1-3-2-2-2-1- DIRTY-RRIP-POLICY-2: 2-2-1-3-2-2-2-1-
 PSEL width: 10
Heartbeat CPU 0 instructions: 10000000 cycles: 4859184 heartbeat IPC: 2.05796 cumulative IPC: 2.05796 (Simulation time: 0 hr 0 min 17 sec) 
Heartbeat CPU 0 instructions: 20000000 cycles: 9790786 heartbeat IPC: 2.02774 cumulative IPC: 2.04274 (Simulation time: 0 hr 0 min 34 sec) 
Heartbeat CPU 0 instructions: 30000001 cycles: 14563003 heartbeat IPC: 2.09546 cumulative IPC: 2.06001 (Simulation time: 0 hr 0 min 49 sec) 
Heartbeat CPU 0 instructions: 40000000 cycles: 19400000 heartbeat IPC: 2.0674 cumulative IPC: 2.06186 (Simulation time: 0 hr 1 min 6 sec) 
Heartbeat CPU 0 instructions: 50000000 cycles: 24256518 heartbeat IPC: 2.05909 cumulative IPC: 2.0613 (Simulation time: 0 hr 1 min 24 sec) 
Heartbeat CPU 0 instructions: 60000000 cycles: 29181969 heartbeat IPC: 2.03027 cumulative IPC: 2.05606 (Simulation time: 0 hr 1 min 41 sec) 
Heartbeat CPU 0 instructions: 70000001 cycles: 33956882 heartbeat IPC: 2.09428 cumulative IPC: 2.06144 (Simulation time: 0 hr 1 min 56 sec) 
Heartbeat CPU 0 instructions: 80000000 cycles: 38793147 heartbeat IPC: 2.06771 cumulative IPC: 2.06222 (Simulation time: 0 hr 2 min 14 sec) 
Heartbeat CPU 0 instructions: 90000002 cycles: 43647207 heartbeat IPC: 2.06013 cumulative IPC: 2.06199 (Simulation time: 0 hr 2 min 31 sec) 
Heartbeat CPU 0 instructions: 100000000 cycles: 48566003 heartbeat IPC: 2.03302 cumulative IPC: 2.05905 (Simulation time: 0 hr 2 min 49 sec) 

Warmup complete CPU 0 instructions: 100000001 cycles: 48566004 (Simulation time: 0 hr 2 min 49 sec) 

Heartbeat CPU 0 instructions: 110000000 cycles: 61822027 heartbeat IPC: 0.754374 cumulative IPC: 0.754374 (Simulation time: 0 hr 3 min 13 sec) 
Heartbeat CPU 0 instructions: 120000000 cycles: 75593827 heartbeat IPC: 0.726121 cumulative IPC: 0.739978 (Simulation time: 0 hr 3 min 39 sec) 
Heartbeat CPU 0 instructions: 130000000 cycles: 89352272 heartbeat IPC: 0.726826 cumulative IPC: 0.735542 (Simulation time: 0 hr 4 min 5 sec) 
Heartbeat CPU 0 instructions: 140000000 cycles: 103652711 heartbeat IPC: 0.699279 cumulative IPC: 0.726128 (Simulation time: 0 hr 4 min 31 sec) 
Heartbeat CPU 0 instructions: 150000003 cycles: 116941066 heartbeat IPC: 0.752539 cumulative IPC: 0.731261 (Simulation time: 0 hr 4 min 55 sec) 
Heartbeat CPU 0 instructions: 160000000 cycles: 130713896 heartbeat IPC: 0.726067 cumulative IPC: 0.73039 (Simulation time: 0 hr 5 min 21 sec) 
Heartbeat CPU 0 instructions: 170000001 cycles: 144509677 heartbeat IPC: 0.724859 cumulative IPC: 0.729595 (Simulation time: 0 hr 5 min 48 sec) 
Heartbeat CPU 0 instructions: 180000000 cycles: 158794932 heartbeat IPC: 0.700022 cumulative IPC: 0.725762 (Simulation time: 0 hr 6 min 14 sec) 
Heartbeat CPU 0 instructions: 190000003 cycles: 172020962 heartbeat IPC: 0.756085 cumulative IPC: 0.729011 (Simulation time: 0 hr 6 min 38 sec) 
Heartbeat CPU 0 instructions: 200000000 cycles: 185791215 heartbeat IPC: 0.726203 cumulative IPC: 0.728729 (Simulation time: 0 hr 7 min 4 sec) 
Heartbeat CPU 0 instructions: 210000002 cycles: 199588360 heartbeat IPC: 0.724788 cumulative IPC: 0.728369 (Simulation time: 0 hr 7 min 30 sec) 
Heartbeat CPU 0 instructions: 220000000 cycles: 213884458 heartbeat IPC: 0.699491 cumulative IPC: 0.725872 (Simulation time: 0 hr 7 min 56 sec) 
Heartbeat CPU 0 instructions: 230000001 cycles: 227011420 heartbeat IPC: 0.761791 cumulative IPC: 0.728514 (Simulation time: 0 hr 8 min 20 sec) 
Heartbeat CPU 0 instructions: 240000000 cycles: 240777363 heartbeat IPC: 0.72643 cumulative IPC: 0.728365 (Simulation time: 0 hr 8 min 46 sec) 
Heartbeat CPU 0 instructions: 250000001 cycles: 254523488 heartbeat IPC: 0.727478 cumulative IPC: 0.728306 (Simulation time: 0 hr 9 min 13 sec) 
Heartbeat CPU 0 instructions: 260000000 cycles: 268696728 heartbeat IPC: 0.705555 cumulative IPC: 0.726841 (Simulation time: 0 hr 9 min 39 sec) 
Heartbeat CPU 0 instructions: 270000003 cycles: 281950596 heartbeat IPC: 0.754497 cumulative IPC: 0.728411 (Simulation time: 0 hr 10 min 3 sec) 
Heartbeat CPU 0 instructions: 280000000 cycles: 295731362 heartbeat IPC: 0.725649 cumulative IPC: 0.728257 (Simulation time: 0 hr 10 min 29 sec) 
Heartbeat CPU 0 instructions: 290000001 cycles: 309524968 heartbeat IPC: 0.724974 cumulative IPC: 0.728084 (Simulation time: 0 hr 10 min 55 sec) 
Heartbeat CPU 0 instructions: 300000000 cycles: 323635096 heartbeat IPC: 0.708711 cumulative IPC: 0.72709 (Simulation time: 0 hr 11 min 21 sec) 
Heartbeat CPU 0 instructions: 310000000 cycles: 336928298 heartbeat IPC: 0.752264 cumulative IPC: 0.728251 (Simulation time: 0 hr 11 min 45 sec) 
Heartbeat CPU 0 instructions: 320000000 cycles: 350754773 heartbeat IPC: 0.72325 cumulative IPC: 0.728022 (Simulation time: 0 hr 12 min 11 sec) 
Heartbeat CPU 0 instructions: 330000000 cycles: 364567292 heartbeat IPC: 0.723981 cumulative IPC: 0.727845 (Simulation time: 0 hr 12 min 37 sec) 
Heartbeat CPU 0 instructions: 340000000 cycles: 378647444 heartbeat IPC: 0.71022 cumulative IPC: 0.727093 (Simulation time: 0 hr 13 min 3 sec) 
Heartbeat CPU 0 instructions: 350000000 cycles: 392002288 heartbeat IPC: 0.748792 cumulative IPC: 0.727937 (Simulation time: 0 hr 13 min 26 sec) 
Heartbeat CPU 0 instructions: 360000000 cycles: 405865643 heartbeat IPC: 0.721326 cumulative IPC: 0.727681 (Simulation time: 0 hr 13 min 52 sec) 
Heartbeat CPU 0 instructions: 370000003 cycles: 419682592 heartbeat IPC: 0.723749 cumulative IPC: 0.727534 (Simulation time: 0 hr 14 min 18 sec) 
Heartbeat CPU 0 instructions: 380000000 cycles: 433731629 heartbeat IPC: 0.711792 cumulative IPC: 0.72696 (Simulation time: 0 hr 14 min 44 sec) 
Heartbeat CPU 0 instructions: 390000003 cycles: 447120087 heartbeat IPC: 0.746912 cumulative IPC: 0.72763 (Simulation time: 0 hr 15 min 7 sec) 
Heartbeat CPU 0 instructions: 400000000 cycles: 460972023 heartbeat IPC: 0.721921 cumulative IPC: 0.727438 (Simulation time: 0 hr 15 min 32 sec) 
Heartbeat CPU 0 instructions: 410000000 cycles: 474754864 heartbeat IPC: 0.72554 cumulative IPC: 0.727377 (Simulation time: 0 hr 15 min 58 sec) 
Heartbeat CPU 0 instructions: 420000000 cycles: 488788663 heartbeat IPC: 0.712565 cumulative IPC: 0.726905 (Simulation time: 0 hr 16 min 24 sec) 
Heartbeat CPU 0 instructions: 430000003 cycles: 502187257 heartbeat IPC: 0.746347 cumulative IPC: 0.727479 (Simulation time: 0 hr 16 min 47 sec) 
Heartbeat CPU 0 instructions: 440000000 cycles: 516044047 heartbeat IPC: 0.721668 cumulative IPC: 0.727307 (Simulation time: 0 hr 17 min 12 sec) 
Heartbeat CPU 0 instructions: 450000000 cycles: 529848360 heartbeat IPC: 0.724411 cumulative IPC: 0.727224 (Simulation time: 0 hr 17 min 37 sec) 
Heartbeat CPU 0 instructions: 460000000 cycles: 543859834 heartbeat IPC: 0.713701 cumulative IPC: 0.726841 (Simulation time: 0 hr 18 min 2 sec) 
Heartbeat CPU 0 instructions: 470000001 cycles: 557263404 heartbeat IPC: 0.74607 cumulative IPC: 0.727348 (Simulation time: 0 hr 18 min 25 sec) 
Heartbeat CPU 0 instructions: 480000000 cycles: 571080981 heartbeat IPC: 0.723716 cumulative IPC: 0.727252 (Simulation time: 0 hr 18 min 50 sec) 
Heartbeat CPU 0 instructions: 490000002 cycles: 584851534 heartbeat IPC: 0.726187 cumulative IPC: 0.727225 (Simulation time: 0 hr 19 min 15 sec) 
Heartbeat CPU 0 instructions: 500000000 cycles: 598862651 heartbeat IPC: 0.713719 cumulative IPC: 0.726881 (Simulation time: 0 hr 19 min 40 sec) 
Heartbeat CPU 0 instructions: 510000002 cycles: 612240744 heartbeat IPC: 0.747491 cumulative IPC: 0.72737 (Simulation time: 0 hr 20 min 3 sec) 
Heartbeat CPU 0 instructions: 520000000 cycles: 626056142 heartbeat IPC: 0.72383 cumulative IPC: 0.727285 (Simulation time: 0 hr 20 min 28 sec) 
Heartbeat CPU 0 instructions: 530000003 cycles: 639814045 heartbeat IPC: 0.726855 cumulative IPC: 0.727275 (Simulation time: 0 hr 20 min 53 sec) 
Heartbeat CPU 0 instructions: 540000000 cycles: 653851843 heartbeat IPC: 0.712362 cumulative IPC: 0.726929 (Simulation time: 0 hr 21 min 18 sec) 
Heartbeat CPU 0 instructions: 550000003 cycles: 667263731 heartbeat IPC: 0.745607 cumulative IPC: 0.727334 (Simulation time: 0 hr 21 min 41 sec) 
Heartbeat CPU 0 instructions: 560000000 cycles: 681057761 heartbeat IPC: 0.724951 cumulative IPC: 0.727282 (Simulation time: 0 hr 22 min 6 sec) 
Heartbeat CPU 0 instructions: 570000001 cycles: 694842547 heartbeat IPC: 0.725438 cumulative IPC: 0.727243 (Simulation time: 0 hr 22 min 31 sec) 
Heartbeat CPU 0 instructions: 580000000 cycles: 708896019 heartbeat IPC: 0.711568 cumulative IPC: 0.726909 (Simulation time: 0 hr 22 min 56 sec) 
Heartbeat CPU 0 instructions: 590000000 cycles: 722224462 heartbeat IPC: 0.750275 cumulative IPC: 0.727372 (Simulation time: 0 hr 23 min 19 sec) 
Heartbeat CPU 0 instructions: 600000000 cycles: 736020459 heartbeat IPC: 0.724848 cumulative IPC: 0.727321 (Simulation time: 0 hr 23 min 44 sec) 
Finished CPU 0 instructions: 500000001 cycles: 687454463 cumulative IPC: 0.727321 (Simulation time: 0 hr 23 min 44 sec) 

CPU 0 Branch Prediction Accuracy: 97.5275% MPKI: 2.1997
Number of Branches: 44482865 Number of Mispredictions: 1099852
Number of LOAD Instructions: 144955155
Number of LOAD Instructions (ROI): 144955155
Number of STORE Instructions: 55921098
Number of STORE Instructions (ROI): 55921098
Total Destination Memory Operands: 57111147
Total Destination Memory Operands (ROI): 57111147
Total Source Memory Operands: 144955155
Total Source Memory Operands (ROI): 144955155
Number of DEPENDED LOADS: 13455338
Number of DEPENDED LOADS (ROI): 13455338
Number of SQ_ADDED: 57111126
Number of SQ_ADDED (ROI): 57111126
Number of LQ_ADDED: 174517464
Number of LQ_ADDED (ROI): 174517464
Number of Instructions read from trace: 600000256

ChampSim completed all CPUs

Region of Interest Statistics

CPU 0 cumulative IPC: 0.727321 instructions: 500000001 cycles: 687454463
ITLB TOTAL     ACCESS:  136054732  HIT:  136052179  MISS:       2553
ITLB LOAD      ACCESS:  136054732  HIT:  136052179  MISS:       2553
ITLB RFO       ACCESS:          0  HIT:          0  MISS:          0
ITLB PREFETCH  ACCESS:          0  HIT:          0  MISS:          0
ITLB WRITEBACK ACCESS:          0  HIT:          0  MISS:          0
ITLB PREFETCH  REQUESTED:          0  ISSUED:          0  USEFUL:          0  USELESS:          0
ITLB TOTAL MSHR MERGED:       4407
ITLB LOAD MSHR MERGED:       4407
ITLB RFO MSHR MERGED:          0
ITLB PREFETCH MSHR MERGED:          0
ITLB WRITEBACK MSHR MERGED:          0
ITLB TOTAL ACCESSES:  136059139 HITS:  136052179 MISSES:       6960
ITLB LOAD ACCESSES:  136059139 HITS:  136052179 MISSES:       6960
ITLB RFO ACCESSES:          0 HITS:          0 MISSES:          0
ITLB PREFETCH ACCESSES:          0 HITS:          0 MISSES:          0
ITLB WRITEBACK ACCESSES:          0 HITS:          0 MISSES:          0
ITLB RQ ACCESS:  500000202
ITLB RQ TO_CACHE:  136059139
ITLB RQ MERGED:  363941063
ITLB RQ FORWARD:          0
ITLB WQ ACCESS:          0
ITLB WQ TO_CACHE:          0
ITLB WQ MERGED:          0
ITLB WQ FORWARD:          0
DTLB TOTAL     ACCESS:  111539150  HIT:  111402958  MISS:     136192
DTLB LOAD      ACCESS:   78944077  HIT:   78818454  MISS:     125623
DTLB RFO       ACCESS:   32595073  HIT:   32584504  MISS:      10569
DTLB PREFETCH  ACCESS:          0  HIT:          0  MISS:          0
DTLB WRITEBACK ACCESS:          0  HIT:          0  MISS:          0
DTLB PREFETCH  REQUESTED:          0  ISSUED:          0  USEFUL:          0  USELESS:          0
DTLB TOTAL MSHR MERGED:      63681
DTLB LOAD MSHR MERGED:      51099
DTLB RFO MSHR MERGED:      12582
DTLB PREFETCH MSHR MERGED:          0
DTLB WRITEBACK MSHR MERGED:          0
DTLB TOTAL ACCESSES:  111602831 HITS:  111402958 MISSES:     199873
DTLB LOAD ACCESSES:   78995176 HITS:   78818454 MISSES:     176722
DTLB RFO ACCESSES:   32607655 HITS:   32584504 MISSES:      23151
DTLB PREFETCH ACCESSES:          0 HITS:          0 MISSES:          0
DTLB WRITEBACK ACCESSES:          0 HITS:          0 MISSES:          0
DTLB RQ ACCESS:  157180063
DTLB RQ TO_CACHE:  111602831
DTLB RQ MERGED:   45577232
DTLB RQ FORWARD:          0
DTLB WQ ACCESS:          0
DTLB WQ TO_CACHE:          0
DTLB WQ MERGED:          0
DTLB WQ FORWARD:          0
L1D TOTAL     ACCESS:  198159720  HIT:  188318789  MISS:    9840931
L1D LOAD      ACCESS:   79937368  HIT:   75672393  MISS:    4264975
L1D RFO       ACCESS:   44490327  HIT:   43589855  MISS:     900472
L1D PREFETCH  ACCESS:   73732025  HIT:   69056541  MISS:    4675484
L1D WRITEBACK ACCESS:          0  HIT:          0  MISS:          0
L1D PREFETCH  REQUESTED:   80336911  ISSUED:   79881281  USEFUL:    1817238  USELESS:    2858155
L1D TOTAL MSHR MERGED:    2552352
L1D LOAD MSHR MERGED:     525203
L1D RFO MSHR MERGED:    1461470
L1D PREFETCH MSHR MERGED:     565679
L1D WRITEBACK MSHR MERGED:          0
L1D TOTAL ACCESSES:  200734476 HITS:  188341193 MISSES:   12393283
L1D LOAD ACCESSES:   80350662 HITS:   75686144 MISSES:    4664518
L1D RFO ACCESSES:   45948665 HITS:   43589855 MISSES:    2358810
L1D PREFETCH ACCESSES:   74435149 HITS:   69065194 MISSES:    5369955
L1D WRITEBACK ACCESSES:          0 HITS:          0 MISSES:          0
L1D RQ ACCESS:  109538093
L1D RQ TO_CACHE:   80336911
L1D RQ MERGED:   29187431
L1D RQ FORWARD:          0
L1D WQ ACCESS:   47641970
L1D WQ TO_CACHE:   45948665
L1D WQ MERGED:    1693305
L1D WQ FORWARD:      22404
L1I TOTAL     ACCESS:  161524968  HIT:  161260991  MISS:     263977
L1I LOAD      ACCESS:  161524968  HIT:  161260991  MISS:     263977
L1I RFO       ACCESS:          0  HIT:          0  MISS:          0
L1I PREFETCH  ACCESS:          0  HIT:          0  MISS:          0
L1I WRITEBACK ACCESS:          0  HIT:          0  MISS:          0
L1I PREFETCH  REQUESTED:          0  ISSUED:          0  USEFUL:          0  USELESS:          0
L1I TOTAL MSHR MERGED:     260456
L1I LOAD MSHR MERGED:     260456
L1I RFO MSHR MERGED:          0
L1I PREFETCH MSHR MERGED:          0
L1I WRITEBACK MSHR MERGED:          0
L1I TOTAL ACCESSES:  161785424 HITS:  161260991 MISSES:     524433
L1I LOAD ACCESSES:  161785424 HITS:  161260991 MISSES:     524433
L1I RFO ACCESSES:          0 HITS:          0 MISSES:          0
L1I PREFETCH ACCESSES:          0 HITS:          0 MISSES:          0
L1I WRITEBACK ACCESSES:          0 HITS:          0 MISSES:          0
L1I RQ ACCESS:  500000202
L1I RQ TO_CACHE:  161785424
L1I RQ MERGED:  338214778
L1I RQ FORWARD:          0
L1I WQ ACCESS:          0
L1I WQ TO_CACHE:          0
L1I WQ MERGED:          0
L1I WQ FORWARD:          0
L2C TOTAL     ACCESS:   11771195  HIT:   10381921  MISS:    1389274
L2C LOAD      ACCESS:    4403227  HIT:    3906287  MISS:     496940
L2C RFO       ACCESS:     897273  HIT:     536185  MISS:     361088
L2C PREFETCH  ACCESS:    5283214  HIT:    4754916  MISS:     528298
L2C WRITEBACK ACCESS:    1187481  HIT:    1184533  MISS:       2948
L2C PREFETCH  REQUESTED:     504320  ISSUED:     504320  USEFUL:     114876  USELESS:     413614
L2C TOTAL MSHR MERGED:       2359
L2C LOAD MSHR MERGED:        454
L2C RFO MSHR MERGED:          0
L2C PREFETCH MSHR MERGED:       1905
L2C WRITEBACK MSHR MERGED:          0
L2C TOTAL ACCESSES:   11776159 HITS:   10382143 MISSES:    1394016
L2C LOAD ACCESSES:    4403292 HITS:    3906352 MISSES:     496940
L2C RFO ACCESSES:     897340 HITS:     536252 MISSES:     361088
L2C PREFETCH ACCESSES:    5288046 HITS:    4755006 MISSES:     533040
L2C WRITEBACK ACCESSES:    1187481 HITS:    1184533 MISSES:       2948
L2C RQ ACCESS:    5300632
L2C RQ TO_CACHE:    5300500
L2C RQ MERGED:          0
L2C RQ FORWARD:          0
L2C WQ ACCESS:    1187481
L2C WQ TO_CACHE:    1187481
L2C WQ MERGED:          0
L2C WQ FORWARD:        222
LLC TOTAL     ACCESS:    1849293  HIT:    1096243  MISS:     753050
LLC LOAD      ACCESS:     496484  HIT:     284061  MISS:     212423
LLC RFO       ACCESS:     361082  HIT:     147950  MISS:     213132
LLC PREFETCH  ACCESS:     531020  HIT:     299928  MISS:     231092
LLC WRITEBACK ACCESS:     460707  HIT:     364304  MISS:      96403
LLC PREFETCH  REQUESTED:          0  ISSUED:          0  USEFUL:       4136  USELESS:     227258
LLC TOTAL MSHR MERGED:         87
LLC LOAD MSHR MERGED:         21
LLC RFO MSHR MERGED:          0
LLC PREFETCH MSHR MERGED:         66
LLC WRITEBACK MSHR MERGED:          0
LLC TOTAL ACCESSES:    1849406 HITS:    1096269 MISSES:     753137
LLC LOAD ACCESSES:     496486 HITS:     284063 MISSES:     212423
LLC RFO ACCESSES:     361088 HITS:     147956 MISSES:     213132
LLC PREFETCH ACCESSES:     531125 HITS:     299946 MISSES:     231179
LLC WRITEBACK ACCESSES:     460707 HITS:     364304 MISSES:      96403
LLC 0 RQ ACCESS:     857574
LLC 0 RQ TO_CACHE:     857566
LLC 0 RQ MERGED:          0
LLC 0 RQ FORWARD:          0
LLC WQ ACCESS:     460707
LLC WQ TO_CACHE:     460707
LLC WQ MERGED:          0
LLC WQ FORWARD:         26
Major fault: 0 Minor fault: 3073
CPU 0 L1D next line prefetcher final stats
CPU 0 L2C PC-based stride prefetcher final stats
All Misses: 901300
All Hits: 1274685
SD Algo Stats - Switches: 0 SRR-Repls: 251517 BRR-Repls: 0

DRAM Statistics
 CHANNEL 0
 RQ ROW_BUFFER_HIT:     384604  ROW_BUFFER_MISS:     271702
 DBUS_CONGESTED:     530543
 WQ ROW_BUFFER_HIT:      25526  ROW_BUFFER_MISS:     207816  FULL:          0

 AVG_CONGESTED_CYCLE: 13
LOADS RETIRED: 120673965
INSTR RETIRED: 500000000
