
*** ChampSim Multicore Out-of-Order Simulator ***

Warmup Instructions: 100000000
Simulation Instructions: 500000000
Number of CPUs: 1
LLC sets: 2048
LLC ways: 16
Clean RRIP Policies: 1213220112132201 Dirty RRIP Policies: 2213222122132221 PSEL Width: 10 Track Set: 4294967295 PSEL Mask: 1 Demote Mask: 1340014213400142DS Algo: 0Window size: 0
Off-chip DRAM Size: 4096 MB Channels: 1 Width: 64-bit Data Rate: 1600 MT/s

CPU 0 runs /mnt/beegfs/iconst01/spec2017/x264.trace.gz
NOT SORTED
TRACE STRING: /mnt/beegfs/iconst01/spec2017/x264.trace.gz
SORTED
TRACE STRING: /mnt/beegfs/iconst01/spec2017/x264.trace.gz
INITIAL
TRACE STRING: /mnt/beegfs/iconst01/spec2017/x264.trace.gz

champsim_seed used: 276

CPU 0 L1D next line prefetcher
CPU 0 L2C IP-based stride prefetcher
Initialize DRRIP state
Assign rand_sets[0]: 454  LLC: 2048
rand_sets[0]: 454
Assign rand_sets[1]: 1662  LLC: 2048
rand_sets[1]: 1662
Assign rand_sets[2]: 1921  LLC: 2048
rand_sets[2]: 1921
Assign rand_sets[3]: 1131  LLC: 2048
rand_sets[3]: 1131
Assign rand_sets[4]: 331  LLC: 2048
rand_sets[4]: 331
Assign rand_sets[5]: 1531  LLC: 2048
rand_sets[5]: 1531
Assign rand_sets[6]: 482  LLC: 2048
rand_sets[6]: 482
Assign rand_sets[7]: 1275  LLC: 2048
rand_sets[7]: 1275
Assign rand_sets[8]: 1876  LLC: 2048
rand_sets[8]: 1876
Assign rand_sets[9]: 2038  LLC: 2048
rand_sets[9]: 2038
Assign rand_sets[10]: 701  LLC: 2048
rand_sets[10]: 701
Assign rand_sets[11]: 479  LLC: 2048
rand_sets[11]: 479
Assign rand_sets[12]: 892  LLC: 2048
rand_sets[12]: 892
Assign rand_sets[13]: 1820  LLC: 2048
rand_sets[13]: 1820
Assign rand_sets[14]: 1505  LLC: 2048
rand_sets[14]: 1505
Assign rand_sets[15]: 1159  LLC: 2048
rand_sets[15]: 1159
Assign rand_sets[16]: 513  LLC: 2048
rand_sets[16]: 513
Assign rand_sets[17]: 703  LLC: 2048
rand_sets[17]: 703
Assign rand_sets[18]: 561  LLC: 2048
rand_sets[18]: 561
Assign rand_sets[19]: 990  LLC: 2048
rand_sets[19]: 990
Assign rand_sets[20]: 342  LLC: 2048
rand_sets[20]: 342
Assign rand_sets[21]: 882  LLC: 2048
rand_sets[21]: 882
Assign rand_sets[22]: 15  LLC: 2048
rand_sets[22]: 15
Assign rand_sets[23]: 71  LLC: 2048
rand_sets[23]: 71
Assign rand_sets[24]: 1127  LLC: 2048
rand_sets[24]: 1127
Assign rand_sets[25]: 1382  LLC: 2048
rand_sets[25]: 1382
Assign rand_sets[26]: 647  LLC: 2048
rand_sets[26]: 647
Assign rand_sets[27]: 857  LLC: 2048
rand_sets[27]: 857
Assign rand_sets[28]: 1450  LLC: 2048
rand_sets[28]: 1450
Assign rand_sets[29]: 1160  LLC: 2048
rand_sets[29]: 1160
Assign rand_sets[30]: 1852  LLC: 2048
rand_sets[30]: 1852
Assign rand_sets[31]: 1881  LLC: 2048
rand_sets[31]: 1881
Assign rand_sets[32]: 1770  LLC: 2048
rand_sets[32]: 1770
Assign rand_sets[33]: 1622  LLC: 2048
rand_sets[33]: 1622
Assign rand_sets[34]: 275  LLC: 2048
rand_sets[34]: 275
Assign rand_sets[35]: 635  LLC: 2048
rand_sets[35]: 635
Assign rand_sets[36]: 466  LLC: 2048
rand_sets[36]: 466
Assign rand_sets[37]: 1413  LLC: 2048
rand_sets[37]: 1413
Assign rand_sets[38]: 417  LLC: 2048
rand_sets[38]: 417
Assign rand_sets[39]: 472  LLC: 2048
rand_sets[39]: 472
Assign rand_sets[40]: 1340  LLC: 2048
rand_sets[40]: 1340
Assign rand_sets[41]: 852  LLC: 2048
rand_sets[41]: 852
Assign rand_sets[42]: 1365  LLC: 2048
rand_sets[42]: 1365
Assign rand_sets[43]: 47  LLC: 2048
rand_sets[43]: 47
Assign rand_sets[44]: 823  LLC: 2048
rand_sets[44]: 823
Assign rand_sets[45]: 686  LLC: 2048
rand_sets[45]: 686
Assign rand_sets[46]: 1637  LLC: 2048
rand_sets[46]: 1637
Assign rand_sets[47]: 1115  LLC: 2048
rand_sets[47]: 1115
Assign rand_sets[48]: 986  LLC: 2048
rand_sets[48]: 986
Assign rand_sets[49]: 258  LLC: 2048
rand_sets[49]: 258
Assign rand_sets[50]: 633  LLC: 2048
rand_sets[50]: 633
Assign rand_sets[51]: 920  LLC: 2048
rand_sets[51]: 920
Assign rand_sets[52]: 204  LLC: 2048
rand_sets[52]: 204
Assign rand_sets[53]: 227  LLC: 2048
rand_sets[53]: 227
Assign rand_sets[54]: 1818  LLC: 2048
rand_sets[54]: 1818
Assign rand_sets[55]: 886  LLC: 2048
rand_sets[55]: 886
Assign rand_sets[56]: 1422  LLC: 2048
rand_sets[56]: 1422
Assign rand_sets[57]: 607  LLC: 2048
rand_sets[57]: 607
Assign rand_sets[58]: 217  LLC: 2048
rand_sets[58]: 217
Assign rand_sets[59]: 1945  LLC: 2048
rand_sets[59]: 1945
Assign rand_sets[60]: 143  LLC: 2048
rand_sets[60]: 143
Assign rand_sets[61]: 1311  LLC: 2048
rand_sets[61]: 1311
Assign rand_sets[62]: 319  LLC: 2048
rand_sets[62]: 319
Assign rand_sets[63]: 1846  LLC: 2048
rand_sets[63]: 1846
 CLEAN-RRIP-POLICY-1: 1-2-1-3-2-2-0-1- CLEAN-RRIP-POLICY-2: 1-2-1-3-2-2-0-1-
 DIRTY-RRIP-POLICY-1: 2-2-1-3-2-2-2-1- DIRTY-RRIP-POLICY-2: 2-2-1-3-2-2-2-1-
 PSEL width: 10
Heartbeat CPU 0 instructions: 10000000 cycles: 4124759 heartbeat IPC: 2.42438 cumulative IPC: 2.42438 (Simulation time: 0 hr 0 min 14 sec) 
Heartbeat CPU 0 instructions: 20000000 cycles: 8233861 heartbeat IPC: 2.43362 cumulative IPC: 2.42899 (Simulation time: 0 hr 0 min 28 sec) 
Heartbeat CPU 0 instructions: 30000003 cycles: 12464693 heartbeat IPC: 2.3636 cumulative IPC: 2.4068 (Simulation time: 0 hr 0 min 41 sec) 
Heartbeat CPU 0 instructions: 40000000 cycles: 16636677 heartbeat IPC: 2.39694 cumulative IPC: 2.40433 (Simulation time: 0 hr 0 min 55 sec) 
Heartbeat CPU 0 instructions: 50000000 cycles: 20699159 heartbeat IPC: 2.46155 cumulative IPC: 2.41556 (Simulation time: 0 hr 1 min 8 sec) 
Heartbeat CPU 0 instructions: 60000000 cycles: 25022647 heartbeat IPC: 2.31295 cumulative IPC: 2.39783 (Simulation time: 0 hr 1 min 22 sec) 
Heartbeat CPU 0 instructions: 70000000 cycles: 29370988 heartbeat IPC: 2.29973 cumulative IPC: 2.3833 (Simulation time: 0 hr 1 min 35 sec) 
Heartbeat CPU 0 instructions: 80000000 cycles: 33721123 heartbeat IPC: 2.29878 cumulative IPC: 2.3724 (Simulation time: 0 hr 1 min 48 sec) 
Heartbeat CPU 0 instructions: 90000002 cycles: 38032138 heartbeat IPC: 2.31964 cumulative IPC: 2.36642 (Simulation time: 0 hr 2 min 2 sec) 
Heartbeat CPU 0 instructions: 100000000 cycles: 42329068 heartbeat IPC: 2.32724 cumulative IPC: 2.36244 (Simulation time: 0 hr 2 min 16 sec) 

Warmup complete CPU 0 instructions: 100000001 cycles: 42329069 (Simulation time: 0 hr 2 min 16 sec) 

Heartbeat CPU 0 instructions: 110000001 cycles: 49391674 heartbeat IPC: 1.41591 cumulative IPC: 1.41591 (Simulation time: 0 hr 2 min 33 sec) 
Heartbeat CPU 0 instructions: 120000000 cycles: 58893955 heartbeat IPC: 1.05238 cumulative IPC: 1.20737 (Simulation time: 0 hr 2 min 53 sec) 
Heartbeat CPU 0 instructions: 130000000 cycles: 63719712 heartbeat IPC: 2.07221 cumulative IPC: 1.40248 (Simulation time: 0 hr 3 min 10 sec) 
Heartbeat CPU 0 instructions: 140000000 cycles: 68649096 heartbeat IPC: 2.02865 cumulative IPC: 1.51976 (Simulation time: 0 hr 3 min 27 sec) 
Heartbeat CPU 0 instructions: 150000002 cycles: 75476933 heartbeat IPC: 1.46459 cumulative IPC: 1.50839 (Simulation time: 0 hr 3 min 45 sec) 
Heartbeat CPU 0 instructions: 160000000 cycles: 83311218 heartbeat IPC: 1.27644 cumulative IPC: 1.46405 (Simulation time: 0 hr 4 min 3 sec) 
Heartbeat CPU 0 instructions: 170000000 cycles: 90719129 heartbeat IPC: 1.34991 cumulative IPC: 1.44658 (Simulation time: 0 hr 4 min 21 sec) 
Heartbeat CPU 0 instructions: 180000000 cycles: 98024666 heartbeat IPC: 1.36882 cumulative IPC: 1.43638 (Simulation time: 0 hr 4 min 39 sec) 
Heartbeat CPU 0 instructions: 190000002 cycles: 105193390 heartbeat IPC: 1.39495 cumulative IPC: 1.43165 (Simulation time: 0 hr 4 min 56 sec) 
Heartbeat CPU 0 instructions: 200000000 cycles: 112425983 heartbeat IPC: 1.38263 cumulative IPC: 1.4266 (Simulation time: 0 hr 5 min 14 sec) 
Heartbeat CPU 0 instructions: 210000000 cycles: 119296029 heartbeat IPC: 1.45559 cumulative IPC: 1.42918 (Simulation time: 0 hr 5 min 31 sec) 
Heartbeat CPU 0 instructions: 220000000 cycles: 126063675 heartbeat IPC: 1.47762 cumulative IPC: 1.4331 (Simulation time: 0 hr 5 min 48 sec) 
Heartbeat CPU 0 instructions: 230000003 cycles: 132790008 heartbeat IPC: 1.48669 cumulative IPC: 1.43708 (Simulation time: 0 hr 6 min 5 sec) 
Heartbeat CPU 0 instructions: 240000000 cycles: 139535897 heartbeat IPC: 1.48238 cumulative IPC: 1.44023 (Simulation time: 0 hr 6 min 22 sec) 
Heartbeat CPU 0 instructions: 250000001 cycles: 146268571 heartbeat IPC: 1.48529 cumulative IPC: 1.44315 (Simulation time: 0 hr 6 min 39 sec) 
Heartbeat CPU 0 instructions: 260000000 cycles: 152975266 heartbeat IPC: 1.49105 cumulative IPC: 1.44605 (Simulation time: 0 hr 6 min 55 sec) 
Heartbeat CPU 0 instructions: 270000001 cycles: 159953168 heartbeat IPC: 1.4331 cumulative IPC: 1.44528 (Simulation time: 0 hr 7 min 13 sec) 
Heartbeat CPU 0 instructions: 280000000 cycles: 167481545 heartbeat IPC: 1.32831 cumulative IPC: 1.43825 (Simulation time: 0 hr 7 min 31 sec) 
Heartbeat CPU 0 instructions: 290000000 cycles: 175397721 heartbeat IPC: 1.26324 cumulative IPC: 1.42783 (Simulation time: 0 hr 7 min 49 sec) 
Heartbeat CPU 0 instructions: 300000000 cycles: 183572303 heartbeat IPC: 1.2233 cumulative IPC: 1.416 (Simulation time: 0 hr 8 min 7 sec) 
Heartbeat CPU 0 instructions: 310000002 cycles: 191880333 heartbeat IPC: 1.20366 cumulative IPC: 1.4042 (Simulation time: 0 hr 8 min 26 sec) 
Heartbeat CPU 0 instructions: 320000000 cycles: 201768400 heartbeat IPC: 1.01132 cumulative IPC: 1.37984 (Simulation time: 0 hr 8 min 46 sec) 
Heartbeat CPU 0 instructions: 330000002 cycles: 206418919 heartbeat IPC: 2.1503 cumulative IPC: 1.40167 (Simulation time: 0 hr 9 min 3 sec) 
Heartbeat CPU 0 instructions: 340000000 cycles: 211655873 heartbeat IPC: 1.90951 cumulative IPC: 1.41738 (Simulation time: 0 hr 9 min 20 sec) 
Heartbeat CPU 0 instructions: 350000000 cycles: 218877307 heartbeat IPC: 1.38477 cumulative IPC: 1.41604 (Simulation time: 0 hr 9 min 39 sec) 
Heartbeat CPU 0 instructions: 360000000 cycles: 226542510 heartbeat IPC: 1.3046 cumulative IPC: 1.41141 (Simulation time: 0 hr 9 min 57 sec) 
Heartbeat CPU 0 instructions: 370000000 cycles: 233953146 heartbeat IPC: 1.34941 cumulative IPC: 1.40901 (Simulation time: 0 hr 10 min 14 sec) 
Heartbeat CPU 0 instructions: 380000000 cycles: 241227568 heartbeat IPC: 1.37468 cumulative IPC: 1.40775 (Simulation time: 0 hr 10 min 32 sec) 
Heartbeat CPU 0 instructions: 390000000 cycles: 249348935 heartbeat IPC: 1.23132 cumulative IPC: 1.40083 (Simulation time: 0 hr 10 min 50 sec) 
Heartbeat CPU 0 instructions: 400000000 cycles: 257551929 heartbeat IPC: 1.21907 cumulative IPC: 1.3939 (Simulation time: 0 hr 11 min 9 sec) 
Heartbeat CPU 0 instructions: 410000001 cycles: 265366706 heartbeat IPC: 1.27963 cumulative IPC: 1.3899 (Simulation time: 0 hr 11 min 27 sec) 
Heartbeat CPU 0 instructions: 420000000 cycles: 273415426 heartbeat IPC: 1.24243 cumulative IPC: 1.38476 (Simulation time: 0 hr 11 min 45 sec) 
Heartbeat CPU 0 instructions: 430000001 cycles: 281675453 heartbeat IPC: 1.21065 cumulative IPC: 1.37875 (Simulation time: 0 hr 12 min 4 sec) 
Heartbeat CPU 0 instructions: 440000000 cycles: 289714771 heartbeat IPC: 1.24389 cumulative IPC: 1.37437 (Simulation time: 0 hr 12 min 22 sec) 
Heartbeat CPU 0 instructions: 450000001 cycles: 297585871 heartbeat IPC: 1.27047 cumulative IPC: 1.37117 (Simulation time: 0 hr 12 min 40 sec) 
Heartbeat CPU 0 instructions: 460000000 cycles: 307452241 heartbeat IPC: 1.01354 cumulative IPC: 1.35786 (Simulation time: 0 hr 13 min 0 sec) 
Heartbeat CPU 0 instructions: 470000002 cycles: 312099173 heartbeat IPC: 2.15196 cumulative IPC: 1.37154 (Simulation time: 0 hr 13 min 17 sec) 
Heartbeat CPU 0 instructions: 480000000 cycles: 317355879 heartbeat IPC: 1.90233 cumulative IPC: 1.38168 (Simulation time: 0 hr 13 min 34 sec) 
Heartbeat CPU 0 instructions: 490000001 cycles: 324671865 heartbeat IPC: 1.36687 cumulative IPC: 1.3813 (Simulation time: 0 hr 13 min 53 sec) 
Heartbeat CPU 0 instructions: 500000000 cycles: 333402658 heartbeat IPC: 1.14537 cumulative IPC: 1.37422 (Simulation time: 0 hr 14 min 13 sec) 
Heartbeat CPU 0 instructions: 510000002 cycles: 342135630 heartbeat IPC: 1.14509 cumulative IPC: 1.36755 (Simulation time: 0 hr 14 min 33 sec) 
Heartbeat CPU 0 instructions: 520000000 cycles: 350864463 heartbeat IPC: 1.14563 cumulative IPC: 1.36127 (Simulation time: 0 hr 14 min 54 sec) 
Heartbeat CPU 0 instructions: 530000000 cycles: 359573054 heartbeat IPC: 1.14829 cumulative IPC: 1.35542 (Simulation time: 0 hr 15 min 14 sec) 
Heartbeat CPU 0 instructions: 540000000 cycles: 367828295 heartbeat IPC: 1.21135 cumulative IPC: 1.35177 (Simulation time: 0 hr 15 min 33 sec) 
Heartbeat CPU 0 instructions: 550000000 cycles: 374867660 heartbeat IPC: 1.42058 cumulative IPC: 1.35323 (Simulation time: 0 hr 15 min 51 sec) 
Heartbeat CPU 0 instructions: 560000000 cycles: 381485736 heartbeat IPC: 1.51101 cumulative IPC: 1.35631 (Simulation time: 0 hr 16 min 8 sec) 
Heartbeat CPU 0 instructions: 570000002 cycles: 388079140 heartbeat IPC: 1.51667 cumulative IPC: 1.35936 (Simulation time: 0 hr 16 min 26 sec) 
Heartbeat CPU 0 instructions: 580000000 cycles: 394729369 heartbeat IPC: 1.50371 cumulative IPC: 1.36209 (Simulation time: 0 hr 16 min 43 sec) 
Heartbeat CPU 0 instructions: 590000002 cycles: 401422115 heartbeat IPC: 1.49416 cumulative IPC: 1.36455 (Simulation time: 0 hr 17 min 0 sec) 
Heartbeat CPU 0 instructions: 600000000 cycles: 408242744 heartbeat IPC: 1.46614 cumulative IPC: 1.36644 (Simulation time: 0 hr 17 min 17 sec) 
Finished CPU 0 instructions: 500000000 cycles: 365913683 cumulative IPC: 1.36644 (Simulation time: 0 hr 17 min 17 sec) 

CPU 0 Branch Prediction Accuracy: 93.4682% MPKI: 2.44079
Number of Branches: 18683822 Number of Mispredictions: 1220394
Number of LOAD Instructions: 142551610
Number of LOAD Instructions (ROI): 142551610
Number of STORE Instructions: 44807454
Number of STORE Instructions (ROI): 44807454
Total Destination Memory Operands: 48357071
Total Destination Memory Operands (ROI): 48357071
Total Source Memory Operands: 142551610
Total Source Memory Operands (ROI): 142551610
Number of DEPENDED LOADS: 7395108
Number of DEPENDED LOADS (ROI): 7395108
Number of SQ_ADDED: 48357051
Number of SQ_ADDED (ROI): 48357051
Number of LQ_ADDED: 157221949
Number of LQ_ADDED (ROI): 157221949
Number of Instructions read from trace: 600000256

ChampSim completed all CPUs

Region of Interest Statistics

CPU 0 cumulative IPC: 1.36644 instructions: 500000000 cycles: 365913683
ITLB TOTAL     ACCESS:   88176807  HIT:   88176738  MISS:         69
ITLB LOAD      ACCESS:   88176807  HIT:   88176738  MISS:         69
ITLB RFO       ACCESS:          0  HIT:          0  MISS:          0
ITLB PREFETCH  ACCESS:          0  HIT:          0  MISS:          0
ITLB WRITEBACK ACCESS:          0  HIT:          0  MISS:          0
ITLB PREFETCH  REQUESTED:          0  ISSUED:          0  USEFUL:          0  USELESS:          0
ITLB TOTAL MSHR MERGED:         85
ITLB LOAD MSHR MERGED:         85
ITLB RFO MSHR MERGED:          0
ITLB PREFETCH MSHR MERGED:          0
ITLB WRITEBACK MSHR MERGED:          0
ITLB TOTAL ACCESSES:   88176892 HITS:   88176738 MISSES:        154
ITLB LOAD ACCESSES:   88176892 HITS:   88176738 MISSES:        154
ITLB RFO ACCESSES:          0 HITS:          0 MISSES:          0
ITLB PREFETCH ACCESSES:          0 HITS:          0 MISSES:          0
ITLB WRITEBACK ACCESSES:          0 HITS:          0 MISSES:          0
ITLB RQ ACCESS:  500000000
ITLB RQ TO_CACHE:   88176892
ITLB RQ MERGED:  411823108
ITLB RQ FORWARD:          0
ITLB WQ ACCESS:          0
ITLB WQ TO_CACHE:          0
ITLB WQ MERGED:          0
ITLB WQ FORWARD:          0
DTLB TOTAL     ACCESS:   88203613  HIT:   88076198  MISS:     127415
DTLB LOAD      ACCESS:   59485640  HIT:   59393181  MISS:      92459
DTLB RFO       ACCESS:   28717973  HIT:   28683017  MISS:      34956
DTLB PREFETCH  ACCESS:          0  HIT:          0  MISS:          0
DTLB WRITEBACK ACCESS:          0  HIT:          0  MISS:          0
DTLB PREFETCH  REQUESTED:          0  ISSUED:          0  USEFUL:          0  USELESS:          0
DTLB TOTAL MSHR MERGED:     140965
DTLB LOAD MSHR MERGED:     107646
DTLB RFO MSHR MERGED:      33319
DTLB PREFETCH MSHR MERGED:          0
DTLB WRITEBACK MSHR MERGED:          0
DTLB TOTAL ACCESSES:   88344578 HITS:   88076198 MISSES:     268380
DTLB LOAD ACCESSES:   59593286 HITS:   59393181 MISSES:     200105
DTLB RFO ACCESSES:   28751292 HITS:   28683017 MISSES:      68275
DTLB PREFETCH ACCESSES:          0 HITS:          0 MISSES:          0
DTLB WRITEBACK ACCESSES:          0 HITS:          0 MISSES:          0
DTLB RQ ACCESS:  154558792
DTLB RQ TO_CACHE:   88344578
DTLB RQ MERGED:   66214214
DTLB RQ FORWARD:          0
DTLB WQ ACCESS:          0
DTLB WQ TO_CACHE:          0
DTLB WQ MERGED:          0
DTLB WQ FORWARD:          0
L1D TOTAL     ACCESS:  127958682  HIT:  124733165  MISS:    3225517
L1D LOAD      ACCESS:   53172223  HIT:   51976964  MISS:    1195259
L1D RFO       ACCESS:   37360178  HIT:   36745947  MISS:     614231
L1D PREFETCH  ACCESS:   37426281  HIT:   36010254  MISS:    1416027
L1D WRITEBACK ACCESS:          0  HIT:          0  MISS:          0
L1D PREFETCH  REQUESTED:   53657450  ISSUED:   52457340  USEFUL:     352157  USELESS:    1063835
L1D TOTAL MSHR MERGED:    2913269
L1D LOAD MSHR MERGED:     523938
L1D RFO MSHR MERGED:    1594355
L1D PREFETCH MSHR MERGED:     794976
L1D WRITEBACK MSHR MERGED:          0
L1D TOTAL ACCESSES:  130906782 HITS:  124767996 MISSES:    6138786
L1D LOAD ACCESSES:   53660296 HITS:   51979810 MISSES:    1680486
L1D RFO ACCESSES:   38952880 HITS:   36745947 MISSES:    2206933
L1D PREFETCH ACCESSES:   38293606 HITS:   36042239 MISSES:    2251367
L1D WRITEBACK ACCESSES:          0 HITS:          0 MISSES:          0
L1D RQ ACCESS:  113713900
L1D RQ TO_CACHE:   53657450
L1D RQ MERGED:   60053604
L1D RQ FORWARD:          0
L1D WQ ACCESS:   40844891
L1D WQ TO_CACHE:   38952880
L1D WQ MERGED:    1892011
L1D WQ FORWARD:      34831
L1I TOTAL     ACCESS:  108368624  HIT:  107809488  MISS:     559136
L1I LOAD      ACCESS:  108368624  HIT:  107809488  MISS:     559136
L1I RFO       ACCESS:          0  HIT:          0  MISS:          0
L1I PREFETCH  ACCESS:          0  HIT:          0  MISS:          0
L1I WRITEBACK ACCESS:          0  HIT:          0  MISS:          0
L1I PREFETCH  REQUESTED:          0  ISSUED:          0  USEFUL:          0  USELESS:          0
L1I TOTAL MSHR MERGED:     525705
L1I LOAD MSHR MERGED:     525705
L1I RFO MSHR MERGED:          0
L1I PREFETCH MSHR MERGED:          0
L1I WRITEBACK MSHR MERGED:          0
L1I TOTAL ACCESSES:  108894329 HITS:  107809488 MISSES:    1084841
L1I LOAD ACCESSES:  108894329 HITS:  107809488 MISSES:    1084841
L1I RFO ACCESSES:          0 HITS:          0 MISSES:          0
L1I PREFETCH ACCESSES:          0 HITS:          0 MISSES:          0
L1I WRITEBACK ACCESSES:          0 HITS:          0 MISSES:          0
L1I RQ ACCESS:  500000002
L1I RQ TO_CACHE:  108894329
L1I RQ MERGED:  391105673
L1I RQ FORWARD:          0
L1I WQ ACCESS:          0
L1I WQ TO_CACHE:          0
L1I WQ MERGED:          0
L1I WQ FORWARD:          0
L2C TOTAL     ACCESS:    4691908  HIT:    3865841  MISS:     826067
L2C LOAD      ACCESS:    1715571  HIT:    1562607  MISS:     152964
L2C RFO       ACCESS:     611153  HIT:     421112  MISS:     190041
L2C PREFETCH  ACCESS:    1662280  HIT:    1181403  MISS:     480877
L2C WRITEBACK ACCESS:     702904  HIT:     700719  MISS:       2185
L2C PREFETCH  REQUESTED:     256222  ISSUED:     256222  USEFUL:     173007  USELESS:     308536
L2C TOTAL MSHR MERGED:      13272
L2C LOAD MSHR MERGED:       4123
L2C RFO MSHR MERGED:          0
L2C PREFETCH MSHR MERGED:       9149
L2C WRITEBACK MSHR MERGED:          0
L2C TOTAL ACCESSES:    4712119 HITS:    3867450 MISSES:     844669
L2C LOAD ACCESSES:    1715684 HITS:    1562720 MISSES:     152964
L2C RFO ACCESSES:     612578 HITS:     422537 MISSES:     190041
L2C PREFETCH ACCESSES:    1680953 HITS:    1181474 MISSES:     499479
L2C WRITEBACK ACCESSES:     702904 HITS:     700719 MISSES:       2185
L2C RQ ACCESS:    2328262
L2C RQ TO_CACHE:    2326724
L2C RQ MERGED:          0
L2C RQ FORWARD:          0
L2C WQ ACCESS:     702904
L2C WQ TO_CACHE:     702904
L2C WQ MERGED:          0
L2C WQ FORWARD:       1609
LLC TOTAL     ACCESS:    1047545  HIT:     339419  MISS:     708126
LLC LOAD      ACCESS:     148837  HIT:      88206  MISS:      60631
LLC RFO       ACCESS:     190033  HIT:       6951  MISS:     183082
LLC PREFETCH  ACCESS:     487793  HIT:     121722  MISS:     366071
LLC WRITEBACK ACCESS:     220882  HIT:     122540  MISS:      98342
LLC PREFETCH  REQUESTED:          0  ISSUED:          0  USEFUL:       2083  USELESS:     365078
LLC TOTAL MSHR MERGED:       1789
LLC LOAD MSHR MERGED:        633
LLC RFO MSHR MERGED:          0
LLC PREFETCH MSHR MERGED:       1156
LLC WRITEBACK MSHR MERGED:          0
LLC TOTAL ACCESSES:    1049346 HITS:     339431 MISSES:     709915
LLC LOAD ACCESSES:     148841 HITS:      88210 MISSES:      60631
LLC RFO ACCESSES:     190041 HITS:       6959 MISSES:     183082
LLC PREFETCH ACCESSES:     489582 HITS:     121722 MISSES:     367860
LLC WRITEBACK ACCESSES:     220882 HITS:     122540 MISSES:      98342
LLC 0 RQ ACCESS:     338882
LLC 0 RQ TO_CACHE:     338870
LLC 0 RQ MERGED:          0
LLC 0 RQ FORWARD:          0
LLC WQ ACCESS:     220882
LLC WQ TO_CACHE:     220882
LLC WQ MERGED:          0
LLC WQ FORWARD:         12
Major fault: 0 Minor fault: 6811
CPU 0 L1D next line prefetcher final stats
CPU 0 L2C PC-based stride prefetcher final stats
All Misses: 826965
All Hits: 427563
SD Algo Stats - Switches: 0 SRR-Repls: 68131 BRR-Repls: 0

DRAM Statistics
 CHANNEL 0
 RQ ROW_BUFFER_HIT:     311908  ROW_BUFFER_MISS:     297772
 DBUS_CONGESTED:     425088
 WQ ROW_BUFFER_HIT:      25303  ROW_BUFFER_MISS:     192569  FULL:          0

 AVG_CONGESTED_CYCLE: 13
LOADS RETIRED: 119922929
INSTR RETIRED: 500000000
