
*** ChampSim Multicore Out-of-Order Simulator ***

Warmup Instructions: 100000000
Simulation Instructions: 500000000
Number of CPUs: 1
LLC sets: 2048
LLC ways: 16
Clean RRIP Policies: 1213220112132201 Dirty RRIP Policies: 2213021122130211 PSEL Width: 10 Track Set: 4294967295 PSEL Mask: 1 Demote Mask: 1340011013400110DS Algo: 0Window size: 0
Off-chip DRAM Size: 4096 MB Channels: 1 Width: 64-bit Data Rate: 1600 MT/s

CPU 0 runs /mnt/beegfs/iconst01/spec2017/cactuBSSN.trace.gz
NOT SORTED
TRACE STRING: /mnt/beegfs/iconst01/spec2017/cactuBSSN.trace.gz
SORTED
TRACE STRING: /mnt/beegfs/iconst01/spec2017/cactuBSSN.trace.gz
INITIAL
TRACE STRING: /mnt/beegfs/iconst01/spec2017/cactuBSSN.trace.gz

champsim_seed used: 838

CPU 0 L1D next line prefetcher
CPU 0 L2C IP-based stride prefetcher
Initialize DRRIP state
Assign rand_sets[0]: 454  LLC: 2048
rand_sets[0]: 454
Assign rand_sets[1]: 1662  LLC: 2048
rand_sets[1]: 1662
Assign rand_sets[2]: 1921  LLC: 2048
rand_sets[2]: 1921
Assign rand_sets[3]: 1131  LLC: 2048
rand_sets[3]: 1131
Assign rand_sets[4]: 331  LLC: 2048
rand_sets[4]: 331
Assign rand_sets[5]: 1531  LLC: 2048
rand_sets[5]: 1531
Assign rand_sets[6]: 482  LLC: 2048
rand_sets[6]: 482
Assign rand_sets[7]: 1275  LLC: 2048
rand_sets[7]: 1275
Assign rand_sets[8]: 1876  LLC: 2048
rand_sets[8]: 1876
Assign rand_sets[9]: 2038  LLC: 2048
rand_sets[9]: 2038
Assign rand_sets[10]: 701  LLC: 2048
rand_sets[10]: 701
Assign rand_sets[11]: 479  LLC: 2048
rand_sets[11]: 479
Assign rand_sets[12]: 892  LLC: 2048
rand_sets[12]: 892
Assign rand_sets[13]: 1820  LLC: 2048
rand_sets[13]: 1820
Assign rand_sets[14]: 1505  LLC: 2048
rand_sets[14]: 1505
Assign rand_sets[15]: 1159  LLC: 2048
rand_sets[15]: 1159
Assign rand_sets[16]: 513  LLC: 2048
rand_sets[16]: 513
Assign rand_sets[17]: 703  LLC: 2048
rand_sets[17]: 703
Assign rand_sets[18]: 561  LLC: 2048
rand_sets[18]: 561
Assign rand_sets[19]: 990  LLC: 2048
rand_sets[19]: 990
Assign rand_sets[20]: 342  LLC: 2048
rand_sets[20]: 342
Assign rand_sets[21]: 882  LLC: 2048
rand_sets[21]: 882
Assign rand_sets[22]: 15  LLC: 2048
rand_sets[22]: 15
Assign rand_sets[23]: 71  LLC: 2048
rand_sets[23]: 71
Assign rand_sets[24]: 1127  LLC: 2048
rand_sets[24]: 1127
Assign rand_sets[25]: 1382  LLC: 2048
rand_sets[25]: 1382
Assign rand_sets[26]: 647  LLC: 2048
rand_sets[26]: 647
Assign rand_sets[27]: 857  LLC: 2048
rand_sets[27]: 857
Assign rand_sets[28]: 1450  LLC: 2048
rand_sets[28]: 1450
Assign rand_sets[29]: 1160  LLC: 2048
rand_sets[29]: 1160
Assign rand_sets[30]: 1852  LLC: 2048
rand_sets[30]: 1852
Assign rand_sets[31]: 1881  LLC: 2048
rand_sets[31]: 1881
Assign rand_sets[32]: 1770  LLC: 2048
rand_sets[32]: 1770
Assign rand_sets[33]: 1622  LLC: 2048
rand_sets[33]: 1622
Assign rand_sets[34]: 275  LLC: 2048
rand_sets[34]: 275
Assign rand_sets[35]: 635  LLC: 2048
rand_sets[35]: 635
Assign rand_sets[36]: 466  LLC: 2048
rand_sets[36]: 466
Assign rand_sets[37]: 1413  LLC: 2048
rand_sets[37]: 1413
Assign rand_sets[38]: 417  LLC: 2048
rand_sets[38]: 417
Assign rand_sets[39]: 472  LLC: 2048
rand_sets[39]: 472
Assign rand_sets[40]: 1340  LLC: 2048
rand_sets[40]: 1340
Assign rand_sets[41]: 852  LLC: 2048
rand_sets[41]: 852
Assign rand_sets[42]: 1365  LLC: 2048
rand_sets[42]: 1365
Assign rand_sets[43]: 47  LLC: 2048
rand_sets[43]: 47
Assign rand_sets[44]: 823  LLC: 2048
rand_sets[44]: 823
Assign rand_sets[45]: 686  LLC: 2048
rand_sets[45]: 686
Assign rand_sets[46]: 1637  LLC: 2048
rand_sets[46]: 1637
Assign rand_sets[47]: 1115  LLC: 2048
rand_sets[47]: 1115
Assign rand_sets[48]: 986  LLC: 2048
rand_sets[48]: 986
Assign rand_sets[49]: 258  LLC: 2048
rand_sets[49]: 258
Assign rand_sets[50]: 633  LLC: 2048
rand_sets[50]: 633
Assign rand_sets[51]: 920  LLC: 2048
rand_sets[51]: 920
Assign rand_sets[52]: 204  LLC: 2048
rand_sets[52]: 204
Assign rand_sets[53]: 227  LLC: 2048
rand_sets[53]: 227
Assign rand_sets[54]: 1818  LLC: 2048
rand_sets[54]: 1818
Assign rand_sets[55]: 886  LLC: 2048
rand_sets[55]: 886
Assign rand_sets[56]: 1422  LLC: 2048
rand_sets[56]: 1422
Assign rand_sets[57]: 607  LLC: 2048
rand_sets[57]: 607
Assign rand_sets[58]: 217  LLC: 2048
rand_sets[58]: 217
Assign rand_sets[59]: 1945  LLC: 2048
rand_sets[59]: 1945
Assign rand_sets[60]: 143  LLC: 2048
rand_sets[60]: 143
Assign rand_sets[61]: 1311  LLC: 2048
rand_sets[61]: 1311
Assign rand_sets[62]: 319  LLC: 2048
rand_sets[62]: 319
Assign rand_sets[63]: 1846  LLC: 2048
rand_sets[63]: 1846
 CLEAN-RRIP-POLICY-1: 1-2-1-3-2-2-0-1- CLEAN-RRIP-POLICY-2: 1-2-1-3-2-2-0-1-
 DIRTY-RRIP-POLICY-1: 2-2-1-3-0-2-1-1- DIRTY-RRIP-POLICY-2: 2-2-1-3-0-2-1-1-
 PSEL width: 10
Heartbeat CPU 0 instructions: 10000000 cycles: 6588007 heartbeat IPC: 1.51791 cumulative IPC: 1.51791 (Simulation time: 0 hr 0 min 25 sec) 
Heartbeat CPU 0 instructions: 20000000 cycles: 13179599 heartbeat IPC: 1.51708 cumulative IPC: 1.5175 (Simulation time: 0 hr 0 min 49 sec) 
Heartbeat CPU 0 instructions: 30000003 cycles: 19772915 heartbeat IPC: 1.51669 cumulative IPC: 1.51723 (Simulation time: 0 hr 1 min 14 sec) 
Heartbeat CPU 0 instructions: 40000000 cycles: 26364664 heartbeat IPC: 1.51705 cumulative IPC: 1.51718 (Simulation time: 0 hr 1 min 38 sec) 
Heartbeat CPU 0 instructions: 50000001 cycles: 32957327 heartbeat IPC: 1.51684 cumulative IPC: 1.51711 (Simulation time: 0 hr 2 min 3 sec) 
Heartbeat CPU 0 instructions: 60000000 cycles: 39556119 heartbeat IPC: 1.51543 cumulative IPC: 1.51683 (Simulation time: 0 hr 2 min 28 sec) 
Heartbeat CPU 0 instructions: 70000003 cycles: 46154493 heartbeat IPC: 1.51553 cumulative IPC: 1.51665 (Simulation time: 0 hr 2 min 52 sec) 
Heartbeat CPU 0 instructions: 80000000 cycles: 52752532 heartbeat IPC: 1.5156 cumulative IPC: 1.51651 (Simulation time: 0 hr 3 min 17 sec) 
Heartbeat CPU 0 instructions: 90000002 cycles: 59348167 heartbeat IPC: 1.51615 cumulative IPC: 1.51647 (Simulation time: 0 hr 3 min 41 sec) 
Heartbeat CPU 0 instructions: 100000000 cycles: 65943208 heartbeat IPC: 1.51629 cumulative IPC: 1.51646 (Simulation time: 0 hr 4 min 6 sec) 

Warmup complete CPU 0 instructions: 100000002 cycles: 65943209 (Simulation time: 0 hr 4 min 6 sec) 

Heartbeat CPU 0 instructions: 110000000 cycles: 79183378 heartbeat IPC: 0.755277 cumulative IPC: 0.755277 (Simulation time: 0 hr 4 min 36 sec) 
Heartbeat CPU 0 instructions: 120000000 cycles: 92375432 heartbeat IPC: 0.758032 cumulative IPC: 0.756652 (Simulation time: 0 hr 5 min 6 sec) 
Heartbeat CPU 0 instructions: 130000001 cycles: 105643309 heartbeat IPC: 0.7537 cumulative IPC: 0.755666 (Simulation time: 0 hr 5 min 36 sec) 
Heartbeat CPU 0 instructions: 140000000 cycles: 118811772 heartbeat IPC: 0.75939 cumulative IPC: 0.756593 (Simulation time: 0 hr 6 min 6 sec) 
Heartbeat CPU 0 instructions: 150000001 cycles: 131989196 heartbeat IPC: 0.758874 cumulative IPC: 0.757048 (Simulation time: 0 hr 6 min 36 sec) 
Heartbeat CPU 0 instructions: 160000000 cycles: 145206702 heartbeat IPC: 0.756572 cumulative IPC: 0.756969 (Simulation time: 0 hr 7 min 6 sec) 
Heartbeat CPU 0 instructions: 170000000 cycles: 158408537 heartbeat IPC: 0.75747 cumulative IPC: 0.757041 (Simulation time: 0 hr 7 min 36 sec) 
Heartbeat CPU 0 instructions: 180000000 cycles: 171604303 heartbeat IPC: 0.757819 cumulative IPC: 0.757138 (Simulation time: 0 hr 8 min 6 sec) 
Heartbeat CPU 0 instructions: 190000000 cycles: 184758279 heartbeat IPC: 0.760226 cumulative IPC: 0.75748 (Simulation time: 0 hr 8 min 36 sec) 
Heartbeat CPU 0 instructions: 200000000 cycles: 198009296 heartbeat IPC: 0.754659 cumulative IPC: 0.757197 (Simulation time: 0 hr 9 min 6 sec) 
Heartbeat CPU 0 instructions: 210000002 cycles: 211219258 heartbeat IPC: 0.757005 cumulative IPC: 0.757179 (Simulation time: 0 hr 9 min 36 sec) 
Heartbeat CPU 0 instructions: 220000000 cycles: 224390368 heartbeat IPC: 0.759237 cumulative IPC: 0.75735 (Simulation time: 0 hr 10 min 6 sec) 
Heartbeat CPU 0 instructions: 230000003 cycles: 237626307 heartbeat IPC: 0.755519 cumulative IPC: 0.757209 (Simulation time: 0 hr 10 min 36 sec) 
Heartbeat CPU 0 instructions: 240000000 cycles: 250806375 heartbeat IPC: 0.758721 cumulative IPC: 0.757317 (Simulation time: 0 hr 11 min 6 sec) 
Heartbeat CPU 0 instructions: 250000001 cycles: 264019483 heartbeat IPC: 0.756824 cumulative IPC: 0.757284 (Simulation time: 0 hr 11 min 36 sec) 
Heartbeat CPU 0 instructions: 260000000 cycles: 277221925 heartbeat IPC: 0.757436 cumulative IPC: 0.757294 (Simulation time: 0 hr 12 min 6 sec) 
Heartbeat CPU 0 instructions: 270000003 cycles: 290453418 heartbeat IPC: 0.755773 cumulative IPC: 0.757204 (Simulation time: 0 hr 12 min 36 sec) 
Heartbeat CPU 0 instructions: 280000000 cycles: 303648987 heartbeat IPC: 0.75783 cumulative IPC: 0.757239 (Simulation time: 0 hr 13 min 6 sec) 
Heartbeat CPU 0 instructions: 290000000 cycles: 316810022 heartbeat IPC: 0.759819 cumulative IPC: 0.757374 (Simulation time: 0 hr 13 min 36 sec) 
Heartbeat CPU 0 instructions: 300000000 cycles: 330050174 heartbeat IPC: 0.755278 cumulative IPC: 0.757269 (Simulation time: 0 hr 14 min 6 sec) 
Heartbeat CPU 0 instructions: 310000001 cycles: 343214989 heartbeat IPC: 0.759601 cumulative IPC: 0.75738 (Simulation time: 0 hr 14 min 36 sec) 
Heartbeat CPU 0 instructions: 320000000 cycles: 356398538 heartbeat IPC: 0.758521 cumulative IPC: 0.757431 (Simulation time: 0 hr 15 min 6 sec) 
Heartbeat CPU 0 instructions: 330000002 cycles: 369590261 heartbeat IPC: 0.758051 cumulative IPC: 0.757458 (Simulation time: 0 hr 15 min 36 sec) 
Heartbeat CPU 0 instructions: 340000000 cycles: 382811946 heartbeat IPC: 0.756333 cumulative IPC: 0.757411 (Simulation time: 0 hr 16 min 6 sec) 
Heartbeat CPU 0 instructions: 350000000 cycles: 396056105 heartbeat IPC: 0.75505 cumulative IPC: 0.757317 (Simulation time: 0 hr 16 min 36 sec) 
Heartbeat CPU 0 instructions: 360000000 cycles: 409262259 heartbeat IPC: 0.757223 cumulative IPC: 0.757313 (Simulation time: 0 hr 17 min 6 sec) 
Heartbeat CPU 0 instructions: 370000002 cycles: 422526726 heartbeat IPC: 0.753894 cumulative IPC: 0.757186 (Simulation time: 0 hr 17 min 36 sec) 
Heartbeat CPU 0 instructions: 380000000 cycles: 435723180 heartbeat IPC: 0.757779 cumulative IPC: 0.757207 (Simulation time: 0 hr 18 min 6 sec) 
Heartbeat CPU 0 instructions: 390000000 cycles: 448893161 heartbeat IPC: 0.759303 cumulative IPC: 0.757279 (Simulation time: 0 hr 18 min 36 sec) 
Heartbeat CPU 0 instructions: 400000000 cycles: 462084261 heartbeat IPC: 0.758087 cumulative IPC: 0.757306 (Simulation time: 0 hr 19 min 6 sec) 
Heartbeat CPU 0 instructions: 410000001 cycles: 475325878 heartbeat IPC: 0.755195 cumulative IPC: 0.757238 (Simulation time: 0 hr 19 min 36 sec) 
Heartbeat CPU 0 instructions: 420000000 cycles: 488494733 heartbeat IPC: 0.759367 cumulative IPC: 0.757304 (Simulation time: 0 hr 20 min 6 sec) 
Heartbeat CPU 0 instructions: 430000001 cycles: 501677435 heartbeat IPC: 0.75857 cumulative IPC: 0.757342 (Simulation time: 0 hr 20 min 36 sec) 
Heartbeat CPU 0 instructions: 440000000 cycles: 514842881 heartbeat IPC: 0.759564 cumulative IPC: 0.757408 (Simulation time: 0 hr 21 min 6 sec) 
Heartbeat CPU 0 instructions: 450000002 cycles: 528133996 heartbeat IPC: 0.752382 cumulative IPC: 0.757263 (Simulation time: 0 hr 21 min 36 sec) 
Heartbeat CPU 0 instructions: 460000000 cycles: 541340846 heartbeat IPC: 0.757183 cumulative IPC: 0.757261 (Simulation time: 0 hr 22 min 6 sec) 
Heartbeat CPU 0 instructions: 470000003 cycles: 554532322 heartbeat IPC: 0.758066 cumulative IPC: 0.757283 (Simulation time: 0 hr 22 min 36 sec) 
Heartbeat CPU 0 instructions: 480000000 cycles: 567756867 heartbeat IPC: 0.756169 cumulative IPC: 0.757253 (Simulation time: 0 hr 23 min 6 sec) 
Heartbeat CPU 0 instructions: 490000000 cycles: 580957655 heartbeat IPC: 0.757531 cumulative IPC: 0.75726 (Simulation time: 0 hr 23 min 36 sec) 
Heartbeat CPU 0 instructions: 500000000 cycles: 594144519 heartbeat IPC: 0.75833 cumulative IPC: 0.757287 (Simulation time: 0 hr 24 min 7 sec) 
Heartbeat CPU 0 instructions: 510000001 cycles: 607309028 heartbeat IPC: 0.759618 cumulative IPC: 0.757344 (Simulation time: 0 hr 24 min 37 sec) 
Heartbeat CPU 0 instructions: 520000000 cycles: 620569932 heartbeat IPC: 0.754096 cumulative IPC: 0.757266 (Simulation time: 0 hr 25 min 7 sec) 
Heartbeat CPU 0 instructions: 530000000 cycles: 633798855 heartbeat IPC: 0.755919 cumulative IPC: 0.757235 (Simulation time: 0 hr 25 min 37 sec) 
Heartbeat CPU 0 instructions: 540000000 cycles: 647014261 heartbeat IPC: 0.756693 cumulative IPC: 0.757222 (Simulation time: 0 hr 26 min 7 sec) 
Heartbeat CPU 0 instructions: 550000002 cycles: 660259350 heartbeat IPC: 0.754997 cumulative IPC: 0.757173 (Simulation time: 0 hr 26 min 38 sec) 
Heartbeat CPU 0 instructions: 560000000 cycles: 673448075 heartbeat IPC: 0.758223 cumulative IPC: 0.757196 (Simulation time: 0 hr 27 min 8 sec) 
Heartbeat CPU 0 instructions: 570000001 cycles: 686644083 heartbeat IPC: 0.757805 cumulative IPC: 0.757209 (Simulation time: 0 hr 27 min 39 sec) 
Heartbeat CPU 0 instructions: 580000000 cycles: 699838976 heartbeat IPC: 0.757869 cumulative IPC: 0.757222 (Simulation time: 0 hr 28 min 9 sec) 
Heartbeat CPU 0 instructions: 590000003 cycles: 713057332 heartbeat IPC: 0.756524 cumulative IPC: 0.757208 (Simulation time: 0 hr 28 min 39 sec) 
Heartbeat CPU 0 instructions: 600000000 cycles: 726306795 heartbeat IPC: 0.754747 cumulative IPC: 0.757159 (Simulation time: 0 hr 29 min 9 sec) 
Finished CPU 0 instructions: 500000000 cycles: 660363596 cumulative IPC: 0.757159 (Simulation time: 0 hr 29 min 9 sec) 

CPU 0 Branch Prediction Accuracy: 99.968% MPKI: 0.002246
Number of Branches: 3513331 Number of Mispredictions: 1123
Number of LOAD Instructions: 287251172
Number of LOAD Instructions (ROI): 287251172
Number of STORE Instructions: 51060820
Number of STORE Instructions (ROI): 51060820
Total Destination Memory Operands: 51166221
Total Destination Memory Operands (ROI): 51166221
Total Source Memory Operands: 287251172
Total Source Memory Operands (ROI): 287251172
Number of DEPENDED LOADS: 9555457
Number of DEPENDED LOADS (ROI): 9555457
Number of SQ_ADDED: 51166208
Number of SQ_ADDED (ROI): 51166208
Number of LQ_ADDED: 290420368
Number of LQ_ADDED (ROI): 290420368
Number of Instructions read from trace: 600000257

ChampSim completed all CPUs

Region of Interest Statistics

CPU 0 cumulative IPC: 0.757159 instructions: 500000000 cycles: 660363596
ITLB TOTAL     ACCESS:  108949250  HIT:  108949250  MISS:          0
ITLB LOAD      ACCESS:  108949250  HIT:  108949250  MISS:          0
ITLB RFO       ACCESS:          0  HIT:          0  MISS:          0
ITLB PREFETCH  ACCESS:          0  HIT:          0  MISS:          0
ITLB WRITEBACK ACCESS:          0  HIT:          0  MISS:          0
ITLB PREFETCH  REQUESTED:          0  ISSUED:          0  USEFUL:          0  USELESS:          0
ITLB TOTAL MSHR MERGED:          0
ITLB LOAD MSHR MERGED:          0
ITLB RFO MSHR MERGED:          0
ITLB PREFETCH MSHR MERGED:          0
ITLB WRITEBACK MSHR MERGED:          0
ITLB TOTAL ACCESSES:  108949250 HITS:  108949250 MISSES:          0
ITLB LOAD ACCESSES:  108949250 HITS:  108949250 MISSES:          0
ITLB RFO ACCESSES:          0 HITS:          0 MISSES:          0
ITLB PREFETCH ACCESSES:          0 HITS:          0 MISSES:          0
ITLB WRITEBACK ACCESSES:          0 HITS:          0 MISSES:          0
ITLB RQ ACCESS:  500000001
ITLB RQ TO_CACHE:  108949250
ITLB RQ MERGED:  391050751
ITLB RQ FORWARD:          0
ITLB WQ ACCESS:          0
ITLB WQ TO_CACHE:          0
ITLB WQ MERGED:          0
ITLB WQ FORWARD:          0
DTLB TOTAL     ACCESS:  171131095  HIT:  161114760  MISS:   10016335
DTLB LOAD      ACCESS:  143471874  HIT:  135595789  MISS:    7876085
DTLB RFO       ACCESS:   27659221  HIT:   25518971  MISS:    2140250
DTLB PREFETCH  ACCESS:          0  HIT:          0  MISS:          0
DTLB WRITEBACK ACCESS:          0  HIT:          0  MISS:          0
DTLB PREFETCH  REQUESTED:          0  ISSUED:          0  USEFUL:          0  USELESS:          0
DTLB TOTAL MSHR MERGED:     360459
DTLB LOAD MSHR MERGED:     360459
DTLB RFO MSHR MERGED:          0
DTLB PREFETCH MSHR MERGED:          0
DTLB WRITEBACK MSHR MERGED:          0
DTLB TOTAL ACCESSES:  171491554 HITS:  161114760 MISSES:   10376794
DTLB LOAD ACCESSES:  143832333 HITS:  135595789 MISSES:    8236544
DTLB RFO ACCESSES:   27659221 HITS:   25518971 MISSES:    2140250
DTLB PREFETCH ACCESSES:          0 HITS:          0 MISSES:          0
DTLB WRITEBACK ACCESSES:          0 HITS:          0 MISSES:          0
DTLB RQ ACCESS:  274072360
DTLB RQ TO_CACHE:  171491554
DTLB RQ MERGED:  102580806
DTLB RQ FORWARD:          0
DTLB WQ ACCESS:          0
DTLB WQ TO_CACHE:          0
DTLB WQ MERGED:          0
DTLB WQ FORWARD:          0
L1D TOTAL     ACCESS:  350960838  HIT:  283761583  MISS:   67199255
L1D LOAD      ACCESS:  175627147  HIT:  142587936  MISS:   33039211
L1D RFO       ACCESS:   42020143  HIT:   39214705  MISS:    2805438
L1D PREFETCH  ACCESS:  133313548  HIT:  101958942  MISS:   31354606
L1D WRITEBACK ACCESS:          0  HIT:          0  MISS:          0
L1D PREFETCH  REQUESTED:  176231088  ISSUED:  175292992  USEFUL:    2180727  USELESS:   29173881
L1D TOTAL MSHR MERGED:    1482644
L1D LOAD MSHR MERGED:     703909
L1D RFO MSHR MERGED:     348887
L1D PREFETCH MSHR MERGED:     429848
L1D WRITEBACK MSHR MERGED:          0
L1D TOTAL ACCESSES:  352555550 HITS:  283873651 MISSES:   68681899
L1D LOAD ACCESSES:  176237270 HITS:  142594118 MISSES:   33643152
L1D RFO ACCESSES:   42368371 HITS:   39214705 MISSES:    3153666
L1D PREFETCH ACCESSES:  133949909 HITS:  102064828 MISSES:   31885081
L1D WRITEBACK ACCESSES:          0 HITS:          0 MISSES:          0
L1D RQ ACCESS:  231433887
L1D RQ TO_CACHE:  176231088
L1D RQ MERGED:   55196617
L1D RQ FORWARD:          0
L1D WQ ACCESS:   42638475
L1D WQ TO_CACHE:   42368371
L1D WQ MERGED:     270104
L1D WQ FORWARD:     112068
L1I TOTAL     ACCESS:  109342693  HIT:   77826989  MISS:   31515704
L1I LOAD      ACCESS:  109342693  HIT:   77826989  MISS:   31515704
L1I RFO       ACCESS:          0  HIT:          0  MISS:          0
L1I PREFETCH  ACCESS:          0  HIT:          0  MISS:          0
L1I WRITEBACK ACCESS:          0  HIT:          0  MISS:          0
L1I PREFETCH  REQUESTED:          0  ISSUED:          0  USEFUL:          0  USELESS:          0
L1I TOTAL MSHR MERGED:   30750779
L1I LOAD MSHR MERGED:   30750779
L1I RFO MSHR MERGED:          0
L1I PREFETCH MSHR MERGED:          0
L1I WRITEBACK MSHR MERGED:          0
L1I TOTAL ACCESSES:  140093474 HITS:   77826989 MISSES:   62266485
L1I LOAD ACCESSES:  140093474 HITS:   77826989 MISSES:   62266485
L1I RFO ACCESSES:          0 HITS:          0 MISSES:          0
L1I PREFETCH ACCESSES:          0 HITS:          0 MISSES:          0
L1I WRITEBACK ACCESSES:          0 HITS:          0 MISSES:          0
L1I RQ ACCESS:  500000003
L1I RQ TO_CACHE:  140093474
L1I RQ MERGED:  359906529
L1I RQ FORWARD:          0
L1I WQ ACCESS:          0
L1I WQ TO_CACHE:          0
L1I WQ MERGED:          0
L1I WQ FORWARD:          0
L2C TOTAL     ACCESS:  113703193  HIT:  110703432  MISS:    2999761
L2C LOAD      ACCESS:   64453086  HIT:   63893436  MISS:     559650
L2C RFO       ACCESS:    2802872  HIT:    2193662  MISS:     609210
L2C PREFETCH  ACCESS:   43286268  HIT:   41461606  MISS:    1824662
L2C WRITEBACK ACCESS:    3160967  HIT:    3154728  MISS:       6239
L2C PREFETCH  REQUESTED:   15134445  ISSUED:   14619741  USEFUL:    1700073  USELESS:     124591
L2C TOTAL MSHR MERGED:      12525
L2C LOAD MSHR MERGED:          0
L2C RFO MSHR MERGED:          0
L2C PREFETCH MSHR MERGED:      12525
L2C WRITEBACK MSHR MERGED:          0
L2C TOTAL ACCESSES:  113901748 HITS:  110709305 MISSES:    3192443
L2C LOAD ACCESSES:   64454948 HITS:   63895297 MISSES:     559651
L2C RFO ACCESSES:    2804779 HITS:    2195569 MISSES:     609210
L2C PREFETCH ACCESSES:   43481054 HITS:   41463711 MISSES:    2017343
L2C WRITEBACK ACCESSES:    3160967 HITS:    3154728 MISSES:       6239
L2C RQ ACCESS:   67259728
L2C RQ TO_CACHE:   67255960
L2C RQ MERGED:          0
L2C RQ FORWARD:          0
L2C WQ ACCESS:    3160967
L2C WQ TO_CACHE:    3160967
L2C WQ MERGED:          0
L2C WQ FORWARD:       5873
LLC TOTAL     ACCESS:    3705116  HIT:    1947415  MISS:    1757701
LLC LOAD      ACCESS:     559622  HIT:     497993  MISS:      61629
LLC RFO       ACCESS:     527328  HIT:     238509  MISS:     288819
LLC PREFETCH  ACCESS:    1999977  HIT:     688299  MISS:    1311678
LLC WRITEBACK ACCESS:     618189  HIT:     522614  MISS:      95575
LLC PREFETCH  REQUESTED:          0  ISSUED:          0  USEFUL:      44156  USELESS:    1259518
LLC TOTAL MSHR MERGED:       4181
LLC LOAD MSHR MERGED:          0
LLC RFO MSHR MERGED:          0
LLC PREFETCH MSHR MERGED:       4181
LLC WRITEBACK MSHR MERGED:          0
LLC TOTAL ACCESSES:    3791289 HITS:    2029407 MISSES:    1761882
LLC LOAD ACCESSES:     559650 HITS:     498021 MISSES:      61629
LLC RFO ACCESSES:     609210 HITS:     320391 MISSES:     288819
LLC PREFETCH ACCESSES:    2004240 HITS:     688381 MISSES:    1315859
LLC WRITEBACK ACCESSES:     618189 HITS:     522614 MISSES:      95575
LLC 0 RQ ACCESS:    1168861
LLC 0 RQ TO_CACHE:    1086951
LLC 0 RQ MERGED:          0
LLC 0 RQ FORWARD:          0
LLC WQ ACCESS:     618189
LLC WQ TO_CACHE:     618189
LLC WQ MERGED:          0
LLC WQ FORWARD:      81992
Major fault: 0 Minor fault: 12800
CPU 0 L1D next line prefetcher final stats
CPU 0 L2C PC-based stride prefetcher final stats
All Misses: 2122759
All Hits: 2433321
SD Algo Stats - Switches: 0 SRR-Repls: 78534 BRR-Repls: 0

DRAM Statistics
 CHANNEL 0
 RQ ROW_BUFFER_HIT:     821612  ROW_BUFFER_MISS:     839812
 DBUS_CONGESTED:     884880
 WQ ROW_BUFFER_HIT:      42722  ROW_BUFFER_MISS:     257832  FULL:          0

 AVG_CONGESTED_CYCLE: 13
LOADS RETIRED: 239375970
INSTR RETIRED: 500000000
