
*** ChampSim Multicore Out-of-Order Simulator ***

Warmup Instructions: 100000000
Simulation Instructions: 500000000
Number of CPUs: 1
LLC sets: 2048
LLC ways: 16
Clean RRIP Policies: 2213230222132302 Dirty RRIP Policies: 2203130222031302 PSEL Width: 10 Track Set: 4294967295 PSEL Mask: 1 Demote Mask: 4040100040401000DS Algo: 0Window size: 0
Off-chip DRAM Size: 4096 MB Channels: 1 Width: 64-bit Data Rate: 1600 MT/s

CPU 0 runs /mnt/beegfs/iconst01/spec2017/Xz.trace.gz
NOT SORTED
TRACE STRING: /mnt/beegfs/iconst01/spec2017/Xz.trace.gz
SORTED
TRACE STRING: /mnt/beegfs/iconst01/spec2017/Xz.trace.gz
INITIAL
TRACE STRING: /mnt/beegfs/iconst01/spec2017/Xz.trace.gz

champsim_seed used: 210

CPU 0 L1D next line prefetcher
CPU 0 L2C IP-based stride prefetcher
Initialize DRRIP state
Assign rand_sets[0]: 454  LLC: 2048
rand_sets[0]: 454
Assign rand_sets[1]: 1662  LLC: 2048
rand_sets[1]: 1662
Assign rand_sets[2]: 1921  LLC: 2048
rand_sets[2]: 1921
Assign rand_sets[3]: 1131  LLC: 2048
rand_sets[3]: 1131
Assign rand_sets[4]: 331  LLC: 2048
rand_sets[4]: 331
Assign rand_sets[5]: 1531  LLC: 2048
rand_sets[5]: 1531
Assign rand_sets[6]: 482  LLC: 2048
rand_sets[6]: 482
Assign rand_sets[7]: 1275  LLC: 2048
rand_sets[7]: 1275
Assign rand_sets[8]: 1876  LLC: 2048
rand_sets[8]: 1876
Assign rand_sets[9]: 2038  LLC: 2048
rand_sets[9]: 2038
Assign rand_sets[10]: 701  LLC: 2048
rand_sets[10]: 701
Assign rand_sets[11]: 479  LLC: 2048
rand_sets[11]: 479
Assign rand_sets[12]: 892  LLC: 2048
rand_sets[12]: 892
Assign rand_sets[13]: 1820  LLC: 2048
rand_sets[13]: 1820
Assign rand_sets[14]: 1505  LLC: 2048
rand_sets[14]: 1505
Assign rand_sets[15]: 1159  LLC: 2048
rand_sets[15]: 1159
Assign rand_sets[16]: 513  LLC: 2048
rand_sets[16]: 513
Assign rand_sets[17]: 703  LLC: 2048
rand_sets[17]: 703
Assign rand_sets[18]: 561  LLC: 2048
rand_sets[18]: 561
Assign rand_sets[19]: 990  LLC: 2048
rand_sets[19]: 990
Assign rand_sets[20]: 342  LLC: 2048
rand_sets[20]: 342
Assign rand_sets[21]: 882  LLC: 2048
rand_sets[21]: 882
Assign rand_sets[22]: 15  LLC: 2048
rand_sets[22]: 15
Assign rand_sets[23]: 71  LLC: 2048
rand_sets[23]: 71
Assign rand_sets[24]: 1127  LLC: 2048
rand_sets[24]: 1127
Assign rand_sets[25]: 1382  LLC: 2048
rand_sets[25]: 1382
Assign rand_sets[26]: 647  LLC: 2048
rand_sets[26]: 647
Assign rand_sets[27]: 857  LLC: 2048
rand_sets[27]: 857
Assign rand_sets[28]: 1450  LLC: 2048
rand_sets[28]: 1450
Assign rand_sets[29]: 1160  LLC: 2048
rand_sets[29]: 1160
Assign rand_sets[30]: 1852  LLC: 2048
rand_sets[30]: 1852
Assign rand_sets[31]: 1881  LLC: 2048
rand_sets[31]: 1881
Assign rand_sets[32]: 1770  LLC: 2048
rand_sets[32]: 1770
Assign rand_sets[33]: 1622  LLC: 2048
rand_sets[33]: 1622
Assign rand_sets[34]: 275  LLC: 2048
rand_sets[34]: 275
Assign rand_sets[35]: 635  LLC: 2048
rand_sets[35]: 635
Assign rand_sets[36]: 466  LLC: 2048
rand_sets[36]: 466
Assign rand_sets[37]: 1413  LLC: 2048
rand_sets[37]: 1413
Assign rand_sets[38]: 417  LLC: 2048
rand_sets[38]: 417
Assign rand_sets[39]: 472  LLC: 2048
rand_sets[39]: 472
Assign rand_sets[40]: 1340  LLC: 2048
rand_sets[40]: 1340
Assign rand_sets[41]: 852  LLC: 2048
rand_sets[41]: 852
Assign rand_sets[42]: 1365  LLC: 2048
rand_sets[42]: 1365
Assign rand_sets[43]: 47  LLC: 2048
rand_sets[43]: 47
Assign rand_sets[44]: 823  LLC: 2048
rand_sets[44]: 823
Assign rand_sets[45]: 686  LLC: 2048
rand_sets[45]: 686
Assign rand_sets[46]: 1637  LLC: 2048
rand_sets[46]: 1637
Assign rand_sets[47]: 1115  LLC: 2048
rand_sets[47]: 1115
Assign rand_sets[48]: 986  LLC: 2048
rand_sets[48]: 986
Assign rand_sets[49]: 258  LLC: 2048
rand_sets[49]: 258
Assign rand_sets[50]: 633  LLC: 2048
rand_sets[50]: 633
Assign rand_sets[51]: 920  LLC: 2048
rand_sets[51]: 920
Assign rand_sets[52]: 204  LLC: 2048
rand_sets[52]: 204
Assign rand_sets[53]: 227  LLC: 2048
rand_sets[53]: 227
Assign rand_sets[54]: 1818  LLC: 2048
rand_sets[54]: 1818
Assign rand_sets[55]: 886  LLC: 2048
rand_sets[55]: 886
Assign rand_sets[56]: 1422  LLC: 2048
rand_sets[56]: 1422
Assign rand_sets[57]: 607  LLC: 2048
rand_sets[57]: 607
Assign rand_sets[58]: 217  LLC: 2048
rand_sets[58]: 217
Assign rand_sets[59]: 1945  LLC: 2048
rand_sets[59]: 1945
Assign rand_sets[60]: 143  LLC: 2048
rand_sets[60]: 143
Assign rand_sets[61]: 1311  LLC: 2048
rand_sets[61]: 1311
Assign rand_sets[62]: 319  LLC: 2048
rand_sets[62]: 319
Assign rand_sets[63]: 1846  LLC: 2048
rand_sets[63]: 1846
 CLEAN-RRIP-POLICY-1: 2-2-1-3-2-3-0-2- CLEAN-RRIP-POLICY-2: 2-2-1-3-2-3-0-2-
 DIRTY-RRIP-POLICY-1: 2-2-0-3-1-3-0-2- DIRTY-RRIP-POLICY-2: 2-2-0-3-1-3-0-2-
 PSEL width: 10
Heartbeat CPU 0 instructions: 10000000 cycles: 4305270 heartbeat IPC: 2.32273 cumulative IPC: 2.32273 (Simulation time: 0 hr 0 min 12 sec) 
Heartbeat CPU 0 instructions: 20000000 cycles: 8617101 heartbeat IPC: 2.3192 cumulative IPC: 2.32097 (Simulation time: 0 hr 0 min 23 sec) 
Heartbeat CPU 0 instructions: 30000003 cycles: 13160978 heartbeat IPC: 2.20076 cumulative IPC: 2.27947 (Simulation time: 0 hr 0 min 36 sec) 
Heartbeat CPU 0 instructions: 40000000 cycles: 17515451 heartbeat IPC: 2.29649 cumulative IPC: 2.2837 (Simulation time: 0 hr 0 min 48 sec) 
Heartbeat CPU 0 instructions: 50000001 cycles: 21878256 heartbeat IPC: 2.2921 cumulative IPC: 2.28537 (Simulation time: 0 hr 1 min 0 sec) 
Heartbeat CPU 0 instructions: 60000000 cycles: 26178437 heartbeat IPC: 2.32548 cumulative IPC: 2.29196 (Simulation time: 0 hr 1 min 11 sec) 
Heartbeat CPU 0 instructions: 70000001 cycles: 30244313 heartbeat IPC: 2.45949 cumulative IPC: 2.31448 (Simulation time: 0 hr 1 min 22 sec) 
Heartbeat CPU 0 instructions: 80000000 cycles: 34523068 heartbeat IPC: 2.33713 cumulative IPC: 2.31729 (Simulation time: 0 hr 1 min 34 sec) 
Heartbeat CPU 0 instructions: 90000001 cycles: 38739673 heartbeat IPC: 2.37158 cumulative IPC: 2.3232 (Simulation time: 0 hr 1 min 45 sec) 
Heartbeat CPU 0 instructions: 100000000 cycles: 42980052 heartbeat IPC: 2.35828 cumulative IPC: 2.32666 (Simulation time: 0 hr 1 min 57 sec) 

Warmup complete CPU 0 instructions: 100000001 cycles: 42980053 (Simulation time: 0 hr 1 min 57 sec) 

Heartbeat CPU 0 instructions: 110000000 cycles: 53111121 heartbeat IPC: 0.987063 cumulative IPC: 0.987063 (Simulation time: 0 hr 2 min 14 sec) 
Heartbeat CPU 0 instructions: 120000000 cycles: 63736999 heartbeat IPC: 0.941099 cumulative IPC: 0.963533 (Simulation time: 0 hr 2 min 31 sec) 
Heartbeat CPU 0 instructions: 130000001 cycles: 74332281 heartbeat IPC: 0.943816 cumulative IPC: 0.95687 (Simulation time: 0 hr 2 min 49 sec) 
Heartbeat CPU 0 instructions: 140000000 cycles: 84021709 heartbeat IPC: 1.03205 cumulative IPC: 0.97462 (Simulation time: 0 hr 3 min 6 sec) 
Heartbeat CPU 0 instructions: 150000001 cycles: 94335077 heartbeat IPC: 0.969615 cumulative IPC: 0.973615 (Simulation time: 0 hr 3 min 23 sec) 
Heartbeat CPU 0 instructions: 160000000 cycles: 104389678 heartbeat IPC: 0.994569 cumulative IPC: 0.977046 (Simulation time: 0 hr 3 min 41 sec) 
Heartbeat CPU 0 instructions: 170000000 cycles: 114064953 heartbeat IPC: 1.03356 cumulative IPC: 0.984738 (Simulation time: 0 hr 3 min 58 sec) 
Heartbeat CPU 0 instructions: 180000000 cycles: 124626925 heartbeat IPC: 0.946793 cumulative IPC: 0.979829 (Simulation time: 0 hr 4 min 15 sec) 
Heartbeat CPU 0 instructions: 190000001 cycles: 134892450 heartbeat IPC: 0.974134 cumulative IPC: 0.979193 (Simulation time: 0 hr 4 min 33 sec) 
Heartbeat CPU 0 instructions: 200000000 cycles: 145473434 heartbeat IPC: 0.945092 cumulative IPC: 0.975673 (Simulation time: 0 hr 4 min 50 sec) 
Heartbeat CPU 0 instructions: 210000002 cycles: 157926412 heartbeat IPC: 0.803021 cumulative IPC: 0.956968 (Simulation time: 0 hr 5 min 9 sec) 
Heartbeat CPU 0 instructions: 220000000 cycles: 170454944 heartbeat IPC: 0.798178 cumulative IPC: 0.941362 (Simulation time: 0 hr 5 min 28 sec) 
Heartbeat CPU 0 instructions: 230000000 cycles: 182627817 heartbeat IPC: 0.821499 cumulative IPC: 0.930914 (Simulation time: 0 hr 5 min 46 sec) 
Heartbeat CPU 0 instructions: 240000000 cycles: 194767253 heartbeat IPC: 0.823762 cumulative IPC: 0.922344 (Simulation time: 0 hr 6 min 5 sec) 
Heartbeat CPU 0 instructions: 250000000 cycles: 206751210 heartbeat IPC: 0.834449 cumulative IPC: 0.915912 (Simulation time: 0 hr 6 min 23 sec) 
Heartbeat CPU 0 instructions: 260000000 cycles: 218320582 heartbeat IPC: 0.864351 cumulative IPC: 0.91251 (Simulation time: 0 hr 6 min 42 sec) 
Heartbeat CPU 0 instructions: 270000003 cycles: 230200753 heartbeat IPC: 0.841739 cumulative IPC: 0.908019 (Simulation time: 0 hr 7 min 0 sec) 
Heartbeat CPU 0 instructions: 280000000 cycles: 241749973 heartbeat IPC: 0.865859 cumulative IPC: 0.90557 (Simulation time: 0 hr 7 min 19 sec) 
Heartbeat CPU 0 instructions: 290000002 cycles: 253285226 heartbeat IPC: 0.866908 cumulative IPC: 0.903449 (Simulation time: 0 hr 7 min 37 sec) 
Heartbeat CPU 0 instructions: 300000000 cycles: 265737131 heartbeat IPC: 0.80309 cumulative IPC: 0.897839 (Simulation time: 0 hr 7 min 56 sec) 
Heartbeat CPU 0 instructions: 310000000 cycles: 277901748 heartbeat IPC: 0.822056 cumulative IPC: 0.893915 (Simulation time: 0 hr 8 min 14 sec) 
Heartbeat CPU 0 instructions: 320000000 cycles: 290563208 heartbeat IPC: 0.789798 cumulative IPC: 0.88859 (Simulation time: 0 hr 8 min 33 sec) 
Heartbeat CPU 0 instructions: 330000003 cycles: 302519262 heartbeat IPC: 0.836397 cumulative IPC: 0.886186 (Simulation time: 0 hr 8 min 51 sec) 
Heartbeat CPU 0 instructions: 340000000 cycles: 314653985 heartbeat IPC: 0.824081 cumulative IPC: 0.883412 (Simulation time: 0 hr 9 min 10 sec) 
Heartbeat CPU 0 instructions: 350000001 cycles: 325656223 heartbeat IPC: 0.908906 cumulative IPC: 0.884404 (Simulation time: 0 hr 9 min 28 sec) 
Heartbeat CPU 0 instructions: 360000000 cycles: 337452563 heartbeat IPC: 0.847721 cumulative IPC: 0.882935 (Simulation time: 0 hr 9 min 46 sec) 
Heartbeat CPU 0 instructions: 370000001 cycles: 348867952 heartbeat IPC: 0.876011 cumulative IPC: 0.882676 (Simulation time: 0 hr 10 min 4 sec) 
Heartbeat CPU 0 instructions: 380000000 cycles: 359877398 heartbeat IPC: 0.908311 cumulative IPC: 0.883567 (Simulation time: 0 hr 10 min 22 sec) 
Heartbeat CPU 0 instructions: 390000003 cycles: 370502330 heartbeat IPC: 0.941183 cumulative IPC: 0.885436 (Simulation time: 0 hr 10 min 40 sec) 
Heartbeat CPU 0 instructions: 400000000 cycles: 380733832 heartbeat IPC: 0.977373 cumulative IPC: 0.888221 (Simulation time: 0 hr 10 min 58 sec) 
Heartbeat CPU 0 instructions: 410000000 cycles: 391267122 heartbeat IPC: 0.949371 cumulative IPC: 0.89007 (Simulation time: 0 hr 11 min 16 sec) 
Heartbeat CPU 0 instructions: 420000000 cycles: 400660266 heartbeat IPC: 1.06461 cumulative IPC: 0.894654 (Simulation time: 0 hr 11 min 33 sec) 
Heartbeat CPU 0 instructions: 430000002 cycles: 409749619 heartbeat IPC: 1.10019 cumulative IPC: 0.899747 (Simulation time: 0 hr 11 min 50 sec) 
Heartbeat CPU 0 instructions: 440000000 cycles: 420027596 heartbeat IPC: 0.972954 cumulative IPC: 0.901743 (Simulation time: 0 hr 12 min 8 sec) 
Heartbeat CPU 0 instructions: 450000002 cycles: 431118872 heartbeat IPC: 0.90161 cumulative IPC: 0.901739 (Simulation time: 0 hr 12 min 26 sec) 
Heartbeat CPU 0 instructions: 460000000 cycles: 442672094 heartbeat IPC: 0.865559 cumulative IPC: 0.900693 (Simulation time: 0 hr 12 min 44 sec) 
Heartbeat CPU 0 instructions: 470000003 cycles: 452869474 heartbeat IPC: 0.980644 cumulative IPC: 0.902682 (Simulation time: 0 hr 13 min 1 sec) 
Heartbeat CPU 0 instructions: 480000000 cycles: 463416479 heartbeat IPC: 0.948136 cumulative IPC: 0.903823 (Simulation time: 0 hr 13 min 19 sec) 
Heartbeat CPU 0 instructions: 490000000 cycles: 473378426 heartbeat IPC: 1.00382 cumulative IPC: 0.906137 (Simulation time: 0 hr 13 min 36 sec) 
Heartbeat CPU 0 instructions: 500000000 cycles: 485164255 heartbeat IPC: 0.848477 cumulative IPC: 0.9046 (Simulation time: 0 hr 13 min 54 sec) 
Heartbeat CPU 0 instructions: 510000002 cycles: 497568854 heartbeat IPC: 0.806153 cumulative IPC: 0.901914 (Simulation time: 0 hr 14 min 13 sec) 
Heartbeat CPU 0 instructions: 520000000 cycles: 509422256 heartbeat IPC: 0.843639 cumulative IPC: 0.900433 (Simulation time: 0 hr 14 min 31 sec) 
Heartbeat CPU 0 instructions: 530000001 cycles: 521270452 heartbeat IPC: 0.84401 cumulative IPC: 0.899035 (Simulation time: 0 hr 14 min 49 sec) 
Heartbeat CPU 0 instructions: 540000000 cycles: 532877005 heartbeat IPC: 0.861582 cumulative IPC: 0.898148 (Simulation time: 0 hr 15 min 7 sec) 
Heartbeat CPU 0 instructions: 550000001 cycles: 544271313 heartbeat IPC: 0.877631 cumulative IPC: 0.897682 (Simulation time: 0 hr 15 min 25 sec) 
Heartbeat CPU 0 instructions: 560000000 cycles: 555834961 heartbeat IPC: 0.864779 cumulative IPC: 0.89694 (Simulation time: 0 hr 15 min 43 sec) 
Heartbeat CPU 0 instructions: 570000000 cycles: 567248583 heartbeat IPC: 0.876146 cumulative IPC: 0.896487 (Simulation time: 0 hr 16 min 1 sec) 
Heartbeat CPU 0 instructions: 580000000 cycles: 578006123 heartbeat IPC: 0.929581 cumulative IPC: 0.897153 (Simulation time: 0 hr 16 min 19 sec) 
Heartbeat CPU 0 instructions: 590000003 cycles: 589411005 heartbeat IPC: 0.876818 cumulative IPC: 0.896728 (Simulation time: 0 hr 16 min 36 sec) 
Heartbeat CPU 0 instructions: 600000000 cycles: 599992993 heartbeat IPC: 0.945002 cumulative IPC: 0.897645 (Simulation time: 0 hr 16 min 54 sec) 
Finished CPU 0 instructions: 500000001 cycles: 557012948 cumulative IPC: 0.897645 (Simulation time: 0 hr 16 min 54 sec) 

CPU 0 Branch Prediction Accuracy: 93.0095% MPKI: 10.0046
Number of Branches: 71558147 Number of Mispredictions: 5002285
Number of LOAD Instructions: 145708893
Number of LOAD Instructions (ROI): 145708893
Number of STORE Instructions: 40463820
Number of STORE Instructions (ROI): 40463820
Total Destination Memory Operands: 45240498
Total Destination Memory Operands (ROI): 45240498
Total Source Memory Operands: 145708893
Total Source Memory Operands (ROI): 145708893
Number of DEPENDED LOADS: 10674493
Number of DEPENDED LOADS (ROI): 10674493
Number of SQ_ADDED: 45240498
Number of SQ_ADDED (ROI): 45240498
Number of LQ_ADDED: 193322792
Number of LQ_ADDED (ROI): 193322792
Number of Instructions read from trace: 600000002

ChampSim completed all CPUs

Region of Interest Statistics

CPU 0 cumulative IPC: 0.897645 instructions: 500000001 cycles: 557012948
ITLB TOTAL     ACCESS:   77992213  HIT:   77992212  MISS:          1
ITLB LOAD      ACCESS:   77992213  HIT:   77992212  MISS:          1
ITLB RFO       ACCESS:          0  HIT:          0  MISS:          0
ITLB PREFETCH  ACCESS:          0  HIT:          0  MISS:          0
ITLB WRITEBACK ACCESS:          0  HIT:          0  MISS:          0
ITLB PREFETCH  REQUESTED:          0  ISSUED:          0  USEFUL:          0  USELESS:          0
ITLB TOTAL MSHR MERGED:          0
ITLB LOAD MSHR MERGED:          0
ITLB RFO MSHR MERGED:          0
ITLB PREFETCH MSHR MERGED:          0
ITLB WRITEBACK MSHR MERGED:          0
ITLB TOTAL ACCESSES:   77992213 HITS:   77992212 MISSES:          1
ITLB LOAD ACCESSES:   77992213 HITS:   77992212 MISSES:          1
ITLB RFO ACCESSES:          0 HITS:          0 MISSES:          0
ITLB PREFETCH ACCESSES:          0 HITS:          0 MISSES:          0
ITLB WRITEBACK ACCESSES:          0 HITS:          0 MISSES:          0
ITLB RQ ACCESS:  499999995
ITLB RQ TO_CACHE:   77992213
ITLB RQ MERGED:  422007782
ITLB RQ FORWARD:          0
ITLB WQ ACCESS:          0
ITLB WQ TO_CACHE:          0
ITLB WQ MERGED:          0
ITLB WQ FORWARD:          0
DTLB TOTAL     ACCESS:   98671251  HIT:   97789915  MISS:     881336
DTLB LOAD      ACCESS:   70891281  HIT:   70029748  MISS:     861533
DTLB RFO       ACCESS:   27779970  HIT:   27760167  MISS:      19803
DTLB PREFETCH  ACCESS:          0  HIT:          0  MISS:          0
DTLB WRITEBACK ACCESS:          0  HIT:          0  MISS:          0
DTLB PREFETCH  REQUESTED:          0  ISSUED:          0  USEFUL:          0  USELESS:          0
DTLB TOTAL MSHR MERGED:      87395
DTLB LOAD MSHR MERGED:      65653
DTLB RFO MSHR MERGED:      21742
DTLB PREFETCH MSHR MERGED:          0
DTLB WRITEBACK MSHR MERGED:          0
DTLB TOTAL ACCESSES:   98758646 HITS:   97789915 MISSES:     968731
DTLB LOAD ACCESSES:   70956934 HITS:   70029748 MISSES:     927186
DTLB RFO ACCESSES:   27801712 HITS:   27760167 MISSES:      41545
DTLB PREFETCH ACCESSES:          0 HITS:          0 MISSES:          0
DTLB WRITEBACK ACCESSES:          0 HITS:          0 MISSES:          0
DTLB RQ ACCESS:  150270563
DTLB RQ TO_CACHE:   98758646
DTLB RQ MERGED:   51511917
DTLB RQ FORWARD:          0
DTLB WQ ACCESS:          0
DTLB WQ TO_CACHE:          0
DTLB WQ MERGED:          0
DTLB WQ FORWARD:          0
L1D TOTAL     ACCESS:  173325787  HIT:  169157154  MISS:    4168633
L1D LOAD      ACCESS:   75279559  HIT:   73398230  MISS:    1881329
L1D RFO       ACCESS:   36778407  HIT:   36571804  MISS:     206603
L1D PREFETCH  ACCESS:   61267821  HIT:   59187120  MISS:    2080701
L1D WRITEBACK ACCESS:          0  HIT:          0  MISS:          0
L1D PREFETCH  REQUESTED:   75382612  ISSUED:   74818416  USEFUL:     415140  USELESS:    1665550
L1D TOTAL MSHR MERGED:     371546
L1D LOAD MSHR MERGED:     111818
L1D RFO MSHR MERGED:     132998
L1D PREFETCH MSHR MERGED:     126730
L1D WRITEBACK MSHR MERGED:          0
L1D TOTAL ACCESSES:  173849216 HITS:  169309037 MISSES:    4540179
L1D LOAD ACCESSES:   75385726 HITS:   73401344 MISSES:    1984382
L1D RFO ACCESSES:   36910011 HITS:   36571804 MISSES:     338207
L1D PREFETCH ACCESSES:   61553479 HITS:   59335889 MISSES:    2217590
L1D WRITEBACK ACCESSES:          0 HITS:          0 MISSES:          0
L1D RQ ACCESS:  112608160
L1D RQ TO_CACHE:   75382612
L1D RQ MERGED:   37222434
L1D RQ FORWARD:          0
L1D WQ ACCESS:   37662403
L1D WQ TO_CACHE:   36910011
L1D WQ MERGED:     752392
L1D WQ FORWARD:     151883
L1I TOTAL     ACCESS:  100700109  HIT:  100700084  MISS:         25
L1I LOAD      ACCESS:  100700109  HIT:  100700084  MISS:         25
L1I RFO       ACCESS:          0  HIT:          0  MISS:          0
L1I PREFETCH  ACCESS:          0  HIT:          0  MISS:          0
L1I WRITEBACK ACCESS:          0  HIT:          0  MISS:          0
L1I PREFETCH  REQUESTED:          0  ISSUED:          0  USEFUL:          0  USELESS:          0
L1I TOTAL MSHR MERGED:         10
L1I LOAD MSHR MERGED:         10
L1I RFO MSHR MERGED:          0
L1I PREFETCH MSHR MERGED:          0
L1I WRITEBACK MSHR MERGED:          0
L1I TOTAL ACCESSES:  100700119 HITS:  100700084 MISSES:         35
L1I LOAD ACCESSES:  100700119 HITS:  100700084 MISSES:         35
L1I RFO ACCESSES:          0 HITS:          0 MISSES:          0
L1I PREFETCH ACCESSES:          0 HITS:          0 MISSES:          0
L1I WRITEBACK ACCESSES:          0 HITS:          0 MISSES:          0
L1I RQ ACCESS:  499999995
L1I RQ TO_CACHE:  100700119
L1I RQ MERGED:  399299876
L1I RQ FORWARD:          0
L1I WQ ACCESS:          0
L1I WQ TO_CACHE:          0
L1I WQ MERGED:          0
L1I WQ FORWARD:          0
L2C TOTAL     ACCESS:    5852621  HIT:    4009434  MISS:    1843187
L2C LOAD      ACCESS:    1872465  HIT:    1061515  MISS:     810950
L2C RFO       ACCESS:     205203  HIT:     100565  MISS:     104638
L2C PREFETCH  ACCESS:    2169321  HIT:    1246142  MISS:     923179
L2C WRITEBACK ACCESS:    1605632  HIT:    1601212  MISS:       4420
L2C PREFETCH  REQUESTED:      91712  ISSUED:      91712  USEFUL:      86459  USELESS:     836743
L2C TOTAL MSHR MERGED:        982
L2C LOAD MSHR MERGED:        250
L2C RFO MSHR MERGED:          0
L2C PREFETCH MSHR MERGED:        732
L2C WRITEBACK MSHR MERGED:          0
L2C TOTAL ACCESSES:    5853928 HITS:    4009601 MISSES:    1844327
L2C LOAD ACCESSES:    1872589 HITS:    1061639 MISSES:     810950
L2C RFO ACCESSES:     205209 HITS:     100571 MISSES:     104638
L2C PREFETCH ACCESSES:    2170498 HITS:    1246179 MISSES:     924319
L2C WRITEBACK ACCESSES:    1605632 HITS:    1601212 MISSES:       4420
L2C RQ ACCESS:    2077798
L2C RQ TO_CACHE:    2077668
L2C RQ MERGED:          0
L2C RQ FORWARD:          0
L2C WQ ACCESS:    1605632
L2C WQ TO_CACHE:    1605632
L2C WQ MERGED:          0
L2C WQ FORWARD:        167
LLC TOTAL     ACCESS:    2673573  HIT:    2192379  MISS:     481194
LLC LOAD      ACCESS:     810691  HIT:     635765  MISS:     174926
LLC RFO       ACCESS:     104638  HIT:      59843  MISS:      44795
LLC PREFETCH  ACCESS:     923570  HIT:     691533  MISS:     232037
LLC WRITEBACK ACCESS:     834674  HIT:     805238  MISS:      29436
LLC PREFETCH  REQUESTED:          0  ISSUED:          0  USEFUL:       8477  USELESS:     223705
LLC TOTAL MSHR MERGED:          5
LLC LOAD MSHR MERGED:          2
LLC RFO MSHR MERGED:          0
LLC PREFETCH MSHR MERGED:          3
LLC WRITEBACK MSHR MERGED:          0
LLC TOTAL ACCESSES:    2673589 HITS:    2192390 MISSES:     481199
LLC LOAD ACCESSES:     810700 HITS:     635774 MISSES:     174926
LLC RFO ACCESSES:     104638 HITS:      59843 MISSES:      44795
LLC PREFETCH ACCESSES:     923577 HITS:     691535 MISSES:     232042
LLC WRITEBACK ACCESSES:     834674 HITS:     805238 MISSES:      29436
LLC 0 RQ ACCESS:     915338
LLC 0 RQ TO_CACHE:     915329
LLC 0 RQ MERGED:          0
LLC 0 RQ FORWARD:          0
LLC WQ ACCESS:     834674
LLC WQ TO_CACHE:     834674
LLC WQ MERGED:          0
LLC WQ FORWARD:         11
Major fault: 0 Minor fault: 11278
CPU 0 L1D next line prefetcher final stats
CPU 0 L2C PC-based stride prefetcher final stats
All Misses: 593374
All Hits: 2461217
SD Algo Stats - Switches: 0 SRR-Repls: 207971 BRR-Repls: 0

DRAM Statistics
 CHANNEL 0
 RQ ROW_BUFFER_HIT:      28497  ROW_BUFFER_MISS:     422830
 DBUS_CONGESTED:     354141
 WQ ROW_BUFFER_HIT:      15560  ROW_BUFFER_MISS:     210776  FULL:          0

 AVG_CONGESTED_CYCLE: 13
LOADS RETIRED: 121769268
INSTR RETIRED: 500000000
