
*** ChampSim Multicore Out-of-Order Simulator ***

Warmup Instructions: 100000000
Simulation Instructions: 500000000
Number of CPUs: 1
LLC sets: 2048
LLC ways: 16
Clean RRIP Policies: 1022031110220311 Dirty RRIP Policies: 2012132120121321 PSEL Width: 10 Track Set: 4294967295 PSEL Mask: 1 Demote Mask: 3230140032301400DS Algo: 0Window size: 0
Off-chip DRAM Size: 4096 MB Channels: 1 Width: 64-bit Data Rate: 1600 MT/s

CPU 0 runs /mnt/beegfs/iconst01/spec2017/Gcc.trace.gz
NOT SORTED
TRACE STRING: /mnt/beegfs/iconst01/spec2017/Gcc.trace.gz
SORTED
TRACE STRING: /mnt/beegfs/iconst01/spec2017/Gcc.trace.gz
INITIAL
TRACE STRING: /mnt/beegfs/iconst01/spec2017/Gcc.trace.gz

champsim_seed used: 269

CPU 0 L1D next line prefetcher
CPU 0 L2C IP-based stride prefetcher
Initialize DRRIP state
Assign rand_sets[0]: 454  LLC: 2048
rand_sets[0]: 454
Assign rand_sets[1]: 1662  LLC: 2048
rand_sets[1]: 1662
Assign rand_sets[2]: 1921  LLC: 2048
rand_sets[2]: 1921
Assign rand_sets[3]: 1131  LLC: 2048
rand_sets[3]: 1131
Assign rand_sets[4]: 331  LLC: 2048
rand_sets[4]: 331
Assign rand_sets[5]: 1531  LLC: 2048
rand_sets[5]: 1531
Assign rand_sets[6]: 482  LLC: 2048
rand_sets[6]: 482
Assign rand_sets[7]: 1275  LLC: 2048
rand_sets[7]: 1275
Assign rand_sets[8]: 1876  LLC: 2048
rand_sets[8]: 1876
Assign rand_sets[9]: 2038  LLC: 2048
rand_sets[9]: 2038
Assign rand_sets[10]: 701  LLC: 2048
rand_sets[10]: 701
Assign rand_sets[11]: 479  LLC: 2048
rand_sets[11]: 479
Assign rand_sets[12]: 892  LLC: 2048
rand_sets[12]: 892
Assign rand_sets[13]: 1820  LLC: 2048
rand_sets[13]: 1820
Assign rand_sets[14]: 1505  LLC: 2048
rand_sets[14]: 1505
Assign rand_sets[15]: 1159  LLC: 2048
rand_sets[15]: 1159
Assign rand_sets[16]: 513  LLC: 2048
rand_sets[16]: 513
Assign rand_sets[17]: 703  LLC: 2048
rand_sets[17]: 703
Assign rand_sets[18]: 561  LLC: 2048
rand_sets[18]: 561
Assign rand_sets[19]: 990  LLC: 2048
rand_sets[19]: 990
Assign rand_sets[20]: 342  LLC: 2048
rand_sets[20]: 342
Assign rand_sets[21]: 882  LLC: 2048
rand_sets[21]: 882
Assign rand_sets[22]: 15  LLC: 2048
rand_sets[22]: 15
Assign rand_sets[23]: 71  LLC: 2048
rand_sets[23]: 71
Assign rand_sets[24]: 1127  LLC: 2048
rand_sets[24]: 1127
Assign rand_sets[25]: 1382  LLC: 2048
rand_sets[25]: 1382
Assign rand_sets[26]: 647  LLC: 2048
rand_sets[26]: 647
Assign rand_sets[27]: 857  LLC: 2048
rand_sets[27]: 857
Assign rand_sets[28]: 1450  LLC: 2048
rand_sets[28]: 1450
Assign rand_sets[29]: 1160  LLC: 2048
rand_sets[29]: 1160
Assign rand_sets[30]: 1852  LLC: 2048
rand_sets[30]: 1852
Assign rand_sets[31]: 1881  LLC: 2048
rand_sets[31]: 1881
Assign rand_sets[32]: 1770  LLC: 2048
rand_sets[32]: 1770
Assign rand_sets[33]: 1622  LLC: 2048
rand_sets[33]: 1622
Assign rand_sets[34]: 275  LLC: 2048
rand_sets[34]: 275
Assign rand_sets[35]: 635  LLC: 2048
rand_sets[35]: 635
Assign rand_sets[36]: 466  LLC: 2048
rand_sets[36]: 466
Assign rand_sets[37]: 1413  LLC: 2048
rand_sets[37]: 1413
Assign rand_sets[38]: 417  LLC: 2048
rand_sets[38]: 417
Assign rand_sets[39]: 472  LLC: 2048
rand_sets[39]: 472
Assign rand_sets[40]: 1340  LLC: 2048
rand_sets[40]: 1340
Assign rand_sets[41]: 852  LLC: 2048
rand_sets[41]: 852
Assign rand_sets[42]: 1365  LLC: 2048
rand_sets[42]: 1365
Assign rand_sets[43]: 47  LLC: 2048
rand_sets[43]: 47
Assign rand_sets[44]: 823  LLC: 2048
rand_sets[44]: 823
Assign rand_sets[45]: 686  LLC: 2048
rand_sets[45]: 686
Assign rand_sets[46]: 1637  LLC: 2048
rand_sets[46]: 1637
Assign rand_sets[47]: 1115  LLC: 2048
rand_sets[47]: 1115
Assign rand_sets[48]: 986  LLC: 2048
rand_sets[48]: 986
Assign rand_sets[49]: 258  LLC: 2048
rand_sets[49]: 258
Assign rand_sets[50]: 633  LLC: 2048
rand_sets[50]: 633
Assign rand_sets[51]: 920  LLC: 2048
rand_sets[51]: 920
Assign rand_sets[52]: 204  LLC: 2048
rand_sets[52]: 204
Assign rand_sets[53]: 227  LLC: 2048
rand_sets[53]: 227
Assign rand_sets[54]: 1818  LLC: 2048
rand_sets[54]: 1818
Assign rand_sets[55]: 886  LLC: 2048
rand_sets[55]: 886
Assign rand_sets[56]: 1422  LLC: 2048
rand_sets[56]: 1422
Assign rand_sets[57]: 607  LLC: 2048
rand_sets[57]: 607
Assign rand_sets[58]: 217  LLC: 2048
rand_sets[58]: 217
Assign rand_sets[59]: 1945  LLC: 2048
rand_sets[59]: 1945
Assign rand_sets[60]: 143  LLC: 2048
rand_sets[60]: 143
Assign rand_sets[61]: 1311  LLC: 2048
rand_sets[61]: 1311
Assign rand_sets[62]: 319  LLC: 2048
rand_sets[62]: 319
Assign rand_sets[63]: 1846  LLC: 2048
rand_sets[63]: 1846
 CLEAN-RRIP-POLICY-1: 1-0-2-2-0-3-1-1- CLEAN-RRIP-POLICY-2: 1-0-2-2-0-3-1-1-
 DIRTY-RRIP-POLICY-1: 2-0-1-2-1-3-2-1- DIRTY-RRIP-POLICY-2: 2-0-1-2-1-3-2-1-
 PSEL width: 10
Heartbeat CPU 0 instructions: 10000001 cycles: 7315914 heartbeat IPC: 1.36688 cumulative IPC: 1.36688 (Simulation time: 0 hr 0 min 14 sec) 
Heartbeat CPU 0 instructions: 20000000 cycles: 14307585 heartbeat IPC: 1.43027 cumulative IPC: 1.39786 (Simulation time: 0 hr 0 min 29 sec) 
Heartbeat CPU 0 instructions: 30000001 cycles: 21020811 heartbeat IPC: 1.4896 cumulative IPC: 1.42716 (Simulation time: 0 hr 0 min 45 sec) 
Heartbeat CPU 0 instructions: 40000000 cycles: 27481750 heartbeat IPC: 1.54776 cumulative IPC: 1.45551 (Simulation time: 0 hr 1 min 1 sec) 
Heartbeat CPU 0 instructions: 50000001 cycles: 33583816 heartbeat IPC: 1.63879 cumulative IPC: 1.48881 (Simulation time: 0 hr 1 min 17 sec) 
Heartbeat CPU 0 instructions: 60000000 cycles: 40065173 heartbeat IPC: 1.54289 cumulative IPC: 1.49756 (Simulation time: 0 hr 1 min 33 sec) 
Heartbeat CPU 0 instructions: 70000000 cycles: 47105255 heartbeat IPC: 1.42044 cumulative IPC: 1.48603 (Simulation time: 0 hr 1 min 48 sec) 
Heartbeat CPU 0 instructions: 80000000 cycles: 54195327 heartbeat IPC: 1.41042 cumulative IPC: 1.47614 (Simulation time: 0 hr 2 min 2 sec) 
Heartbeat CPU 0 instructions: 90000003 cycles: 61200151 heartbeat IPC: 1.42759 cumulative IPC: 1.47058 (Simulation time: 0 hr 2 min 17 sec) 
Heartbeat CPU 0 instructions: 100000000 cycles: 68368094 heartbeat IPC: 1.3951 cumulative IPC: 1.46267 (Simulation time: 0 hr 2 min 32 sec) 

Warmup complete CPU 0 instructions: 100000004 cycles: 68368095 (Simulation time: 0 hr 2 min 32 sec) 

Heartbeat CPU 0 instructions: 110000003 cycles: 96126501 heartbeat IPC: 0.360251 cumulative IPC: 0.360251 (Simulation time: 0 hr 3 min 0 sec) 
Heartbeat CPU 0 instructions: 120000000 cycles: 123637834 heartbeat IPC: 0.363486 cumulative IPC: 0.361862 (Simulation time: 0 hr 3 min 29 sec) 
Heartbeat CPU 0 instructions: 130000000 cycles: 148693898 heartbeat IPC: 0.399105 cumulative IPC: 0.373479 (Simulation time: 0 hr 3 min 58 sec) 
Heartbeat CPU 0 instructions: 140000000 cycles: 178355598 heartbeat IPC: 0.337135 cumulative IPC: 0.363678 (Simulation time: 0 hr 4 min 26 sec) 
Heartbeat CPU 0 instructions: 150000000 cycles: 208295285 heartbeat IPC: 0.334005 cumulative IPC: 0.357329 (Simulation time: 0 hr 4 min 55 sec) 
Heartbeat CPU 0 instructions: 160000000 cycles: 235749479 heartbeat IPC: 0.364243 cumulative IPC: 0.358463 (Simulation time: 0 hr 5 min 22 sec) 
Heartbeat CPU 0 instructions: 170000001 cycles: 263898077 heartbeat IPC: 0.355258 cumulative IPC: 0.358001 (Simulation time: 0 hr 5 min 52 sec) 
Heartbeat CPU 0 instructions: 180000000 cycles: 292457928 heartbeat IPC: 0.350142 cumulative IPC: 0.357 (Simulation time: 0 hr 6 min 21 sec) 
Heartbeat CPU 0 instructions: 190000002 cycles: 320641762 heartbeat IPC: 0.354813 cumulative IPC: 0.356755 (Simulation time: 0 hr 6 min 50 sec) 
Heartbeat CPU 0 instructions: 200000000 cycles: 349073968 heartbeat IPC: 0.351714 cumulative IPC: 0.356245 (Simulation time: 0 hr 7 min 19 sec) 
Heartbeat CPU 0 instructions: 210000002 cycles: 377033269 heartbeat IPC: 0.357663 cumulative IPC: 0.356373 (Simulation time: 0 hr 7 min 48 sec) 
Heartbeat CPU 0 instructions: 220000000 cycles: 406271519 heartbeat IPC: 0.342018 cumulative IPC: 0.355131 (Simulation time: 0 hr 8 min 15 sec) 
Heartbeat CPU 0 instructions: 230000000 cycles: 433893692 heartbeat IPC: 0.362028 cumulative IPC: 0.355652 (Simulation time: 0 hr 8 min 43 sec) 
Heartbeat CPU 0 instructions: 240000000 cycles: 459814311 heartbeat IPC: 0.385793 cumulative IPC: 0.357648 (Simulation time: 0 hr 9 min 10 sec) 
Heartbeat CPU 0 instructions: 250000000 cycles: 490018014 heartbeat IPC: 0.331085 cumulative IPC: 0.355745 (Simulation time: 0 hr 9 min 40 sec) 
Heartbeat CPU 0 instructions: 260000000 cycles: 517162283 heartbeat IPC: 0.368402 cumulative IPC: 0.356511 (Simulation time: 0 hr 10 min 8 sec) 
Heartbeat CPU 0 instructions: 270000003 cycles: 545737455 heartbeat IPC: 0.349954 cumulative IPC: 0.356118 (Simulation time: 0 hr 10 min 38 sec) 
Heartbeat CPU 0 instructions: 280000000 cycles: 574076738 heartbeat IPC: 0.352867 cumulative IPC: 0.355936 (Simulation time: 0 hr 11 min 7 sec) 
Heartbeat CPU 0 instructions: 290000000 cycles: 603056677 heartbeat IPC: 0.345066 cumulative IPC: 0.355347 (Simulation time: 0 hr 11 min 37 sec) 
Heartbeat CPU 0 instructions: 300000000 cycles: 633230027 heartbeat IPC: 0.331418 cumulative IPC: 0.354069 (Simulation time: 0 hr 12 min 5 sec) 
Heartbeat CPU 0 instructions: 310000001 cycles: 662715177 heartbeat IPC: 0.339154 cumulative IPC: 0.353329 (Simulation time: 0 hr 12 min 34 sec) 
Heartbeat CPU 0 instructions: 320000000 cycles: 691089074 heartbeat IPC: 0.352437 cumulative IPC: 0.353288 (Simulation time: 0 hr 13 min 2 sec) 
Heartbeat CPU 0 instructions: 330000000 cycles: 719836378 heartbeat IPC: 0.347859 cumulative IPC: 0.353049 (Simulation time: 0 hr 13 min 30 sec) 
Heartbeat CPU 0 instructions: 340000000 cycles: 749236823 heartbeat IPC: 0.340131 cumulative IPC: 0.352491 (Simulation time: 0 hr 13 min 59 sec) 
Heartbeat CPU 0 instructions: 350000003 cycles: 776339386 heartbeat IPC: 0.368969 cumulative IPC: 0.353122 (Simulation time: 0 hr 14 min 27 sec) 
Heartbeat CPU 0 instructions: 360000000 cycles: 804515290 heartbeat IPC: 0.354913 cumulative IPC: 0.35319 (Simulation time: 0 hr 14 min 54 sec) 
Heartbeat CPU 0 instructions: 370000000 cycles: 832688668 heartbeat IPC: 0.354945 cumulative IPC: 0.353255 (Simulation time: 0 hr 15 min 21 sec) 
Heartbeat CPU 0 instructions: 380000000 cycles: 861225766 heartbeat IPC: 0.350421 cumulative IPC: 0.353153 (Simulation time: 0 hr 15 min 48 sec) 
Heartbeat CPU 0 instructions: 390000001 cycles: 888829212 heartbeat IPC: 0.362274 cumulative IPC: 0.35346 (Simulation time: 0 hr 16 min 15 sec) 
Heartbeat CPU 0 instructions: 400000000 cycles: 917489896 heartbeat IPC: 0.34891 cumulative IPC: 0.353306 (Simulation time: 0 hr 16 min 42 sec) 
Heartbeat CPU 0 instructions: 410000001 cycles: 944757097 heartbeat IPC: 0.366741 cumulative IPC: 0.353724 (Simulation time: 0 hr 17 min 9 sec) 
Heartbeat CPU 0 instructions: 420000000 cycles: 972031026 heartbeat IPC: 0.36665 cumulative IPC: 0.354114 (Simulation time: 0 hr 17 min 36 sec) 
Heartbeat CPU 0 instructions: 430000002 cycles: 999731272 heartbeat IPC: 0.361008 cumulative IPC: 0.354319 (Simulation time: 0 hr 18 min 4 sec) 
Heartbeat CPU 0 instructions: 440000000 cycles: 1029384838 heartbeat IPC: 0.337227 cumulative IPC: 0.353792 (Simulation time: 0 hr 18 min 31 sec) 
Heartbeat CPU 0 instructions: 450000002 cycles: 1058671022 heartbeat IPC: 0.341458 cumulative IPC: 0.353427 (Simulation time: 0 hr 18 min 59 sec) 
Heartbeat CPU 0 instructions: 460000000 cycles: 1086360286 heartbeat IPC: 0.361151 cumulative IPC: 0.353637 (Simulation time: 0 hr 19 min 26 sec) 
Heartbeat CPU 0 instructions: 470000000 cycles: 1113973315 heartbeat IPC: 0.362148 cumulative IPC: 0.353862 (Simulation time: 0 hr 19 min 53 sec) 
Heartbeat CPU 0 instructions: 480000000 cycles: 1141832119 heartbeat IPC: 0.358953 cumulative IPC: 0.353994 (Simulation time: 0 hr 20 min 20 sec) 
Heartbeat CPU 0 instructions: 490000000 cycles: 1169387972 heartbeat IPC: 0.362899 cumulative IPC: 0.354217 (Simulation time: 0 hr 20 min 47 sec) 
Heartbeat CPU 0 instructions: 500000000 cycles: 1197703714 heartbeat IPC: 0.35316 cumulative IPC: 0.354191 (Simulation time: 0 hr 21 min 14 sec) 
Heartbeat CPU 0 instructions: 510000000 cycles: 1232301686 heartbeat IPC: 0.289034 cumulative IPC: 0.352254 (Simulation time: 0 hr 21 min 45 sec) 
Heartbeat CPU 0 instructions: 520000000 cycles: 1260286462 heartbeat IPC: 0.357337 cumulative IPC: 0.352373 (Simulation time: 0 hr 22 min 13 sec) 
Heartbeat CPU 0 instructions: 530000001 cycles: 1289623374 heartbeat IPC: 0.340868 cumulative IPC: 0.352097 (Simulation time: 0 hr 22 min 41 sec) 
Heartbeat CPU 0 instructions: 540000000 cycles: 1317718475 heartbeat IPC: 0.355934 cumulative IPC: 0.352183 (Simulation time: 0 hr 23 min 9 sec) 
Heartbeat CPU 0 instructions: 550000001 cycles: 1346950512 heartbeat IPC: 0.34209 cumulative IPC: 0.351952 (Simulation time: 0 hr 23 min 39 sec) 
Heartbeat CPU 0 instructions: 560000000 cycles: 1372373973 heartbeat IPC: 0.393337 cumulative IPC: 0.352759 (Simulation time: 0 hr 24 min 6 sec) 
Heartbeat CPU 0 instructions: 570000000 cycles: 1402106515 heartbeat IPC: 0.336332 cumulative IPC: 0.352393 (Simulation time: 0 hr 24 min 35 sec) 
Heartbeat CPU 0 instructions: 580000000 cycles: 1430149133 heartbeat IPC: 0.3566 cumulative IPC: 0.35248 (Simulation time: 0 hr 25 min 3 sec) 
Heartbeat CPU 0 instructions: 590000001 cycles: 1454879687 heartbeat IPC: 0.404358 cumulative IPC: 0.353405 (Simulation time: 0 hr 25 min 29 sec) 
Heartbeat CPU 0 instructions: 600000000 cycles: 1480944458 heartbeat IPC: 0.38366 cumulative IPC: 0.353963 (Simulation time: 0 hr 25 min 56 sec) 
Finished CPU 0 instructions: 500000000 cycles: 1412576385 cumulative IPC: 0.353963 (Simulation time: 0 hr 25 min 56 sec) 

CPU 0 Branch Prediction Accuracy: 86.4311% MPKI: 26.2662
Number of Branches: 96788573 Number of Mispredictions: 13133102
Number of LOAD Instructions: 164682285
Number of LOAD Instructions (ROI): 164682285
Number of STORE Instructions: 78194750
Number of STORE Instructions (ROI): 78194750
Total Destination Memory Operands: 83268534
Total Destination Memory Operands (ROI): 83268534
Total Source Memory Operands: 164712438
Total Source Memory Operands (ROI): 164712438
Number of DEPENDED LOADS: 7057740
Number of DEPENDED LOADS (ROI): 7057740
Number of SQ_ADDED: 83268522
Number of SQ_ADDED (ROI): 83268522
Number of LQ_ADDED: 236614955
Number of LQ_ADDED (ROI): 236614955
Number of Instructions read from trace: 600000066

ChampSim completed all CPUs

Region of Interest Statistics

CPU 0 cumulative IPC: 0.353963 instructions: 500000000 cycles: 1412576385
ITLB TOTAL     ACCESS:  100517938  HIT:  100313492  MISS:     204446
ITLB LOAD      ACCESS:  100517938  HIT:  100313492  MISS:     204446
ITLB RFO       ACCESS:          0  HIT:          0  MISS:          0
ITLB PREFETCH  ACCESS:          0  HIT:          0  MISS:          0
ITLB WRITEBACK ACCESS:          0  HIT:          0  MISS:          0
ITLB PREFETCH  REQUESTED:          0  ISSUED:          0  USEFUL:          0  USELESS:          0
ITLB TOTAL MSHR MERGED:     172424
ITLB LOAD MSHR MERGED:     172424
ITLB RFO MSHR MERGED:          0
ITLB PREFETCH MSHR MERGED:          0
ITLB WRITEBACK MSHR MERGED:          0
ITLB TOTAL ACCESSES:  100690362 HITS:  100313492 MISSES:     376870
ITLB LOAD ACCESSES:  100690362 HITS:  100313492 MISSES:     376870
ITLB RFO ACCESSES:          0 HITS:          0 MISSES:          0
ITLB PREFETCH ACCESSES:          0 HITS:          0 MISSES:          0
ITLB WRITEBACK ACCESSES:          0 HITS:          0 MISSES:          0
ITLB RQ ACCESS:  500000057
ITLB RQ TO_CACHE:  100690362
ITLB RQ MERGED:  399309695
ITLB RQ FORWARD:          0
ITLB WQ ACCESS:          0
ITLB WQ TO_CACHE:          0
ITLB WQ MERGED:          0
ITLB WQ FORWARD:          0
DTLB TOTAL     ACCESS:  165339456  HIT:  164705110  MISS:     634346
DTLB LOAD      ACCESS:  106294493  HIT:  105724554  MISS:     569939
DTLB RFO       ACCESS:   59044963  HIT:   58980556  MISS:      64407
DTLB PREFETCH  ACCESS:          0  HIT:          0  MISS:          0
DTLB WRITEBACK ACCESS:          0  HIT:          0  MISS:          0
DTLB PREFETCH  REQUESTED:          0  ISSUED:          0  USEFUL:          0  USELESS:          0
DTLB TOTAL MSHR MERGED:      99922
DTLB LOAD MSHR MERGED:      59413
DTLB RFO MSHR MERGED:      40509
DTLB PREFETCH MSHR MERGED:          0
DTLB WRITEBACK MSHR MERGED:          0
DTLB TOTAL ACCESSES:  165439378 HITS:  164705110 MISSES:     734268
DTLB LOAD ACCESSES:  106353906 HITS:  105724554 MISSES:     629352
DTLB RFO ACCESSES:   59085472 HITS:   58980556 MISSES:     104916
DTLB PREFETCH ACCESSES:          0 HITS:          0 MISSES:          0
DTLB WRITEBACK ACCESSES:          0 HITS:          0 MISSES:          0
DTLB RQ ACCESS:  200313151
DTLB RQ TO_CACHE:  165439378
DTLB RQ MERGED:   34873773
DTLB RQ FORWARD:          0
DTLB WQ ACCESS:          0
DTLB WQ TO_CACHE:          0
DTLB WQ MERGED:          0
DTLB WQ FORWARD:          0
L1D TOTAL     ACCESS:  281864166  HIT:  273954768  MISS:    7909398
L1D LOAD      ACCESS:  110428797  HIT:  107153543  MISS:    3275254
L1D RFO       ACCESS:   67120281  HIT:   66229710  MISS:     890571
L1D PREFETCH  ACCESS:  104315088  HIT:  100571515  MISS:    3743573
L1D WRITEBACK ACCESS:          0  HIT:          0  MISS:          0
L1D PREFETCH  REQUESTED:  110819209  ISSUED:  109119866  USEFUL:    1664241  USELESS:    2079296
L1D TOTAL MSHR MERGED:    2844492
L1D LOAD MSHR MERGED:     485199
L1D RFO MSHR MERGED:    1865516
L1D PREFETCH MSHR MERGED:     493777
L1D WRITEBACK MSHR MERGED:          0
L1D TOTAL ACCESSES:  284736085 HITS:  273982195 MISSES:   10753890
L1D LOAD ACCESSES:  110820644 HITS:  107154978 MISSES:    3665666
L1D RFO ACCESSES:   68974054 HITS:   66229710 MISSES:    2744344
L1D PREFETCH ACCESSES:  104941387 HITS:  100597507 MISSES:    4343880
L1D WRITEBACK ACCESSES:          0 HITS:          0 MISSES:          0
L1D RQ ACCESS:  130760548
L1D RQ TO_CACHE:  110819212
L1D RQ MERGED:   19939901
L1D RQ FORWARD:          0
L1D WQ ACCESS:   69552603
L1D WQ TO_CACHE:   68974055
L1D WQ MERGED:     578548
L1D WQ FORWARD:      27427
L1I TOTAL     ACCESS:  126565170  HIT:  122326619  MISS:    4238551
L1I LOAD      ACCESS:  126565170  HIT:  122326619  MISS:    4238551
L1I RFO       ACCESS:          0  HIT:          0  MISS:          0
L1I PREFETCH  ACCESS:          0  HIT:          0  MISS:          0
L1I WRITEBACK ACCESS:          0  HIT:          0  MISS:          0
L1I PREFETCH  REQUESTED:          0  ISSUED:          0  USEFUL:          0  USELESS:          0
L1I TOTAL MSHR MERGED:    1834798
L1I LOAD MSHR MERGED:    1834798
L1I RFO MSHR MERGED:          0
L1I PREFETCH MSHR MERGED:          0
L1I WRITEBACK MSHR MERGED:          0
L1I TOTAL ACCESSES:  128399971 HITS:  122326619 MISSES:    6073352
L1I LOAD ACCESSES:  128399971 HITS:  122326619 MISSES:    6073352
L1I RFO ACCESSES:          0 HITS:          0 MISSES:          0
L1I PREFETCH ACCESSES:          0 HITS:          0 MISSES:          0
L1I WRITEBACK ACCESSES:          0 HITS:          0 MISSES:          0
L1I RQ ACCESS:  500000057
L1I RQ TO_CACHE:  128399971
L1I RQ MERGED:  371600086
L1I RQ FORWARD:          0
L1I WQ ACCESS:          0
L1I WQ TO_CACHE:          0
L1I WQ MERGED:          0
L1I WQ FORWARD:          0
L2C TOTAL     ACCESS:   14905561  HIT:   11159046  MISS:    3746515
L2C LOAD      ACCESS:    7418812  HIT:    5098889  MISS:    2319923
L2C RFO       ACCESS:     878729  HIT:     409920  MISS:     468809
L2C PREFETCH  ACCESS:    4568760  HIT:    3628231  MISS:     940529
L2C WRITEBACK ACCESS:    2039260  HIT:    2022006  MISS:      17254
L2C PREFETCH  REQUESTED:     842790  ISSUED:     842790  USEFUL:     203435  USELESS:     736800
L2C TOTAL MSHR MERGED:       6872
L2C LOAD MSHR MERGED:        765
L2C RFO MSHR MERGED:          0
L2C PREFETCH MSHR MERGED:       6107
L2C WRITEBACK MSHR MERGED:          0
L2C TOTAL ACCESSES:   14913279 HITS:   11159495 MISSES:    3753784
L2C LOAD ACCESSES:    7419018 HITS:    5099095 MISSES:    2319923
L2C RFO ACCESSES:     878828 HITS:     410019 MISSES:     468809
L2C PREFETCH ACCESSES:    4576173 HITS:    3628375 MISSES:     947798
L2C WRITEBACK ACCESSES:    2039260 HITS:    2022006 MISSES:      17254
L2C RQ ACCESS:    8297849
L2C RQ TO_CACHE:    8297544
L2C RQ MERGED:          0
L2C RQ FORWARD:          0
L2C WQ ACCESS:    2039260
L2C WQ TO_CACHE:    2039260
L2C WQ MERGED:          0
L2C WQ FORWARD:        449
LLC TOTAL     ACCESS:    4609825  HIT:    3988937  MISS:     620888
LLC LOAD      ACCESS:    2319144  HIT:    2041275  MISS:     277869
LLC RFO       ACCESS:     468799  HIT:     404601  MISS:      64198
LLC PREFETCH  ACCESS:     941590  HIT:     698567  MISS:     243023
LLC WRITEBACK ACCESS:     880292  HIT:     844494  MISS:      35798
LLC PREFETCH  REQUESTED:          0  ISSUED:          0  USEFUL:      29917  USELESS:     213438
LLC TOTAL MSHR MERGED:         79
LLC LOAD MSHR MERGED:         26
LLC RFO MSHR MERGED:          0
LLC PREFETCH MSHR MERGED:         53
LLC WRITEBACK MSHR MERGED:          0
LLC TOTAL ACCESSES:    4609939 HITS:    3988972 MISSES:     620967
LLC LOAD ACCESSES:    2319158 HITS:    2041289 MISSES:     277869
LLC RFO ACCESSES:     468809 HITS:     404611 MISSES:      64198
LLC PREFETCH ACCESSES:     941680 HITS:     698578 MISSES:     243102
LLC WRITEBACK ACCESSES:     880292 HITS:     844494 MISSES:      35798
LLC 0 RQ ACCESS:    2787967
LLC 0 RQ TO_CACHE:    2787943
LLC 0 RQ MERGED:          0
LLC 0 RQ FORWARD:          0
LLC WQ ACCESS:     880292
LLC WQ TO_CACHE:     880292
LLC WQ MERGED:          0
LLC WQ FORWARD:         35
Major fault: 0 Minor fault: 12862
CPU 0 L1D next line prefetcher final stats
CPU 0 L2C PC-based stride prefetcher final stats
All Misses: 741173
All Hits: 4685658
SD Algo Stats - Switches: 0 SRR-Repls: 327343 BRR-Repls: 0

DRAM Statistics
 CHANNEL 0
 RQ ROW_BUFFER_HIT:     127285  ROW_BUFFER_MISS:     456730
 DBUS_CONGESTED:     342307
 WQ ROW_BUFFER_HIT:      12871  ROW_BUFFER_MISS:     168229  FULL:          0

 AVG_CONGESTED_CYCLE: 13
LOADS RETIRED: 136549171
INSTR RETIRED: 500000000
