
*** ChampSim Multicore Out-of-Order Simulator ***

Warmup Instructions: 100000000
Simulation Instructions: 500000000
Number of CPUs: 1
LLC sets: 2048
LLC ways: 16
Clean RRIP Policies: 1213130112131301 Dirty RRIP Policies: 2213130122131301 PSEL Width: 10 Track Set: 4294967295 PSEL Mask: 1 Demote Mask: 3340101033401010DS Algo: 0Window size: 0
Off-chip DRAM Size: 4096 MB Channels: 1 Width: 64-bit Data Rate: 1600 MT/s

CPU 0 runs /mnt/beegfs/iconst01/spec2017/x264.trace.gz
NOT SORTED
TRACE STRING: /mnt/beegfs/iconst01/spec2017/x264.trace.gz
SORTED
TRACE STRING: /mnt/beegfs/iconst01/spec2017/x264.trace.gz
INITIAL
TRACE STRING: /mnt/beegfs/iconst01/spec2017/x264.trace.gz

champsim_seed used: 276

CPU 0 L1D next line prefetcher
CPU 0 L2C IP-based stride prefetcher
Initialize DRRIP state
Assign rand_sets[0]: 454  LLC: 2048
rand_sets[0]: 454
Assign rand_sets[1]: 1662  LLC: 2048
rand_sets[1]: 1662
Assign rand_sets[2]: 1921  LLC: 2048
rand_sets[2]: 1921
Assign rand_sets[3]: 1131  LLC: 2048
rand_sets[3]: 1131
Assign rand_sets[4]: 331  LLC: 2048
rand_sets[4]: 331
Assign rand_sets[5]: 1531  LLC: 2048
rand_sets[5]: 1531
Assign rand_sets[6]: 482  LLC: 2048
rand_sets[6]: 482
Assign rand_sets[7]: 1275  LLC: 2048
rand_sets[7]: 1275
Assign rand_sets[8]: 1876  LLC: 2048
rand_sets[8]: 1876
Assign rand_sets[9]: 2038  LLC: 2048
rand_sets[9]: 2038
Assign rand_sets[10]: 701  LLC: 2048
rand_sets[10]: 701
Assign rand_sets[11]: 479  LLC: 2048
rand_sets[11]: 479
Assign rand_sets[12]: 892  LLC: 2048
rand_sets[12]: 892
Assign rand_sets[13]: 1820  LLC: 2048
rand_sets[13]: 1820
Assign rand_sets[14]: 1505  LLC: 2048
rand_sets[14]: 1505
Assign rand_sets[15]: 1159  LLC: 2048
rand_sets[15]: 1159
Assign rand_sets[16]: 513  LLC: 2048
rand_sets[16]: 513
Assign rand_sets[17]: 703  LLC: 2048
rand_sets[17]: 703
Assign rand_sets[18]: 561  LLC: 2048
rand_sets[18]: 561
Assign rand_sets[19]: 990  LLC: 2048
rand_sets[19]: 990
Assign rand_sets[20]: 342  LLC: 2048
rand_sets[20]: 342
Assign rand_sets[21]: 882  LLC: 2048
rand_sets[21]: 882
Assign rand_sets[22]: 15  LLC: 2048
rand_sets[22]: 15
Assign rand_sets[23]: 71  LLC: 2048
rand_sets[23]: 71
Assign rand_sets[24]: 1127  LLC: 2048
rand_sets[24]: 1127
Assign rand_sets[25]: 1382  LLC: 2048
rand_sets[25]: 1382
Assign rand_sets[26]: 647  LLC: 2048
rand_sets[26]: 647
Assign rand_sets[27]: 857  LLC: 2048
rand_sets[27]: 857
Assign rand_sets[28]: 1450  LLC: 2048
rand_sets[28]: 1450
Assign rand_sets[29]: 1160  LLC: 2048
rand_sets[29]: 1160
Assign rand_sets[30]: 1852  LLC: 2048
rand_sets[30]: 1852
Assign rand_sets[31]: 1881  LLC: 2048
rand_sets[31]: 1881
Assign rand_sets[32]: 1770  LLC: 2048
rand_sets[32]: 1770
Assign rand_sets[33]: 1622  LLC: 2048
rand_sets[33]: 1622
Assign rand_sets[34]: 275  LLC: 2048
rand_sets[34]: 275
Assign rand_sets[35]: 635  LLC: 2048
rand_sets[35]: 635
Assign rand_sets[36]: 466  LLC: 2048
rand_sets[36]: 466
Assign rand_sets[37]: 1413  LLC: 2048
rand_sets[37]: 1413
Assign rand_sets[38]: 417  LLC: 2048
rand_sets[38]: 417
Assign rand_sets[39]: 472  LLC: 2048
rand_sets[39]: 472
Assign rand_sets[40]: 1340  LLC: 2048
rand_sets[40]: 1340
Assign rand_sets[41]: 852  LLC: 2048
rand_sets[41]: 852
Assign rand_sets[42]: 1365  LLC: 2048
rand_sets[42]: 1365
Assign rand_sets[43]: 47  LLC: 2048
rand_sets[43]: 47
Assign rand_sets[44]: 823  LLC: 2048
rand_sets[44]: 823
Assign rand_sets[45]: 686  LLC: 2048
rand_sets[45]: 686
Assign rand_sets[46]: 1637  LLC: 2048
rand_sets[46]: 1637
Assign rand_sets[47]: 1115  LLC: 2048
rand_sets[47]: 1115
Assign rand_sets[48]: 986  LLC: 2048
rand_sets[48]: 986
Assign rand_sets[49]: 258  LLC: 2048
rand_sets[49]: 258
Assign rand_sets[50]: 633  LLC: 2048
rand_sets[50]: 633
Assign rand_sets[51]: 920  LLC: 2048
rand_sets[51]: 920
Assign rand_sets[52]: 204  LLC: 2048
rand_sets[52]: 204
Assign rand_sets[53]: 227  LLC: 2048
rand_sets[53]: 227
Assign rand_sets[54]: 1818  LLC: 2048
rand_sets[54]: 1818
Assign rand_sets[55]: 886  LLC: 2048
rand_sets[55]: 886
Assign rand_sets[56]: 1422  LLC: 2048
rand_sets[56]: 1422
Assign rand_sets[57]: 607  LLC: 2048
rand_sets[57]: 607
Assign rand_sets[58]: 217  LLC: 2048
rand_sets[58]: 217
Assign rand_sets[59]: 1945  LLC: 2048
rand_sets[59]: 1945
Assign rand_sets[60]: 143  LLC: 2048
rand_sets[60]: 143
Assign rand_sets[61]: 1311  LLC: 2048
rand_sets[61]: 1311
Assign rand_sets[62]: 319  LLC: 2048
rand_sets[62]: 319
Assign rand_sets[63]: 1846  LLC: 2048
rand_sets[63]: 1846
 CLEAN-RRIP-POLICY-1: 1-2-1-3-1-3-0-1- CLEAN-RRIP-POLICY-2: 1-2-1-3-1-3-0-1-
 DIRTY-RRIP-POLICY-1: 2-2-1-3-1-3-0-1- DIRTY-RRIP-POLICY-2: 2-2-1-3-1-3-0-1-
 PSEL width: 10
Heartbeat CPU 0 instructions: 10000000 cycles: 4124759 heartbeat IPC: 2.42438 cumulative IPC: 2.42438 (Simulation time: 0 hr 0 min 13 sec) 
Heartbeat CPU 0 instructions: 20000000 cycles: 8233863 heartbeat IPC: 2.43362 cumulative IPC: 2.42899 (Simulation time: 0 hr 0 min 27 sec) 
Heartbeat CPU 0 instructions: 30000003 cycles: 12464696 heartbeat IPC: 2.3636 cumulative IPC: 2.4068 (Simulation time: 0 hr 0 min 40 sec) 
Heartbeat CPU 0 instructions: 40000000 cycles: 16636669 heartbeat IPC: 2.39695 cumulative IPC: 2.40433 (Simulation time: 0 hr 0 min 54 sec) 
Heartbeat CPU 0 instructions: 50000000 cycles: 20699131 heartbeat IPC: 2.46156 cumulative IPC: 2.41556 (Simulation time: 0 hr 1 min 7 sec) 
Heartbeat CPU 0 instructions: 60000000 cycles: 25022622 heartbeat IPC: 2.31295 cumulative IPC: 2.39783 (Simulation time: 0 hr 1 min 21 sec) 
Heartbeat CPU 0 instructions: 70000000 cycles: 29371021 heartbeat IPC: 2.2997 cumulative IPC: 2.3833 (Simulation time: 0 hr 1 min 34 sec) 
Heartbeat CPU 0 instructions: 80000000 cycles: 33721190 heartbeat IPC: 2.29876 cumulative IPC: 2.3724 (Simulation time: 0 hr 1 min 47 sec) 
Heartbeat CPU 0 instructions: 90000002 cycles: 38032199 heartbeat IPC: 2.31964 cumulative IPC: 2.36642 (Simulation time: 0 hr 2 min 1 sec) 
Heartbeat CPU 0 instructions: 100000000 cycles: 42329179 heartbeat IPC: 2.32722 cumulative IPC: 2.36244 (Simulation time: 0 hr 2 min 14 sec) 

Warmup complete CPU 0 instructions: 100000001 cycles: 42329180 (Simulation time: 0 hr 2 min 14 sec) 

Heartbeat CPU 0 instructions: 110000001 cycles: 49382648 heartbeat IPC: 1.41774 cumulative IPC: 1.41774 (Simulation time: 0 hr 2 min 32 sec) 
Heartbeat CPU 0 instructions: 120000000 cycles: 58878444 heartbeat IPC: 1.0531 cumulative IPC: 1.20851 (Simulation time: 0 hr 2 min 51 sec) 
Heartbeat CPU 0 instructions: 130000000 cycles: 63712785 heartbeat IPC: 2.06853 cumulative IPC: 1.40294 (Simulation time: 0 hr 3 min 9 sec) 
Heartbeat CPU 0 instructions: 140000000 cycles: 68662057 heartbeat IPC: 2.0205 cumulative IPC: 1.51901 (Simulation time: 0 hr 3 min 26 sec) 
Heartbeat CPU 0 instructions: 150000002 cycles: 75484126 heartbeat IPC: 1.46583 cumulative IPC: 1.50807 (Simulation time: 0 hr 3 min 44 sec) 
Heartbeat CPU 0 instructions: 160000000 cycles: 83313201 heartbeat IPC: 1.27729 cumulative IPC: 1.46399 (Simulation time: 0 hr 4 min 2 sec) 
Heartbeat CPU 0 instructions: 170000000 cycles: 90709734 heartbeat IPC: 1.35198 cumulative IPC: 1.44686 (Simulation time: 0 hr 4 min 20 sec) 
Heartbeat CPU 0 instructions: 180000000 cycles: 98018432 heartbeat IPC: 1.36823 cumulative IPC: 1.43654 (Simulation time: 0 hr 4 min 37 sec) 
Heartbeat CPU 0 instructions: 190000002 cycles: 105187334 heartbeat IPC: 1.39491 cumulative IPC: 1.4318 (Simulation time: 0 hr 4 min 55 sec) 
Heartbeat CPU 0 instructions: 200000000 cycles: 112421090 heartbeat IPC: 1.38241 cumulative IPC: 1.4267 (Simulation time: 0 hr 5 min 12 sec) 
Heartbeat CPU 0 instructions: 210000000 cycles: 119285480 heartbeat IPC: 1.45679 cumulative IPC: 1.42938 (Simulation time: 0 hr 5 min 29 sec) 
Heartbeat CPU 0 instructions: 220000000 cycles: 126060832 heartbeat IPC: 1.47594 cumulative IPC: 1.43315 (Simulation time: 0 hr 5 min 46 sec) 
Heartbeat CPU 0 instructions: 230000003 cycles: 132783132 heartbeat IPC: 1.48759 cumulative IPC: 1.4372 (Simulation time: 0 hr 6 min 3 sec) 
Heartbeat CPU 0 instructions: 240000000 cycles: 139525694 heartbeat IPC: 1.48312 cumulative IPC: 1.44038 (Simulation time: 0 hr 6 min 20 sec) 
Heartbeat CPU 0 instructions: 250000001 cycles: 146253231 heartbeat IPC: 1.48643 cumulative IPC: 1.44336 (Simulation time: 0 hr 6 min 37 sec) 
Heartbeat CPU 0 instructions: 260000000 cycles: 152955786 heartbeat IPC: 1.49197 cumulative IPC: 1.44631 (Simulation time: 0 hr 6 min 54 sec) 
Heartbeat CPU 0 instructions: 270000001 cycles: 159923549 heartbeat IPC: 1.43518 cumulative IPC: 1.44565 (Simulation time: 0 hr 7 min 11 sec) 
Heartbeat CPU 0 instructions: 280000000 cycles: 167454809 heartbeat IPC: 1.3278 cumulative IPC: 1.43855 (Simulation time: 0 hr 7 min 29 sec) 
Heartbeat CPU 0 instructions: 290000000 cycles: 175376006 heartbeat IPC: 1.26244 cumulative IPC: 1.42807 (Simulation time: 0 hr 7 min 47 sec) 
Heartbeat CPU 0 instructions: 300000000 cycles: 183551083 heartbeat IPC: 1.22323 cumulative IPC: 1.41621 (Simulation time: 0 hr 8 min 5 sec) 
Heartbeat CPU 0 instructions: 310000002 cycles: 191855162 heartbeat IPC: 1.20423 cumulative IPC: 1.40444 (Simulation time: 0 hr 8 min 24 sec) 
Heartbeat CPU 0 instructions: 320000000 cycles: 201862239 heartbeat IPC: 0.999293 cumulative IPC: 1.37902 (Simulation time: 0 hr 8 min 44 sec) 
Heartbeat CPU 0 instructions: 330000002 cycles: 206514470 heartbeat IPC: 2.14951 cumulative IPC: 1.40086 (Simulation time: 0 hr 9 min 1 sec) 
Heartbeat CPU 0 instructions: 340000000 cycles: 211782853 heartbeat IPC: 1.89812 cumulative IPC: 1.41632 (Simulation time: 0 hr 9 min 19 sec) 
Heartbeat CPU 0 instructions: 350000000 cycles: 218986888 heartbeat IPC: 1.38811 cumulative IPC: 1.41517 (Simulation time: 0 hr 9 min 37 sec) 
Heartbeat CPU 0 instructions: 360000000 cycles: 226643815 heartbeat IPC: 1.30601 cumulative IPC: 1.41063 (Simulation time: 0 hr 9 min 55 sec) 
Heartbeat CPU 0 instructions: 370000000 cycles: 234042578 heartbeat IPC: 1.35158 cumulative IPC: 1.40835 (Simulation time: 0 hr 10 min 13 sec) 
Heartbeat CPU 0 instructions: 380000000 cycles: 241312129 heartbeat IPC: 1.3756 cumulative IPC: 1.40716 (Simulation time: 0 hr 10 min 30 sec) 
Heartbeat CPU 0 instructions: 390000000 cycles: 249422495 heartbeat IPC: 1.23299 cumulative IPC: 1.40033 (Simulation time: 0 hr 10 min 49 sec) 
Heartbeat CPU 0 instructions: 400000000 cycles: 257625196 heartbeat IPC: 1.21911 cumulative IPC: 1.39343 (Simulation time: 0 hr 11 min 7 sec) 
Heartbeat CPU 0 instructions: 410000001 cycles: 265443667 heartbeat IPC: 1.27902 cumulative IPC: 1.38942 (Simulation time: 0 hr 11 min 25 sec) 
Heartbeat CPU 0 instructions: 420000000 cycles: 273484479 heartbeat IPC: 1.24366 cumulative IPC: 1.38435 (Simulation time: 0 hr 11 min 44 sec) 
Heartbeat CPU 0 instructions: 430000001 cycles: 281731783 heartbeat IPC: 1.21252 cumulative IPC: 1.37843 (Simulation time: 0 hr 12 min 2 sec) 
Heartbeat CPU 0 instructions: 440000000 cycles: 289769032 heartbeat IPC: 1.24421 cumulative IPC: 1.37407 (Simulation time: 0 hr 12 min 21 sec) 
Heartbeat CPU 0 instructions: 450000001 cycles: 297640766 heartbeat IPC: 1.27037 cumulative IPC: 1.37087 (Simulation time: 0 hr 12 min 39 sec) 
Heartbeat CPU 0 instructions: 460000000 cycles: 307579408 heartbeat IPC: 1.00617 cumulative IPC: 1.35721 (Simulation time: 0 hr 12 min 59 sec) 
Heartbeat CPU 0 instructions: 470000002 cycles: 312221836 heartbeat IPC: 2.15405 cumulative IPC: 1.37092 (Simulation time: 0 hr 13 min 15 sec) 
Heartbeat CPU 0 instructions: 480000000 cycles: 317507979 heartbeat IPC: 1.89174 cumulative IPC: 1.38092 (Simulation time: 0 hr 13 min 32 sec) 
Heartbeat CPU 0 instructions: 490000001 cycles: 324822825 heartbeat IPC: 1.36708 cumulative IPC: 1.38056 (Simulation time: 0 hr 13 min 51 sec) 
Heartbeat CPU 0 instructions: 500000000 cycles: 333551076 heartbeat IPC: 1.1457 cumulative IPC: 1.37352 (Simulation time: 0 hr 14 min 11 sec) 
Heartbeat CPU 0 instructions: 510000002 cycles: 342281997 heartbeat IPC: 1.14535 cumulative IPC: 1.36688 (Simulation time: 0 hr 14 min 32 sec) 
Heartbeat CPU 0 instructions: 520000000 cycles: 351010010 heartbeat IPC: 1.14574 cumulative IPC: 1.36063 (Simulation time: 0 hr 14 min 52 sec) 
Heartbeat CPU 0 instructions: 530000000 cycles: 359716433 heartbeat IPC: 1.14858 cumulative IPC: 1.35481 (Simulation time: 0 hr 15 min 12 sec) 
Heartbeat CPU 0 instructions: 540000000 cycles: 367970050 heartbeat IPC: 1.21159 cumulative IPC: 1.35118 (Simulation time: 0 hr 15 min 31 sec) 
Heartbeat CPU 0 instructions: 550000000 cycles: 375008484 heartbeat IPC: 1.42077 cumulative IPC: 1.35265 (Simulation time: 0 hr 15 min 49 sec) 
Heartbeat CPU 0 instructions: 560000000 cycles: 381618745 heartbeat IPC: 1.5128 cumulative IPC: 1.35577 (Simulation time: 0 hr 16 min 7 sec) 
Heartbeat CPU 0 instructions: 570000002 cycles: 388209630 heartbeat IPC: 1.51725 cumulative IPC: 1.35885 (Simulation time: 0 hr 16 min 24 sec) 
Heartbeat CPU 0 instructions: 580000000 cycles: 394854597 heartbeat IPC: 1.5049 cumulative IPC: 1.3616 (Simulation time: 0 hr 16 min 41 sec) 
Heartbeat CPU 0 instructions: 590000002 cycles: 401542810 heartbeat IPC: 1.49517 cumulative IPC: 1.36409 (Simulation time: 0 hr 16 min 58 sec) 
Heartbeat CPU 0 instructions: 600000000 cycles: 408354491 heartbeat IPC: 1.46807 cumulative IPC: 1.36603 (Simulation time: 0 hr 17 min 15 sec) 
Finished CPU 0 instructions: 500000000 cycles: 366025319 cumulative IPC: 1.36603 (Simulation time: 0 hr 17 min 15 sec) 

CPU 0 Branch Prediction Accuracy: 93.4682% MPKI: 2.44079
Number of Branches: 18683822 Number of Mispredictions: 1220394
Number of LOAD Instructions: 142551610
Number of LOAD Instructions (ROI): 142551610
Number of STORE Instructions: 44807454
Number of STORE Instructions (ROI): 44807454
Total Destination Memory Operands: 48357071
Total Destination Memory Operands (ROI): 48357071
Total Source Memory Operands: 142551610
Total Source Memory Operands (ROI): 142551610
Number of DEPENDED LOADS: 7395055
Number of DEPENDED LOADS (ROI): 7395055
Number of SQ_ADDED: 48357051
Number of SQ_ADDED (ROI): 48357051
Number of LQ_ADDED: 157217546
Number of LQ_ADDED (ROI): 157217546
Number of Instructions read from trace: 600000256

ChampSim completed all CPUs

Region of Interest Statistics

CPU 0 cumulative IPC: 1.36603 instructions: 500000000 cycles: 366025319
ITLB TOTAL     ACCESS:   88177449  HIT:   88177380  MISS:         69
ITLB LOAD      ACCESS:   88177449  HIT:   88177380  MISS:         69
ITLB RFO       ACCESS:          0  HIT:          0  MISS:          0
ITLB PREFETCH  ACCESS:          0  HIT:          0  MISS:          0
ITLB WRITEBACK ACCESS:          0  HIT:          0  MISS:          0
ITLB PREFETCH  REQUESTED:          0  ISSUED:          0  USEFUL:          0  USELESS:          0
ITLB TOTAL MSHR MERGED:         85
ITLB LOAD MSHR MERGED:         85
ITLB RFO MSHR MERGED:          0
ITLB PREFETCH MSHR MERGED:          0
ITLB WRITEBACK MSHR MERGED:          0
ITLB TOTAL ACCESSES:   88177534 HITS:   88177380 MISSES:        154
ITLB LOAD ACCESSES:   88177534 HITS:   88177380 MISSES:        154
ITLB RFO ACCESSES:          0 HITS:          0 MISSES:          0
ITLB PREFETCH ACCESSES:          0 HITS:          0 MISSES:          0
ITLB WRITEBACK ACCESSES:          0 HITS:          0 MISSES:          0
ITLB RQ ACCESS:  500000000
ITLB RQ TO_CACHE:   88177534
ITLB RQ MERGED:  411822466
ITLB RQ FORWARD:          0
ITLB WQ ACCESS:          0
ITLB WQ TO_CACHE:          0
ITLB WQ MERGED:          0
ITLB WQ FORWARD:          0
DTLB TOTAL     ACCESS:   88203750  HIT:   88076333  MISS:     127417
DTLB LOAD      ACCESS:   59485667  HIT:   59393206  MISS:      92461
DTLB RFO       ACCESS:   28718083  HIT:   28683127  MISS:      34956
DTLB PREFETCH  ACCESS:          0  HIT:          0  MISS:          0
DTLB WRITEBACK ACCESS:          0  HIT:          0  MISS:          0
DTLB PREFETCH  REQUESTED:          0  ISSUED:          0  USEFUL:          0  USELESS:          0
DTLB TOTAL MSHR MERGED:     140853
DTLB LOAD MSHR MERGED:     107582
DTLB RFO MSHR MERGED:      33271
DTLB PREFETCH MSHR MERGED:          0
DTLB WRITEBACK MSHR MERGED:          0
DTLB TOTAL ACCESSES:   88344603 HITS:   88076333 MISSES:     268270
DTLB LOAD ACCESSES:   59593249 HITS:   59393206 MISSES:     200043
DTLB RFO ACCESSES:   28751354 HITS:   28683127 MISSES:      68227
DTLB PREFETCH ACCESSES:          0 HITS:          0 MISSES:          0
DTLB WRITEBACK ACCESSES:          0 HITS:          0 MISSES:          0
DTLB RQ ACCESS:  154558839
DTLB RQ TO_CACHE:   88344603
DTLB RQ MERGED:   66214236
DTLB RQ FORWARD:          0
DTLB WQ ACCESS:          0
DTLB WQ TO_CACHE:          0
DTLB WQ MERGED:          0
DTLB WQ FORWARD:          0
L1D TOTAL     ACCESS:  127880731  HIT:  124655171  MISS:    3225560
L1D LOAD      ACCESS:   53172361  HIT:   51976761  MISS:    1195600
L1D RFO       ACCESS:   37338601  HIT:   36724307  MISS:     614294
L1D PREFETCH  ACCESS:   37369769  HIT:   35954103  MISS:    1415666
L1D WRITEBACK ACCESS:          0  HIT:          0  MISS:          0
L1D PREFETCH  REQUESTED:   53657905  ISSUED:   52457602  USEFUL:     351845  USELESS:    1063786
L1D TOTAL MSHR MERGED:    2967425
L1D LOAD MSHR MERGED:     524500
L1D RFO MSHR MERGED:    1615603
L1D PREFETCH MSHR MERGED:     827322
L1D WRITEBACK MSHR MERGED:          0
L1D TOTAL ACCESSES:  130882836 HITS:  124689851 MISSES:    6192985
L1D LOAD ACCESSES:   53660594 HITS:   51979450 MISSES:    1681144
L1D RFO ACCESSES:   38952858 HITS:   36724307 MISSES:    2228551
L1D PREFETCH ACCESSES:   38269384 HITS:   35986094 MISSES:    2283290
L1D WRITEBACK ACCESSES:          0 HITS:          0 MISSES:          0
L1D RQ ACCESS:  113713947
L1D RQ TO_CACHE:   53657905
L1D RQ MERGED:   60053353
L1D RQ FORWARD:          0
L1D WQ ACCESS:   40844891
L1D WQ TO_CACHE:   38952858
L1D WQ MERGED:    1892033
L1D WQ FORWARD:      34680
L1I TOTAL     ACCESS:  108368922  HIT:  107809789  MISS:     559133
L1I LOAD      ACCESS:  108368922  HIT:  107809789  MISS:     559133
L1I RFO       ACCESS:          0  HIT:          0  MISS:          0
L1I PREFETCH  ACCESS:          0  HIT:          0  MISS:          0
L1I WRITEBACK ACCESS:          0  HIT:          0  MISS:          0
L1I PREFETCH  REQUESTED:          0  ISSUED:          0  USEFUL:          0  USELESS:          0
L1I TOTAL MSHR MERGED:     525748
L1I LOAD MSHR MERGED:     525748
L1I RFO MSHR MERGED:          0
L1I PREFETCH MSHR MERGED:          0
L1I WRITEBACK MSHR MERGED:          0
L1I TOTAL ACCESSES:  108894670 HITS:  107809789 MISSES:    1084881
L1I LOAD ACCESSES:  108894670 HITS:  107809789 MISSES:    1084881
L1I RFO ACCESSES:          0 HITS:          0 MISSES:          0
L1I PREFETCH ACCESSES:          0 HITS:          0 MISSES:          0
L1I WRITEBACK ACCESSES:          0 HITS:          0 MISSES:          0
L1I RQ ACCESS:  500000002
L1I RQ TO_CACHE:  108894670
L1I RQ MERGED:  391105332
L1I RQ FORWARD:          0
L1I WQ ACCESS:          0
L1I WQ TO_CACHE:          0
L1I WQ MERGED:          0
L1I WQ FORWARD:          0
L2C TOTAL     ACCESS:    4691421  HIT:    3865456  MISS:     825965
L2C LOAD      ACCESS:    1715665  HIT:    1562375  MISS:     153290
L2C RFO       ACCESS:     611534  HIT:     421181  MISS:     190353
L2C PREFETCH  ACCESS:    1661287  HIT:    1181152  MISS:     480135
L2C WRITEBACK ACCESS:     702935  HIT:     700748  MISS:       2187
L2C PREFETCH  REQUESTED:     256433  ISSUED:     256433  USEFUL:     172735  USELESS:     308066
L2C TOTAL MSHR MERGED:      13216
L2C LOAD MSHR MERGED:       4114
L2C RFO MSHR MERGED:          0
L2C PREFETCH MSHR MERGED:       9102
L2C WRITEBACK MSHR MERGED:          0
L2C TOTAL ACCESSES:    4712431 HITS:    3867050 MISSES:     845381
L2C LOAD ACCESSES:    1715777 HITS:    1562487 MISSES:     153290
L2C RFO ACCESSES:     612948 HITS:     422595 MISSES:     190353
L2C PREFETCH ACCESSES:    1680771 HITS:    1181220 MISSES:     499551
L2C WRITEBACK ACCESSES:     702935 HITS:     700748 MISSES:       2187
L2C RQ ACCESS:    2328725
L2C RQ TO_CACHE:    2327199
L2C RQ MERGED:          0
L2C RQ FORWARD:          0
L2C WQ ACCESS:     702935
L2C WQ TO_CACHE:     702935
L2C WQ MERGED:          0
L2C WQ FORWARD:       1594
LLC TOTAL     ACCESS:    1047676  HIT:     233430  MISS:     814246
LLC LOAD      ACCESS:     149173  HIT:      86815  MISS:      62358
LLC RFO       ACCESS:     190346  HIT:       7101  MISS:     183245
LLC PREFETCH  ACCESS:     487280  HIT:     102856  MISS:     384424
LLC WRITEBACK ACCESS:     220877  HIT:      36658  MISS:     184219
LLC PREFETCH  REQUESTED:          0  ISSUED:          0  USEFUL:       2009  USELESS:     382827
LLC TOTAL MSHR MERGED:       2326
LLC LOAD MSHR MERGED:        920
LLC RFO MSHR MERGED:          0
LLC PREFETCH MSHR MERGED:       1406
LLC WRITEBACK MSHR MERGED:          0
LLC TOTAL ACCESSES:    1050012 HITS:     233440 MISSES:     816572
LLC LOAD ACCESSES:     149176 HITS:      86818 MISSES:      62358
LLC RFO ACCESSES:     190353 HITS:       7108 MISSES:     183245
LLC PREFETCH ACCESSES:     489606 HITS:     102856 MISSES:     386750
LLC WRITEBACK ACCESSES:     220877 HITS:      36658 MISSES:     184219
LLC 0 RQ ACCESS:     339529
LLC 0 RQ TO_CACHE:     339519
LLC 0 RQ MERGED:          0
LLC 0 RQ FORWARD:          0
LLC WQ ACCESS:     220877
LLC WQ TO_CACHE:     220877
LLC WQ MERGED:          0
LLC WQ FORWARD:         10
Major fault: 0 Minor fault: 6811
CPU 0 L1D next line prefetcher final stats
CPU 0 L2C PC-based stride prefetcher final stats
All Misses: 954704
All Hits: 299955
SD Algo Stats - Switches: 0 SRR-Repls: 69695 BRR-Repls: 0

DRAM Statistics
 CHANNEL 0
 RQ ROW_BUFFER_HIT:     331961  ROW_BUFFER_MISS:     297953
 DBUS_CONGESTED:     438451
 WQ ROW_BUFFER_HIT:      32184  ROW_BUFFER_MISS:     184017  FULL:          0

 AVG_CONGESTED_CYCLE: 13
LOADS RETIRED: 119922929
INSTR RETIRED: 500000000
