
*** ChampSim Multicore Out-of-Order Simulator ***

Warmup Instructions: 100000000
Simulation Instructions: 500000000
Number of CPUs: 1
LLC sets: 2048
LLC ways: 16
Clean RRIP Policies: 2213210222132102 Dirty RRIP Policies: 1203110212031102 PSEL Width: 10 Track Set: 4294967295 PSEL Mask: 1 Demote Mask: 1040100010401000DS Algo: 0Window size: 0
Off-chip DRAM Size: 4096 MB Channels: 1 Width: 64-bit Data Rate: 1600 MT/s

CPU 0 runs /mnt/beegfs/iconst01/spec2017/Xalancbmk.trace.gz
NOT SORTED
TRACE STRING: /mnt/beegfs/iconst01/spec2017/Xalancbmk.trace.gz
SORTED
TRACE STRING: /mnt/beegfs/iconst01/spec2017/Xalancbmk.trace.gz
INITIAL
TRACE STRING: /mnt/beegfs/iconst01/spec2017/Xalancbmk.trace.gz

champsim_seed used: 913

CPU 0 L1D next line prefetcher
CPU 0 L2C IP-based stride prefetcher
Initialize DRRIP state
Assign rand_sets[0]: 454  LLC: 2048
rand_sets[0]: 454
Assign rand_sets[1]: 1662  LLC: 2048
rand_sets[1]: 1662
Assign rand_sets[2]: 1921  LLC: 2048
rand_sets[2]: 1921
Assign rand_sets[3]: 1131  LLC: 2048
rand_sets[3]: 1131
Assign rand_sets[4]: 331  LLC: 2048
rand_sets[4]: 331
Assign rand_sets[5]: 1531  LLC: 2048
rand_sets[5]: 1531
Assign rand_sets[6]: 482  LLC: 2048
rand_sets[6]: 482
Assign rand_sets[7]: 1275  LLC: 2048
rand_sets[7]: 1275
Assign rand_sets[8]: 1876  LLC: 2048
rand_sets[8]: 1876
Assign rand_sets[9]: 2038  LLC: 2048
rand_sets[9]: 2038
Assign rand_sets[10]: 701  LLC: 2048
rand_sets[10]: 701
Assign rand_sets[11]: 479  LLC: 2048
rand_sets[11]: 479
Assign rand_sets[12]: 892  LLC: 2048
rand_sets[12]: 892
Assign rand_sets[13]: 1820  LLC: 2048
rand_sets[13]: 1820
Assign rand_sets[14]: 1505  LLC: 2048
rand_sets[14]: 1505
Assign rand_sets[15]: 1159  LLC: 2048
rand_sets[15]: 1159
Assign rand_sets[16]: 513  LLC: 2048
rand_sets[16]: 513
Assign rand_sets[17]: 703  LLC: 2048
rand_sets[17]: 703
Assign rand_sets[18]: 561  LLC: 2048
rand_sets[18]: 561
Assign rand_sets[19]: 990  LLC: 2048
rand_sets[19]: 990
Assign rand_sets[20]: 342  LLC: 2048
rand_sets[20]: 342
Assign rand_sets[21]: 882  LLC: 2048
rand_sets[21]: 882
Assign rand_sets[22]: 15  LLC: 2048
rand_sets[22]: 15
Assign rand_sets[23]: 71  LLC: 2048
rand_sets[23]: 71
Assign rand_sets[24]: 1127  LLC: 2048
rand_sets[24]: 1127
Assign rand_sets[25]: 1382  LLC: 2048
rand_sets[25]: 1382
Assign rand_sets[26]: 647  LLC: 2048
rand_sets[26]: 647
Assign rand_sets[27]: 857  LLC: 2048
rand_sets[27]: 857
Assign rand_sets[28]: 1450  LLC: 2048
rand_sets[28]: 1450
Assign rand_sets[29]: 1160  LLC: 2048
rand_sets[29]: 1160
Assign rand_sets[30]: 1852  LLC: 2048
rand_sets[30]: 1852
Assign rand_sets[31]: 1881  LLC: 2048
rand_sets[31]: 1881
Assign rand_sets[32]: 1770  LLC: 2048
rand_sets[32]: 1770
Assign rand_sets[33]: 1622  LLC: 2048
rand_sets[33]: 1622
Assign rand_sets[34]: 275  LLC: 2048
rand_sets[34]: 275
Assign rand_sets[35]: 635  LLC: 2048
rand_sets[35]: 635
Assign rand_sets[36]: 466  LLC: 2048
rand_sets[36]: 466
Assign rand_sets[37]: 1413  LLC: 2048
rand_sets[37]: 1413
Assign rand_sets[38]: 417  LLC: 2048
rand_sets[38]: 417
Assign rand_sets[39]: 472  LLC: 2048
rand_sets[39]: 472
Assign rand_sets[40]: 1340  LLC: 2048
rand_sets[40]: 1340
Assign rand_sets[41]: 852  LLC: 2048
rand_sets[41]: 852
Assign rand_sets[42]: 1365  LLC: 2048
rand_sets[42]: 1365
Assign rand_sets[43]: 47  LLC: 2048
rand_sets[43]: 47
Assign rand_sets[44]: 823  LLC: 2048
rand_sets[44]: 823
Assign rand_sets[45]: 686  LLC: 2048
rand_sets[45]: 686
Assign rand_sets[46]: 1637  LLC: 2048
rand_sets[46]: 1637
Assign rand_sets[47]: 1115  LLC: 2048
rand_sets[47]: 1115
Assign rand_sets[48]: 986  LLC: 2048
rand_sets[48]: 986
Assign rand_sets[49]: 258  LLC: 2048
rand_sets[49]: 258
Assign rand_sets[50]: 633  LLC: 2048
rand_sets[50]: 633
Assign rand_sets[51]: 920  LLC: 2048
rand_sets[51]: 920
Assign rand_sets[52]: 204  LLC: 2048
rand_sets[52]: 204
Assign rand_sets[53]: 227  LLC: 2048
rand_sets[53]: 227
Assign rand_sets[54]: 1818  LLC: 2048
rand_sets[54]: 1818
Assign rand_sets[55]: 886  LLC: 2048
rand_sets[55]: 886
Assign rand_sets[56]: 1422  LLC: 2048
rand_sets[56]: 1422
Assign rand_sets[57]: 607  LLC: 2048
rand_sets[57]: 607
Assign rand_sets[58]: 217  LLC: 2048
rand_sets[58]: 217
Assign rand_sets[59]: 1945  LLC: 2048
rand_sets[59]: 1945
Assign rand_sets[60]: 143  LLC: 2048
rand_sets[60]: 143
Assign rand_sets[61]: 1311  LLC: 2048
rand_sets[61]: 1311
Assign rand_sets[62]: 319  LLC: 2048
rand_sets[62]: 319
Assign rand_sets[63]: 1846  LLC: 2048
rand_sets[63]: 1846
 CLEAN-RRIP-POLICY-1: 2-2-1-3-2-1-0-2- CLEAN-RRIP-POLICY-2: 2-2-1-3-2-1-0-2-
 DIRTY-RRIP-POLICY-1: 1-2-0-3-1-1-0-2- DIRTY-RRIP-POLICY-2: 1-2-0-3-1-1-0-2-
 PSEL width: 10
Heartbeat CPU 0 instructions: 10000003 cycles: 4592531 heartbeat IPC: 2.17745 cumulative IPC: 2.17745 (Simulation time: 0 hr 0 min 15 sec) 
Heartbeat CPU 0 instructions: 20000000 cycles: 8984829 heartbeat IPC: 2.27671 cumulative IPC: 2.22597 (Simulation time: 0 hr 0 min 29 sec) 
Heartbeat CPU 0 instructions: 30000000 cycles: 13393773 heartbeat IPC: 2.26812 cumulative IPC: 2.23985 (Simulation time: 0 hr 0 min 43 sec) 
Heartbeat CPU 0 instructions: 40000000 cycles: 18021979 heartbeat IPC: 2.16066 cumulative IPC: 2.21951 (Simulation time: 0 hr 0 min 59 sec) 
Heartbeat CPU 0 instructions: 50000002 cycles: 22438049 heartbeat IPC: 2.26446 cumulative IPC: 2.22836 (Simulation time: 0 hr 1 min 13 sec) 
Heartbeat CPU 0 instructions: 60000000 cycles: 27093335 heartbeat IPC: 2.1481 cumulative IPC: 2.21457 (Simulation time: 0 hr 1 min 29 sec) 
Heartbeat CPU 0 instructions: 70000003 cycles: 31497983 heartbeat IPC: 2.27033 cumulative IPC: 2.22236 (Simulation time: 0 hr 1 min 43 sec) 
Heartbeat CPU 0 instructions: 80000000 cycles: 35918399 heartbeat IPC: 2.26223 cumulative IPC: 2.22727 (Simulation time: 0 hr 1 min 58 sec) 
Heartbeat CPU 0 instructions: 90000002 cycles: 40373513 heartbeat IPC: 2.24461 cumulative IPC: 2.22918 (Simulation time: 0 hr 2 min 12 sec) 
Heartbeat CPU 0 instructions: 100000000 cycles: 44845176 heartbeat IPC: 2.2363 cumulative IPC: 2.22989 (Simulation time: 0 hr 2 min 27 sec) 

Warmup complete CPU 0 instructions: 100000003 cycles: 44845177 (Simulation time: 0 hr 2 min 27 sec) 

Heartbeat CPU 0 instructions: 110000000 cycles: 71843451 heartbeat IPC: 0.370394 cumulative IPC: 0.370394 (Simulation time: 0 hr 2 min 58 sec) 
Heartbeat CPU 0 instructions: 120000000 cycles: 100407264 heartbeat IPC: 0.350093 cumulative IPC: 0.359958 (Simulation time: 0 hr 3 min 32 sec) 
Heartbeat CPU 0 instructions: 130000000 cycles: 123786281 heartbeat IPC: 0.427734 cumulative IPC: 0.38003 (Simulation time: 0 hr 4 min 1 sec) 
Heartbeat CPU 0 instructions: 140000000 cycles: 146411107 heartbeat IPC: 0.441992 cumulative IPC: 0.393833 (Simulation time: 0 hr 4 min 29 sec) 
Heartbeat CPU 0 instructions: 150000000 cycles: 170793553 heartbeat IPC: 0.410131 cumulative IPC: 0.396988 (Simulation time: 0 hr 4 min 59 sec) 
Heartbeat CPU 0 instructions: 160000000 cycles: 195745897 heartbeat IPC: 0.400764 cumulative IPC: 0.397612 (Simulation time: 0 hr 5 min 30 sec) 
Heartbeat CPU 0 instructions: 170000002 cycles: 217104738 heartbeat IPC: 0.46819 cumulative IPC: 0.406364 (Simulation time: 0 hr 5 min 57 sec) 
Heartbeat CPU 0 instructions: 180000000 cycles: 239531964 heartbeat IPC: 0.445887 cumulative IPC: 0.410916 (Simulation time: 0 hr 6 min 26 sec) 
Heartbeat CPU 0 instructions: 190000000 cycles: 258472480 heartbeat IPC: 0.527969 cumulative IPC: 0.421294 (Simulation time: 0 hr 6 min 52 sec) 
Heartbeat CPU 0 instructions: 200000000 cycles: 279401458 heartbeat IPC: 0.477806 cumulative IPC: 0.426337 (Simulation time: 0 hr 7 min 20 sec) 
Heartbeat CPU 0 instructions: 210000001 cycles: 305826404 heartbeat IPC: 0.37843 cumulative IPC: 0.421486 (Simulation time: 0 hr 7 min 51 sec) 
Heartbeat CPU 0 instructions: 220000000 cycles: 331617526 heartbeat IPC: 0.38773 cumulative IPC: 0.41845 (Simulation time: 0 hr 8 min 22 sec) 
Heartbeat CPU 0 instructions: 230000000 cycles: 353911986 heartbeat IPC: 0.448542 cumulative IPC: 0.420621 (Simulation time: 0 hr 8 min 50 sec) 
Heartbeat CPU 0 instructions: 240000000 cycles: 379721766 heartbeat IPC: 0.38745 cumulative IPC: 0.418064 (Simulation time: 0 hr 9 min 21 sec) 
Heartbeat CPU 0 instructions: 250000001 cycles: 404664407 heartbeat IPC: 0.40092 cumulative IPC: 0.416876 (Simulation time: 0 hr 9 min 52 sec) 
Heartbeat CPU 0 instructions: 260000000 cycles: 425563689 heartbeat IPC: 0.478485 cumulative IPC: 0.420258 (Simulation time: 0 hr 10 min 19 sec) 
Heartbeat CPU 0 instructions: 270000000 cycles: 447062098 heartbeat IPC: 0.465151 cumulative IPC: 0.422657 (Simulation time: 0 hr 10 min 47 sec) 
Heartbeat CPU 0 instructions: 280000000 cycles: 474996270 heartbeat IPC: 0.357984 cumulative IPC: 0.418458 (Simulation time: 0 hr 11 min 19 sec) 
Heartbeat CPU 0 instructions: 290000000 cycles: 496081313 heartbeat IPC: 0.47427 cumulative IPC: 0.421066 (Simulation time: 0 hr 11 min 47 sec) 
Heartbeat CPU 0 instructions: 300000000 cycles: 516498131 heartbeat IPC: 0.489792 cumulative IPC: 0.424041 (Simulation time: 0 hr 12 min 14 sec) 
Heartbeat CPU 0 instructions: 310000000 cycles: 535631555 heartbeat IPC: 0.522646 cumulative IPC: 0.427885 (Simulation time: 0 hr 12 min 39 sec) 
Heartbeat CPU 0 instructions: 320000000 cycles: 565145645 heartbeat IPC: 0.338821 cumulative IPC: 0.422833 (Simulation time: 0 hr 13 min 13 sec) 
Heartbeat CPU 0 instructions: 330000001 cycles: 584543154 heartbeat IPC: 0.51553 cumulative IPC: 0.426164 (Simulation time: 0 hr 13 min 38 sec) 
Heartbeat CPU 0 instructions: 340000000 cycles: 603790654 heartbeat IPC: 0.519548 cumulative IPC: 0.42938 (Simulation time: 0 hr 14 min 4 sec) 
Heartbeat CPU 0 instructions: 350000001 cycles: 629027784 heartbeat IPC: 0.396242 cumulative IPC: 0.427948 (Simulation time: 0 hr 14 min 34 sec) 
Heartbeat CPU 0 instructions: 360000000 cycles: 651329821 heartbeat IPC: 0.44839 cumulative IPC: 0.4287 (Simulation time: 0 hr 15 min 2 sec) 
Heartbeat CPU 0 instructions: 370000001 cycles: 676457471 heartbeat IPC: 0.397968 cumulative IPC: 0.427477 (Simulation time: 0 hr 15 min 32 sec) 
Heartbeat CPU 0 instructions: 380000000 cycles: 699603434 heartbeat IPC: 0.432041 cumulative IPC: 0.427639 (Simulation time: 0 hr 16 min 0 sec) 
Heartbeat CPU 0 instructions: 390000000 cycles: 718364132 heartbeat IPC: 0.533029 cumulative IPC: 0.430574 (Simulation time: 0 hr 16 min 25 sec) 
Heartbeat CPU 0 instructions: 400000000 cycles: 738146847 heartbeat IPC: 0.505492 cumulative IPC: 0.432712 (Simulation time: 0 hr 16 min 51 sec) 
Heartbeat CPU 0 instructions: 410000001 cycles: 764442163 heartbeat IPC: 0.380296 cumulative IPC: 0.430797 (Simulation time: 0 hr 17 min 22 sec) 
Heartbeat CPU 0 instructions: 420000000 cycles: 789067078 heartbeat IPC: 0.406093 cumulative IPC: 0.429979 (Simulation time: 0 hr 17 min 51 sec) 
Heartbeat CPU 0 instructions: 430000002 cycles: 810211098 heartbeat IPC: 0.472947 cumulative IPC: 0.431166 (Simulation time: 0 hr 18 min 18 sec) 
Heartbeat CPU 0 instructions: 440000000 cycles: 830352879 heartbeat IPC: 0.49648 cumulative IPC: 0.432841 (Simulation time: 0 hr 18 min 44 sec) 
Heartbeat CPU 0 instructions: 450000002 cycles: 857197832 heartbeat IPC: 0.37251 cumulative IPC: 0.430847 (Simulation time: 0 hr 19 min 15 sec) 
Heartbeat CPU 0 instructions: 460000000 cycles: 883269707 heartbeat IPC: 0.383555 cumulative IPC: 0.429377 (Simulation time: 0 hr 19 min 45 sec) 
Heartbeat CPU 0 instructions: 470000002 cycles: 909228196 heartbeat IPC: 0.385231 cumulative IPC: 0.428051 (Simulation time: 0 hr 20 min 15 sec) 
Heartbeat CPU 0 instructions: 480000000 cycles: 933492297 heartbeat IPC: 0.412131 cumulative IPC: 0.427616 (Simulation time: 0 hr 20 min 44 sec) 
Heartbeat CPU 0 instructions: 490000000 cycles: 954317467 heartbeat IPC: 0.480188 cumulative IPC: 0.42882 (Simulation time: 0 hr 21 min 10 sec) 
Heartbeat CPU 0 instructions: 500000000 cycles: 979167553 heartbeat IPC: 0.402413 cumulative IPC: 0.428118 (Simulation time: 0 hr 21 min 40 sec) 
Heartbeat CPU 0 instructions: 510000000 cycles: 1004201517 heartbeat IPC: 0.399457 cumulative IPC: 0.42737 (Simulation time: 0 hr 22 min 9 sec) 
Heartbeat CPU 0 instructions: 520000000 cycles: 1025194142 heartbeat IPC: 0.476358 cumulative IPC: 0.428419 (Simulation time: 0 hr 22 min 36 sec) 
Heartbeat CPU 0 instructions: 530000003 cycles: 1050890617 heartbeat IPC: 0.389159 cumulative IPC: 0.427416 (Simulation time: 0 hr 23 min 6 sec) 
Heartbeat CPU 0 instructions: 540000000 cycles: 1073835867 heartbeat IPC: 0.43582 cumulative IPC: 0.427603 (Simulation time: 0 hr 23 min 34 sec) 
Heartbeat CPU 0 instructions: 550000000 cycles: 1099396770 heartbeat IPC: 0.391222 cumulative IPC: 0.426722 (Simulation time: 0 hr 24 min 4 sec) 
Heartbeat CPU 0 instructions: 560000000 cycles: 1122473716 heartbeat IPC: 0.433333 cumulative IPC: 0.426863 (Simulation time: 0 hr 24 min 32 sec) 
Heartbeat CPU 0 instructions: 570000002 cycles: 1145903814 heartbeat IPC: 0.426802 cumulative IPC: 0.426862 (Simulation time: 0 hr 25 min 0 sec) 
Heartbeat CPU 0 instructions: 580000000 cycles: 1166800536 heartbeat IPC: 0.478544 cumulative IPC: 0.427824 (Simulation time: 0 hr 25 min 27 sec) 
Heartbeat CPU 0 instructions: 590000001 cycles: 1190736733 heartbeat IPC: 0.417777 cumulative IPC: 0.427615 (Simulation time: 0 hr 25 min 55 sec) 
Heartbeat CPU 0 instructions: 600000000 cycles: 1209851897 heartbeat IPC: 0.523145 cumulative IPC: 0.429182 (Simulation time: 0 hr 26 min 21 sec) 
Finished CPU 0 instructions: 500000000 cycles: 1165006741 cumulative IPC: 0.429182 (Simulation time: 0 hr 26 min 21 sec) 

CPU 0 Branch Prediction Accuracy: 99.5434% MPKI: 1.33026
Number of Branches: 145676990 Number of Mispredictions: 665128
Number of LOAD Instructions: 188863207
Number of LOAD Instructions (ROI): 188863207
Number of STORE Instructions: 7332002
Number of STORE Instructions (ROI): 7332002
Total Destination Memory Operands: 10029285
Total Destination Memory Operands (ROI): 10029285
Total Source Memory Operands: 188863207
Total Source Memory Operands (ROI): 188863207
Number of DEPENDED LOADS: 289996
Number of DEPENDED LOADS (ROI): 289996
Number of SQ_ADDED: 10029285
Number of SQ_ADDED (ROI): 10029285
Number of LQ_ADDED: 200485856
Number of LQ_ADDED (ROI): 200485856
Number of Instructions read from trace: 600000010

ChampSim completed all CPUs

Region of Interest Statistics

CPU 0 cumulative IPC: 0.429182 instructions: 500000000 cycles: 1165006741
ITLB TOTAL     ACCESS:  145830481  HIT:  145790954  MISS:      39527
ITLB LOAD      ACCESS:  145830481  HIT:  145790954  MISS:      39527
ITLB RFO       ACCESS:          0  HIT:          0  MISS:          0
ITLB PREFETCH  ACCESS:          0  HIT:          0  MISS:          0
ITLB WRITEBACK ACCESS:          0  HIT:          0  MISS:          0
ITLB PREFETCH  REQUESTED:          0  ISSUED:          0  USEFUL:          0  USELESS:          0
ITLB TOTAL MSHR MERGED:      57360
ITLB LOAD MSHR MERGED:      57360
ITLB RFO MSHR MERGED:          0
ITLB PREFETCH MSHR MERGED:          0
ITLB WRITEBACK MSHR MERGED:          0
ITLB TOTAL ACCESSES:  145887841 HITS:  145790954 MISSES:      96887
ITLB LOAD ACCESSES:  145887841 HITS:  145790954 MISSES:      96887
ITLB RFO ACCESSES:          0 HITS:          0 MISSES:          0
ITLB PREFETCH ACCESSES:          0 HITS:          0 MISSES:          0
ITLB WRITEBACK ACCESSES:          0 HITS:          0 MISSES:          0
ITLB RQ ACCESS:  499999754
ITLB RQ TO_CACHE:  145887841
ITLB RQ MERGED:  354111913
ITLB RQ FORWARD:          0
ITLB WQ ACCESS:          0
ITLB WQ TO_CACHE:          0
ITLB WQ MERGED:          0
ITLB WQ FORWARD:          0
DTLB TOTAL     ACCESS:  135200881  HIT:  134032516  MISS:    1168365
DTLB LOAD      ACCESS:  127160006  HIT:  126000748  MISS:    1159258
DTLB RFO       ACCESS:    8040875  HIT:    8031768  MISS:       9107
DTLB PREFETCH  ACCESS:          0  HIT:          0  MISS:          0
DTLB WRITEBACK ACCESS:          0  HIT:          0  MISS:          0
DTLB PREFETCH  REQUESTED:          0  ISSUED:          0  USEFUL:          0  USELESS:          0
DTLB TOTAL MSHR MERGED:     579089
DTLB LOAD MSHR MERGED:     574713
DTLB RFO MSHR MERGED:       4376
DTLB PREFETCH MSHR MERGED:          0
DTLB WRITEBACK MSHR MERGED:          0
DTLB TOTAL ACCESSES:  135779970 HITS:  134032516 MISSES:    1747454
DTLB LOAD ACCESSES:  127734719 HITS:  126000748 MISSES:    1733971
DTLB RFO ACCESSES:    8045251 HITS:    8031768 MISSES:      13483
DTLB PREFETCH ACCESSES:          0 HITS:          0 MISSES:          0
DTLB WRITEBACK ACCESSES:          0 HITS:          0 MISSES:          0
DTLB RQ ACCESS:  165764346
DTLB RQ TO_CACHE:  135779970
DTLB RQ MERGED:   29984376
DTLB RQ FORWARD:          0
DTLB WQ ACCESS:          0
DTLB WQ TO_CACHE:          0
DTLB WQ MERGED:          0
DTLB WQ FORWARD:          0
L1D TOTAL     ACCESS:  157090772  HIT:  139775096  MISS:   17315676
L1D LOAD      ACCESS:   90004653  HIT:   78868533  MISS:   11136120
L1D RFO       ACCESS:    8501358  HIT:    8414289  MISS:      87069
L1D PREFETCH  ACCESS:   58584761  HIT:   52492274  MISS:    6092487
L1D WRITEBACK ACCESS:          0  HIT:          0  MISS:          0
L1D PREFETCH  REQUESTED:   93722392  ISSUED:   92854690  USEFUL:    2011095  USELESS:    4081465
L1D TOTAL MSHR MERGED:   14977502
L1D LOAD MSHR MERGED:    7110219
L1D RFO MSHR MERGED:     122964
L1D PREFETCH MSHR MERGED:    7744319
L1D WRITEBACK MSHR MERGED:          0
L1D TOTAL ACCESSES:  172068428 HITS:  139775250 MISSES:   32293178
L1D LOAD ACCESSES:   93722395 HITS:   78868536 MISSES:   14853859
L1D RFO ACCESSES:    8622580 HITS:    8414289 MISSES:     208291
L1D PREFETCH ACCESSES:   69723453 HITS:   52492425 MISSES:   17231028
L1D WRITEBACK ACCESSES:          0 HITS:          0 MISSES:          0
L1D RQ ACCESS:  157125140
L1D RQ TO_CACHE:   93722392
L1D RQ MERGED:   63402745
L1D RQ FORWARD:          0
L1D WQ ACCESS:    8639208
L1D WQ TO_CACHE:    8622580
L1D WQ MERGED:      16628
L1D WQ FORWARD:        154
L1I TOTAL     ACCESS:  178811046  HIT:  178147387  MISS:     663659
L1I LOAD      ACCESS:  178811046  HIT:  178147387  MISS:     663659
L1I RFO       ACCESS:          0  HIT:          0  MISS:          0
L1I PREFETCH  ACCESS:          0  HIT:          0  MISS:          0
L1I WRITEBACK ACCESS:          0  HIT:          0  MISS:          0
L1I PREFETCH  REQUESTED:          0  ISSUED:          0  USEFUL:          0  USELESS:          0
L1I TOTAL MSHR MERGED:     596768
L1I LOAD MSHR MERGED:     596768
L1I RFO MSHR MERGED:          0
L1I PREFETCH MSHR MERGED:          0
L1I WRITEBACK MSHR MERGED:          0
L1I TOTAL ACCESSES:  179407814 HITS:  178147387 MISSES:    1260427
L1I LOAD ACCESSES:  179407814 HITS:  178147387 MISSES:    1260427
L1I RFO ACCESSES:          0 HITS:          0 MISSES:          0
L1I PREFETCH ACCESSES:          0 HITS:          0 MISSES:          0
L1I WRITEBACK ACCESSES:          0 HITS:          0 MISSES:          0
L1I RQ ACCESS:  499999757
L1I RQ TO_CACHE:  179407814
L1I RQ MERGED:  320591943
L1I RQ FORWARD:          0
L1I WQ ACCESS:          0
L1I WQ TO_CACHE:          0
L1I WQ MERGED:          0
L1I WQ FORWARD:          0
L2C TOTAL     ACCESS:   19278052  HIT:    2058177  MISS:   17219875
L2C LOAD      ACCESS:    8407195  HIT:     951551  MISS:    7455644
L2C RFO       ACCESS:      85304  HIT:      53742  MISS:      31562
L2C PREFETCH  ACCESS:   10500530  HIT:     770672  MISS:    9729858
L2C WRITEBACK ACCESS:     285023  HIT:     282212  MISS:       2811
L2C PREFETCH  REQUESTED:    1018077  ISSUED:    1018077  USEFUL:     275153  USELESS:    9453796
L2C TOTAL MSHR MERGED:        969
L2C LOAD MSHR MERGED:        201
L2C RFO MSHR MERGED:          1
L2C PREFETCH MSHR MERGED:        767
L2C WRITEBACK MSHR MERGED:          0
L2C TOTAL ACCESSES:   19281179 HITS:    2058370 MISSES:   17222809
L2C LOAD ACCESSES:    8407299 HITS:     951655 MISSES:    7455644
L2C RFO ACCESSES:      85327 HITS:      53765 MISSES:      31562
L2C PREFETCH ACCESSES:   10503530 HITS:     770738 MISSES:    9732792
L2C WRITEBACK ACCESSES:     285023 HITS:     282212 MISSES:       2811
L2C RQ ACCESS:    8492626
L2C RQ TO_CACHE:    8492499
L2C RQ MERGED:          0
L2C RQ FORWARD:          0
L2C WQ ACCESS:     285023
L2C WQ TO_CACHE:     285023
L2C WQ MERGED:          0
L2C WQ FORWARD:        193
LLC TOTAL     ACCESS:   17325080  HIT:    4970368  MISS:   12354712
LLC LOAD      ACCESS:    7455443  HIT:    3919426  MISS:    3536017
LLC RFO       ACCESS:      31561  HIT:      21146  MISS:      10415
LLC PREFETCH  ACCESS:    9732020  HIT:     931704  MISS:    8800316
LLC WRITEBACK ACCESS:     106056  HIT:      98092  MISS:       7964
LLC PREFETCH  REQUESTED:          0  ISSUED:          0  USEFUL:       1961  USELESS:    8797618
LLC TOTAL MSHR MERGED:          5
LLC LOAD MSHR MERGED:          0
LLC RFO MSHR MERGED:          0
LLC PREFETCH MSHR MERGED:          5
LLC WRITEBACK MSHR MERGED:          0
LLC TOTAL ACCESSES:   17325085 HITS:    4970368 MISSES:   12354717
LLC LOAD ACCESSES:    7455443 HITS:    3919426 MISSES:    3536017
LLC RFO ACCESSES:      31561 HITS:      21146 MISSES:      10415
LLC PREFETCH ACCESSES:    9732025 HITS:     931704 MISSES:    8800321
LLC WRITEBACK ACCESSES:     106056 HITS:      98092 MISSES:       7964
LLC 0 RQ ACCESS:    7487004
LLC 0 RQ TO_CACHE:    7487004
LLC 0 RQ MERGED:          0
LLC 0 RQ FORWARD:          0
LLC WQ ACCESS:     106056
LLC WQ TO_CACHE:     106056
LLC WQ MERGED:          0
LLC WQ FORWARD:          0
Major fault: 0 Minor fault: 6432
CPU 0 L1D next line prefetcher final stats
CPU 0 L2C PC-based stride prefetcher final stats
All Misses: 14583682
All Hits: 5961062
SD Algo Stats - Switches: 0 SRR-Repls: 3781272 BRR-Repls: 0

DRAM Statistics
 CHANNEL 0
 RQ ROW_BUFFER_HIT:    9340775  ROW_BUFFER_MISS:    3002247
 DBUS_CONGESTED:    5776457
 WQ ROW_BUFFER_HIT:       1209  ROW_BUFFER_MISS:      25797  FULL:          0

 AVG_CONGESTED_CYCLE: 12
LOADS RETIRED: 157382665
INSTR RETIRED: 500000000
