
*** ChampSim Multicore Out-of-Order Simulator ***

Warmup Instructions: 100000000
Simulation Instructions: 500000000
Number of CPUs: 1
LLC sets: 2048
LLC ways: 16
Clean RRIP Policies: 210220102102201 Dirty RRIP Policies: 1200222112002221 PSEL Width: 10 Track Set: 4294967295 PSEL Mask: 1 Demote Mask: 3121014231210142DS Algo: 0Window size: 0
Off-chip DRAM Size: 4096 MB Channels: 1 Width: 64-bit Data Rate: 1600 MT/s

CPU 0 runs /mnt/beegfs/iconst01/spec2017/Blender.trace.gz
NOT SORTED
TRACE STRING: /mnt/beegfs/iconst01/spec2017/Blender.trace.gz
SORTED
TRACE STRING: /mnt/beegfs/iconst01/spec2017/Blender.trace.gz
INITIAL
TRACE STRING: /mnt/beegfs/iconst01/spec2017/Blender.trace.gz

champsim_seed used: 700

CPU 0 L1D next line prefetcher
CPU 0 L2C IP-based stride prefetcher
Initialize DRRIP state
Assign rand_sets[0]: 454  LLC: 2048
rand_sets[0]: 454
Assign rand_sets[1]: 1662  LLC: 2048
rand_sets[1]: 1662
Assign rand_sets[2]: 1921  LLC: 2048
rand_sets[2]: 1921
Assign rand_sets[3]: 1131  LLC: 2048
rand_sets[3]: 1131
Assign rand_sets[4]: 331  LLC: 2048
rand_sets[4]: 331
Assign rand_sets[5]: 1531  LLC: 2048
rand_sets[5]: 1531
Assign rand_sets[6]: 482  LLC: 2048
rand_sets[6]: 482
Assign rand_sets[7]: 1275  LLC: 2048
rand_sets[7]: 1275
Assign rand_sets[8]: 1876  LLC: 2048
rand_sets[8]: 1876
Assign rand_sets[9]: 2038  LLC: 2048
rand_sets[9]: 2038
Assign rand_sets[10]: 701  LLC: 2048
rand_sets[10]: 701
Assign rand_sets[11]: 479  LLC: 2048
rand_sets[11]: 479
Assign rand_sets[12]: 892  LLC: 2048
rand_sets[12]: 892
Assign rand_sets[13]: 1820  LLC: 2048
rand_sets[13]: 1820
Assign rand_sets[14]: 1505  LLC: 2048
rand_sets[14]: 1505
Assign rand_sets[15]: 1159  LLC: 2048
rand_sets[15]: 1159
Assign rand_sets[16]: 513  LLC: 2048
rand_sets[16]: 513
Assign rand_sets[17]: 703  LLC: 2048
rand_sets[17]: 703
Assign rand_sets[18]: 561  LLC: 2048
rand_sets[18]: 561
Assign rand_sets[19]: 990  LLC: 2048
rand_sets[19]: 990
Assign rand_sets[20]: 342  LLC: 2048
rand_sets[20]: 342
Assign rand_sets[21]: 882  LLC: 2048
rand_sets[21]: 882
Assign rand_sets[22]: 15  LLC: 2048
rand_sets[22]: 15
Assign rand_sets[23]: 71  LLC: 2048
rand_sets[23]: 71
Assign rand_sets[24]: 1127  LLC: 2048
rand_sets[24]: 1127
Assign rand_sets[25]: 1382  LLC: 2048
rand_sets[25]: 1382
Assign rand_sets[26]: 647  LLC: 2048
rand_sets[26]: 647
Assign rand_sets[27]: 857  LLC: 2048
rand_sets[27]: 857
Assign rand_sets[28]: 1450  LLC: 2048
rand_sets[28]: 1450
Assign rand_sets[29]: 1160  LLC: 2048
rand_sets[29]: 1160
Assign rand_sets[30]: 1852  LLC: 2048
rand_sets[30]: 1852
Assign rand_sets[31]: 1881  LLC: 2048
rand_sets[31]: 1881
Assign rand_sets[32]: 1770  LLC: 2048
rand_sets[32]: 1770
Assign rand_sets[33]: 1622  LLC: 2048
rand_sets[33]: 1622
Assign rand_sets[34]: 275  LLC: 2048
rand_sets[34]: 275
Assign rand_sets[35]: 635  LLC: 2048
rand_sets[35]: 635
Assign rand_sets[36]: 466  LLC: 2048
rand_sets[36]: 466
Assign rand_sets[37]: 1413  LLC: 2048
rand_sets[37]: 1413
Assign rand_sets[38]: 417  LLC: 2048
rand_sets[38]: 417
Assign rand_sets[39]: 472  LLC: 2048
rand_sets[39]: 472
Assign rand_sets[40]: 1340  LLC: 2048
rand_sets[40]: 1340
Assign rand_sets[41]: 852  LLC: 2048
rand_sets[41]: 852
Assign rand_sets[42]: 1365  LLC: 2048
rand_sets[42]: 1365
Assign rand_sets[43]: 47  LLC: 2048
rand_sets[43]: 47
Assign rand_sets[44]: 823  LLC: 2048
rand_sets[44]: 823
Assign rand_sets[45]: 686  LLC: 2048
rand_sets[45]: 686
Assign rand_sets[46]: 1637  LLC: 2048
rand_sets[46]: 1637
Assign rand_sets[47]: 1115  LLC: 2048
rand_sets[47]: 1115
Assign rand_sets[48]: 986  LLC: 2048
rand_sets[48]: 986
Assign rand_sets[49]: 258  LLC: 2048
rand_sets[49]: 258
Assign rand_sets[50]: 633  LLC: 2048
rand_sets[50]: 633
Assign rand_sets[51]: 920  LLC: 2048
rand_sets[51]: 920
Assign rand_sets[52]: 204  LLC: 2048
rand_sets[52]: 204
Assign rand_sets[53]: 227  LLC: 2048
rand_sets[53]: 227
Assign rand_sets[54]: 1818  LLC: 2048
rand_sets[54]: 1818
Assign rand_sets[55]: 886  LLC: 2048
rand_sets[55]: 886
Assign rand_sets[56]: 1422  LLC: 2048
rand_sets[56]: 1422
Assign rand_sets[57]: 607  LLC: 2048
rand_sets[57]: 607
Assign rand_sets[58]: 217  LLC: 2048
rand_sets[58]: 217
Assign rand_sets[59]: 1945  LLC: 2048
rand_sets[59]: 1945
Assign rand_sets[60]: 143  LLC: 2048
rand_sets[60]: 143
Assign rand_sets[61]: 1311  LLC: 2048
rand_sets[61]: 1311
Assign rand_sets[62]: 319  LLC: 2048
rand_sets[62]: 319
Assign rand_sets[63]: 1846  LLC: 2048
rand_sets[63]: 1846
 CLEAN-RRIP-POLICY-1: 0-2-1-0-2-2-0-1- CLEAN-RRIP-POLICY-2: 0-2-1-0-2-2-0-1-
 DIRTY-RRIP-POLICY-1: 1-2-0-0-2-2-2-1- DIRTY-RRIP-POLICY-2: 1-2-0-0-2-2-2-1-
 PSEL width: 10
Heartbeat CPU 0 instructions: 10000002 cycles: 5480870 heartbeat IPC: 1.82453 cumulative IPC: 1.82453 (Simulation time: 0 hr 0 min 13 sec) 
Heartbeat CPU 0 instructions: 20000000 cycles: 10913504 heartbeat IPC: 1.84073 cumulative IPC: 1.83259 (Simulation time: 0 hr 0 min 25 sec) 
Heartbeat CPU 0 instructions: 30000000 cycles: 16448398 heartbeat IPC: 1.80672 cumulative IPC: 1.82389 (Simulation time: 0 hr 0 min 38 sec) 
Heartbeat CPU 0 instructions: 40000000 cycles: 21900339 heartbeat IPC: 1.83421 cumulative IPC: 1.82646 (Simulation time: 0 hr 0 min 51 sec) 
Heartbeat CPU 0 instructions: 50000000 cycles: 27403371 heartbeat IPC: 1.81718 cumulative IPC: 1.82459 (Simulation time: 0 hr 1 min 3 sec) 
Heartbeat CPU 0 instructions: 60000000 cycles: 32783317 heartbeat IPC: 1.85875 cumulative IPC: 1.8302 (Simulation time: 0 hr 1 min 16 sec) 
Heartbeat CPU 0 instructions: 70000001 cycles: 38340625 heartbeat IPC: 1.79943 cumulative IPC: 1.82574 (Simulation time: 0 hr 1 min 29 sec) 
Heartbeat CPU 0 instructions: 80000000 cycles: 43801250 heartbeat IPC: 1.83129 cumulative IPC: 1.82643 (Simulation time: 0 hr 1 min 42 sec) 
Heartbeat CPU 0 instructions: 90000000 cycles: 49249348 heartbeat IPC: 1.8355 cumulative IPC: 1.82744 (Simulation time: 0 hr 1 min 55 sec) 
Heartbeat CPU 0 instructions: 100000000 cycles: 54795587 heartbeat IPC: 1.80302 cumulative IPC: 1.82496 (Simulation time: 0 hr 2 min 8 sec) 

Warmup complete CPU 0 instructions: 100000002 cycles: 54795588 (Simulation time: 0 hr 2 min 8 sec) 

Heartbeat CPU 0 instructions: 110000001 cycles: 69552207 heartbeat IPC: 0.677662 cumulative IPC: 0.677662 (Simulation time: 0 hr 2 min 26 sec) 
Heartbeat CPU 0 instructions: 120000000 cycles: 85033550 heartbeat IPC: 0.645939 cumulative IPC: 0.66142 (Simulation time: 0 hr 2 min 45 sec) 
Heartbeat CPU 0 instructions: 130000000 cycles: 99893426 heartbeat IPC: 0.672953 cumulative IPC: 0.66522 (Simulation time: 0 hr 3 min 4 sec) 
Heartbeat CPU 0 instructions: 140000000 cycles: 114465052 heartbeat IPC: 0.686265 cumulative IPC: 0.67036 (Simulation time: 0 hr 3 min 22 sec) 
Heartbeat CPU 0 instructions: 150000000 cycles: 129551105 heartbeat IPC: 0.662864 cumulative IPC: 0.668847 (Simulation time: 0 hr 3 min 41 sec) 
Heartbeat CPU 0 instructions: 160000000 cycles: 145064344 heartbeat IPC: 0.644611 cumulative IPC: 0.664682 (Simulation time: 0 hr 4 min 0 sec) 
Heartbeat CPU 0 instructions: 170000001 cycles: 160379853 heartbeat IPC: 0.652933 cumulative IPC: 0.662978 (Simulation time: 0 hr 4 min 18 sec) 
Heartbeat CPU 0 instructions: 180000000 cycles: 175748701 heartbeat IPC: 0.650667 cumulative IPC: 0.661413 (Simulation time: 0 hr 4 min 37 sec) 
Heartbeat CPU 0 instructions: 190000002 cycles: 190599889 heartbeat IPC: 0.673347 cumulative IPC: 0.662718 (Simulation time: 0 hr 4 min 56 sec) 
Heartbeat CPU 0 instructions: 200000000 cycles: 205355630 heartbeat IPC: 0.677702 cumulative IPC: 0.664187 (Simulation time: 0 hr 5 min 14 sec) 
Heartbeat CPU 0 instructions: 210000003 cycles: 220295630 heartbeat IPC: 0.669344 cumulative IPC: 0.664652 (Simulation time: 0 hr 5 min 33 sec) 
Heartbeat CPU 0 instructions: 220000000 cycles: 235361710 heartbeat IPC: 0.663742 cumulative IPC: 0.664576 (Simulation time: 0 hr 5 min 52 sec) 
Heartbeat CPU 0 instructions: 230000001 cycles: 250889680 heartbeat IPC: 0.643999 cumulative IPC: 0.662947 (Simulation time: 0 hr 6 min 11 sec) 
Heartbeat CPU 0 instructions: 240000000 cycles: 266224720 heartbeat IPC: 0.652101 cumulative IPC: 0.66216 (Simulation time: 0 hr 6 min 29 sec) 
Heartbeat CPU 0 instructions: 250000003 cycles: 281398817 heartbeat IPC: 0.659018 cumulative IPC: 0.66195 (Simulation time: 0 hr 6 min 47 sec) 
Heartbeat CPU 0 instructions: 260000000 cycles: 297402125 heartbeat IPC: 0.624871 cumulative IPC: 0.659504 (Simulation time: 0 hr 7 min 6 sec) 
Heartbeat CPU 0 instructions: 270000003 cycles: 312390065 heartbeat IPC: 0.667203 cumulative IPC: 0.659952 (Simulation time: 0 hr 7 min 25 sec) 
Heartbeat CPU 0 instructions: 280000000 cycles: 327220092 heartbeat IPC: 0.674307 cumulative IPC: 0.660734 (Simulation time: 0 hr 7 min 43 sec) 
Heartbeat CPU 0 instructions: 290000002 cycles: 341961346 heartbeat IPC: 0.678368 cumulative IPC: 0.661639 (Simulation time: 0 hr 8 min 2 sec) 
Heartbeat CPU 0 instructions: 300000000 cycles: 357835448 heartbeat IPC: 0.629957 cumulative IPC: 0.659979 (Simulation time: 0 hr 8 min 21 sec) 
Heartbeat CPU 0 instructions: 310000000 cycles: 373240324 heartbeat IPC: 0.649145 cumulative IPC: 0.659455 (Simulation time: 0 hr 8 min 39 sec) 
Heartbeat CPU 0 instructions: 320000000 cycles: 388402887 heartbeat IPC: 0.659519 cumulative IPC: 0.659458 (Simulation time: 0 hr 8 min 57 sec) 
Heartbeat CPU 0 instructions: 330000000 cycles: 404772304 heartbeat IPC: 0.610895 cumulative IPC: 0.657187 (Simulation time: 0 hr 9 min 16 sec) 
Heartbeat CPU 0 instructions: 340000000 cycles: 419773633 heartbeat IPC: 0.666608 cumulative IPC: 0.657574 (Simulation time: 0 hr 9 min 34 sec) 
Heartbeat CPU 0 instructions: 350000000 cycles: 434765638 heartbeat IPC: 0.667022 cumulative IPC: 0.657947 (Simulation time: 0 hr 9 min 52 sec) 
Heartbeat CPU 0 instructions: 360000000 cycles: 449755943 heartbeat IPC: 0.667098 cumulative IPC: 0.658294 (Simulation time: 0 hr 10 min 11 sec) 
Heartbeat CPU 0 instructions: 370000002 cycles: 465637741 heartbeat IPC: 0.629652 cumulative IPC: 0.657187 (Simulation time: 0 hr 10 min 29 sec) 
Heartbeat CPU 0 instructions: 380000000 cycles: 480836402 heartbeat IPC: 0.657953 cumulative IPC: 0.657214 (Simulation time: 0 hr 10 min 48 sec) 
Heartbeat CPU 0 instructions: 390000003 cycles: 496199362 heartbeat IPC: 0.650916 cumulative IPC: 0.656995 (Simulation time: 0 hr 11 min 6 sec) 
Heartbeat CPU 0 instructions: 400000000 cycles: 512615500 heartbeat IPC: 0.609156 cumulative IPC: 0.65528 (Simulation time: 0 hr 11 min 25 sec) 
Heartbeat CPU 0 instructions: 410000001 cycles: 528074905 heartbeat IPC: 0.646855 cumulative IPC: 0.655004 (Simulation time: 0 hr 11 min 43 sec) 
Heartbeat CPU 0 instructions: 420000000 cycles: 543217520 heartbeat IPC: 0.660388 cumulative IPC: 0.655171 (Simulation time: 0 hr 12 min 1 sec) 
Heartbeat CPU 0 instructions: 430000000 cycles: 559095568 heartbeat IPC: 0.6298 cumulative IPC: 0.654372 (Simulation time: 0 hr 12 min 20 sec) 
Heartbeat CPU 0 instructions: 440000000 cycles: 574257950 heartbeat IPC: 0.659527 cumulative IPC: 0.654523 (Simulation time: 0 hr 12 min 38 sec) 
Heartbeat CPU 0 instructions: 450000000 cycles: 589628375 heartbeat IPC: 0.6506 cumulative IPC: 0.65441 (Simulation time: 0 hr 12 min 56 sec) 
Heartbeat CPU 0 instructions: 460000000 cycles: 605956601 heartbeat IPC: 0.612436 cumulative IPC: 0.653167 (Simulation time: 0 hr 13 min 15 sec) 
Heartbeat CPU 0 instructions: 470000000 cycles: 621488494 heartbeat IPC: 0.643836 cumulative IPC: 0.652911 (Simulation time: 0 hr 13 min 33 sec) 
Heartbeat CPU 0 instructions: 480000000 cycles: 636753864 heartbeat IPC: 0.655077 cumulative IPC: 0.652968 (Simulation time: 0 hr 13 min 51 sec) 
Heartbeat CPU 0 instructions: 490000002 cycles: 652439490 heartbeat IPC: 0.637527 cumulative IPC: 0.652562 (Simulation time: 0 hr 14 min 9 sec) 
Heartbeat CPU 0 instructions: 500000000 cycles: 667634571 heartbeat IPC: 0.658108 cumulative IPC: 0.6527 (Simulation time: 0 hr 14 min 27 sec) 
Heartbeat CPU 0 instructions: 510000001 cycles: 683121378 heartbeat IPC: 0.645711 cumulative IPC: 0.652528 (Simulation time: 0 hr 14 min 45 sec) 
Heartbeat CPU 0 instructions: 520000000 cycles: 699100648 heartbeat IPC: 0.625811 cumulative IPC: 0.651865 (Simulation time: 0 hr 15 min 4 sec) 
Heartbeat CPU 0 instructions: 530000001 cycles: 715022773 heartbeat IPC: 0.628057 cumulative IPC: 0.651291 (Simulation time: 0 hr 15 min 22 sec) 
Heartbeat CPU 0 instructions: 540000000 cycles: 729990308 heartbeat IPC: 0.668113 cumulative IPC: 0.651664 (Simulation time: 0 hr 15 min 40 sec) 
Heartbeat CPU 0 instructions: 550000001 cycles: 745654104 heartbeat IPC: 0.638415 cumulative IPC: 0.651363 (Simulation time: 0 hr 15 min 59 sec) 
Heartbeat CPU 0 instructions: 560000000 cycles: 760791528 heartbeat IPC: 0.660614 cumulative IPC: 0.651562 (Simulation time: 0 hr 16 min 16 sec) 
Heartbeat CPU 0 instructions: 570000002 cycles: 776400788 heartbeat IPC: 0.640646 cumulative IPC: 0.651326 (Simulation time: 0 hr 16 min 35 sec) 
Heartbeat CPU 0 instructions: 580000000 cycles: 791842992 heartbeat IPC: 0.647576 cumulative IPC: 0.651247 (Simulation time: 0 hr 16 min 53 sec) 
Heartbeat CPU 0 instructions: 590000001 cycles: 807227517 heartbeat IPC: 0.650004 cumulative IPC: 0.651222 (Simulation time: 0 hr 17 min 11 sec) 
Heartbeat CPU 0 instructions: 600000000 cycles: 822269408 heartbeat IPC: 0.66481 cumulative IPC: 0.651488 (Simulation time: 0 hr 17 min 29 sec) 
Finished CPU 0 instructions: 500000000 cycles: 767473828 cumulative IPC: 0.651488 (Simulation time: 0 hr 17 min 29 sec) 

CPU 0 Branch Prediction Accuracy: 93.7783% MPKI: 10.0718
Number of Branches: 80940586 Number of Mispredictions: 5035908
Number of LOAD Instructions: 184238101
Number of LOAD Instructions (ROI): 184238101
Number of STORE Instructions: 33143298
Number of STORE Instructions (ROI): 33143298
Total Destination Memory Operands: 33324321
Total Destination Memory Operands (ROI): 33324321
Total Source Memory Operands: 184238101
Total Source Memory Operands (ROI): 184238101
Number of DEPENDED LOADS: 4461756
Number of DEPENDED LOADS (ROI): 4461756
Number of SQ_ADDED: 33324292
Number of SQ_ADDED (ROI): 33324292
Number of LQ_ADDED: 184861077
Number of LQ_ADDED (ROI): 184861077
Number of Instructions read from trace: 600000256

ChampSim completed all CPUs

Region of Interest Statistics

CPU 0 cumulative IPC: 0.651488 instructions: 500000000 cycles: 767473828
ITLB TOTAL     ACCESS:   77755759  HIT:   77755759  MISS:          0
ITLB LOAD      ACCESS:   77755759  HIT:   77755759  MISS:          0
ITLB RFO       ACCESS:          0  HIT:          0  MISS:          0
ITLB PREFETCH  ACCESS:          0  HIT:          0  MISS:          0
ITLB WRITEBACK ACCESS:          0  HIT:          0  MISS:          0
ITLB PREFETCH  REQUESTED:          0  ISSUED:          0  USEFUL:          0  USELESS:          0
ITLB TOTAL MSHR MERGED:          0
ITLB LOAD MSHR MERGED:          0
ITLB RFO MSHR MERGED:          0
ITLB PREFETCH MSHR MERGED:          0
ITLB WRITEBACK MSHR MERGED:          0
ITLB TOTAL ACCESSES:   77755759 HITS:   77755759 MISSES:          0
ITLB LOAD ACCESSES:   77755759 HITS:   77755759 MISSES:          0
ITLB RFO ACCESSES:          0 HITS:          0 MISSES:          0
ITLB PREFETCH ACCESSES:          0 HITS:          0 MISSES:          0
ITLB WRITEBACK ACCESSES:          0 HITS:          0 MISSES:          0
ITLB RQ ACCESS:  500000245
ITLB RQ TO_CACHE:   77755759
ITLB RQ MERGED:  422244486
ITLB RQ FORWARD:          0
ITLB WQ ACCESS:          0
ITLB WQ TO_CACHE:          0
ITLB WQ MERGED:          0
ITLB WQ FORWARD:          0
DTLB TOTAL     ACCESS:   88440896  HIT:   87304050  MISS:    1136846
DTLB LOAD      ACCESS:   66314831  HIT:   65182225  MISS:    1132606
DTLB RFO       ACCESS:   22126065  HIT:   22121825  MISS:       4240
DTLB PREFETCH  ACCESS:          0  HIT:          0  MISS:          0
DTLB WRITEBACK ACCESS:          0  HIT:          0  MISS:          0
DTLB PREFETCH  REQUESTED:          0  ISSUED:          0  USEFUL:          0  USELESS:          0
DTLB TOTAL MSHR MERGED:     135593
DTLB LOAD MSHR MERGED:     133779
DTLB RFO MSHR MERGED:       1814
DTLB PREFETCH MSHR MERGED:          0
DTLB WRITEBACK MSHR MERGED:          0
DTLB TOTAL ACCESSES:   88576489 HITS:   87304050 MISSES:    1272439
DTLB LOAD ACCESSES:   66448610 HITS:   65182225 MISSES:    1266385
DTLB RFO ACCESSES:   22127879 HITS:   22121825 MISSES:       6054
DTLB PREFETCH ACCESSES:          0 HITS:          0 MISSES:          0
DTLB WRITEBACK ACCESSES:          0 HITS:          0 MISSES:          0
DTLB RQ ACCESS:  177578904
DTLB RQ TO_CACHE:   88576489
DTLB RQ MERGED:   89002415
DTLB RQ FORWARD:          0
DTLB WQ ACCESS:          0
DTLB WQ TO_CACHE:          0
DTLB WQ MERGED:          0
DTLB WQ FORWARD:          0
L1D TOTAL     ACCESS:  142154331  HIT:  136595259  MISS:    5559072
L1D LOAD      ACCESS:   61390145  HIT:   58301039  MISS:    3089106
L1D RFO       ACCESS:   27669494  HIT:   27587699  MISS:      81795
L1D PREFETCH  ACCESS:   53094692  HIT:   50706521  MISS:    2388171
L1D WRITEBACK ACCESS:          0  HIT:          0  MISS:          0
L1D PREFETCH  REQUESTED:   61681077  ISSUED:   60762818  USEFUL:     681284  USELESS:    1706892
L1D TOTAL MSHR MERGED:    1143251
L1D LOAD MSHR MERGED:     374401
L1D RFO MSHR MERGED:     163572
L1D PREFETCH MSHR MERGED:     605278
L1D WRITEBACK MSHR MERGED:          0
L1D TOTAL ACCESSES:  143395192 HITS:  136692869 MISSES:    6702323
L1D LOAD ACCESSES:   61681087 HITS:   58301049 MISSES:    3380038
L1D RFO ACCESSES:   27829275 HITS:   27587699 MISSES:     241576
L1D PREFETCH ACCESSES:   53884830 HITS:   50804121 MISSES:    3080709
L1D WRITEBACK ACCESSES:          0 HITS:          0 MISSES:          0
L1D RQ ACCESS:  149745938
L1D RQ TO_CACHE:   61681077
L1D RQ MERGED:   88064851
L1D RQ FORWARD:          0
L1D WQ ACCESS:   27832966
L1D WQ TO_CACHE:   27829275
L1D WQ MERGED:       3691
L1D WQ FORWARD:      97610
L1I TOTAL     ACCESS:   96232339  HIT:   96073132  MISS:     159207
L1I LOAD      ACCESS:   96232339  HIT:   96073132  MISS:     159207
L1I RFO       ACCESS:          0  HIT:          0  MISS:          0
L1I PREFETCH  ACCESS:          0  HIT:          0  MISS:          0
L1I WRITEBACK ACCESS:          0  HIT:          0  MISS:          0
L1I PREFETCH  REQUESTED:          0  ISSUED:          0  USEFUL:          0  USELESS:          0
L1I TOTAL MSHR MERGED:     130585
L1I LOAD MSHR MERGED:     130585
L1I RFO MSHR MERGED:          0
L1I PREFETCH MSHR MERGED:          0
L1I WRITEBACK MSHR MERGED:          0
L1I TOTAL ACCESSES:   96362924 HITS:   96073132 MISSES:     289792
L1I LOAD ACCESSES:   96362924 HITS:   96073132 MISSES:     289792
L1I RFO ACCESSES:          0 HITS:          0 MISSES:          0
L1I PREFETCH ACCESSES:          0 HITS:          0 MISSES:          0
L1I WRITEBACK ACCESSES:          0 HITS:          0 MISSES:          0
L1I RQ ACCESS:  500000245
L1I RQ TO_CACHE:   96362924
L1I RQ MERGED:  403637321
L1I RQ FORWARD:          0
L1I WQ ACCESS:          0
L1I WQ TO_CACHE:          0
L1I WQ MERGED:          0
L1I WQ FORWARD:          0
L2C TOTAL     ACCESS:    5912280  HIT:    3063662  MISS:    2848618
L2C LOAD      ACCESS:    3164833  HIT:    1583540  MISS:    1581293
L2C RFO       ACCESS:      77932  HIT:      45089  MISS:      32843
L2C PREFETCH  ACCESS:    2525977  HIT:    1297081  MISS:    1228896
L2C WRITEBACK ACCESS:     143538  HIT:     137952  MISS:       5586
L2C PREFETCH  REQUESTED:      52723  ISSUED:      52723  USEFUL:      19192  USELESS:    1209744
L2C TOTAL MSHR MERGED:       1248
L2C LOAD MSHR MERGED:        420
L2C RFO MSHR MERGED:          0
L2C PREFETCH MSHR MERGED:        828
L2C WRITEBACK MSHR MERGED:          0
L2C TOTAL ACCESSES:    5913614 HITS:    3063745 MISSES:    2849869
L2C LOAD ACCESSES:    3164844 HITS:    1583551 MISSES:    1581293
L2C RFO ACCESSES:      78004 HITS:      45161 MISSES:      32843
L2C PREFETCH ACCESSES:    2527228 HITS:    1297081 MISSES:    1230147
L2C WRITEBACK ACCESSES:     143538 HITS:     137952 MISSES:       5586
L2C RQ ACCESS:    3242848
L2C RQ TO_CACHE:    3242765
L2C RQ MERGED:          0
L2C RQ FORWARD:          0
L2C WQ ACCESS:     143538
L2C WQ TO_CACHE:     143538
L2C WQ MERGED:          0
L2C WQ FORWARD:         83
LLC TOTAL     ACCESS:    2892576  HIT:    1777930  MISS:    1114646
LLC LOAD      ACCESS:    1580873  HIT:     963704  MISS:     617169
LLC RFO       ACCESS:      32835  HIT:      32605  MISS:        230
LLC PREFETCH  ACCESS:    1229319  HIT:     734651  MISS:     494668
LLC WRITEBACK ACCESS:      49549  HIT:      46970  MISS:       2579
LLC PREFETCH  REQUESTED:          0  ISSUED:          0  USEFUL:      20634  USELESS:     474698
LLC TOTAL MSHR MERGED:          0
LLC LOAD MSHR MERGED:          0
LLC RFO MSHR MERGED:          0
LLC PREFETCH MSHR MERGED:          0
LLC WRITEBACK MSHR MERGED:          0
LLC TOTAL ACCESSES:    2892584 HITS:    1777938 MISSES:    1114646
LLC LOAD ACCESSES:    1580873 HITS:     963704 MISSES:     617169
LLC RFO ACCESSES:      32843 HITS:      32613 MISSES:        230
LLC PREFETCH ACCESSES:    1229319 HITS:     734651 MISSES:     494668
LLC WRITEBACK ACCESSES:      49549 HITS:      46970 MISSES:       2579
LLC 0 RQ ACCESS:    1613716
LLC 0 RQ TO_CACHE:    1613708
LLC 0 RQ MERGED:          0
LLC 0 RQ FORWARD:          0
LLC WQ ACCESS:      49549
LLC WQ TO_CACHE:      49549
LLC WQ MERGED:          0
LLC WQ FORWARD:          8
Major fault: 0 Minor fault: 8460
CPU 0 L1D next line prefetcher final stats
CPU 0 L2C PC-based stride prefetcher final stats
All Misses: 1328328
All Hits: 2100843
SD Algo Stats - Switches: 0 SRR-Repls: 709312 BRR-Repls: 0

DRAM Statistics
 CHANNEL 0
 RQ ROW_BUFFER_HIT:     373801  ROW_BUFFER_MISS:     738194
 DBUS_CONGESTED:     356514
 WQ ROW_BUFFER_HIT:        473  ROW_BUFFER_MISS:       1936  FULL:          0

 AVG_CONGESTED_CYCLE: 12
LOADS RETIRED: 153532848
INSTR RETIRED: 500000000
