
*** ChampSim Multicore Out-of-Order Simulator ***

Warmup Instructions: 100000000
Simulation Instructions: 500000000
Number of CPUs: 1
LLC sets: 2048
LLC ways: 16
Clean RRIP Policies: 210220102102201 Dirty RRIP Policies: 1200222112002221 PSEL Width: 10 Track Set: 4294967295 PSEL Mask: 1 Demote Mask: 3121014231210142DS Algo: 0Window size: 0
Off-chip DRAM Size: 4096 MB Channels: 1 Width: 64-bit Data Rate: 1600 MT/s

CPU 0 runs /mnt/beegfs/iconst01/spec2017/Roms.trace.gz
NOT SORTED
TRACE STRING: /mnt/beegfs/iconst01/spec2017/Roms.trace.gz
SORTED
TRACE STRING: /mnt/beegfs/iconst01/spec2017/Roms.trace.gz
INITIAL
TRACE STRING: /mnt/beegfs/iconst01/spec2017/Roms.trace.gz

champsim_seed used: 417

CPU 0 L1D next line prefetcher
CPU 0 L2C IP-based stride prefetcher
Initialize DRRIP state
Assign rand_sets[0]: 454  LLC: 2048
rand_sets[0]: 454
Assign rand_sets[1]: 1662  LLC: 2048
rand_sets[1]: 1662
Assign rand_sets[2]: 1921  LLC: 2048
rand_sets[2]: 1921
Assign rand_sets[3]: 1131  LLC: 2048
rand_sets[3]: 1131
Assign rand_sets[4]: 331  LLC: 2048
rand_sets[4]: 331
Assign rand_sets[5]: 1531  LLC: 2048
rand_sets[5]: 1531
Assign rand_sets[6]: 482  LLC: 2048
rand_sets[6]: 482
Assign rand_sets[7]: 1275  LLC: 2048
rand_sets[7]: 1275
Assign rand_sets[8]: 1876  LLC: 2048
rand_sets[8]: 1876
Assign rand_sets[9]: 2038  LLC: 2048
rand_sets[9]: 2038
Assign rand_sets[10]: 701  LLC: 2048
rand_sets[10]: 701
Assign rand_sets[11]: 479  LLC: 2048
rand_sets[11]: 479
Assign rand_sets[12]: 892  LLC: 2048
rand_sets[12]: 892
Assign rand_sets[13]: 1820  LLC: 2048
rand_sets[13]: 1820
Assign rand_sets[14]: 1505  LLC: 2048
rand_sets[14]: 1505
Assign rand_sets[15]: 1159  LLC: 2048
rand_sets[15]: 1159
Assign rand_sets[16]: 513  LLC: 2048
rand_sets[16]: 513
Assign rand_sets[17]: 703  LLC: 2048
rand_sets[17]: 703
Assign rand_sets[18]: 561  LLC: 2048
rand_sets[18]: 561
Assign rand_sets[19]: 990  LLC: 2048
rand_sets[19]: 990
Assign rand_sets[20]: 342  LLC: 2048
rand_sets[20]: 342
Assign rand_sets[21]: 882  LLC: 2048
rand_sets[21]: 882
Assign rand_sets[22]: 15  LLC: 2048
rand_sets[22]: 15
Assign rand_sets[23]: 71  LLC: 2048
rand_sets[23]: 71
Assign rand_sets[24]: 1127  LLC: 2048
rand_sets[24]: 1127
Assign rand_sets[25]: 1382  LLC: 2048
rand_sets[25]: 1382
Assign rand_sets[26]: 647  LLC: 2048
rand_sets[26]: 647
Assign rand_sets[27]: 857  LLC: 2048
rand_sets[27]: 857
Assign rand_sets[28]: 1450  LLC: 2048
rand_sets[28]: 1450
Assign rand_sets[29]: 1160  LLC: 2048
rand_sets[29]: 1160
Assign rand_sets[30]: 1852  LLC: 2048
rand_sets[30]: 1852
Assign rand_sets[31]: 1881  LLC: 2048
rand_sets[31]: 1881
Assign rand_sets[32]: 1770  LLC: 2048
rand_sets[32]: 1770
Assign rand_sets[33]: 1622  LLC: 2048
rand_sets[33]: 1622
Assign rand_sets[34]: 275  LLC: 2048
rand_sets[34]: 275
Assign rand_sets[35]: 635  LLC: 2048
rand_sets[35]: 635
Assign rand_sets[36]: 466  LLC: 2048
rand_sets[36]: 466
Assign rand_sets[37]: 1413  LLC: 2048
rand_sets[37]: 1413
Assign rand_sets[38]: 417  LLC: 2048
rand_sets[38]: 417
Assign rand_sets[39]: 472  LLC: 2048
rand_sets[39]: 472
Assign rand_sets[40]: 1340  LLC: 2048
rand_sets[40]: 1340
Assign rand_sets[41]: 852  LLC: 2048
rand_sets[41]: 852
Assign rand_sets[42]: 1365  LLC: 2048
rand_sets[42]: 1365
Assign rand_sets[43]: 47  LLC: 2048
rand_sets[43]: 47
Assign rand_sets[44]: 823  LLC: 2048
rand_sets[44]: 823
Assign rand_sets[45]: 686  LLC: 2048
rand_sets[45]: 686
Assign rand_sets[46]: 1637  LLC: 2048
rand_sets[46]: 1637
Assign rand_sets[47]: 1115  LLC: 2048
rand_sets[47]: 1115
Assign rand_sets[48]: 986  LLC: 2048
rand_sets[48]: 986
Assign rand_sets[49]: 258  LLC: 2048
rand_sets[49]: 258
Assign rand_sets[50]: 633  LLC: 2048
rand_sets[50]: 633
Assign rand_sets[51]: 920  LLC: 2048
rand_sets[51]: 920
Assign rand_sets[52]: 204  LLC: 2048
rand_sets[52]: 204
Assign rand_sets[53]: 227  LLC: 2048
rand_sets[53]: 227
Assign rand_sets[54]: 1818  LLC: 2048
rand_sets[54]: 1818
Assign rand_sets[55]: 886  LLC: 2048
rand_sets[55]: 886
Assign rand_sets[56]: 1422  LLC: 2048
rand_sets[56]: 1422
Assign rand_sets[57]: 607  LLC: 2048
rand_sets[57]: 607
Assign rand_sets[58]: 217  LLC: 2048
rand_sets[58]: 217
Assign rand_sets[59]: 1945  LLC: 2048
rand_sets[59]: 1945
Assign rand_sets[60]: 143  LLC: 2048
rand_sets[60]: 143
Assign rand_sets[61]: 1311  LLC: 2048
rand_sets[61]: 1311
Assign rand_sets[62]: 319  LLC: 2048
rand_sets[62]: 319
Assign rand_sets[63]: 1846  LLC: 2048
rand_sets[63]: 1846
 CLEAN-RRIP-POLICY-1: 0-2-1-0-2-2-0-1- CLEAN-RRIP-POLICY-2: 0-2-1-0-2-2-0-1-
 DIRTY-RRIP-POLICY-1: 1-2-0-0-2-2-2-1- DIRTY-RRIP-POLICY-2: 1-2-0-0-2-2-2-1-
 PSEL width: 10
Heartbeat CPU 0 instructions: 10000000 cycles: 4688091 heartbeat IPC: 2.13306 cumulative IPC: 2.13306 (Simulation time: 0 hr 0 min 17 sec) 
Heartbeat CPU 0 instructions: 20000000 cycles: 9325368 heartbeat IPC: 2.15644 cumulative IPC: 2.14469 (Simulation time: 0 hr 0 min 33 sec) 
Heartbeat CPU 0 instructions: 30000003 cycles: 14019757 heartbeat IPC: 2.1302 cumulative IPC: 2.13984 (Simulation time: 0 hr 0 min 50 sec) 
Heartbeat CPU 0 instructions: 40000000 cycles: 18670173 heartbeat IPC: 2.15034 cumulative IPC: 2.14245 (Simulation time: 0 hr 1 min 7 sec) 
Heartbeat CPU 0 instructions: 50000003 cycles: 23323535 heartbeat IPC: 2.14898 cumulative IPC: 2.14376 (Simulation time: 0 hr 1 min 24 sec) 
Heartbeat CPU 0 instructions: 60000000 cycles: 27976163 heartbeat IPC: 2.14932 cumulative IPC: 2.14468 (Simulation time: 0 hr 1 min 40 sec) 
Heartbeat CPU 0 instructions: 70000002 cycles: 32367302 heartbeat IPC: 2.27731 cumulative IPC: 2.16268 (Simulation time: 0 hr 1 min 55 sec) 
Heartbeat CPU 0 instructions: 80000000 cycles: 36304036 heartbeat IPC: 2.54018 cumulative IPC: 2.20361 (Simulation time: 0 hr 2 min 6 sec) 
Heartbeat CPU 0 instructions: 90000000 cycles: 40249282 heartbeat IPC: 2.5347 cumulative IPC: 2.23606 (Simulation time: 0 hr 2 min 18 sec) 
Heartbeat CPU 0 instructions: 100000000 cycles: 44211625 heartbeat IPC: 2.52376 cumulative IPC: 2.26185 (Simulation time: 0 hr 2 min 30 sec) 

Warmup complete CPU 0 instructions: 100000002 cycles: 44211626 (Simulation time: 0 hr 2 min 30 sec) 

Heartbeat CPU 0 instructions: 110000000 cycles: 52373579 heartbeat IPC: 1.2252 cumulative IPC: 1.2252 (Simulation time: 0 hr 2 min 48 sec) 
Heartbeat CPU 0 instructions: 120000000 cycles: 60776334 heartbeat IPC: 1.19009 cumulative IPC: 1.20739 (Simulation time: 0 hr 3 min 6 sec) 
Heartbeat CPU 0 instructions: 130000002 cycles: 69292191 heartbeat IPC: 1.17428 cumulative IPC: 1.19615 (Simulation time: 0 hr 3 min 24 sec) 
Heartbeat CPU 0 instructions: 140000000 cycles: 77626898 heartbeat IPC: 1.1998 cumulative IPC: 1.19706 (Simulation time: 0 hr 3 min 42 sec) 
Heartbeat CPU 0 instructions: 150000003 cycles: 86095080 heartbeat IPC: 1.18089 cumulative IPC: 1.19379 (Simulation time: 0 hr 4 min 0 sec) 
Heartbeat CPU 0 instructions: 160000000 cycles: 96276777 heartbeat IPC: 0.982154 cumulative IPC: 1.1524 (Simulation time: 0 hr 4 min 20 sec) 
Heartbeat CPU 0 instructions: 170000000 cycles: 108572604 heartbeat IPC: 0.813284 cumulative IPC: 1.08762 (Simulation time: 0 hr 4 min 43 sec) 
Heartbeat CPU 0 instructions: 180000000 cycles: 120846220 heartbeat IPC: 0.814756 cumulative IPC: 1.04391 (Simulation time: 0 hr 5 min 5 sec) 
Heartbeat CPU 0 instructions: 190000000 cycles: 133264803 heartbeat IPC: 0.805245 cumulative IPC: 1.01063 (Simulation time: 0 hr 5 min 28 sec) 
Heartbeat CPU 0 instructions: 200000000 cycles: 145655558 heartbeat IPC: 0.807053 cumulative IPC: 0.985766 (Simulation time: 0 hr 5 min 50 sec) 
Heartbeat CPU 0 instructions: 210000003 cycles: 158103883 heartbeat IPC: 0.803321 cumulative IPC: 0.965825 (Simulation time: 0 hr 6 min 12 sec) 
Heartbeat CPU 0 instructions: 220000000 cycles: 170145231 heartbeat IPC: 0.830472 cumulative IPC: 0.952883 (Simulation time: 0 hr 6 min 35 sec) 
Heartbeat CPU 0 instructions: 230000000 cycles: 181459525 heartbeat IPC: 0.883838 cumulative IPC: 0.947191 (Simulation time: 0 hr 6 min 57 sec) 
Heartbeat CPU 0 instructions: 240000000 cycles: 192857928 heartbeat IPC: 0.877316 cumulative IPC: 0.941833 (Simulation time: 0 hr 7 min 19 sec) 
Heartbeat CPU 0 instructions: 250000002 cycles: 202606035 heartbeat IPC: 1.02584 cumulative IPC: 0.947003 (Simulation time: 0 hr 7 min 40 sec) 
Heartbeat CPU 0 instructions: 260000000 cycles: 210229470 heartbeat IPC: 1.31174 cumulative IPC: 0.963752 (Simulation time: 0 hr 7 min 59 sec) 
Heartbeat CPU 0 instructions: 270000003 cycles: 218381131 heartbeat IPC: 1.22674 cumulative IPC: 0.976061 (Simulation time: 0 hr 8 min 19 sec) 
Heartbeat CPU 0 instructions: 280000000 cycles: 227141023 heartbeat IPC: 1.14157 cumulative IPC: 0.983986 (Simulation time: 0 hr 8 min 39 sec) 
Heartbeat CPU 0 instructions: 290000000 cycles: 235788563 heartbeat IPC: 1.1564 cumulative IPC: 0.991769 (Simulation time: 0 hr 8 min 58 sec) 
Heartbeat CPU 0 instructions: 300000000 cycles: 244417367 heartbeat IPC: 1.15891 cumulative IPC: 0.998972 (Simulation time: 0 hr 9 min 18 sec) 
Heartbeat CPU 0 instructions: 310000000 cycles: 253017530 heartbeat IPC: 1.16277 cumulative IPC: 1.00572 (Simulation time: 0 hr 9 min 39 sec) 
Heartbeat CPU 0 instructions: 320000000 cycles: 261476797 heartbeat IPC: 1.18214 cumulative IPC: 1.01259 (Simulation time: 0 hr 10 min 0 sec) 
Heartbeat CPU 0 instructions: 330000002 cycles: 270045380 heartbeat IPC: 1.16705 cumulative IPC: 1.01845 (Simulation time: 0 hr 10 min 20 sec) 
Heartbeat CPU 0 instructions: 340000000 cycles: 279740764 heartbeat IPC: 1.03142 cumulative IPC: 1.01898 (Simulation time: 0 hr 10 min 42 sec) 
Heartbeat CPU 0 instructions: 350000001 cycles: 288677443 heartbeat IPC: 1.11898 cumulative IPC: 1.02264 (Simulation time: 0 hr 11 min 3 sec) 
Heartbeat CPU 0 instructions: 360000000 cycles: 297638054 heartbeat IPC: 1.116 cumulative IPC: 1.02594 (Simulation time: 0 hr 11 min 23 sec) 
Heartbeat CPU 0 instructions: 370000001 cycles: 306554772 heartbeat IPC: 1.12149 cumulative IPC: 1.02919 (Simulation time: 0 hr 11 min 44 sec) 
Heartbeat CPU 0 instructions: 380000000 cycles: 315450709 heartbeat IPC: 1.12411 cumulative IPC: 1.0323 (Simulation time: 0 hr 12 min 4 sec) 
Heartbeat CPU 0 instructions: 390000001 cycles: 324217798 heartbeat IPC: 1.14063 cumulative IPC: 1.03569 (Simulation time: 0 hr 12 min 24 sec) 
Heartbeat CPU 0 instructions: 400000000 cycles: 333039191 heartbeat IPC: 1.13361 cumulative IPC: 1.03868 (Simulation time: 0 hr 12 min 44 sec) 
Heartbeat CPU 0 instructions: 410000003 cycles: 341809579 heartbeat IPC: 1.1402 cumulative IPC: 1.04167 (Simulation time: 0 hr 13 min 4 sec) 
Heartbeat CPU 0 instructions: 420000000 cycles: 350629430 heartbeat IPC: 1.13381 cumulative IPC: 1.04433 (Simulation time: 0 hr 13 min 25 sec) 
Heartbeat CPU 0 instructions: 430000001 cycles: 359391208 heartbeat IPC: 1.14132 cumulative IPC: 1.04702 (Simulation time: 0 hr 13 min 45 sec) 
Heartbeat CPU 0 instructions: 440000000 cycles: 368105245 heartbeat IPC: 1.14757 cumulative IPC: 1.04973 (Simulation time: 0 hr 14 min 5 sec) 
Heartbeat CPU 0 instructions: 450000001 cycles: 378262291 heartbeat IPC: 0.984538 cumulative IPC: 1.04775 (Simulation time: 0 hr 14 min 27 sec) 
Heartbeat CPU 0 instructions: 460000000 cycles: 387066505 heartbeat IPC: 1.13582 cumulative IPC: 1.05001 (Simulation time: 0 hr 14 min 47 sec) 
Heartbeat CPU 0 instructions: 470000003 cycles: 395773125 heartbeat IPC: 1.14855 cumulative IPC: 1.05245 (Simulation time: 0 hr 15 min 7 sec) 
Heartbeat CPU 0 instructions: 480000000 cycles: 404448396 heartbeat IPC: 1.1527 cumulative IPC: 1.05486 (Simulation time: 0 hr 15 min 27 sec) 
Heartbeat CPU 0 instructions: 490000000 cycles: 413167782 heartbeat IPC: 1.14687 cumulative IPC: 1.05704 (Simulation time: 0 hr 15 min 47 sec) 
Heartbeat CPU 0 instructions: 500000000 cycles: 421833401 heartbeat IPC: 1.15399 cumulative IPC: 1.05926 (Simulation time: 0 hr 16 min 7 sec) 
Heartbeat CPU 0 instructions: 510000001 cycles: 430513815 heartbeat IPC: 1.15202 cumulative IPC: 1.06135 (Simulation time: 0 hr 16 min 28 sec) 
Heartbeat CPU 0 instructions: 520000000 cycles: 439193688 heartbeat IPC: 1.15209 cumulative IPC: 1.06334 (Simulation time: 0 hr 16 min 48 sec) 
Heartbeat CPU 0 instructions: 530000001 cycles: 447874206 heartbeat IPC: 1.15201 cumulative IPC: 1.06525 (Simulation time: 0 hr 17 min 8 sec) 
Heartbeat CPU 0 instructions: 540000000 cycles: 456804782 heartbeat IPC: 1.11975 cumulative IPC: 1.06643 (Simulation time: 0 hr 17 min 28 sec) 
Heartbeat CPU 0 instructions: 550000000 cycles: 465703182 heartbeat IPC: 1.1238 cumulative IPC: 1.06764 (Simulation time: 0 hr 17 min 48 sec) 
Heartbeat CPU 0 instructions: 560000000 cycles: 474424320 heartbeat IPC: 1.14664 cumulative IPC: 1.06924 (Simulation time: 0 hr 18 min 9 sec) 
Heartbeat CPU 0 instructions: 570000001 cycles: 485684293 heartbeat IPC: 0.888102 cumulative IPC: 1.06462 (Simulation time: 0 hr 18 min 30 sec) 
Heartbeat CPU 0 instructions: 580000000 cycles: 496415717 heartbeat IPC: 0.931843 cumulative IPC: 1.06147 (Simulation time: 0 hr 18 min 51 sec) 
Heartbeat CPU 0 instructions: 590000001 cycles: 507735764 heartbeat IPC: 0.883389 cumulative IPC: 1.05712 (Simulation time: 0 hr 19 min 13 sec) 
Heartbeat CPU 0 instructions: 600000000 cycles: 518439336 heartbeat IPC: 0.934267 cumulative IPC: 1.05435 (Simulation time: 0 hr 19 min 34 sec) 
Finished CPU 0 instructions: 500000001 cycles: 474227723 cumulative IPC: 1.05435 (Simulation time: 0 hr 19 min 34 sec) 

CPU 0 Branch Prediction Accuracy: 99.7422% MPKI: 0.173296
Number of Branches: 33608403 Number of Mispredictions: 86648
Number of LOAD Instructions: 180215231
Number of LOAD Instructions (ROI): 180215231
Number of STORE Instructions: 36067263
Number of STORE Instructions (ROI): 36067263
Total Destination Memory Operands: 38428915
Total Destination Memory Operands (ROI): 38428915
Total Source Memory Operands: 180215231
Total Source Memory Operands (ROI): 180215231
Number of DEPENDED LOADS: 3042347
Number of DEPENDED LOADS (ROI): 3042347
Number of SQ_ADDED: 38428892
Number of SQ_ADDED (ROI): 38428892
Number of LQ_ADDED: 207822318
Number of LQ_ADDED (ROI): 207822318
Number of Instructions read from trace: 600000257

ChampSim completed all CPUs

Region of Interest Statistics

CPU 0 cumulative IPC: 1.05435 instructions: 500000001 cycles: 474227723
ITLB TOTAL     ACCESS:   91333432  HIT:   91333413  MISS:         19
ITLB LOAD      ACCESS:   91333432  HIT:   91333413  MISS:         19
ITLB RFO       ACCESS:          0  HIT:          0  MISS:          0
ITLB PREFETCH  ACCESS:          0  HIT:          0  MISS:          0
ITLB WRITEBACK ACCESS:          0  HIT:          0  MISS:          0
ITLB PREFETCH  REQUESTED:          0  ISSUED:          0  USEFUL:          0  USELESS:          0
ITLB TOTAL MSHR MERGED:         40
ITLB LOAD MSHR MERGED:         40
ITLB RFO MSHR MERGED:          0
ITLB PREFETCH MSHR MERGED:          0
ITLB WRITEBACK MSHR MERGED:          0
ITLB TOTAL ACCESSES:   91333472 HITS:   91333413 MISSES:         59
ITLB LOAD ACCESSES:   91333472 HITS:   91333413 MISSES:         59
ITLB RFO ACCESSES:          0 HITS:          0 MISSES:          0
ITLB PREFETCH ACCESSES:          0 HITS:          0 MISSES:          0
ITLB WRITEBACK ACCESSES:          0 HITS:          0 MISSES:          0
ITLB RQ ACCESS:  500000003
ITLB RQ TO_CACHE:   91333472
ITLB RQ MERGED:  408666531
ITLB RQ FORWARD:          0
ITLB WQ ACCESS:          0
ITLB WQ TO_CACHE:          0
ITLB WQ MERGED:          0
ITLB WQ FORWARD:          0
DTLB TOTAL     ACCESS:  142699741  HIT:  142333278  MISS:     366463
DTLB LOAD      ACCESS:  119938144  HIT:  119624558  MISS:     313586
DTLB RFO       ACCESS:   22761597  HIT:   22708720  MISS:      52877
DTLB PREFETCH  ACCESS:          0  HIT:          0  MISS:          0
DTLB WRITEBACK ACCESS:          0  HIT:          0  MISS:          0
DTLB PREFETCH  REQUESTED:          0  ISSUED:          0  USEFUL:          0  USELESS:          0
DTLB TOTAL MSHR MERGED:     293085
DTLB LOAD MSHR MERGED:     244356
DTLB RFO MSHR MERGED:      48729
DTLB PREFETCH MSHR MERGED:          0
DTLB WRITEBACK MSHR MERGED:          0
DTLB TOTAL ACCESSES:  142992826 HITS:  142333278 MISSES:     659548
DTLB LOAD ACCESSES:  120182500 HITS:  119624558 MISSES:     557942
DTLB RFO ACCESSES:   22810326 HITS:   22708720 MISSES:     101606
DTLB PREFETCH ACCESSES:          0 HITS:          0 MISSES:          0
DTLB WRITEBACK ACCESSES:          0 HITS:          0 MISSES:          0
DTLB RQ ACCESS:  184790629
DTLB RQ TO_CACHE:  142992826
DTLB RQ MERGED:   41797803
DTLB RQ FORWARD:          0
DTLB WQ ACCESS:          0
DTLB WQ TO_CACHE:          0
DTLB WQ MERGED:          0
DTLB WQ FORWARD:          0
L1D TOTAL     ACCESS:  190269928  HIT:  176775808  MISS:   13494120
L1D LOAD      ACCESS:  113394097  HIT:  110564841  MISS:    2829256
L1D RFO       ACCESS:   17023425  HIT:   14241668  MISS:    2781757
L1D PREFETCH  ACCESS:   59852406  HIT:   51969299  MISS:    7883107
L1D WRITEBACK ACCESS:          0  HIT:          0  MISS:          0
L1D PREFETCH  REQUESTED:  117099080  ISSUED:  115743330  USEFUL:    7671750  USELESS:     211357
L1D TOTAL MSHR MERGED:   30613264
L1D LOAD MSHR MERGED:    5948968
L1D RFO MSHR MERGED:   11229246
L1D PREFETCH MSHR MERGED:   13435050
L1D WRITEBACK MSHR MERGED:          0
L1D TOTAL ACCESSES:  220883568 HITS:  176776183 MISSES:   44107385
L1D LOAD ACCESSES:  117099113 HITS:  110564874 MISSES:    6534239
L1D RFO ACCESSES:   28252604 HITS:   14241668 MISSES:   14010936
L1D PREFETCH ACCESSES:   75531851 HITS:   51969641 MISSES:   23562210
L1D WRITEBACK ACCESSES:          0 HITS:          0 MISSES:          0
L1D RQ ACCESS:  156534563
L1D RQ TO_CACHE:  117099083
L1D RQ MERGED:   39435447
L1D RQ FORWARD:          0
L1D WQ ACCESS:   28256066
L1D WQ TO_CACHE:   28252604
L1D WQ MERGED:       3462
L1D WQ FORWARD:        375
L1I TOTAL     ACCESS:  115364840  HIT:  115363892  MISS:        948
L1I LOAD      ACCESS:  115364840  HIT:  115363892  MISS:        948
L1I RFO       ACCESS:          0  HIT:          0  MISS:          0
L1I PREFETCH  ACCESS:          0  HIT:          0  MISS:          0
L1I WRITEBACK ACCESS:          0  HIT:          0  MISS:          0
L1I PREFETCH  REQUESTED:          0  ISSUED:          0  USEFUL:          0  USELESS:          0
L1I TOTAL MSHR MERGED:       1565
L1I LOAD MSHR MERGED:       1565
L1I RFO MSHR MERGED:          0
L1I PREFETCH MSHR MERGED:          0
L1I WRITEBACK MSHR MERGED:          0
L1I TOTAL ACCESSES:  115366405 HITS:  115363892 MISSES:       2513
L1I LOAD ACCESSES:  115366405 HITS:  115363892 MISSES:       2513
L1I RFO ACCESSES:          0 HITS:          0 MISSES:          0
L1I PREFETCH ACCESSES:          0 HITS:          0 MISSES:          0
L1I WRITEBACK ACCESSES:          0 HITS:          0 MISSES:          0
L1I RQ ACCESS:  500000007
L1I RQ TO_CACHE:  115366405
L1I RQ MERGED:  384633602
L1I RQ FORWARD:          0
L1I WQ ACCESS:          0
L1I WQ TO_CACHE:          0
L1I WQ MERGED:          0
L1I WQ FORWARD:          0
L2C TOTAL     ACCESS:   16745881  HIT:    4900912  MISS:   11844969
L2C LOAD      ACCESS:     586195  HIT:     101472  MISS:     484723
L2C RFO       ACCESS:    2781690  HIT:     266797  MISS:    2514893
L2C PREFETCH  ACCESS:   10157339  HIT:    1314263  MISS:    8843076
L2C WRITEBACK ACCESS:    3220657  HIT:    3218380  MISS:       2277
L2C PREFETCH  REQUESTED:      32669  ISSUED:      32669  USEFUL:      96587  USELESS:    8744572
L2C TOTAL MSHR MERGED:        328
L2C LOAD MSHR MERGED:          9
L2C RFO MSHR MERGED:          0
L2C PREFETCH MSHR MERGED:        319
L2C WRITEBACK MSHR MERGED:          0
L2C TOTAL ACCESSES:   16746779 HITS:    4900963 MISSES:   11845816
L2C LOAD ACCESSES:     586219 HITS:     101496 MISSES:     484723
L2C RFO ACCESSES:    2781690 HITS:     266797 MISSES:    2514893
L2C PREFETCH ACCESSES:   10158213 HITS:    1314290 MISSES:    8843923
L2C WRITEBACK ACCESSES:    3220657 HITS:    3218380 MISSES:       2277
L2C RQ ACCESS:    3367909
L2C RQ TO_CACHE:    3367885
L2C RQ MERGED:          0
L2C RQ FORWARD:          0
L2C WQ ACCESS:    3220657
L2C WQ TO_CACHE:    3220657
L2C WQ MERGED:          0
L2C WQ FORWARD:         51
LLC TOTAL     ACCESS:   14743314  HIT:    8122710  MISS:    6620604
LLC LOAD      ACCESS:     484711  HIT:     217722  MISS:     266989
LLC RFO       ACCESS:    2514861  HIT:    1302293  MISS:    1212568
LLC PREFETCH  ACCESS:    8843484  HIT:    4418576  MISS:    4424908
LLC WRITEBACK ACCESS:    2900258  HIT:    2184119  MISS:     716139
LLC PREFETCH  REQUESTED:          0  ISSUED:          0  USEFUL:     221530  USELESS:    4212606
LLC TOTAL MSHR MERGED:          8
LLC LOAD MSHR MERGED:          1
LLC RFO MSHR MERGED:          0
LLC PREFETCH MSHR MERGED:          7
LLC WRITEBACK MSHR MERGED:          0
LLC TOTAL ACCESSES:   14743444 HITS:    8122831 MISSES:    6620613
LLC LOAD ACCESSES:     484714 HITS:     217725 MISSES:     266989
LLC RFO ACCESSES:    2514893 HITS:    1302325 MISSES:    1212568
LLC PREFETCH ACCESSES:    8843579 HITS:    4418662 MISSES:    4424917
LLC WRITEBACK ACCESSES:    2900258 HITS:    2184119 MISSES:     716139
LLC 0 RQ ACCESS:    2999607
LLC 0 RQ TO_CACHE:    2999572
LLC 0 RQ MERGED:          0
LLC 0 RQ FORWARD:          0
LLC WQ ACCESS:    2900258
LLC WQ TO_CACHE:    2900258
LLC WQ MERGED:          0
LLC WQ FORWARD:        121
Major fault: 0 Minor fault: 57518
CPU 0 L1D next line prefetcher final stats
CPU 0 L2C PC-based stride prefetcher final stats
All Misses: 7053963
All Hits: 9185540
SD Algo Stats - Switches: 0 SRR-Repls: 275377 BRR-Repls: 0

DRAM Statistics
 CHANNEL 0
 RQ ROW_BUFFER_HIT:    3105526  ROW_BUFFER_MISS:    2795006
 DBUS_CONGESTED:    3376069
 WQ ROW_BUFFER_HIT:     196386  ROW_BUFFER_MISS:    1582563  FULL:          0

 AVG_CONGESTED_CYCLE: 13
LOADS RETIRED: 157818985
INSTR RETIRED: 500000000
