
*** ChampSim Multicore Out-of-Order Simulator ***

Warmup Instructions: 100000000
Simulation Instructions: 500000000
Number of CPUs: 1
LLC sets: 2048
LLC ways: 16
Clean RRIP Policies: 2113130221131302 Dirty RRIP Policies: 2103130221031302 PSEL Width: 10 Track Set: 4294967295 PSEL Mask: 1 Demote Mask: 3040100030401000DS Algo: 0Window size: 0
Off-chip DRAM Size: 4096 MB Channels: 1 Width: 64-bit Data Rate: 1600 MT/s

CPU 0 runs /mnt/beegfs/iconst01/spec2017/cactuBSSN.trace.gz
NOT SORTED
TRACE STRING: /mnt/beegfs/iconst01/spec2017/cactuBSSN.trace.gz
SORTED
TRACE STRING: /mnt/beegfs/iconst01/spec2017/cactuBSSN.trace.gz
INITIAL
TRACE STRING: /mnt/beegfs/iconst01/spec2017/cactuBSSN.trace.gz

champsim_seed used: 838

CPU 0 L1D next line prefetcher
CPU 0 L2C IP-based stride prefetcher
Initialize DRRIP state
Assign rand_sets[0]: 454  LLC: 2048
rand_sets[0]: 454
Assign rand_sets[1]: 1662  LLC: 2048
rand_sets[1]: 1662
Assign rand_sets[2]: 1921  LLC: 2048
rand_sets[2]: 1921
Assign rand_sets[3]: 1131  LLC: 2048
rand_sets[3]: 1131
Assign rand_sets[4]: 331  LLC: 2048
rand_sets[4]: 331
Assign rand_sets[5]: 1531  LLC: 2048
rand_sets[5]: 1531
Assign rand_sets[6]: 482  LLC: 2048
rand_sets[6]: 482
Assign rand_sets[7]: 1275  LLC: 2048
rand_sets[7]: 1275
Assign rand_sets[8]: 1876  LLC: 2048
rand_sets[8]: 1876
Assign rand_sets[9]: 2038  LLC: 2048
rand_sets[9]: 2038
Assign rand_sets[10]: 701  LLC: 2048
rand_sets[10]: 701
Assign rand_sets[11]: 479  LLC: 2048
rand_sets[11]: 479
Assign rand_sets[12]: 892  LLC: 2048
rand_sets[12]: 892
Assign rand_sets[13]: 1820  LLC: 2048
rand_sets[13]: 1820
Assign rand_sets[14]: 1505  LLC: 2048
rand_sets[14]: 1505
Assign rand_sets[15]: 1159  LLC: 2048
rand_sets[15]: 1159
Assign rand_sets[16]: 513  LLC: 2048
rand_sets[16]: 513
Assign rand_sets[17]: 703  LLC: 2048
rand_sets[17]: 703
Assign rand_sets[18]: 561  LLC: 2048
rand_sets[18]: 561
Assign rand_sets[19]: 990  LLC: 2048
rand_sets[19]: 990
Assign rand_sets[20]: 342  LLC: 2048
rand_sets[20]: 342
Assign rand_sets[21]: 882  LLC: 2048
rand_sets[21]: 882
Assign rand_sets[22]: 15  LLC: 2048
rand_sets[22]: 15
Assign rand_sets[23]: 71  LLC: 2048
rand_sets[23]: 71
Assign rand_sets[24]: 1127  LLC: 2048
rand_sets[24]: 1127
Assign rand_sets[25]: 1382  LLC: 2048
rand_sets[25]: 1382
Assign rand_sets[26]: 647  LLC: 2048
rand_sets[26]: 647
Assign rand_sets[27]: 857  LLC: 2048
rand_sets[27]: 857
Assign rand_sets[28]: 1450  LLC: 2048
rand_sets[28]: 1450
Assign rand_sets[29]: 1160  LLC: 2048
rand_sets[29]: 1160
Assign rand_sets[30]: 1852  LLC: 2048
rand_sets[30]: 1852
Assign rand_sets[31]: 1881  LLC: 2048
rand_sets[31]: 1881
Assign rand_sets[32]: 1770  LLC: 2048
rand_sets[32]: 1770
Assign rand_sets[33]: 1622  LLC: 2048
rand_sets[33]: 1622
Assign rand_sets[34]: 275  LLC: 2048
rand_sets[34]: 275
Assign rand_sets[35]: 635  LLC: 2048
rand_sets[35]: 635
Assign rand_sets[36]: 466  LLC: 2048
rand_sets[36]: 466
Assign rand_sets[37]: 1413  LLC: 2048
rand_sets[37]: 1413
Assign rand_sets[38]: 417  LLC: 2048
rand_sets[38]: 417
Assign rand_sets[39]: 472  LLC: 2048
rand_sets[39]: 472
Assign rand_sets[40]: 1340  LLC: 2048
rand_sets[40]: 1340
Assign rand_sets[41]: 852  LLC: 2048
rand_sets[41]: 852
Assign rand_sets[42]: 1365  LLC: 2048
rand_sets[42]: 1365
Assign rand_sets[43]: 47  LLC: 2048
rand_sets[43]: 47
Assign rand_sets[44]: 823  LLC: 2048
rand_sets[44]: 823
Assign rand_sets[45]: 686  LLC: 2048
rand_sets[45]: 686
Assign rand_sets[46]: 1637  LLC: 2048
rand_sets[46]: 1637
Assign rand_sets[47]: 1115  LLC: 2048
rand_sets[47]: 1115
Assign rand_sets[48]: 986  LLC: 2048
rand_sets[48]: 986
Assign rand_sets[49]: 258  LLC: 2048
rand_sets[49]: 258
Assign rand_sets[50]: 633  LLC: 2048
rand_sets[50]: 633
Assign rand_sets[51]: 920  LLC: 2048
rand_sets[51]: 920
Assign rand_sets[52]: 204  LLC: 2048
rand_sets[52]: 204
Assign rand_sets[53]: 227  LLC: 2048
rand_sets[53]: 227
Assign rand_sets[54]: 1818  LLC: 2048
rand_sets[54]: 1818
Assign rand_sets[55]: 886  LLC: 2048
rand_sets[55]: 886
Assign rand_sets[56]: 1422  LLC: 2048
rand_sets[56]: 1422
Assign rand_sets[57]: 607  LLC: 2048
rand_sets[57]: 607
Assign rand_sets[58]: 217  LLC: 2048
rand_sets[58]: 217
Assign rand_sets[59]: 1945  LLC: 2048
rand_sets[59]: 1945
Assign rand_sets[60]: 143  LLC: 2048
rand_sets[60]: 143
Assign rand_sets[61]: 1311  LLC: 2048
rand_sets[61]: 1311
Assign rand_sets[62]: 319  LLC: 2048
rand_sets[62]: 319
Assign rand_sets[63]: 1846  LLC: 2048
rand_sets[63]: 1846
 CLEAN-RRIP-POLICY-1: 2-1-1-3-1-3-0-2- CLEAN-RRIP-POLICY-2: 2-1-1-3-1-3-0-2-
 DIRTY-RRIP-POLICY-1: 2-1-0-3-1-3-0-2- DIRTY-RRIP-POLICY-2: 2-1-0-3-1-3-0-2-
 PSEL width: 10
Heartbeat CPU 0 instructions: 10000000 cycles: 6588002 heartbeat IPC: 1.51791 cumulative IPC: 1.51791 (Simulation time: 0 hr 0 min 23 sec) 
Heartbeat CPU 0 instructions: 20000000 cycles: 13179595 heartbeat IPC: 1.51708 cumulative IPC: 1.5175 (Simulation time: 0 hr 0 min 47 sec) 
Heartbeat CPU 0 instructions: 30000003 cycles: 19772915 heartbeat IPC: 1.51669 cumulative IPC: 1.51723 (Simulation time: 0 hr 1 min 10 sec) 
Heartbeat CPU 0 instructions: 40000000 cycles: 26364661 heartbeat IPC: 1.51705 cumulative IPC: 1.51718 (Simulation time: 0 hr 1 min 34 sec) 
Heartbeat CPU 0 instructions: 50000001 cycles: 32957338 heartbeat IPC: 1.51683 cumulative IPC: 1.51711 (Simulation time: 0 hr 1 min 58 sec) 
Heartbeat CPU 0 instructions: 60000000 cycles: 39556147 heartbeat IPC: 1.51542 cumulative IPC: 1.51683 (Simulation time: 0 hr 2 min 21 sec) 
Heartbeat CPU 0 instructions: 70000003 cycles: 46154513 heartbeat IPC: 1.51553 cumulative IPC: 1.51664 (Simulation time: 0 hr 2 min 45 sec) 
Heartbeat CPU 0 instructions: 80000000 cycles: 52752556 heartbeat IPC: 1.5156 cumulative IPC: 1.51651 (Simulation time: 0 hr 3 min 9 sec) 
Heartbeat CPU 0 instructions: 90000002 cycles: 59348219 heartbeat IPC: 1.51615 cumulative IPC: 1.51647 (Simulation time: 0 hr 3 min 32 sec) 
Heartbeat CPU 0 instructions: 100000000 cycles: 65943278 heartbeat IPC: 1.51629 cumulative IPC: 1.51645 (Simulation time: 0 hr 3 min 56 sec) 

Warmup complete CPU 0 instructions: 100000002 cycles: 65943279 (Simulation time: 0 hr 3 min 56 sec) 

Heartbeat CPU 0 instructions: 110000000 cycles: 79183678 heartbeat IPC: 0.755264 cumulative IPC: 0.755264 (Simulation time: 0 hr 4 min 25 sec) 
Heartbeat CPU 0 instructions: 120000000 cycles: 92377350 heartbeat IPC: 0.757939 cumulative IPC: 0.756599 (Simulation time: 0 hr 4 min 54 sec) 
Heartbeat CPU 0 instructions: 130000001 cycles: 105643960 heartbeat IPC: 0.753772 cumulative IPC: 0.755655 (Simulation time: 0 hr 5 min 22 sec) 
Heartbeat CPU 0 instructions: 140000000 cycles: 118816443 heartbeat IPC: 0.759158 cumulative IPC: 0.756527 (Simulation time: 0 hr 5 min 51 sec) 
Heartbeat CPU 0 instructions: 150000001 cycles: 131998443 heartbeat IPC: 0.75861 cumulative IPC: 0.756943 (Simulation time: 0 hr 6 min 20 sec) 
Heartbeat CPU 0 instructions: 160000000 cycles: 145230865 heartbeat IPC: 0.755719 cumulative IPC: 0.756739 (Simulation time: 0 hr 6 min 49 sec) 
Heartbeat CPU 0 instructions: 170000000 cycles: 158436043 heartbeat IPC: 0.757279 cumulative IPC: 0.756816 (Simulation time: 0 hr 7 min 18 sec) 
Heartbeat CPU 0 instructions: 180000000 cycles: 171634817 heartbeat IPC: 0.757646 cumulative IPC: 0.75692 (Simulation time: 0 hr 7 min 46 sec) 
Heartbeat CPU 0 instructions: 190000000 cycles: 184795897 heartbeat IPC: 0.759816 cumulative IPC: 0.75724 (Simulation time: 0 hr 8 min 15 sec) 
Heartbeat CPU 0 instructions: 200000000 cycles: 198050675 heartbeat IPC: 0.754445 cumulative IPC: 0.75696 (Simulation time: 0 hr 8 min 44 sec) 
Heartbeat CPU 0 instructions: 210000002 cycles: 211254838 heartbeat IPC: 0.757337 cumulative IPC: 0.756994 (Simulation time: 0 hr 9 min 13 sec) 
Heartbeat CPU 0 instructions: 220000000 cycles: 224430306 heartbeat IPC: 0.758986 cumulative IPC: 0.75716 (Simulation time: 0 hr 9 min 41 sec) 
Heartbeat CPU 0 instructions: 230000003 cycles: 237675473 heartbeat IPC: 0.754993 cumulative IPC: 0.756993 (Simulation time: 0 hr 10 min 10 sec) 
Heartbeat CPU 0 instructions: 240000000 cycles: 250858333 heartbeat IPC: 0.758561 cumulative IPC: 0.757104 (Simulation time: 0 hr 10 min 39 sec) 
Heartbeat CPU 0 instructions: 250000001 cycles: 264075451 heartbeat IPC: 0.756595 cumulative IPC: 0.75707 (Simulation time: 0 hr 11 min 8 sec) 
Heartbeat CPU 0 instructions: 260000000 cycles: 277294373 heartbeat IPC: 0.756491 cumulative IPC: 0.757034 (Simulation time: 0 hr 11 min 37 sec) 
Heartbeat CPU 0 instructions: 270000003 cycles: 290534288 heartbeat IPC: 0.755292 cumulative IPC: 0.756931 (Simulation time: 0 hr 12 min 5 sec) 
Heartbeat CPU 0 instructions: 280000000 cycles: 303735860 heartbeat IPC: 0.757485 cumulative IPC: 0.756962 (Simulation time: 0 hr 12 min 34 sec) 
Heartbeat CPU 0 instructions: 290000000 cycles: 316908799 heartbeat IPC: 0.759132 cumulative IPC: 0.757076 (Simulation time: 0 hr 13 min 3 sec) 
Heartbeat CPU 0 instructions: 300000000 cycles: 330168084 heartbeat IPC: 0.754188 cumulative IPC: 0.756931 (Simulation time: 0 hr 13 min 31 sec) 
Heartbeat CPU 0 instructions: 310000001 cycles: 343339934 heartbeat IPC: 0.759195 cumulative IPC: 0.757039 (Simulation time: 0 hr 14 min 0 sec) 
Heartbeat CPU 0 instructions: 320000000 cycles: 356529517 heartbeat IPC: 0.758174 cumulative IPC: 0.75709 (Simulation time: 0 hr 14 min 29 sec) 
Heartbeat CPU 0 instructions: 330000002 cycles: 369726131 heartbeat IPC: 0.75777 cumulative IPC: 0.75712 (Simulation time: 0 hr 14 min 57 sec) 
Heartbeat CPU 0 instructions: 340000000 cycles: 382970466 heartbeat IPC: 0.75504 cumulative IPC: 0.757033 (Simulation time: 0 hr 15 min 26 sec) 
Heartbeat CPU 0 instructions: 350000000 cycles: 396223139 heartbeat IPC: 0.754565 cumulative IPC: 0.756934 (Simulation time: 0 hr 15 min 55 sec) 
Heartbeat CPU 0 instructions: 360000000 cycles: 409436859 heartbeat IPC: 0.756789 cumulative IPC: 0.756928 (Simulation time: 0 hr 16 min 24 sec) 
Heartbeat CPU 0 instructions: 370000002 cycles: 422710547 heartbeat IPC: 0.75337 cumulative IPC: 0.756796 (Simulation time: 0 hr 16 min 52 sec) 
Heartbeat CPU 0 instructions: 380000000 cycles: 435916141 heartbeat IPC: 0.757255 cumulative IPC: 0.756812 (Simulation time: 0 hr 17 min 21 sec) 
Heartbeat CPU 0 instructions: 390000000 cycles: 449096977 heartbeat IPC: 0.758677 cumulative IPC: 0.756876 (Simulation time: 0 hr 17 min 50 sec) 
Heartbeat CPU 0 instructions: 400000000 cycles: 462290834 heartbeat IPC: 0.757928 cumulative IPC: 0.756911 (Simulation time: 0 hr 18 min 18 sec) 
Heartbeat CPU 0 instructions: 410000001 cycles: 475548219 heartbeat IPC: 0.754297 cumulative IPC: 0.756827 (Simulation time: 0 hr 18 min 47 sec) 
Heartbeat CPU 0 instructions: 420000000 cycles: 488733965 heartbeat IPC: 0.758395 cumulative IPC: 0.756876 (Simulation time: 0 hr 19 min 16 sec) 
Heartbeat CPU 0 instructions: 430000001 cycles: 501918854 heartbeat IPC: 0.758444 cumulative IPC: 0.756923 (Simulation time: 0 hr 19 min 44 sec) 
Heartbeat CPU 0 instructions: 440000000 cycles: 515084079 heartbeat IPC: 0.759577 cumulative IPC: 0.757001 (Simulation time: 0 hr 20 min 13 sec) 
Heartbeat CPU 0 instructions: 450000002 cycles: 528397269 heartbeat IPC: 0.751135 cumulative IPC: 0.756832 (Simulation time: 0 hr 20 min 42 sec) 
Heartbeat CPU 0 instructions: 460000000 cycles: 541617288 heartbeat IPC: 0.756428 cumulative IPC: 0.756821 (Simulation time: 0 hr 21 min 10 sec) 
Heartbeat CPU 0 instructions: 470000003 cycles: 554809058 heartbeat IPC: 0.758049 cumulative IPC: 0.756854 (Simulation time: 0 hr 21 min 39 sec) 
Heartbeat CPU 0 instructions: 480000000 cycles: 568051549 heartbeat IPC: 0.755145 cumulative IPC: 0.756809 (Simulation time: 0 hr 22 min 8 sec) 
Heartbeat CPU 0 instructions: 490000000 cycles: 581258462 heartbeat IPC: 0.757179 cumulative IPC: 0.756818 (Simulation time: 0 hr 22 min 36 sec) 
Heartbeat CPU 0 instructions: 500000000 cycles: 594446886 heartbeat IPC: 0.758241 cumulative IPC: 0.756854 (Simulation time: 0 hr 23 min 5 sec) 
Heartbeat CPU 0 instructions: 510000001 cycles: 607619691 heartbeat IPC: 0.75914 cumulative IPC: 0.756909 (Simulation time: 0 hr 23 min 34 sec) 
Heartbeat CPU 0 instructions: 520000000 cycles: 620901605 heartbeat IPC: 0.752903 cumulative IPC: 0.756814 (Simulation time: 0 hr 24 min 2 sec) 
Heartbeat CPU 0 instructions: 530000000 cycles: 634146186 heartbeat IPC: 0.755026 cumulative IPC: 0.756772 (Simulation time: 0 hr 24 min 31 sec) 
Heartbeat CPU 0 instructions: 540000000 cycles: 647378581 heartbeat IPC: 0.755721 cumulative IPC: 0.756748 (Simulation time: 0 hr 25 min 0 sec) 
Heartbeat CPU 0 instructions: 550000002 cycles: 660639171 heartbeat IPC: 0.754114 cumulative IPC: 0.756689 (Simulation time: 0 hr 25 min 28 sec) 
Heartbeat CPU 0 instructions: 560000000 cycles: 673824474 heartbeat IPC: 0.75842 cumulative IPC: 0.756727 (Simulation time: 0 hr 25 min 57 sec) 
Heartbeat CPU 0 instructions: 570000001 cycles: 687033044 heartbeat IPC: 0.757084 cumulative IPC: 0.756734 (Simulation time: 0 hr 26 min 26 sec) 
Heartbeat CPU 0 instructions: 580000000 cycles: 700238423 heartbeat IPC: 0.757267 cumulative IPC: 0.756746 (Simulation time: 0 hr 26 min 54 sec) 
Heartbeat CPU 0 instructions: 590000003 cycles: 713476764 heartbeat IPC: 0.755382 cumulative IPC: 0.756718 (Simulation time: 0 hr 27 min 23 sec) 
Heartbeat CPU 0 instructions: 600000000 cycles: 726725965 heartbeat IPC: 0.754762 cumulative IPC: 0.756678 (Simulation time: 0 hr 27 min 51 sec) 
Finished CPU 0 instructions: 500000000 cycles: 660782696 cumulative IPC: 0.756678 (Simulation time: 0 hr 27 min 51 sec) 

CPU 0 Branch Prediction Accuracy: 99.968% MPKI: 0.002246
Number of Branches: 3513331 Number of Mispredictions: 1123
Number of LOAD Instructions: 287251172
Number of LOAD Instructions (ROI): 287251172
Number of STORE Instructions: 51060820
Number of STORE Instructions (ROI): 51060820
Total Destination Memory Operands: 51166221
Total Destination Memory Operands (ROI): 51166221
Total Source Memory Operands: 287251172
Total Source Memory Operands (ROI): 287251172
Number of DEPENDED LOADS: 9555447
Number of DEPENDED LOADS (ROI): 9555447
Number of SQ_ADDED: 51166208
Number of SQ_ADDED (ROI): 51166208
Number of LQ_ADDED: 290419988
Number of LQ_ADDED (ROI): 290419988
Number of Instructions read from trace: 600000257

ChampSim completed all CPUs

Region of Interest Statistics

CPU 0 cumulative IPC: 0.756678 instructions: 500000000 cycles: 660782696
ITLB TOTAL     ACCESS:  108949703  HIT:  108949703  MISS:          0
ITLB LOAD      ACCESS:  108949703  HIT:  108949703  MISS:          0
ITLB RFO       ACCESS:          0  HIT:          0  MISS:          0
ITLB PREFETCH  ACCESS:          0  HIT:          0  MISS:          0
ITLB WRITEBACK ACCESS:          0  HIT:          0  MISS:          0
ITLB PREFETCH  REQUESTED:          0  ISSUED:          0  USEFUL:          0  USELESS:          0
ITLB TOTAL MSHR MERGED:          0
ITLB LOAD MSHR MERGED:          0
ITLB RFO MSHR MERGED:          0
ITLB PREFETCH MSHR MERGED:          0
ITLB WRITEBACK MSHR MERGED:          0
ITLB TOTAL ACCESSES:  108949703 HITS:  108949703 MISSES:          0
ITLB LOAD ACCESSES:  108949703 HITS:  108949703 MISSES:          0
ITLB RFO ACCESSES:          0 HITS:          0 MISSES:          0
ITLB PREFETCH ACCESSES:          0 HITS:          0 MISSES:          0
ITLB WRITEBACK ACCESSES:          0 HITS:          0 MISSES:          0
ITLB RQ ACCESS:  500000001
ITLB RQ TO_CACHE:  108949703
ITLB RQ MERGED:  391050298
ITLB RQ FORWARD:          0
ITLB WQ ACCESS:          0
ITLB WQ TO_CACHE:          0
ITLB WQ MERGED:          0
ITLB WQ FORWARD:          0
DTLB TOTAL     ACCESS:  171131033  HIT:  161114709  MISS:   10016324
DTLB LOAD      ACCESS:  143471936  HIT:  135595862  MISS:    7876074
DTLB RFO       ACCESS:   27659097  HIT:   25518847  MISS:    2140250
DTLB PREFETCH  ACCESS:          0  HIT:          0  MISS:          0
DTLB WRITEBACK ACCESS:          0  HIT:          0  MISS:          0
DTLB PREFETCH  REQUESTED:          0  ISSUED:          0  USEFUL:          0  USELESS:          0
DTLB TOTAL MSHR MERGED:     360443
DTLB LOAD MSHR MERGED:     360443
DTLB RFO MSHR MERGED:          0
DTLB PREFETCH MSHR MERGED:          0
DTLB WRITEBACK MSHR MERGED:          0
DTLB TOTAL ACCESSES:  171491476 HITS:  161114709 MISSES:   10376767
DTLB LOAD ACCESSES:  143832379 HITS:  135595862 MISSES:    8236517
DTLB RFO ACCESSES:   27659097 HITS:   25518847 MISSES:    2140250
DTLB PREFETCH ACCESSES:          0 HITS:          0 MISSES:          0
DTLB WRITEBACK ACCESSES:          0 HITS:          0 MISSES:          0
DTLB RQ ACCESS:  274072370
DTLB RQ TO_CACHE:  171491476
DTLB RQ MERGED:  102580894
DTLB RQ FORWARD:          0
DTLB WQ ACCESS:          0
DTLB WQ TO_CACHE:          0
DTLB WQ MERGED:          0
DTLB WQ FORWARD:          0
L1D TOTAL     ACCESS:  350942465  HIT:  283743313  MISS:   67199152
L1D LOAD      ACCESS:  175626682  HIT:  142587488  MISS:   33039194
L1D RFO       ACCESS:   42019752  HIT:   39214157  MISS:    2805595
L1D PREFETCH  ACCESS:  133296031  HIT:  101941668  MISS:   31354363
L1D WRITEBACK ACCESS:          0  HIT:          0  MISS:          0
L1D PREFETCH  REQUESTED:  176230617  ISSUED:  175292041  USEFUL:    2180511  USELESS:   29173854
L1D TOTAL MSHR MERGED:    1482941
L1D LOAD MSHR MERGED:     703879
L1D RFO MSHR MERGED:     349347
L1D PREFETCH MSHR MERGED:     429715
L1D WRITEBACK MSHR MERGED:          0
L1D TOTAL ACCESSES:  352538441 HITS:  283856348 MISSES:   68682093
L1D LOAD ACCESSES:  176237618 HITS:  142594489 MISSES:   33643129
L1D RFO ACCESSES:   42368418 HITS:   39214157 MISSES:    3154261
L1D PREFETCH ACCESSES:  133932405 HITS:  102047702 MISSES:   31884703
L1D WRITEBACK ACCESSES:          0 HITS:          0 MISSES:          0
L1D RQ ACCESS:  231433897
L1D RQ TO_CACHE:  176230617
L1D RQ MERGED:   55196279
L1D RQ FORWARD:          0
L1D WQ ACCESS:   42638475
L1D WQ TO_CACHE:   42368418
L1D WQ MERGED:     270057
L1D WQ FORWARD:     113035
L1I TOTAL     ACCESS:  109343331  HIT:   77827627  MISS:   31515704
L1I LOAD      ACCESS:  109343331  HIT:   77827627  MISS:   31515704
L1I RFO       ACCESS:          0  HIT:          0  MISS:          0
L1I PREFETCH  ACCESS:          0  HIT:          0  MISS:          0
L1I WRITEBACK ACCESS:          0  HIT:          0  MISS:          0
L1I PREFETCH  REQUESTED:          0  ISSUED:          0  USEFUL:          0  USELESS:          0
L1I TOTAL MSHR MERGED:   30750471
L1I LOAD MSHR MERGED:   30750471
L1I RFO MSHR MERGED:          0
L1I PREFETCH MSHR MERGED:          0
L1I WRITEBACK MSHR MERGED:          0
L1I TOTAL ACCESSES:  140093804 HITS:   77827627 MISSES:   62266177
L1I LOAD ACCESSES:  140093804 HITS:   77827627 MISSES:   62266177
L1I RFO ACCESSES:          0 HITS:          0 MISSES:          0
L1I PREFETCH ACCESSES:          0 HITS:          0 MISSES:          0
L1I WRITEBACK ACCESSES:          0 HITS:          0 MISSES:          0
L1I RQ ACCESS:  500000003
L1I RQ TO_CACHE:  140093804
L1I RQ MERGED:  359906199
L1I RQ FORWARD:          0
L1I WQ ACCESS:          0
L1I WQ TO_CACHE:          0
L1I WQ MERGED:          0
L1I WQ FORWARD:          0
L2C TOTAL     ACCESS:  113696519  HIT:  110694437  MISS:    3002082
L2C LOAD      ACCESS:   64453086  HIT:   63892531  MISS:     560555
L2C RFO       ACCESS:    2803015  HIT:    2193495  MISS:     609520
L2C PREFETCH  ACCESS:   43279444  HIT:   41453717  MISS:    1825727
L2C WRITEBACK ACCESS:    3160974  HIT:    3154694  MISS:       6280
L2C PREFETCH  REQUESTED:   15134570  ISSUED:   14620338  USEFUL:    1700793  USELESS:     124944
L2C TOTAL MSHR MERGED:      12868
L2C LOAD MSHR MERGED:          0
L2C RFO MSHR MERGED:          0
L2C PREFETCH MSHR MERGED:      12868
L2C WRITEBACK MSHR MERGED:          0
L2C TOTAL ACCESSES:  113904850 HITS:  110700312 MISSES:    3204538
L2C LOAD ACCESSES:   64454955 HITS:   63894399 MISSES:     560556
L2C RFO ACCESSES:    2804914 HITS:    2195394 MISSES:     609520
L2C PREFETCH ACCESSES:   43484007 HITS:   41455825 MISSES:    2028182
L2C WRITEBACK ACCESSES:    3160974 HITS:    3154694 MISSES:       6280
L2C RQ ACCESS:   67259870
L2C RQ TO_CACHE:   67256103
L2C RQ MERGED:          0
L2C RQ FORWARD:          0
L2C WQ ACCESS:    3160974
L2C WQ TO_CACHE:    3160974
L2C WQ MERGED:          0
L2C WQ FORWARD:       5875
LLC TOTAL     ACCESS:    3716587  HIT:    1831008  MISS:    1885579
LLC LOAD      ACCESS:     560524  HIT:     496630  MISS:      63894
LLC RFO       ACCESS:     527426  HIT:     239306  MISS:     288120
LLC PREFETCH  ACCESS:    2010089  HIT:     627503  MISS:    1382586
LLC WRITEBACK ACCESS:     618548  HIT:     467569  MISS:     150979
LLC PREFETCH  REQUESTED:          0  ISSUED:          0  USEFUL:      43957  USELESS:    1333067
LLC TOTAL MSHR MERGED:       4580
LLC LOAD MSHR MERGED:          0
LLC RFO MSHR MERGED:          0
LLC PREFETCH MSHR MERGED:       4580
LLC WRITEBACK MSHR MERGED:          0
LLC TOTAL ACCESSES:    3803377 HITS:    1913218 MISSES:    1890159
LLC LOAD ACCESSES:     560555 HITS:     496661 MISSES:      63894
LLC RFO ACCESSES:     609520 HITS:     321400 MISSES:     288120
LLC PREFETCH ACCESSES:    2014754 HITS:     627588 MISSES:    1387166
LLC WRITEBACK ACCESSES:     618548 HITS:     467569 MISSES:     150979
LLC 0 RQ ACCESS:    1170076
LLC 0 RQ TO_CACHE:    1087951
LLC 0 RQ MERGED:          0
LLC 0 RQ FORWARD:          0
LLC WQ ACCESS:     618548
LLC WQ TO_CACHE:     618548
LLC WQ MERGED:          0
LLC WQ FORWARD:      82210
Major fault: 0 Minor fault: 12800
CPU 0 L1D next line prefetcher final stats
CPU 0 L2C PC-based stride prefetcher final stats
All Misses: 2283927
All Hits: 2283602
SD Algo Stats - Switches: 0 SRR-Repls: 81293 BRR-Repls: 0

DRAM Statistics
 CHANNEL 0
 RQ ROW_BUFFER_HIT:     857673  ROW_BUFFER_MISS:     876907
 DBUS_CONGESTED:     923577
 WQ ROW_BUFFER_HIT:      29272  ROW_BUFFER_MISS:     261567  FULL:          0

 AVG_CONGESTED_CYCLE: 13
LOADS RETIRED: 239375970
INSTR RETIRED: 500000000
