
*** ChampSim Multicore Out-of-Order Simulator ***

Warmup Instructions: 100000000
Simulation Instructions: 500000000
Number of CPUs: 1
LLC sets: 2048
LLC ways: 16
Clean RRIP Policies: 2113130221131302 Dirty RRIP Policies: 2103130221031302 PSEL Width: 10 Track Set: 4294967295 PSEL Mask: 1 Demote Mask: 3040100030401000DS Algo: 0Window size: 0
Off-chip DRAM Size: 4096 MB Channels: 1 Width: 64-bit Data Rate: 1600 MT/s

CPU 0 runs /mnt/beegfs/iconst01/spec2017/Parest.trace.gz
NOT SORTED
TRACE STRING: /mnt/beegfs/iconst01/spec2017/Parest.trace.gz
SORTED
TRACE STRING: /mnt/beegfs/iconst01/spec2017/Parest.trace.gz
INITIAL
TRACE STRING: /mnt/beegfs/iconst01/spec2017/Parest.trace.gz

champsim_seed used: 623

CPU 0 L1D next line prefetcher
CPU 0 L2C IP-based stride prefetcher
Initialize DRRIP state
Assign rand_sets[0]: 454  LLC: 2048
rand_sets[0]: 454
Assign rand_sets[1]: 1662  LLC: 2048
rand_sets[1]: 1662
Assign rand_sets[2]: 1921  LLC: 2048
rand_sets[2]: 1921
Assign rand_sets[3]: 1131  LLC: 2048
rand_sets[3]: 1131
Assign rand_sets[4]: 331  LLC: 2048
rand_sets[4]: 331
Assign rand_sets[5]: 1531  LLC: 2048
rand_sets[5]: 1531
Assign rand_sets[6]: 482  LLC: 2048
rand_sets[6]: 482
Assign rand_sets[7]: 1275  LLC: 2048
rand_sets[7]: 1275
Assign rand_sets[8]: 1876  LLC: 2048
rand_sets[8]: 1876
Assign rand_sets[9]: 2038  LLC: 2048
rand_sets[9]: 2038
Assign rand_sets[10]: 701  LLC: 2048
rand_sets[10]: 701
Assign rand_sets[11]: 479  LLC: 2048
rand_sets[11]: 479
Assign rand_sets[12]: 892  LLC: 2048
rand_sets[12]: 892
Assign rand_sets[13]: 1820  LLC: 2048
rand_sets[13]: 1820
Assign rand_sets[14]: 1505  LLC: 2048
rand_sets[14]: 1505
Assign rand_sets[15]: 1159  LLC: 2048
rand_sets[15]: 1159
Assign rand_sets[16]: 513  LLC: 2048
rand_sets[16]: 513
Assign rand_sets[17]: 703  LLC: 2048
rand_sets[17]: 703
Assign rand_sets[18]: 561  LLC: 2048
rand_sets[18]: 561
Assign rand_sets[19]: 990  LLC: 2048
rand_sets[19]: 990
Assign rand_sets[20]: 342  LLC: 2048
rand_sets[20]: 342
Assign rand_sets[21]: 882  LLC: 2048
rand_sets[21]: 882
Assign rand_sets[22]: 15  LLC: 2048
rand_sets[22]: 15
Assign rand_sets[23]: 71  LLC: 2048
rand_sets[23]: 71
Assign rand_sets[24]: 1127  LLC: 2048
rand_sets[24]: 1127
Assign rand_sets[25]: 1382  LLC: 2048
rand_sets[25]: 1382
Assign rand_sets[26]: 647  LLC: 2048
rand_sets[26]: 647
Assign rand_sets[27]: 857  LLC: 2048
rand_sets[27]: 857
Assign rand_sets[28]: 1450  LLC: 2048
rand_sets[28]: 1450
Assign rand_sets[29]: 1160  LLC: 2048
rand_sets[29]: 1160
Assign rand_sets[30]: 1852  LLC: 2048
rand_sets[30]: 1852
Assign rand_sets[31]: 1881  LLC: 2048
rand_sets[31]: 1881
Assign rand_sets[32]: 1770  LLC: 2048
rand_sets[32]: 1770
Assign rand_sets[33]: 1622  LLC: 2048
rand_sets[33]: 1622
Assign rand_sets[34]: 275  LLC: 2048
rand_sets[34]: 275
Assign rand_sets[35]: 635  LLC: 2048
rand_sets[35]: 635
Assign rand_sets[36]: 466  LLC: 2048
rand_sets[36]: 466
Assign rand_sets[37]: 1413  LLC: 2048
rand_sets[37]: 1413
Assign rand_sets[38]: 417  LLC: 2048
rand_sets[38]: 417
Assign rand_sets[39]: 472  LLC: 2048
rand_sets[39]: 472
Assign rand_sets[40]: 1340  LLC: 2048
rand_sets[40]: 1340
Assign rand_sets[41]: 852  LLC: 2048
rand_sets[41]: 852
Assign rand_sets[42]: 1365  LLC: 2048
rand_sets[42]: 1365
Assign rand_sets[43]: 47  LLC: 2048
rand_sets[43]: 47
Assign rand_sets[44]: 823  LLC: 2048
rand_sets[44]: 823
Assign rand_sets[45]: 686  LLC: 2048
rand_sets[45]: 686
Assign rand_sets[46]: 1637  LLC: 2048
rand_sets[46]: 1637
Assign rand_sets[47]: 1115  LLC: 2048
rand_sets[47]: 1115
Assign rand_sets[48]: 986  LLC: 2048
rand_sets[48]: 986
Assign rand_sets[49]: 258  LLC: 2048
rand_sets[49]: 258
Assign rand_sets[50]: 633  LLC: 2048
rand_sets[50]: 633
Assign rand_sets[51]: 920  LLC: 2048
rand_sets[51]: 920
Assign rand_sets[52]: 204  LLC: 2048
rand_sets[52]: 204
Assign rand_sets[53]: 227  LLC: 2048
rand_sets[53]: 227
Assign rand_sets[54]: 1818  LLC: 2048
rand_sets[54]: 1818
Assign rand_sets[55]: 886  LLC: 2048
rand_sets[55]: 886
Assign rand_sets[56]: 1422  LLC: 2048
rand_sets[56]: 1422
Assign rand_sets[57]: 607  LLC: 2048
rand_sets[57]: 607
Assign rand_sets[58]: 217  LLC: 2048
rand_sets[58]: 217
Assign rand_sets[59]: 1945  LLC: 2048
rand_sets[59]: 1945
Assign rand_sets[60]: 143  LLC: 2048
rand_sets[60]: 143
Assign rand_sets[61]: 1311  LLC: 2048
rand_sets[61]: 1311
Assign rand_sets[62]: 319  LLC: 2048
rand_sets[62]: 319
Assign rand_sets[63]: 1846  LLC: 2048
rand_sets[63]: 1846
 CLEAN-RRIP-POLICY-1: 2-1-1-3-1-3-0-2- CLEAN-RRIP-POLICY-2: 2-1-1-3-1-3-0-2-
 DIRTY-RRIP-POLICY-1: 2-1-0-3-1-3-0-2- DIRTY-RRIP-POLICY-2: 2-1-0-3-1-3-0-2-
 PSEL width: 10
Heartbeat CPU 0 instructions: 10000001 cycles: 4387143 heartbeat IPC: 2.27939 cumulative IPC: 2.27939 (Simulation time: 0 hr 0 min 14 sec) 
Heartbeat CPU 0 instructions: 20000000 cycles: 8781333 heartbeat IPC: 2.27573 cumulative IPC: 2.27756 (Simulation time: 0 hr 0 min 29 sec) 
Heartbeat CPU 0 instructions: 30000003 cycles: 13213269 heartbeat IPC: 2.25635 cumulative IPC: 2.27045 (Simulation time: 0 hr 0 min 44 sec) 
Heartbeat CPU 0 instructions: 40000000 cycles: 17643877 heartbeat IPC: 2.25703 cumulative IPC: 2.26708 (Simulation time: 0 hr 0 min 59 sec) 
Heartbeat CPU 0 instructions: 50000000 cycles: 22052151 heartbeat IPC: 2.26846 cumulative IPC: 2.26735 (Simulation time: 0 hr 1 min 13 sec) 
Heartbeat CPU 0 instructions: 60000000 cycles: 26457919 heartbeat IPC: 2.26975 cumulative IPC: 2.26775 (Simulation time: 0 hr 1 min 27 sec) 
Heartbeat CPU 0 instructions: 70000000 cycles: 30858836 heartbeat IPC: 2.27225 cumulative IPC: 2.26839 (Simulation time: 0 hr 1 min 42 sec) 
Heartbeat CPU 0 instructions: 80000000 cycles: 35254442 heartbeat IPC: 2.275 cumulative IPC: 2.26922 (Simulation time: 0 hr 1 min 56 sec) 
Heartbeat CPU 0 instructions: 90000000 cycles: 39648737 heartbeat IPC: 2.27568 cumulative IPC: 2.26993 (Simulation time: 0 hr 2 min 11 sec) 
Heartbeat CPU 0 instructions: 100000000 cycles: 44046072 heartbeat IPC: 2.2741 cumulative IPC: 2.27035 (Simulation time: 0 hr 2 min 25 sec) 

Warmup complete CPU 0 instructions: 100000002 cycles: 44046082 (Simulation time: 0 hr 2 min 25 sec) 

Heartbeat CPU 0 instructions: 110000000 cycles: 54015465 heartbeat IPC: 1.00307 cumulative IPC: 1.00307 (Simulation time: 0 hr 2 min 44 sec) 
Heartbeat CPU 0 instructions: 120000000 cycles: 63005232 heartbeat IPC: 1.11238 cumulative IPC: 1.0549 (Simulation time: 0 hr 3 min 3 sec) 
Heartbeat CPU 0 instructions: 130000000 cycles: 72043002 heartbeat IPC: 1.10647 cumulative IPC: 1.07155 (Simulation time: 0 hr 3 min 21 sec) 
Heartbeat CPU 0 instructions: 140000000 cycles: 81211079 heartbeat IPC: 1.09074 cumulative IPC: 1.07628 (Simulation time: 0 hr 3 min 40 sec) 
Heartbeat CPU 0 instructions: 150000000 cycles: 92304827 heartbeat IPC: 0.901409 cumulative IPC: 1.03608 (Simulation time: 0 hr 3 min 59 sec) 
Heartbeat CPU 0 instructions: 160000000 cycles: 102396577 heartbeat IPC: 0.990908 cumulative IPC: 1.02827 (Simulation time: 0 hr 4 min 17 sec) 
Heartbeat CPU 0 instructions: 170000003 cycles: 112231563 heartbeat IPC: 1.01678 cumulative IPC: 1.02661 (Simulation time: 0 hr 4 min 36 sec) 
Heartbeat CPU 0 instructions: 180000000 cycles: 121895064 heartbeat IPC: 1.03482 cumulative IPC: 1.02763 (Simulation time: 0 hr 4 min 54 sec) 
Heartbeat CPU 0 instructions: 190000002 cycles: 131677580 heartbeat IPC: 1.02223 cumulative IPC: 1.02703 (Simulation time: 0 hr 5 min 13 sec) 
Heartbeat CPU 0 instructions: 200000000 cycles: 140907714 heartbeat IPC: 1.08341 cumulative IPC: 1.0324 (Simulation time: 0 hr 5 min 31 sec) 
Heartbeat CPU 0 instructions: 210000000 cycles: 150544518 heartbeat IPC: 1.03769 cumulative IPC: 1.03288 (Simulation time: 0 hr 5 min 50 sec) 
Heartbeat CPU 0 instructions: 220000000 cycles: 159485218 heartbeat IPC: 1.11848 cumulative IPC: 1.03951 (Simulation time: 0 hr 6 min 8 sec) 
Heartbeat CPU 0 instructions: 230000001 cycles: 171618314 heartbeat IPC: 0.824192 cumulative IPC: 1.01903 (Simulation time: 0 hr 6 min 28 sec) 
Heartbeat CPU 0 instructions: 240000000 cycles: 182105637 heartbeat IPC: 0.953532 cumulative IPC: 1.01406 (Simulation time: 0 hr 6 min 47 sec) 
Heartbeat CPU 0 instructions: 250000002 cycles: 191970545 heartbeat IPC: 1.01369 cumulative IPC: 1.01403 (Simulation time: 0 hr 7 min 6 sec) 
Heartbeat CPU 0 instructions: 260000000 cycles: 201549571 heartbeat IPC: 1.04395 cumulative IPC: 1.01585 (Simulation time: 0 hr 7 min 24 sec) 
Heartbeat CPU 0 instructions: 270000001 cycles: 210948890 heartbeat IPC: 1.06391 cumulative IPC: 1.01856 (Simulation time: 0 hr 7 min 42 sec) 
Heartbeat CPU 0 instructions: 280000000 cycles: 220641454 heartbeat IPC: 1.03172 cumulative IPC: 1.01928 (Simulation time: 0 hr 8 min 1 sec) 
Heartbeat CPU 0 instructions: 290000002 cycles: 229700305 heartbeat IPC: 1.10389 cumulative IPC: 1.02341 (Simulation time: 0 hr 8 min 19 sec) 
Heartbeat CPU 0 instructions: 300000000 cycles: 239238662 heartbeat IPC: 1.0484 cumulative IPC: 1.02463 (Simulation time: 0 hr 8 min 38 sec) 
Heartbeat CPU 0 instructions: 310000000 cycles: 248232249 heartbeat IPC: 1.1119 cumulative IPC: 1.02847 (Simulation time: 0 hr 8 min 56 sec) 
Heartbeat CPU 0 instructions: 320000000 cycles: 257342711 heartbeat IPC: 1.09764 cumulative IPC: 1.03143 (Simulation time: 0 hr 9 min 15 sec) 
Heartbeat CPU 0 instructions: 330000003 cycles: 266633075 heartbeat IPC: 1.07638 cumulative IPC: 1.0333 (Simulation time: 0 hr 9 min 33 sec) 
Heartbeat CPU 0 instructions: 340000000 cycles: 276565268 heartbeat IPC: 1.00683 cumulative IPC: 1.03217 (Simulation time: 0 hr 9 min 52 sec) 
Heartbeat CPU 0 instructions: 350000000 cycles: 286909392 heartbeat IPC: 0.966732 cumulative IPC: 1.02939 (Simulation time: 0 hr 10 min 10 sec) 
Heartbeat CPU 0 instructions: 360000000 cycles: 296707434 heartbeat IPC: 1.02061 cumulative IPC: 1.02905 (Simulation time: 0 hr 10 min 29 sec) 
Heartbeat CPU 0 instructions: 370000000 cycles: 306226523 heartbeat IPC: 1.05052 cumulative IPC: 1.02983 (Simulation time: 0 hr 10 min 47 sec) 
Heartbeat CPU 0 instructions: 380000000 cycles: 315555241 heartbeat IPC: 1.07196 cumulative IPC: 1.03127 (Simulation time: 0 hr 11 min 6 sec) 
Heartbeat CPU 0 instructions: 390000002 cycles: 324655825 heartbeat IPC: 1.09883 cumulative IPC: 1.03346 (Simulation time: 0 hr 11 min 24 sec) 
Heartbeat CPU 0 instructions: 400000000 cycles: 334182201 heartbeat IPC: 1.04972 cumulative IPC: 1.034 (Simulation time: 0 hr 11 min 42 sec) 
Heartbeat CPU 0 instructions: 410000000 cycles: 343081889 heartbeat IPC: 1.12363 cumulative IPC: 1.03667 (Simulation time: 0 hr 12 min 0 sec) 
Heartbeat CPU 0 instructions: 420000000 cycles: 353892833 heartbeat IPC: 0.924989 cumulative IPC: 1.03277 (Simulation time: 0 hr 12 min 19 sec) 
Heartbeat CPU 0 instructions: 430000000 cycles: 364763735 heartbeat IPC: 0.919887 cumulative IPC: 1.02894 (Simulation time: 0 hr 12 min 37 sec) 
Heartbeat CPU 0 instructions: 440000000 cycles: 374660337 heartbeat IPC: 1.01045 cumulative IPC: 1.02839 (Simulation time: 0 hr 12 min 55 sec) 
Heartbeat CPU 0 instructions: 450000000 cycles: 384437759 heartbeat IPC: 1.02276 cumulative IPC: 1.02823 (Simulation time: 0 hr 13 min 13 sec) 
Heartbeat CPU 0 instructions: 460000000 cycles: 394149817 heartbeat IPC: 1.02965 cumulative IPC: 1.02827 (Simulation time: 0 hr 13 min 32 sec) 
Heartbeat CPU 0 instructions: 470000001 cycles: 403909310 heartbeat IPC: 1.02464 cumulative IPC: 1.02817 (Simulation time: 0 hr 13 min 50 sec) 
Heartbeat CPU 0 instructions: 480000000 cycles: 413092447 heartbeat IPC: 1.08895 cumulative IPC: 1.02968 (Simulation time: 0 hr 14 min 8 sec) 
Heartbeat CPU 0 instructions: 490000002 cycles: 422788258 heartbeat IPC: 1.03137 cumulative IPC: 1.02972 (Simulation time: 0 hr 14 min 26 sec) 
Heartbeat CPU 0 instructions: 500000000 cycles: 432080440 heartbeat IPC: 1.07617 cumulative IPC: 1.03084 (Simulation time: 0 hr 14 min 45 sec) 
Heartbeat CPU 0 instructions: 510000000 cycles: 441176629 heartbeat IPC: 1.09936 cumulative IPC: 1.03241 (Simulation time: 0 hr 15 min 3 sec) 
Heartbeat CPU 0 instructions: 520000000 cycles: 450554202 heartbeat IPC: 1.06637 cumulative IPC: 1.03319 (Simulation time: 0 hr 15 min 21 sec) 
Heartbeat CPU 0 instructions: 530000001 cycles: 460716940 heartbeat IPC: 0.983987 cumulative IPC: 1.03199 (Simulation time: 0 hr 15 min 40 sec) 
Heartbeat CPU 0 instructions: 540000000 cycles: 471229293 heartbeat IPC: 0.951262 cumulative IPC: 1.03 (Simulation time: 0 hr 15 min 58 sec) 
Heartbeat CPU 0 instructions: 550000003 cycles: 481207053 heartbeat IPC: 1.00223 cumulative IPC: 1.02937 (Simulation time: 0 hr 16 min 16 sec) 
Heartbeat CPU 0 instructions: 560000000 cycles: 490919177 heartbeat IPC: 1.02964 cumulative IPC: 1.02937 (Simulation time: 0 hr 16 min 34 sec) 
Heartbeat CPU 0 instructions: 570000002 cycles: 500421838 heartbeat IPC: 1.05234 cumulative IPC: 1.02985 (Simulation time: 0 hr 16 min 53 sec) 
Heartbeat CPU 0 instructions: 580000000 cycles: 509703581 heartbeat IPC: 1.07738 cumulative IPC: 1.0308 (Simulation time: 0 hr 17 min 11 sec) 
Heartbeat CPU 0 instructions: 590000002 cycles: 519353270 heartbeat IPC: 1.0363 cumulative IPC: 1.03091 (Simulation time: 0 hr 17 min 29 sec) 
Heartbeat CPU 0 instructions: 600000000 cycles: 528534771 heartbeat IPC: 1.08915 cumulative IPC: 1.03202 (Simulation time: 0 hr 17 min 47 sec) 
Finished CPU 0 instructions: 500000000 cycles: 484488703 cumulative IPC: 1.03202 (Simulation time: 0 hr 17 min 47 sec) 

CPU 0 Branch Prediction Accuracy: 97.8526% MPKI: 2.66709
Number of Branches: 62099103 Number of Mispredictions: 1333545
Number of LOAD Instructions: 210576465
Number of LOAD Instructions (ROI): 210576465
Number of STORE Instructions: 16915507
Number of STORE Instructions (ROI): 16915507
Total Destination Memory Operands: 16918869
Total Destination Memory Operands (ROI): 16918869
Total Source Memory Operands: 210576465
Total Source Memory Operands (ROI): 210576465
Number of DEPENDED LOADS: 345524
Number of DEPENDED LOADS (ROI): 345524
Number of SQ_ADDED: 16918826
Number of SQ_ADDED (ROI): 16918826
Number of LQ_ADDED: 210609992
Number of LQ_ADDED (ROI): 210609992
Number of Instructions read from trace: 600000257

ChampSim completed all CPUs

Region of Interest Statistics

CPU 0 cumulative IPC: 1.03202 instructions: 500000000 cycles: 484488703
ITLB TOTAL     ACCESS:   76352429  HIT:   76352391  MISS:         38
ITLB LOAD      ACCESS:   76352429  HIT:   76352391  MISS:         38
ITLB RFO       ACCESS:          0  HIT:          0  MISS:          0
ITLB PREFETCH  ACCESS:          0  HIT:          0  MISS:          0
ITLB WRITEBACK ACCESS:          0  HIT:          0  MISS:          0
ITLB PREFETCH  REQUESTED:          0  ISSUED:          0  USEFUL:          0  USELESS:          0
ITLB TOTAL MSHR MERGED:         37
ITLB LOAD MSHR MERGED:         37
ITLB RFO MSHR MERGED:          0
ITLB PREFETCH MSHR MERGED:          0
ITLB WRITEBACK MSHR MERGED:          0
ITLB TOTAL ACCESSES:   76352466 HITS:   76352391 MISSES:         75
ITLB LOAD ACCESSES:   76352466 HITS:   76352391 MISSES:         75
ITLB RFO ACCESSES:          0 HITS:          0 MISSES:          0
ITLB PREFETCH ACCESSES:          0 HITS:          0 MISSES:          0
ITLB WRITEBACK ACCESSES:          0 HITS:          0 MISSES:          0
ITLB RQ ACCESS:  500000188
ITLB RQ TO_CACHE:   76352467
ITLB RQ MERGED:  423647721
ITLB RQ FORWARD:          0
ITLB WQ ACCESS:          0
ITLB WQ TO_CACHE:          0
ITLB WQ MERGED:          0
ITLB WQ FORWARD:          0
DTLB TOTAL     ACCESS:  136726531  HIT:  136523738  MISS:     202793
DTLB LOAD      ACCESS:  128664441  HIT:  128464369  MISS:     200072
DTLB RFO       ACCESS:    8062090  HIT:    8059369  MISS:       2721
DTLB PREFETCH  ACCESS:          0  HIT:          0  MISS:          0
DTLB WRITEBACK ACCESS:          0  HIT:          0  MISS:          0
DTLB PREFETCH  REQUESTED:          0  ISSUED:          0  USEFUL:          0  USELESS:          0
DTLB TOTAL MSHR MERGED:     448140
DTLB LOAD MSHR MERGED:     444352
DTLB RFO MSHR MERGED:       3788
DTLB PREFETCH MSHR MERGED:          0
DTLB WRITEBACK MSHR MERGED:          0
DTLB TOTAL ACCESSES:  137174671 HITS:  136523738 MISSES:     650933
DTLB LOAD ACCESSES:  129108793 HITS:  128464369 MISSES:     644424
DTLB RFO ACCESSES:    8065878 HITS:    8059369 MISSES:       6509
DTLB PREFETCH ACCESSES:          0 HITS:          0 MISSES:          0
DTLB WRITEBACK ACCESSES:          0 HITS:          0 MISSES:          0
DTLB RQ ACCESS:  189419039
DTLB RQ TO_CACHE:  137174671
DTLB RQ MERGED:   52244368
DTLB RQ FORWARD:          0
DTLB WQ ACCESS:          0
DTLB WQ TO_CACHE:          0
DTLB WQ MERGED:          0
DTLB WQ FORWARD:          0
L1D TOTAL     ACCESS:  125182600  HIT:  107625602  MISS:   17556998
L1D LOAD      ACCESS:   72276388  HIT:   61998098  MISS:   10278290
L1D RFO       ACCESS:   14015502  HIT:   13862668  MISS:     152834
L1D PREFETCH  ACCESS:   38890710  HIT:   31764836  MISS:    7125874
L1D WRITEBACK ACCESS:          0  HIT:          0  MISS:          0
L1D PREFETCH  REQUESTED:   85481876  ISSUED:   84161198  USEFUL:    5866469  USELESS:    1259416
L1D TOTAL MSHR MERGED:   31656777
L1D LOAD MSHR MERGED:   18373759
L1D RFO MSHR MERGED:     265175
L1D PREFETCH MSHR MERGED:   13017843
L1D WRITEBACK MSHR MERGED:          0
L1D TOTAL ACCESSES:  156839875 HITS:  107626101 MISSES:   49213774
L1D LOAD ACCESSES:   85481885 HITS:   61998107 MISSES:   23483778
L1D RFO ACCESSES:   14280648 HITS:   13862668 MISSES:     417980
L1D PREFETCH ACCESSES:   57077342 HITS:   31765326 MISSES:   25312016
L1D WRITEBACK ACCESSES:          0 HITS:          0 MISSES:          0
L1D RQ ACCESS:  175130017
L1D RQ TO_CACHE:   85481876
L1D RQ MERGED:   89648132
L1D RQ FORWARD:          0
L1D WQ ACCESS:   14289037
L1D WQ TO_CACHE:   14280648
L1D WQ MERGED:       8389
L1D WQ FORWARD:        499
L1I TOTAL     ACCESS:   93382191  HIT:   93380395  MISS:       1796
L1I LOAD      ACCESS:   93382191  HIT:   93380395  MISS:       1796
L1I RFO       ACCESS:          0  HIT:          0  MISS:          0
L1I PREFETCH  ACCESS:          0  HIT:          0  MISS:          0
L1I WRITEBACK ACCESS:          0  HIT:          0  MISS:          0
L1I PREFETCH  REQUESTED:          0  ISSUED:          0  USEFUL:          0  USELESS:          0
L1I TOTAL MSHR MERGED:       2338
L1I LOAD MSHR MERGED:       2338
L1I RFO MSHR MERGED:          0
L1I PREFETCH MSHR MERGED:          0
L1I WRITEBACK MSHR MERGED:          0
L1I TOTAL ACCESSES:   93384529 HITS:   93380395 MISSES:       4134
L1I LOAD ACCESSES:   93384529 HITS:   93380395 MISSES:       4134
L1I RFO ACCESSES:          0 HITS:          0 MISSES:          0
L1I PREFETCH ACCESSES:          0 HITS:          0 MISSES:          0
L1I WRITEBACK ACCESSES:          0 HITS:          0 MISSES:          0
L1I RQ ACCESS:  500000187
L1I RQ TO_CACHE:   93384529
L1I RQ MERGED:  406615658
L1I RQ FORWARD:          0
L1I WQ ACCESS:          0
L1I WQ TO_CACHE:          0
L1I WQ MERGED:          0
L1I WQ FORWARD:          0
L2C TOTAL     ACCESS:   20898672  HIT:    8669466  MISS:   12229206
L2C LOAD      ACCESS:    5111793  HIT:    2143354  MISS:    2968439
L2C RFO       ACCESS:     152805  HIT:       6521  MISS:     146284
L2C PREFETCH  ACCESS:   13861322  HIT:    4746949  MISS:    9114373
L2C WRITEBACK ACCESS:    1772752  HIT:    1772642  MISS:        110
L2C PREFETCH  REQUESTED:    1807045  ISSUED:    1807045  USEFUL:    1064128  USELESS:    8051907
L2C TOTAL MSHR MERGED:      98042
L2C LOAD MSHR MERGED:      22534
L2C RFO MSHR MERGED:          0
L2C PREFETCH MSHR MERGED:      75508
L2C WRITEBACK MSHR MERGED:          0
L2C TOTAL ACCESSES:   21019478 HITS:    8669507 MISSES:   12349971
L2C LOAD ACCESSES:    5111815 HITS:    2143376 MISSES:    2968439
L2C RFO ACCESSES:     152805 HITS:       6521 MISSES:     146284
L2C PREFETCH ACCESSES:   13982106 HITS:    4746968 MISSES:    9235138
L2C WRITEBACK ACCESSES:    1772752 HITS:    1772642 MISSES:        110
L2C RQ ACCESS:    5264620
L2C RQ TO_CACHE:    5264598
L2C RQ MERGED:          0
L2C RQ FORWARD:          0
L2C WQ ACCESS:    1772752
L2C WQ TO_CACHE:    1772752
L2C WQ MERGED:          0
L2C WQ FORWARD:         41
LLC TOTAL     ACCESS:   12532625  HIT:    6801416  MISS:    5731209
LLC LOAD      ACCESS:    2945890  HIT:    2472607  MISS:     473283
LLC RFO       ACCESS:     146284  HIT:      87518  MISS:      58766
LLC PREFETCH  ACCESS:    9154478  HIT:    4001010  MISS:    5153468
LLC WRITEBACK ACCESS:     285973  HIT:     240281  MISS:      45692
LLC PREFETCH  REQUESTED:          0  ISSUED:          0  USEFUL:       6843  USELESS:    5146520
LLC TOTAL MSHR MERGED:        960
LLC LOAD MSHR MERGED:        189
LLC RFO MSHR MERGED:          0
LLC PREFETCH MSHR MERGED:        771
LLC WRITEBACK MSHR MERGED:          0
LLC TOTAL ACCESSES:   12533615 HITS:    6801446 MISSES:    5732169
LLC LOAD ACCESSES:    2945905 HITS:    2472622 MISSES:     473283
LLC RFO ACCESSES:     146284 HITS:      87518 MISSES:      58766
LLC PREFETCH ACCESSES:    9155453 HITS:    4001025 MISSES:    5154428
LLC WRITEBACK ACCESSES:     285973 HITS:     240281 MISSES:      45692
LLC 0 RQ ACCESS:    3092189
LLC 0 RQ TO_CACHE:    3092174
LLC 0 RQ MERGED:          0
LLC 0 RQ FORWARD:          0
LLC WQ ACCESS:     285973
LLC WQ TO_CACHE:     285973
LLC WQ MERGED:          0
LLC WQ FORWARD:         30
Major fault: 0 Minor fault: 6524
CPU 0 L1D next line prefetcher final stats
CPU 0 L2C PC-based stride prefetcher final stats
All Misses: 7529851
All Hits: 7527788
SD Algo Stats - Switches: 0 SRR-Repls: 503362 BRR-Repls: 0

DRAM Statistics
 CHANNEL 0
 RQ ROW_BUFFER_HIT:    4887627  ROW_BUFFER_MISS:     790555
 DBUS_CONGESTED:    2049172
 WQ ROW_BUFFER_HIT:       8450  ROW_BUFFER_MISS:      65461  FULL:          0

 AVG_CONGESTED_CYCLE: 12
LOADS RETIRED: 175418235
INSTR RETIRED: 500000000
