
*** ChampSim Multicore Out-of-Order Simulator ***

Warmup Instructions: 100000000
Simulation Instructions: 500000000
Number of CPUs: 1
LLC sets: 2048
LLC ways: 16
Clean RRIP Policies: 2013230220132302 Dirty RRIP Policies: 1003130210031302 PSEL Width: 10 Track Set: 4294967295 PSEL Mask: 1 Demote Mask: 1040100410401004DS Algo: 0Window size: 0
Off-chip DRAM Size: 4096 MB Channels: 1 Width: 64-bit Data Rate: 1600 MT/s

CPU 0 runs /mnt/beegfs/iconst01/spec2017/Roms.trace.gz
NOT SORTED
TRACE STRING: /mnt/beegfs/iconst01/spec2017/Roms.trace.gz
SORTED
TRACE STRING: /mnt/beegfs/iconst01/spec2017/Roms.trace.gz
INITIAL
TRACE STRING: /mnt/beegfs/iconst01/spec2017/Roms.trace.gz

champsim_seed used: 417

CPU 0 L1D next line prefetcher
CPU 0 L2C IP-based stride prefetcher
Initialize DRRIP state
Assign rand_sets[0]: 454  LLC: 2048
rand_sets[0]: 454
Assign rand_sets[1]: 1662  LLC: 2048
rand_sets[1]: 1662
Assign rand_sets[2]: 1921  LLC: 2048
rand_sets[2]: 1921
Assign rand_sets[3]: 1131  LLC: 2048
rand_sets[3]: 1131
Assign rand_sets[4]: 331  LLC: 2048
rand_sets[4]: 331
Assign rand_sets[5]: 1531  LLC: 2048
rand_sets[5]: 1531
Assign rand_sets[6]: 482  LLC: 2048
rand_sets[6]: 482
Assign rand_sets[7]: 1275  LLC: 2048
rand_sets[7]: 1275
Assign rand_sets[8]: 1876  LLC: 2048
rand_sets[8]: 1876
Assign rand_sets[9]: 2038  LLC: 2048
rand_sets[9]: 2038
Assign rand_sets[10]: 701  LLC: 2048
rand_sets[10]: 701
Assign rand_sets[11]: 479  LLC: 2048
rand_sets[11]: 479
Assign rand_sets[12]: 892  LLC: 2048
rand_sets[12]: 892
Assign rand_sets[13]: 1820  LLC: 2048
rand_sets[13]: 1820
Assign rand_sets[14]: 1505  LLC: 2048
rand_sets[14]: 1505
Assign rand_sets[15]: 1159  LLC: 2048
rand_sets[15]: 1159
Assign rand_sets[16]: 513  LLC: 2048
rand_sets[16]: 513
Assign rand_sets[17]: 703  LLC: 2048
rand_sets[17]: 703
Assign rand_sets[18]: 561  LLC: 2048
rand_sets[18]: 561
Assign rand_sets[19]: 990  LLC: 2048
rand_sets[19]: 990
Assign rand_sets[20]: 342  LLC: 2048
rand_sets[20]: 342
Assign rand_sets[21]: 882  LLC: 2048
rand_sets[21]: 882
Assign rand_sets[22]: 15  LLC: 2048
rand_sets[22]: 15
Assign rand_sets[23]: 71  LLC: 2048
rand_sets[23]: 71
Assign rand_sets[24]: 1127  LLC: 2048
rand_sets[24]: 1127
Assign rand_sets[25]: 1382  LLC: 2048
rand_sets[25]: 1382
Assign rand_sets[26]: 647  LLC: 2048
rand_sets[26]: 647
Assign rand_sets[27]: 857  LLC: 2048
rand_sets[27]: 857
Assign rand_sets[28]: 1450  LLC: 2048
rand_sets[28]: 1450
Assign rand_sets[29]: 1160  LLC: 2048
rand_sets[29]: 1160
Assign rand_sets[30]: 1852  LLC: 2048
rand_sets[30]: 1852
Assign rand_sets[31]: 1881  LLC: 2048
rand_sets[31]: 1881
Assign rand_sets[32]: 1770  LLC: 2048
rand_sets[32]: 1770
Assign rand_sets[33]: 1622  LLC: 2048
rand_sets[33]: 1622
Assign rand_sets[34]: 275  LLC: 2048
rand_sets[34]: 275
Assign rand_sets[35]: 635  LLC: 2048
rand_sets[35]: 635
Assign rand_sets[36]: 466  LLC: 2048
rand_sets[36]: 466
Assign rand_sets[37]: 1413  LLC: 2048
rand_sets[37]: 1413
Assign rand_sets[38]: 417  LLC: 2048
rand_sets[38]: 417
Assign rand_sets[39]: 472  LLC: 2048
rand_sets[39]: 472
Assign rand_sets[40]: 1340  LLC: 2048
rand_sets[40]: 1340
Assign rand_sets[41]: 852  LLC: 2048
rand_sets[41]: 852
Assign rand_sets[42]: 1365  LLC: 2048
rand_sets[42]: 1365
Assign rand_sets[43]: 47  LLC: 2048
rand_sets[43]: 47
Assign rand_sets[44]: 823  LLC: 2048
rand_sets[44]: 823
Assign rand_sets[45]: 686  LLC: 2048
rand_sets[45]: 686
Assign rand_sets[46]: 1637  LLC: 2048
rand_sets[46]: 1637
Assign rand_sets[47]: 1115  LLC: 2048
rand_sets[47]: 1115
Assign rand_sets[48]: 986  LLC: 2048
rand_sets[48]: 986
Assign rand_sets[49]: 258  LLC: 2048
rand_sets[49]: 258
Assign rand_sets[50]: 633  LLC: 2048
rand_sets[50]: 633
Assign rand_sets[51]: 920  LLC: 2048
rand_sets[51]: 920
Assign rand_sets[52]: 204  LLC: 2048
rand_sets[52]: 204
Assign rand_sets[53]: 227  LLC: 2048
rand_sets[53]: 227
Assign rand_sets[54]: 1818  LLC: 2048
rand_sets[54]: 1818
Assign rand_sets[55]: 886  LLC: 2048
rand_sets[55]: 886
Assign rand_sets[56]: 1422  LLC: 2048
rand_sets[56]: 1422
Assign rand_sets[57]: 607  LLC: 2048
rand_sets[57]: 607
Assign rand_sets[58]: 217  LLC: 2048
rand_sets[58]: 217
Assign rand_sets[59]: 1945  LLC: 2048
rand_sets[59]: 1945
Assign rand_sets[60]: 143  LLC: 2048
rand_sets[60]: 143
Assign rand_sets[61]: 1311  LLC: 2048
rand_sets[61]: 1311
Assign rand_sets[62]: 319  LLC: 2048
rand_sets[62]: 319
Assign rand_sets[63]: 1846  LLC: 2048
rand_sets[63]: 1846
 CLEAN-RRIP-POLICY-1: 2-0-1-3-2-3-0-2- CLEAN-RRIP-POLICY-2: 2-0-1-3-2-3-0-2-
 DIRTY-RRIP-POLICY-1: 1-0-0-3-1-3-0-2- DIRTY-RRIP-POLICY-2: 1-0-0-3-1-3-0-2-
 PSEL width: 10
Heartbeat CPU 0 instructions: 10000000 cycles: 4688066 heartbeat IPC: 2.13308 cumulative IPC: 2.13308 (Simulation time: 0 hr 0 min 18 sec) 
Heartbeat CPU 0 instructions: 20000000 cycles: 9325334 heartbeat IPC: 2.15644 cumulative IPC: 2.1447 (Simulation time: 0 hr 0 min 35 sec) 
Heartbeat CPU 0 instructions: 30000003 cycles: 14019722 heartbeat IPC: 2.1302 cumulative IPC: 2.13984 (Simulation time: 0 hr 0 min 52 sec) 
Heartbeat CPU 0 instructions: 40000000 cycles: 18670140 heartbeat IPC: 2.15034 cumulative IPC: 2.14246 (Simulation time: 0 hr 1 min 10 sec) 
Heartbeat CPU 0 instructions: 50000003 cycles: 23323500 heartbeat IPC: 2.14899 cumulative IPC: 2.14376 (Simulation time: 0 hr 1 min 27 sec) 
Heartbeat CPU 0 instructions: 60000000 cycles: 27976134 heartbeat IPC: 2.14932 cumulative IPC: 2.14469 (Simulation time: 0 hr 1 min 44 sec) 
Heartbeat CPU 0 instructions: 70000002 cycles: 32367303 heartbeat IPC: 2.2773 cumulative IPC: 2.16268 (Simulation time: 0 hr 1 min 59 sec) 
Heartbeat CPU 0 instructions: 80000000 cycles: 36304101 heartbeat IPC: 2.54013 cumulative IPC: 2.20361 (Simulation time: 0 hr 2 min 11 sec) 
Heartbeat CPU 0 instructions: 90000000 cycles: 40249400 heartbeat IPC: 2.53466 cumulative IPC: 2.23606 (Simulation time: 0 hr 2 min 24 sec) 
Heartbeat CPU 0 instructions: 100000000 cycles: 44211723 heartbeat IPC: 2.52377 cumulative IPC: 2.26184 (Simulation time: 0 hr 2 min 36 sec) 

Warmup complete CPU 0 instructions: 100000002 cycles: 44211724 (Simulation time: 0 hr 2 min 36 sec) 

Heartbeat CPU 0 instructions: 110000000 cycles: 52794320 heartbeat IPC: 1.16515 cumulative IPC: 1.16515 (Simulation time: 0 hr 2 min 55 sec) 
Heartbeat CPU 0 instructions: 120000000 cycles: 61440558 heartbeat IPC: 1.15657 cumulative IPC: 1.16084 (Simulation time: 0 hr 3 min 14 sec) 
Heartbeat CPU 0 instructions: 130000002 cycles: 70132034 heartbeat IPC: 1.15055 cumulative IPC: 1.15739 (Simulation time: 0 hr 3 min 34 sec) 
Heartbeat CPU 0 instructions: 140000000 cycles: 78684864 heartbeat IPC: 1.1692 cumulative IPC: 1.16032 (Simulation time: 0 hr 3 min 53 sec) 
Heartbeat CPU 0 instructions: 150000003 cycles: 87406914 heartbeat IPC: 1.14652 cumulative IPC: 1.15754 (Simulation time: 0 hr 4 min 12 sec) 
Heartbeat CPU 0 instructions: 160000000 cycles: 97692144 heartbeat IPC: 0.972268 cumulative IPC: 1.12191 (Simulation time: 0 hr 4 min 33 sec) 
Heartbeat CPU 0 instructions: 170000000 cycles: 110188038 heartbeat IPC: 0.800263 cumulative IPC: 1.06099 (Simulation time: 0 hr 4 min 58 sec) 
Heartbeat CPU 0 instructions: 180000000 cycles: 122697971 heartbeat IPC: 0.799365 cumulative IPC: 1.01929 (Simulation time: 0 hr 5 min 22 sec) 
Heartbeat CPU 0 instructions: 190000000 cycles: 135459729 heartbeat IPC: 0.783591 cumulative IPC: 0.986323 (Simulation time: 0 hr 5 min 47 sec) 
Heartbeat CPU 0 instructions: 200000000 cycles: 149310469 heartbeat IPC: 0.721983 cumulative IPC: 0.951486 (Simulation time: 0 hr 6 min 11 sec) 
Heartbeat CPU 0 instructions: 210000001 cycles: 163213191 heartbeat IPC: 0.719284 cumulative IPC: 0.924358 (Simulation time: 0 hr 6 min 36 sec) 
Heartbeat CPU 0 instructions: 220000000 cycles: 176943426 heartbeat IPC: 0.72832 cumulative IPC: 0.904079 (Simulation time: 0 hr 7 min 0 sec) 
Heartbeat CPU 0 instructions: 230000000 cycles: 190505316 heartbeat IPC: 0.73736 cumulative IPC: 0.888624 (Simulation time: 0 hr 7 min 26 sec) 
Heartbeat CPU 0 instructions: 240000000 cycles: 204128179 heartbeat IPC: 0.73406 cumulative IPC: 0.875457 (Simulation time: 0 hr 7 min 51 sec) 
Heartbeat CPU 0 instructions: 250000003 cycles: 215214536 heartbeat IPC: 0.90201 cumulative IPC: 0.877179 (Simulation time: 0 hr 8 min 14 sec) 
Heartbeat CPU 0 instructions: 260000000 cycles: 223066377 heartbeat IPC: 1.27359 cumulative IPC: 0.894581 (Simulation time: 0 hr 8 min 34 sec) 
Heartbeat CPU 0 instructions: 270000003 cycles: 231383273 heartbeat IPC: 1.20237 cumulative IPC: 0.908258 (Simulation time: 0 hr 8 min 55 sec) 
Heartbeat CPU 0 instructions: 280000000 cycles: 239871754 heartbeat IPC: 1.17807 cumulative IPC: 0.919963 (Simulation time: 0 hr 9 min 16 sec) 
Heartbeat CPU 0 instructions: 290000000 cycles: 248479227 heartbeat IPC: 1.16178 cumulative IPC: 0.930153 (Simulation time: 0 hr 9 min 37 sec) 
Heartbeat CPU 0 instructions: 300000000 cycles: 257100788 heartbeat IPC: 1.15988 cumulative IPC: 0.939456 (Simulation time: 0 hr 9 min 58 sec) 
Heartbeat CPU 0 instructions: 310000000 cycles: 265807825 heartbeat IPC: 1.1485 cumulative IPC: 0.94767 (Simulation time: 0 hr 10 min 20 sec) 
Heartbeat CPU 0 instructions: 320000000 cycles: 274582680 heartbeat IPC: 1.13962 cumulative IPC: 0.954982 (Simulation time: 0 hr 10 min 42 sec) 
Heartbeat CPU 0 instructions: 330000002 cycles: 283301224 heartbeat IPC: 1.14698 cumulative IPC: 0.961983 (Simulation time: 0 hr 11 min 4 sec) 
Heartbeat CPU 0 instructions: 340000000 cycles: 293319377 heartbeat IPC: 0.998188 cumulative IPC: 0.963439 (Simulation time: 0 hr 11 min 28 sec) 
Heartbeat CPU 0 instructions: 350000001 cycles: 301826865 heartbeat IPC: 1.17544 cumulative IPC: 0.97044 (Simulation time: 0 hr 11 min 49 sec) 
Heartbeat CPU 0 instructions: 360000000 cycles: 310346335 heartbeat IPC: 1.17378 cumulative IPC: 0.976949 (Simulation time: 0 hr 12 min 10 sec) 
Heartbeat CPU 0 instructions: 370000001 cycles: 318871542 heartbeat IPC: 1.17299 cumulative IPC: 0.983034 (Simulation time: 0 hr 12 min 31 sec) 
Heartbeat CPU 0 instructions: 380000000 cycles: 327369504 heartbeat IPC: 1.17675 cumulative IPC: 0.988848 (Simulation time: 0 hr 12 min 52 sec) 
Heartbeat CPU 0 instructions: 390000001 cycles: 335681236 heartbeat IPC: 1.20312 cumulative IPC: 0.994958 (Simulation time: 0 hr 13 min 13 sec) 
Heartbeat CPU 0 instructions: 400000000 cycles: 344082788 heartbeat IPC: 1.19026 cumulative IPC: 1.00043 (Simulation time: 0 hr 13 min 33 sec) 
Heartbeat CPU 0 instructions: 410000003 cycles: 352406473 heartbeat IPC: 1.20139 cumulative IPC: 1.00586 (Simulation time: 0 hr 13 min 54 sec) 
Heartbeat CPU 0 instructions: 420000000 cycles: 360820084 heartbeat IPC: 1.18855 cumulative IPC: 1.01071 (Simulation time: 0 hr 14 min 15 sec) 
Heartbeat CPU 0 instructions: 430000001 cycles: 369162458 heartbeat IPC: 1.1987 cumulative IPC: 1.01554 (Simulation time: 0 hr 14 min 36 sec) 
Heartbeat CPU 0 instructions: 440000000 cycles: 377466771 heartbeat IPC: 1.20419 cumulative IPC: 1.02024 (Simulation time: 0 hr 14 min 56 sec) 
Heartbeat CPU 0 instructions: 450000001 cycles: 387098057 heartbeat IPC: 1.03828 cumulative IPC: 1.02075 (Simulation time: 0 hr 15 min 19 sec) 
Heartbeat CPU 0 instructions: 460000000 cycles: 395422163 heartbeat IPC: 1.20133 cumulative IPC: 1.02503 (Simulation time: 0 hr 15 min 40 sec) 
Heartbeat CPU 0 instructions: 470000003 cycles: 403633837 heartbeat IPC: 1.21778 cumulative IPC: 1.02943 (Simulation time: 0 hr 16 min 0 sec) 
Heartbeat CPU 0 instructions: 480000000 cycles: 411899265 heartbeat IPC: 1.20986 cumulative IPC: 1.03349 (Simulation time: 0 hr 16 min 20 sec) 
Heartbeat CPU 0 instructions: 490000000 cycles: 420130352 heartbeat IPC: 1.21491 cumulative IPC: 1.03746 (Simulation time: 0 hr 16 min 41 sec) 
Heartbeat CPU 0 instructions: 500000000 cycles: 428370659 heartbeat IPC: 1.21355 cumulative IPC: 1.04124 (Simulation time: 0 hr 17 min 1 sec) 
Heartbeat CPU 0 instructions: 510000001 cycles: 436569250 heartbeat IPC: 1.21972 cumulative IPC: 1.04497 (Simulation time: 0 hr 17 min 21 sec) 
Heartbeat CPU 0 instructions: 520000000 cycles: 444792904 heartbeat IPC: 1.216 cumulative IPC: 1.04848 (Simulation time: 0 hr 17 min 42 sec) 
Heartbeat CPU 0 instructions: 530000001 cycles: 453012140 heartbeat IPC: 1.21666 cumulative IPC: 1.05186 (Simulation time: 0 hr 18 min 2 sec) 
Heartbeat CPU 0 instructions: 540000000 cycles: 461414756 heartbeat IPC: 1.19011 cumulative IPC: 1.05464 (Simulation time: 0 hr 18 min 22 sec) 
Heartbeat CPU 0 instructions: 550000000 cycles: 469879716 heartbeat IPC: 1.18134 cumulative IPC: 1.05716 (Simulation time: 0 hr 18 min 43 sec) 
Heartbeat CPU 0 instructions: 560000000 cycles: 478116001 heartbeat IPC: 1.21414 cumulative IPC: 1.06014 (Simulation time: 0 hr 19 min 3 sec) 
Heartbeat CPU 0 instructions: 570000000 cycles: 489357375 heartbeat IPC: 0.889571 cumulative IPC: 1.05583 (Simulation time: 0 hr 19 min 26 sec) 
Heartbeat CPU 0 instructions: 580000000 cycles: 500376980 heartbeat IPC: 0.907474 cumulative IPC: 1.05225 (Simulation time: 0 hr 19 min 47 sec) 
Heartbeat CPU 0 instructions: 590000001 cycles: 511634766 heartbeat IPC: 0.888274 cumulative IPC: 1.0483 (Simulation time: 0 hr 20 min 10 sec) 
Heartbeat CPU 0 instructions: 600000000 cycles: 522638011 heartbeat IPC: 0.908823 cumulative IPC: 1.04509 (Simulation time: 0 hr 20 min 32 sec) 
Finished CPU 0 instructions: 500000001 cycles: 478426300 cumulative IPC: 1.04509 (Simulation time: 0 hr 20 min 32 sec) 

CPU 0 Branch Prediction Accuracy: 99.7422% MPKI: 0.173296
Number of Branches: 33608403 Number of Mispredictions: 86648
Number of LOAD Instructions: 180215231
Number of LOAD Instructions (ROI): 180215231
Number of STORE Instructions: 36067263
Number of STORE Instructions (ROI): 36067263
Total Destination Memory Operands: 38428915
Total Destination Memory Operands (ROI): 38428915
Total Source Memory Operands: 180215231
Total Source Memory Operands (ROI): 180215231
Number of DEPENDED LOADS: 3041381
Number of DEPENDED LOADS (ROI): 3041381
Number of SQ_ADDED: 38428892
Number of SQ_ADDED (ROI): 38428892
Number of LQ_ADDED: 207581223
Number of LQ_ADDED (ROI): 207581223
Number of Instructions read from trace: 600000257

ChampSim completed all CPUs

Region of Interest Statistics

CPU 0 cumulative IPC: 1.04509 instructions: 500000001 cycles: 478426300
ITLB TOTAL     ACCESS:   91814716  HIT:   91814697  MISS:         19
ITLB LOAD      ACCESS:   91814716  HIT:   91814697  MISS:         19
ITLB RFO       ACCESS:          0  HIT:          0  MISS:          0
ITLB PREFETCH  ACCESS:          0  HIT:          0  MISS:          0
ITLB WRITEBACK ACCESS:          0  HIT:          0  MISS:          0
ITLB PREFETCH  REQUESTED:          0  ISSUED:          0  USEFUL:          0  USELESS:          0
ITLB TOTAL MSHR MERGED:         40
ITLB LOAD MSHR MERGED:         40
ITLB RFO MSHR MERGED:          0
ITLB PREFETCH MSHR MERGED:          0
ITLB WRITEBACK MSHR MERGED:          0
ITLB TOTAL ACCESSES:   91814756 HITS:   91814697 MISSES:         59
ITLB LOAD ACCESSES:   91814756 HITS:   91814697 MISSES:         59
ITLB RFO ACCESSES:          0 HITS:          0 MISSES:          0
ITLB PREFETCH ACCESSES:          0 HITS:          0 MISSES:          0
ITLB WRITEBACK ACCESSES:          0 HITS:          0 MISSES:          0
ITLB RQ ACCESS:  500000003
ITLB RQ TO_CACHE:   91814756
ITLB RQ MERGED:  408185247
ITLB RQ FORWARD:          0
ITLB WQ ACCESS:          0
ITLB WQ TO_CACHE:          0
ITLB WQ MERGED:          0
ITLB WQ FORWARD:          0
DTLB TOTAL     ACCESS:  142035680  HIT:  141669219  MISS:     366461
DTLB LOAD      ACCESS:  119394755  HIT:  119081170  MISS:     313585
DTLB RFO       ACCESS:   22640925  HIT:   22588049  MISS:      52876
DTLB PREFETCH  ACCESS:          0  HIT:          0  MISS:          0
DTLB WRITEBACK ACCESS:          0  HIT:          0  MISS:          0
DTLB PREFETCH  REQUESTED:          0  ISSUED:          0  USEFUL:          0  USELESS:          0
DTLB TOTAL MSHR MERGED:     287578
DTLB LOAD MSHR MERGED:     239859
DTLB RFO MSHR MERGED:      47719
DTLB PREFETCH MSHR MERGED:          0
DTLB WRITEBACK MSHR MERGED:          0
DTLB TOTAL ACCESSES:  142323258 HITS:  141669219 MISSES:     654039
DTLB LOAD ACCESSES:  119634614 HITS:  119081170 MISSES:     553444
DTLB RFO ACCESSES:   22688644 HITS:   22588049 MISSES:     100595
DTLB PREFETCH ACCESSES:          0 HITS:          0 MISSES:          0
DTLB WRITEBACK ACCESSES:          0 HITS:          0 MISSES:          0
DTLB RQ ACCESS:  184791596
DTLB RQ TO_CACHE:  142323258
DTLB RQ MERGED:   42468338
DTLB RQ FORWARD:          0
DTLB WQ ACCESS:          0
DTLB WQ TO_CACHE:          0
DTLB WQ MERGED:          0
DTLB WQ FORWARD:          0
L1D TOTAL     ACCESS:  189991046  HIT:  176541094  MISS:   13449952
L1D LOAD      ACCESS:  111928596  HIT:  108663419  MISS:    3265177
L1D RFO       ACCESS:   18837911  HIT:   16056164  MISS:    2781747
L1D PREFETCH  ACCESS:   59224539  HIT:   51821511  MISS:    7403028
L1D WRITEBACK ACCESS:          0  HIT:          0  MISS:          0
L1D PREFETCH  REQUESTED:  116496453  ISSUED:  115138134  USEFUL:    7193351  USELESS:     209677
L1D TOTAL MSHR MERGED:   31685368
L1D LOAD MSHR MERGED:    7276754
L1D RFO MSHR MERGED:    9414813
L1D PREFETCH MSHR MERGED:   14993801
L1D WRITEBACK MSHR MERGED:          0
L1D TOTAL ACCESSES:  221676828 HITS:  176541507 MISSES:   45135321
L1D LOAD ACCESSES:  116496483 HITS:  108663449 MISSES:    7833034
L1D RFO ACCESSES:   28252675 HITS:   16056164 MISSES:   12196511
L1D PREFETCH ACCESSES:   76927670 HITS:   51821894 MISSES:   25105776
L1D WRITEBACK ACCESSES:          0 HITS:          0 MISSES:          0
L1D RQ ACCESS:  156535530
L1D RQ TO_CACHE:  116496456
L1D RQ MERGED:   40039044
L1D RQ FORWARD:          0
L1D WQ ACCESS:   28256066
L1D WQ TO_CACHE:   28252675
L1D WQ MERGED:       3391
L1D WQ FORWARD:        413
L1I TOTAL     ACCESS:  115808854  HIT:  115807906  MISS:        948
L1I LOAD      ACCESS:  115808854  HIT:  115807906  MISS:        948
L1I RFO       ACCESS:          0  HIT:          0  MISS:          0
L1I PREFETCH  ACCESS:          0  HIT:          0  MISS:          0
L1I WRITEBACK ACCESS:          0  HIT:          0  MISS:          0
L1I PREFETCH  REQUESTED:          0  ISSUED:          0  USEFUL:          0  USELESS:          0
L1I TOTAL MSHR MERGED:       1586
L1I LOAD MSHR MERGED:       1586
L1I RFO MSHR MERGED:          0
L1I PREFETCH MSHR MERGED:          0
L1I WRITEBACK MSHR MERGED:          0
L1I TOTAL ACCESSES:  115810440 HITS:  115807906 MISSES:       2534
L1I LOAD ACCESSES:  115810440 HITS:  115807906 MISSES:       2534
L1I RFO ACCESSES:          0 HITS:          0 MISSES:          0
L1I PREFETCH ACCESSES:          0 HITS:          0 MISSES:          0
L1I WRITEBACK ACCESSES:          0 HITS:          0 MISSES:          0
L1I RQ ACCESS:  500000007
L1I RQ TO_CACHE:  115810440
L1I RQ MERGED:  384189567
L1I RQ FORWARD:          0
L1I WQ ACCESS:          0
L1I WQ TO_CACHE:          0
L1I WQ MERGED:          0
L1I WQ FORWARD:          0
L2C TOTAL     ACCESS:   16695565  HIT:    4851572  MISS:   11843993
L2C LOAD      ACCESS:     557199  HIT:      95475  MISS:     461724
L2C RFO       ACCESS:    2781698  HIT:     266859  MISS:    2514839
L2C PREFETCH  ACCESS:   10136021  HIT:    1270870  MISS:    8865151
L2C WRITEBACK ACCESS:    3220647  HIT:    3218368  MISS:       2279
L2C PREFETCH  REQUESTED:      26068  ISSUED:      26068  USEFUL:      93006  USELESS:    8770220
L2C TOTAL MSHR MERGED:        500
L2C LOAD MSHR MERGED:          7
L2C RFO MSHR MERGED:          0
L2C PREFETCH MSHR MERGED:        493
L2C WRITEBACK MSHR MERGED:          0
L2C TOTAL ACCESSES:   16696212 HITS:    4851621 MISSES:   11844591
L2C LOAD ACCESSES:     557228 HITS:      95504 MISSES:     461724
L2C RFO ACCESSES:    2781698 HITS:     266859 MISSES:    2514839
L2C PREFETCH ACCESSES:   10136639 HITS:    1270890 MISSES:    8865749
L2C WRITEBACK ACCESSES:    3220647 HITS:    3218368 MISSES:       2279
L2C RQ ACCESS:    3338926
L2C RQ TO_CACHE:    3338897
L2C RQ MERGED:          0
L2C RQ FORWARD:          0
L2C WQ ACCESS:    3220648
L2C WQ TO_CACHE:    3220648
L2C WQ MERGED:          0
L2C WQ FORWARD:         49
LLC TOTAL     ACCESS:   14741974  HIT:    7450534  MISS:    7291440
LLC LOAD      ACCESS:     461714  HIT:     218968  MISS:     242746
LLC RFO       ACCESS:    2514820  HIT:    1821001  MISS:     693819
LLC PREFETCH  ACCESS:    8865192  HIT:    3257267  MISS:    5607925
LLC WRITEBACK ACCESS:    2900248  HIT:    2153298  MISS:     746950
LLC PREFETCH  REQUESTED:          0  ISSUED:          0  USEFUL:       3119  USELESS:    5608238
LLC TOTAL MSHR MERGED:          2
LLC LOAD MSHR MERGED:          0
LLC RFO MSHR MERGED:          0
LLC PREFETCH MSHR MERGED:          2
LLC WRITEBACK MSHR MERGED:          0
LLC TOTAL ACCESSES:   14742045 HITS:    7450602 MISSES:    7291443
LLC LOAD ACCESSES:     461717 HITS:     218971 MISSES:     242746
LLC RFO ACCESSES:    2514839 HITS:    1821020 MISSES:     693819
LLC PREFETCH ACCESSES:    8865241 HITS:    3257313 MISSES:    5607928
LLC WRITEBACK ACCESSES:    2900248 HITS:    2153298 MISSES:     746950
LLC 0 RQ ACCESS:    2976556
LLC 0 RQ TO_CACHE:    2976534
LLC 0 RQ MERGED:          0
LLC 0 RQ FORWARD:          0
LLC WQ ACCESS:    2900248
LLC WQ TO_CACHE:    2900248
LLC WQ MERGED:          0
LLC WQ FORWARD:         68
Major fault: 0 Minor fault: 57518
CPU 0 L1D next line prefetcher final stats
CPU 0 L2C PC-based stride prefetcher final stats
All Misses: 7886461
All Hits: 8351694
SD Algo Stats - Switches: 0 SRR-Repls: 249237 BRR-Repls: 0

DRAM Statistics
 CHANNEL 0
 RQ ROW_BUFFER_HIT:    3702233  ROW_BUFFER_MISS:    2839010
 DBUS_CONGESTED:    3034789
 WQ ROW_BUFFER_HIT:      92756  ROW_BUFFER_MISS:     868404  FULL:          0

 AVG_CONGESTED_CYCLE: 12
LOADS RETIRED: 157818985
INSTR RETIRED: 500000000
