
*** ChampSim Multicore Out-of-Order Simulator ***

Warmup Instructions: 100000000
Simulation Instructions: 500000000
Number of CPUs: 1
LLC sets: 2048
LLC ways: 16
Clean RRIP Policies: 2013230220132302 Dirty RRIP Policies: 1003130210031302 PSEL Width: 10 Track Set: 4294967295 PSEL Mask: 1 Demote Mask: 1040100410401004DS Algo: 0Window size: 0
Off-chip DRAM Size: 4096 MB Channels: 1 Width: 64-bit Data Rate: 1600 MT/s

CPU 0 runs /mnt/beegfs/iconst01/spec2017/Xz.trace.gz
NOT SORTED
TRACE STRING: /mnt/beegfs/iconst01/spec2017/Xz.trace.gz
SORTED
TRACE STRING: /mnt/beegfs/iconst01/spec2017/Xz.trace.gz
INITIAL
TRACE STRING: /mnt/beegfs/iconst01/spec2017/Xz.trace.gz

champsim_seed used: 210

CPU 0 L1D next line prefetcher
CPU 0 L2C IP-based stride prefetcher
Initialize DRRIP state
Assign rand_sets[0]: 454  LLC: 2048
rand_sets[0]: 454
Assign rand_sets[1]: 1662  LLC: 2048
rand_sets[1]: 1662
Assign rand_sets[2]: 1921  LLC: 2048
rand_sets[2]: 1921
Assign rand_sets[3]: 1131  LLC: 2048
rand_sets[3]: 1131
Assign rand_sets[4]: 331  LLC: 2048
rand_sets[4]: 331
Assign rand_sets[5]: 1531  LLC: 2048
rand_sets[5]: 1531
Assign rand_sets[6]: 482  LLC: 2048
rand_sets[6]: 482
Assign rand_sets[7]: 1275  LLC: 2048
rand_sets[7]: 1275
Assign rand_sets[8]: 1876  LLC: 2048
rand_sets[8]: 1876
Assign rand_sets[9]: 2038  LLC: 2048
rand_sets[9]: 2038
Assign rand_sets[10]: 701  LLC: 2048
rand_sets[10]: 701
Assign rand_sets[11]: 479  LLC: 2048
rand_sets[11]: 479
Assign rand_sets[12]: 892  LLC: 2048
rand_sets[12]: 892
Assign rand_sets[13]: 1820  LLC: 2048
rand_sets[13]: 1820
Assign rand_sets[14]: 1505  LLC: 2048
rand_sets[14]: 1505
Assign rand_sets[15]: 1159  LLC: 2048
rand_sets[15]: 1159
Assign rand_sets[16]: 513  LLC: 2048
rand_sets[16]: 513
Assign rand_sets[17]: 703  LLC: 2048
rand_sets[17]: 703
Assign rand_sets[18]: 561  LLC: 2048
rand_sets[18]: 561
Assign rand_sets[19]: 990  LLC: 2048
rand_sets[19]: 990
Assign rand_sets[20]: 342  LLC: 2048
rand_sets[20]: 342
Assign rand_sets[21]: 882  LLC: 2048
rand_sets[21]: 882
Assign rand_sets[22]: 15  LLC: 2048
rand_sets[22]: 15
Assign rand_sets[23]: 71  LLC: 2048
rand_sets[23]: 71
Assign rand_sets[24]: 1127  LLC: 2048
rand_sets[24]: 1127
Assign rand_sets[25]: 1382  LLC: 2048
rand_sets[25]: 1382
Assign rand_sets[26]: 647  LLC: 2048
rand_sets[26]: 647
Assign rand_sets[27]: 857  LLC: 2048
rand_sets[27]: 857
Assign rand_sets[28]: 1450  LLC: 2048
rand_sets[28]: 1450
Assign rand_sets[29]: 1160  LLC: 2048
rand_sets[29]: 1160
Assign rand_sets[30]: 1852  LLC: 2048
rand_sets[30]: 1852
Assign rand_sets[31]: 1881  LLC: 2048
rand_sets[31]: 1881
Assign rand_sets[32]: 1770  LLC: 2048
rand_sets[32]: 1770
Assign rand_sets[33]: 1622  LLC: 2048
rand_sets[33]: 1622
Assign rand_sets[34]: 275  LLC: 2048
rand_sets[34]: 275
Assign rand_sets[35]: 635  LLC: 2048
rand_sets[35]: 635
Assign rand_sets[36]: 466  LLC: 2048
rand_sets[36]: 466
Assign rand_sets[37]: 1413  LLC: 2048
rand_sets[37]: 1413
Assign rand_sets[38]: 417  LLC: 2048
rand_sets[38]: 417
Assign rand_sets[39]: 472  LLC: 2048
rand_sets[39]: 472
Assign rand_sets[40]: 1340  LLC: 2048
rand_sets[40]: 1340
Assign rand_sets[41]: 852  LLC: 2048
rand_sets[41]: 852
Assign rand_sets[42]: 1365  LLC: 2048
rand_sets[42]: 1365
Assign rand_sets[43]: 47  LLC: 2048
rand_sets[43]: 47
Assign rand_sets[44]: 823  LLC: 2048
rand_sets[44]: 823
Assign rand_sets[45]: 686  LLC: 2048
rand_sets[45]: 686
Assign rand_sets[46]: 1637  LLC: 2048
rand_sets[46]: 1637
Assign rand_sets[47]: 1115  LLC: 2048
rand_sets[47]: 1115
Assign rand_sets[48]: 986  LLC: 2048
rand_sets[48]: 986
Assign rand_sets[49]: 258  LLC: 2048
rand_sets[49]: 258
Assign rand_sets[50]: 633  LLC: 2048
rand_sets[50]: 633
Assign rand_sets[51]: 920  LLC: 2048
rand_sets[51]: 920
Assign rand_sets[52]: 204  LLC: 2048
rand_sets[52]: 204
Assign rand_sets[53]: 227  LLC: 2048
rand_sets[53]: 227
Assign rand_sets[54]: 1818  LLC: 2048
rand_sets[54]: 1818
Assign rand_sets[55]: 886  LLC: 2048
rand_sets[55]: 886
Assign rand_sets[56]: 1422  LLC: 2048
rand_sets[56]: 1422
Assign rand_sets[57]: 607  LLC: 2048
rand_sets[57]: 607
Assign rand_sets[58]: 217  LLC: 2048
rand_sets[58]: 217
Assign rand_sets[59]: 1945  LLC: 2048
rand_sets[59]: 1945
Assign rand_sets[60]: 143  LLC: 2048
rand_sets[60]: 143
Assign rand_sets[61]: 1311  LLC: 2048
rand_sets[61]: 1311
Assign rand_sets[62]: 319  LLC: 2048
rand_sets[62]: 319
Assign rand_sets[63]: 1846  LLC: 2048
rand_sets[63]: 1846
 CLEAN-RRIP-POLICY-1: 2-0-1-3-2-3-0-2- CLEAN-RRIP-POLICY-2: 2-0-1-3-2-3-0-2-
 DIRTY-RRIP-POLICY-1: 1-0-0-3-1-3-0-2- DIRTY-RRIP-POLICY-2: 1-0-0-3-1-3-0-2-
 PSEL width: 10
Heartbeat CPU 0 instructions: 10000000 cycles: 4305270 heartbeat IPC: 2.32273 cumulative IPC: 2.32273 (Simulation time: 0 hr 0 min 12 sec) 
Heartbeat CPU 0 instructions: 20000000 cycles: 8617101 heartbeat IPC: 2.3192 cumulative IPC: 2.32097 (Simulation time: 0 hr 0 min 24 sec) 
Heartbeat CPU 0 instructions: 30000003 cycles: 13160976 heartbeat IPC: 2.20077 cumulative IPC: 2.27947 (Simulation time: 0 hr 0 min 36 sec) 
Heartbeat CPU 0 instructions: 40000000 cycles: 17515449 heartbeat IPC: 2.29649 cumulative IPC: 2.2837 (Simulation time: 0 hr 0 min 48 sec) 
Heartbeat CPU 0 instructions: 50000001 cycles: 21878235 heartbeat IPC: 2.29211 cumulative IPC: 2.28538 (Simulation time: 0 hr 1 min 0 sec) 
Heartbeat CPU 0 instructions: 60000000 cycles: 26178406 heartbeat IPC: 2.32549 cumulative IPC: 2.29197 (Simulation time: 0 hr 1 min 12 sec) 
Heartbeat CPU 0 instructions: 70000001 cycles: 30244267 heartbeat IPC: 2.4595 cumulative IPC: 2.31449 (Simulation time: 0 hr 1 min 23 sec) 
Heartbeat CPU 0 instructions: 80000000 cycles: 34523009 heartbeat IPC: 2.33714 cumulative IPC: 2.3173 (Simulation time: 0 hr 1 min 34 sec) 
Heartbeat CPU 0 instructions: 90000001 cycles: 38739601 heartbeat IPC: 2.37158 cumulative IPC: 2.3232 (Simulation time: 0 hr 1 min 45 sec) 
Heartbeat CPU 0 instructions: 100000000 cycles: 42979951 heartbeat IPC: 2.3583 cumulative IPC: 2.32667 (Simulation time: 0 hr 1 min 57 sec) 

Warmup complete CPU 0 instructions: 100000001 cycles: 42979952 (Simulation time: 0 hr 1 min 57 sec) 

Heartbeat CPU 0 instructions: 110000000 cycles: 53091966 heartbeat IPC: 0.988923 cumulative IPC: 0.988923 (Simulation time: 0 hr 2 min 14 sec) 
Heartbeat CPU 0 instructions: 120000000 cycles: 63691194 heartbeat IPC: 0.943465 cumulative IPC: 0.965659 (Simulation time: 0 hr 2 min 32 sec) 
Heartbeat CPU 0 instructions: 130000001 cycles: 74262603 heartbeat IPC: 0.945948 cumulative IPC: 0.958998 (Simulation time: 0 hr 2 min 49 sec) 
Heartbeat CPU 0 instructions: 140000000 cycles: 83936991 heartbeat IPC: 1.03366 cumulative IPC: 0.976633 (Simulation time: 0 hr 3 min 7 sec) 
Heartbeat CPU 0 instructions: 150000001 cycles: 94219315 heartbeat IPC: 0.972543 cumulative IPC: 0.975812 (Simulation time: 0 hr 3 min 24 sec) 
Heartbeat CPU 0 instructions: 160000000 cycles: 104254988 heartbeat IPC: 0.996445 cumulative IPC: 0.979192 (Simulation time: 0 hr 3 min 42 sec) 
Heartbeat CPU 0 instructions: 170000000 cycles: 113899622 heartbeat IPC: 1.03685 cumulative IPC: 0.987032 (Simulation time: 0 hr 3 min 59 sec) 
Heartbeat CPU 0 instructions: 180000000 cycles: 124421154 heartbeat IPC: 0.950432 cumulative IPC: 0.982304 (Simulation time: 0 hr 4 min 16 sec) 
Heartbeat CPU 0 instructions: 190000001 cycles: 134649936 heartbeat IPC: 0.977634 cumulative IPC: 0.981783 (Simulation time: 0 hr 4 min 34 sec) 
Heartbeat CPU 0 instructions: 200000000 cycles: 145193676 heartbeat IPC: 0.94843 cumulative IPC: 0.978342 (Simulation time: 0 hr 4 min 52 sec) 
Heartbeat CPU 0 instructions: 210000002 cycles: 157623855 heartbeat IPC: 0.804494 cumulative IPC: 0.959493 (Simulation time: 0 hr 5 min 10 sec) 
Heartbeat CPU 0 instructions: 220000000 cycles: 170129631 heartbeat IPC: 0.79963 cumulative IPC: 0.94377 (Simulation time: 0 hr 5 min 29 sec) 
Heartbeat CPU 0 instructions: 230000000 cycles: 182255370 heartbeat IPC: 0.824692 cumulative IPC: 0.933402 (Simulation time: 0 hr 5 min 48 sec) 
Heartbeat CPU 0 instructions: 240000000 cycles: 194335274 heartbeat IPC: 0.827821 cumulative IPC: 0.924976 (Simulation time: 0 hr 6 min 7 sec) 
Heartbeat CPU 0 instructions: 250000000 cycles: 206267874 heartbeat IPC: 0.83804 cumulative IPC: 0.918623 (Simulation time: 0 hr 6 min 25 sec) 
Heartbeat CPU 0 instructions: 260000000 cycles: 217784043 heartbeat IPC: 0.868344 cumulative IPC: 0.91531 (Simulation time: 0 hr 6 min 44 sec) 
Heartbeat CPU 0 instructions: 270000003 cycles: 229608240 heartbeat IPC: 0.845724 cumulative IPC: 0.910902 (Simulation time: 0 hr 7 min 2 sec) 
Heartbeat CPU 0 instructions: 280000000 cycles: 241111521 heartbeat IPC: 0.869317 cumulative IPC: 0.908487 (Simulation time: 0 hr 7 min 21 sec) 
Heartbeat CPU 0 instructions: 290000002 cycles: 252578556 heartbeat IPC: 0.872065 cumulative IPC: 0.906495 (Simulation time: 0 hr 7 min 39 sec) 
Heartbeat CPU 0 instructions: 300000000 cycles: 264974020 heartbeat IPC: 0.806747 cumulative IPC: 0.900925 (Simulation time: 0 hr 7 min 58 sec) 
Heartbeat CPU 0 instructions: 310000000 cycles: 277079325 heartbeat IPC: 0.826084 cumulative IPC: 0.897055 (Simulation time: 0 hr 8 min 17 sec) 
Heartbeat CPU 0 instructions: 320000000 cycles: 289674197 heartbeat IPC: 0.793974 cumulative IPC: 0.891792 (Simulation time: 0 hr 8 min 36 sec) 
Heartbeat CPU 0 instructions: 330000003 cycles: 301565490 heartbeat IPC: 0.840952 cumulative IPC: 0.889454 (Simulation time: 0 hr 8 min 54 sec) 
Heartbeat CPU 0 instructions: 340000000 cycles: 313624871 heartbeat IPC: 0.82923 cumulative IPC: 0.886771 (Simulation time: 0 hr 9 min 13 sec) 
Heartbeat CPU 0 instructions: 350000001 cycles: 324589232 heartbeat IPC: 0.912046 cumulative IPC: 0.887755 (Simulation time: 0 hr 9 min 31 sec) 
Heartbeat CPU 0 instructions: 360000000 cycles: 336342582 heartbeat IPC: 0.850821 cumulative IPC: 0.886275 (Simulation time: 0 hr 9 min 49 sec) 
Heartbeat CPU 0 instructions: 370000001 cycles: 347738066 heartbeat IPC: 0.877541 cumulative IPC: 0.885949 (Simulation time: 0 hr 10 min 8 sec) 
Heartbeat CPU 0 instructions: 380000000 cycles: 358719138 heartbeat IPC: 0.910658 cumulative IPC: 0.886808 (Simulation time: 0 hr 10 min 26 sec) 
Heartbeat CPU 0 instructions: 390000003 cycles: 369315772 heartbeat IPC: 0.943696 cumulative IPC: 0.888655 (Simulation time: 0 hr 10 min 44 sec) 
Heartbeat CPU 0 instructions: 400000000 cycles: 379519968 heartbeat IPC: 0.979989 cumulative IPC: 0.891424 (Simulation time: 0 hr 11 min 2 sec) 
Heartbeat CPU 0 instructions: 410000000 cycles: 390016300 heartbeat IPC: 0.952714 cumulative IPC: 0.893278 (Simulation time: 0 hr 11 min 20 sec) 
Heartbeat CPU 0 instructions: 420000000 cycles: 399394766 heartbeat IPC: 1.06627 cumulative IPC: 0.89783 (Simulation time: 0 hr 11 min 37 sec) 
Heartbeat CPU 0 instructions: 430000002 cycles: 408480469 heartbeat IPC: 1.10063 cumulative IPC: 0.902871 (Simulation time: 0 hr 11 min 54 sec) 
Heartbeat CPU 0 instructions: 440000000 cycles: 418714733 heartbeat IPC: 0.97711 cumulative IPC: 0.904894 (Simulation time: 0 hr 12 min 12 sec) 
Heartbeat CPU 0 instructions: 450000002 cycles: 429760834 heartbeat IPC: 0.905297 cumulative IPC: 0.904905 (Simulation time: 0 hr 12 min 30 sec) 
Heartbeat CPU 0 instructions: 460000000 cycles: 441273929 heartbeat IPC: 0.868576 cumulative IPC: 0.903855 (Simulation time: 0 hr 12 min 48 sec) 
Heartbeat CPU 0 instructions: 470000003 cycles: 451453084 heartbeat IPC: 0.9824 cumulative IPC: 0.905812 (Simulation time: 0 hr 13 min 5 sec) 
Heartbeat CPU 0 instructions: 480000000 cycles: 461964952 heartbeat IPC: 0.951305 cumulative IPC: 0.906954 (Simulation time: 0 hr 13 min 23 sec) 
Heartbeat CPU 0 instructions: 490000000 cycles: 471905740 heartbeat IPC: 1.00596 cumulative IPC: 0.909248 (Simulation time: 0 hr 13 min 40 sec) 
Heartbeat CPU 0 instructions: 500000000 cycles: 483654250 heartbeat IPC: 0.851172 cumulative IPC: 0.9077 (Simulation time: 0 hr 13 min 59 sec) 
Heartbeat CPU 0 instructions: 510000002 cycles: 496051142 heartbeat IPC: 0.806654 cumulative IPC: 0.904935 (Simulation time: 0 hr 14 min 17 sec) 
Heartbeat CPU 0 instructions: 520000000 cycles: 507893738 heartbeat IPC: 0.844409 cumulative IPC: 0.903393 (Simulation time: 0 hr 14 min 36 sec) 
Heartbeat CPU 0 instructions: 530000001 cycles: 519703682 heartbeat IPC: 0.846744 cumulative IPC: 0.90199 (Simulation time: 0 hr 14 min 54 sec) 
Heartbeat CPU 0 instructions: 540000000 cycles: 531271046 heartbeat IPC: 0.864501 cumulative IPC: 0.901102 (Simulation time: 0 hr 15 min 12 sec) 
Heartbeat CPU 0 instructions: 550000001 cycles: 542616551 heartbeat IPC: 0.881406 cumulative IPC: 0.900655 (Simulation time: 0 hr 15 min 30 sec) 
Heartbeat CPU 0 instructions: 560000000 cycles: 554131266 heartbeat IPC: 0.868454 cumulative IPC: 0.899929 (Simulation time: 0 hr 15 min 48 sec) 
Heartbeat CPU 0 instructions: 570000000 cycles: 565504884 heartbeat IPC: 0.879228 cumulative IPC: 0.899479 (Simulation time: 0 hr 16 min 6 sec) 
Heartbeat CPU 0 instructions: 580000000 cycles: 576242597 heartbeat IPC: 0.931297 cumulative IPC: 0.900119 (Simulation time: 0 hr 16 min 23 sec) 
Heartbeat CPU 0 instructions: 590000003 cycles: 587593123 heartbeat IPC: 0.881017 cumulative IPC: 0.899721 (Simulation time: 0 hr 16 min 41 sec) 
Heartbeat CPU 0 instructions: 600000000 cycles: 598149580 heartbeat IPC: 0.947287 cumulative IPC: 0.900626 (Simulation time: 0 hr 16 min 59 sec) 
Finished CPU 0 instructions: 500000001 cycles: 555169636 cumulative IPC: 0.900626 (Simulation time: 0 hr 16 min 59 sec) 

CPU 0 Branch Prediction Accuracy: 93.0095% MPKI: 10.0046
Number of Branches: 71558147 Number of Mispredictions: 5002285
Number of LOAD Instructions: 145708893
Number of LOAD Instructions (ROI): 145708893
Number of STORE Instructions: 40463820
Number of STORE Instructions (ROI): 40463820
Total Destination Memory Operands: 45240498
Total Destination Memory Operands (ROI): 45240498
Total Source Memory Operands: 145708893
Total Source Memory Operands (ROI): 145708893
Number of DEPENDED LOADS: 10672872
Number of DEPENDED LOADS (ROI): 10672872
Number of SQ_ADDED: 45240498
Number of SQ_ADDED (ROI): 45240498
Number of LQ_ADDED: 193323491
Number of LQ_ADDED (ROI): 193323491
Number of Instructions read from trace: 600000002

ChampSim completed all CPUs

Region of Interest Statistics

CPU 0 cumulative IPC: 0.900626 instructions: 500000001 cycles: 555169636
ITLB TOTAL     ACCESS:   77992497  HIT:   77992496  MISS:          1
ITLB LOAD      ACCESS:   77992497  HIT:   77992496  MISS:          1
ITLB RFO       ACCESS:          0  HIT:          0  MISS:          0
ITLB PREFETCH  ACCESS:          0  HIT:          0  MISS:          0
ITLB WRITEBACK ACCESS:          0  HIT:          0  MISS:          0
ITLB PREFETCH  REQUESTED:          0  ISSUED:          0  USEFUL:          0  USELESS:          0
ITLB TOTAL MSHR MERGED:          0
ITLB LOAD MSHR MERGED:          0
ITLB RFO MSHR MERGED:          0
ITLB PREFETCH MSHR MERGED:          0
ITLB WRITEBACK MSHR MERGED:          0
ITLB TOTAL ACCESSES:   77992497 HITS:   77992496 MISSES:          1
ITLB LOAD ACCESSES:   77992497 HITS:   77992496 MISSES:          1
ITLB RFO ACCESSES:          0 HITS:          0 MISSES:          0
ITLB PREFETCH ACCESSES:          0 HITS:          0 MISSES:          0
ITLB WRITEBACK ACCESSES:          0 HITS:          0 MISSES:          0
ITLB RQ ACCESS:  499999995
ITLB RQ TO_CACHE:   77992497
ITLB RQ MERGED:  422007498
ITLB RQ FORWARD:          0
ITLB WQ ACCESS:          0
ITLB WQ TO_CACHE:          0
ITLB WQ MERGED:          0
ITLB WQ FORWARD:          0
DTLB TOTAL     ACCESS:   98670255  HIT:   97788919  MISS:     881336
DTLB LOAD      ACCESS:   70890252  HIT:   70028719  MISS:     861533
DTLB RFO       ACCESS:   27780003  HIT:   27760200  MISS:      19803
DTLB PREFETCH  ACCESS:          0  HIT:          0  MISS:          0
DTLB WRITEBACK ACCESS:          0  HIT:          0  MISS:          0
DTLB PREFETCH  REQUESTED:          0  ISSUED:          0  USEFUL:          0  USELESS:          0
DTLB TOTAL MSHR MERGED:      87426
DTLB LOAD MSHR MERGED:      65684
DTLB RFO MSHR MERGED:      21742
DTLB PREFETCH MSHR MERGED:          0
DTLB WRITEBACK MSHR MERGED:          0
DTLB TOTAL ACCESSES:   98757681 HITS:   97788919 MISSES:     968762
DTLB LOAD ACCESSES:   70955936 HITS:   70028719 MISSES:     927217
DTLB RFO ACCESSES:   27801745 HITS:   27760200 MISSES:      41545
DTLB PREFETCH ACCESSES:          0 HITS:          0 MISSES:          0
DTLB WRITEBACK ACCESSES:          0 HITS:          0 MISSES:          0
DTLB RQ ACCESS:  150272184
DTLB RQ TO_CACHE:   98757681
DTLB RQ MERGED:   51514503
DTLB RQ FORWARD:          0
DTLB WQ ACCESS:          0
DTLB WQ TO_CACHE:          0
DTLB WQ MERGED:          0
DTLB WQ FORWARD:          0
L1D TOTAL     ACCESS:  173329380  HIT:  169160739  MISS:    4168641
L1D LOAD      ACCESS:   75280722  HIT:   73399383  MISS:    1881339
L1D RFO       ACCESS:   36778581  HIT:   36571983  MISS:     206598
L1D PREFETCH  ACCESS:   61270077  HIT:   59189373  MISS:    2080704
L1D WRITEBACK ACCESS:          0  HIT:          0  MISS:          0
L1D PREFETCH  REQUESTED:   75383766  ISSUED:   74819580  USEFUL:     415141  USELESS:    1665552
L1D TOTAL MSHR MERGED:     370926
L1D LOAD MSHR MERGED:     111809
L1D RFO MSHR MERGED:     132863
L1D PREFETCH MSHR MERGED:     126254
L1D WRITEBACK MSHR MERGED:          0
L1D TOTAL ACCESSES:  173851872 HITS:  169312305 MISSES:    4539567
L1D LOAD ACCESSES:   75386758 HITS:   73402375 MISSES:    1984383
L1D RFO ACCESSES:   36910057 HITS:   36571983 MISSES:     338074
L1D PREFETCH ACCESSES:   61555057 HITS:   59337947 MISSES:    2217110
L1D WRITEBACK ACCESSES:          0 HITS:          0 MISSES:          0
L1D RQ ACCESS:  112609781
L1D RQ TO_CACHE:   75383766
L1D RQ MERGED:   37223023
L1D RQ FORWARD:          0
L1D WQ ACCESS:   37662403
L1D WQ TO_CACHE:   36910057
L1D WQ MERGED:     752346
L1D WQ FORWARD:     151566
L1I TOTAL     ACCESS:  100700406  HIT:  100700381  MISS:         25
L1I LOAD      ACCESS:  100700406  HIT:  100700381  MISS:         25
L1I RFO       ACCESS:          0  HIT:          0  MISS:          0
L1I PREFETCH  ACCESS:          0  HIT:          0  MISS:          0
L1I WRITEBACK ACCESS:          0  HIT:          0  MISS:          0
L1I PREFETCH  REQUESTED:          0  ISSUED:          0  USEFUL:          0  USELESS:          0
L1I TOTAL MSHR MERGED:         10
L1I LOAD MSHR MERGED:         10
L1I RFO MSHR MERGED:          0
L1I PREFETCH MSHR MERGED:          0
L1I WRITEBACK MSHR MERGED:          0
L1I TOTAL ACCESSES:  100700416 HITS:  100700381 MISSES:         35
L1I LOAD ACCESSES:  100700416 HITS:  100700381 MISSES:         35
L1I RFO ACCESSES:          0 HITS:          0 MISSES:          0
L1I PREFETCH ACCESSES:          0 HITS:          0 MISSES:          0
L1I WRITEBACK ACCESSES:          0 HITS:          0 MISSES:          0
L1I RQ ACCESS:  499999995
L1I RQ TO_CACHE:  100700416
L1I RQ MERGED:  399299579
L1I RQ FORWARD:          0
L1I WQ ACCESS:          0
L1I WQ TO_CACHE:          0
L1I WQ MERGED:          0
L1I WQ FORWARD:          0
L2C TOTAL     ACCESS:    5852619  HIT:    4009429  MISS:    1843190
L2C LOAD      ACCESS:    1872475  HIT:    1061521  MISS:     810954
L2C RFO       ACCESS:     205204  HIT:     100565  MISS:     104639
L2C PREFETCH  ACCESS:    2169303  HIT:    1246127  MISS:     923176
L2C WRITEBACK ACCESS:    1605637  HIT:    1601216  MISS:       4421
L2C PREFETCH  REQUESTED:      91709  ISSUED:      91709  USEFUL:      86463  USELESS:     836736
L2C TOTAL MSHR MERGED:        987
L2C LOAD MSHR MERGED:        246
L2C RFO MSHR MERGED:          0
L2C PREFETCH MSHR MERGED:        741
L2C WRITEBACK MSHR MERGED:          0
L2C TOTAL ACCESSES:    5853946 HITS:    4009597 MISSES:    1844349
L2C LOAD ACCESSES:    1872599 HITS:    1061645 MISSES:     810954
L2C RFO ACCESSES:     205211 HITS:     100572 MISSES:     104639
L2C PREFETCH ACCESSES:    2170499 HITS:    1246164 MISSES:     924335
L2C WRITEBACK ACCESSES:    1605637 HITS:    1601216 MISSES:       4421
L2C RQ ACCESS:    2077810
L2C RQ TO_CACHE:    2077679
L2C RQ MERGED:          0
L2C RQ FORWARD:          0
L2C WQ ACCESS:    1605637
L2C WQ TO_CACHE:    1605637
L2C WQ MERGED:          0
L2C WQ FORWARD:        168
LLC TOTAL     ACCESS:    2673584  HIT:    2213139  MISS:     460445
LLC LOAD      ACCESS:     810699  HIT:     647031  MISS:     163668
LLC RFO       ACCESS:     104639  HIT:      60905  MISS:      43734
LLC PREFETCH  ACCESS:     923571  HIT:     697578  MISS:     225993
LLC WRITEBACK ACCESS:     834675  HIT:     807625  MISS:      27050
LLC PREFETCH  REQUESTED:          0  ISSUED:          0  USEFUL:       6913  USELESS:     219233
LLC TOTAL MSHR MERGED:          6
LLC LOAD MSHR MERGED:          2
LLC RFO MSHR MERGED:          0
LLC PREFETCH MSHR MERGED:          4
LLC WRITEBACK MSHR MERGED:          0
LLC TOTAL ACCESSES:    2673601 HITS:    2213150 MISSES:     460451
LLC LOAD ACCESSES:     810708 HITS:     647040 MISSES:     163668
LLC RFO ACCESSES:     104639 HITS:      60905 MISSES:      43734
LLC PREFETCH ACCESSES:     923579 HITS:     697580 MISSES:     225999
LLC WRITEBACK ACCESSES:     834675 HITS:     807625 MISSES:      27050
LLC 0 RQ ACCESS:     915347
LLC 0 RQ TO_CACHE:     915338
LLC 0 RQ MERGED:          0
LLC 0 RQ FORWARD:          0
LLC WQ ACCESS:     834675
LLC WQ TO_CACHE:     834675
LLC WQ MERGED:          0
LLC WQ FORWARD:         11
Major fault: 0 Minor fault: 11278
CPU 0 L1D next line prefetcher final stats
CPU 0 L2C PC-based stride prefetcher final stats
All Misses: 570359
All Hits: 2484243
SD Algo Stats - Switches: 0 SRR-Repls: 196061 BRR-Repls: 0

DRAM Statistics
 CHANNEL 0
 RQ ROW_BUFFER_HIT:      28373  ROW_BUFFER_MISS:     404759
 DBUS_CONGESTED:     337204
 WQ ROW_BUFFER_HIT:      13513  ROW_BUFFER_MISS:     196117  FULL:          0

 AVG_CONGESTED_CYCLE: 13
LOADS RETIRED: 121769268
INSTR RETIRED: 500000000
