
*** ChampSim Multicore Out-of-Order Simulator ***

Warmup Instructions: 100000000
Simulation Instructions: 500000000
Number of CPUs: 1
LLC sets: 2048
LLC ways: 16
Clean RRIP Policies: 2213232222132322 Dirty RRIP Policies: 2203130222031302 PSEL Width: 10 Track Set: 4294967295 PSEL Mask: 1 Demote Mask: 4040100040401000DS Algo: 0Window size: 0
Off-chip DRAM Size: 4096 MB Channels: 1 Width: 64-bit Data Rate: 1600 MT/s

CPU 0 runs /mnt/beegfs/iconst01/spec2017/Cam4.trace.gz
NOT SORTED
TRACE STRING: /mnt/beegfs/iconst01/spec2017/Cam4.trace.gz
SORTED
TRACE STRING: /mnt/beegfs/iconst01/spec2017/Cam4.trace.gz
INITIAL
TRACE STRING: /mnt/beegfs/iconst01/spec2017/Cam4.trace.gz

champsim_seed used: 325

CPU 0 L1D next line prefetcher
CPU 0 L2C IP-based stride prefetcher
Initialize DRRIP state
Assign rand_sets[0]: 454  LLC: 2048
rand_sets[0]: 454
Assign rand_sets[1]: 1662  LLC: 2048
rand_sets[1]: 1662
Assign rand_sets[2]: 1921  LLC: 2048
rand_sets[2]: 1921
Assign rand_sets[3]: 1131  LLC: 2048
rand_sets[3]: 1131
Assign rand_sets[4]: 331  LLC: 2048
rand_sets[4]: 331
Assign rand_sets[5]: 1531  LLC: 2048
rand_sets[5]: 1531
Assign rand_sets[6]: 482  LLC: 2048
rand_sets[6]: 482
Assign rand_sets[7]: 1275  LLC: 2048
rand_sets[7]: 1275
Assign rand_sets[8]: 1876  LLC: 2048
rand_sets[8]: 1876
Assign rand_sets[9]: 2038  LLC: 2048
rand_sets[9]: 2038
Assign rand_sets[10]: 701  LLC: 2048
rand_sets[10]: 701
Assign rand_sets[11]: 479  LLC: 2048
rand_sets[11]: 479
Assign rand_sets[12]: 892  LLC: 2048
rand_sets[12]: 892
Assign rand_sets[13]: 1820  LLC: 2048
rand_sets[13]: 1820
Assign rand_sets[14]: 1505  LLC: 2048
rand_sets[14]: 1505
Assign rand_sets[15]: 1159  LLC: 2048
rand_sets[15]: 1159
Assign rand_sets[16]: 513  LLC: 2048
rand_sets[16]: 513
Assign rand_sets[17]: 703  LLC: 2048
rand_sets[17]: 703
Assign rand_sets[18]: 561  LLC: 2048
rand_sets[18]: 561
Assign rand_sets[19]: 990  LLC: 2048
rand_sets[19]: 990
Assign rand_sets[20]: 342  LLC: 2048
rand_sets[20]: 342
Assign rand_sets[21]: 882  LLC: 2048
rand_sets[21]: 882
Assign rand_sets[22]: 15  LLC: 2048
rand_sets[22]: 15
Assign rand_sets[23]: 71  LLC: 2048
rand_sets[23]: 71
Assign rand_sets[24]: 1127  LLC: 2048
rand_sets[24]: 1127
Assign rand_sets[25]: 1382  LLC: 2048
rand_sets[25]: 1382
Assign rand_sets[26]: 647  LLC: 2048
rand_sets[26]: 647
Assign rand_sets[27]: 857  LLC: 2048
rand_sets[27]: 857
Assign rand_sets[28]: 1450  LLC: 2048
rand_sets[28]: 1450
Assign rand_sets[29]: 1160  LLC: 2048
rand_sets[29]: 1160
Assign rand_sets[30]: 1852  LLC: 2048
rand_sets[30]: 1852
Assign rand_sets[31]: 1881  LLC: 2048
rand_sets[31]: 1881
Assign rand_sets[32]: 1770  LLC: 2048
rand_sets[32]: 1770
Assign rand_sets[33]: 1622  LLC: 2048
rand_sets[33]: 1622
Assign rand_sets[34]: 275  LLC: 2048
rand_sets[34]: 275
Assign rand_sets[35]: 635  LLC: 2048
rand_sets[35]: 635
Assign rand_sets[36]: 466  LLC: 2048
rand_sets[36]: 466
Assign rand_sets[37]: 1413  LLC: 2048
rand_sets[37]: 1413
Assign rand_sets[38]: 417  LLC: 2048
rand_sets[38]: 417
Assign rand_sets[39]: 472  LLC: 2048
rand_sets[39]: 472
Assign rand_sets[40]: 1340  LLC: 2048
rand_sets[40]: 1340
Assign rand_sets[41]: 852  LLC: 2048
rand_sets[41]: 852
Assign rand_sets[42]: 1365  LLC: 2048
rand_sets[42]: 1365
Assign rand_sets[43]: 47  LLC: 2048
rand_sets[43]: 47
Assign rand_sets[44]: 823  LLC: 2048
rand_sets[44]: 823
Assign rand_sets[45]: 686  LLC: 2048
rand_sets[45]: 686
Assign rand_sets[46]: 1637  LLC: 2048
rand_sets[46]: 1637
Assign rand_sets[47]: 1115  LLC: 2048
rand_sets[47]: 1115
Assign rand_sets[48]: 986  LLC: 2048
rand_sets[48]: 986
Assign rand_sets[49]: 258  LLC: 2048
rand_sets[49]: 258
Assign rand_sets[50]: 633  LLC: 2048
rand_sets[50]: 633
Assign rand_sets[51]: 920  LLC: 2048
rand_sets[51]: 920
Assign rand_sets[52]: 204  LLC: 2048
rand_sets[52]: 204
Assign rand_sets[53]: 227  LLC: 2048
rand_sets[53]: 227
Assign rand_sets[54]: 1818  LLC: 2048
rand_sets[54]: 1818
Assign rand_sets[55]: 886  LLC: 2048
rand_sets[55]: 886
Assign rand_sets[56]: 1422  LLC: 2048
rand_sets[56]: 1422
Assign rand_sets[57]: 607  LLC: 2048
rand_sets[57]: 607
Assign rand_sets[58]: 217  LLC: 2048
rand_sets[58]: 217
Assign rand_sets[59]: 1945  LLC: 2048
rand_sets[59]: 1945
Assign rand_sets[60]: 143  LLC: 2048
rand_sets[60]: 143
Assign rand_sets[61]: 1311  LLC: 2048
rand_sets[61]: 1311
Assign rand_sets[62]: 319  LLC: 2048
rand_sets[62]: 319
Assign rand_sets[63]: 1846  LLC: 2048
rand_sets[63]: 1846
 CLEAN-RRIP-POLICY-1: 2-2-1-3-2-3-2-2- CLEAN-RRIP-POLICY-2: 2-2-1-3-2-3-2-2-
 DIRTY-RRIP-POLICY-1: 2-2-0-3-1-3-0-2- DIRTY-RRIP-POLICY-2: 2-2-0-3-1-3-0-2-
 PSEL width: 10
Heartbeat CPU 0 instructions: 10000000 cycles: 4859184 heartbeat IPC: 2.05796 cumulative IPC: 2.05796 (Simulation time: 0 hr 0 min 17 sec) 
Heartbeat CPU 0 instructions: 20000000 cycles: 9790786 heartbeat IPC: 2.02774 cumulative IPC: 2.04274 (Simulation time: 0 hr 0 min 33 sec) 
Heartbeat CPU 0 instructions: 30000001 cycles: 14563060 heartbeat IPC: 2.09544 cumulative IPC: 2.06001 (Simulation time: 0 hr 0 min 49 sec) 
Heartbeat CPU 0 instructions: 40000000 cycles: 19400072 heartbeat IPC: 2.06739 cumulative IPC: 2.06185 (Simulation time: 0 hr 1 min 6 sec) 
Heartbeat CPU 0 instructions: 50000000 cycles: 24256653 heartbeat IPC: 2.05906 cumulative IPC: 2.06129 (Simulation time: 0 hr 1 min 23 sec) 
Heartbeat CPU 0 instructions: 60000000 cycles: 29182183 heartbeat IPC: 2.03024 cumulative IPC: 2.05605 (Simulation time: 0 hr 1 min 40 sec) 
Heartbeat CPU 0 instructions: 70000001 cycles: 33957386 heartbeat IPC: 2.09415 cumulative IPC: 2.06141 (Simulation time: 0 hr 1 min 55 sec) 
Heartbeat CPU 0 instructions: 80000000 cycles: 38793683 heartbeat IPC: 2.0677 cumulative IPC: 2.06219 (Simulation time: 0 hr 2 min 13 sec) 
Heartbeat CPU 0 instructions: 90000002 cycles: 43647727 heartbeat IPC: 2.06014 cumulative IPC: 2.06196 (Simulation time: 0 hr 2 min 30 sec) 
Heartbeat CPU 0 instructions: 100000000 cycles: 48566611 heartbeat IPC: 2.03298 cumulative IPC: 2.05903 (Simulation time: 0 hr 2 min 47 sec) 

Warmup complete CPU 0 instructions: 100000001 cycles: 48566612 (Simulation time: 0 hr 2 min 47 sec) 

Heartbeat CPU 0 instructions: 110000000 cycles: 61715375 heartbeat IPC: 0.760528 cumulative IPC: 0.760528 (Simulation time: 0 hr 3 min 11 sec) 
Heartbeat CPU 0 instructions: 120000000 cycles: 75477317 heartbeat IPC: 0.726642 cumulative IPC: 0.743199 (Simulation time: 0 hr 3 min 36 sec) 
Heartbeat CPU 0 instructions: 130000000 cycles: 89230814 heartbeat IPC: 0.727088 cumulative IPC: 0.73775 (Simulation time: 0 hr 4 min 2 sec) 
Heartbeat CPU 0 instructions: 140000000 cycles: 103519333 heartbeat IPC: 0.699863 cumulative IPC: 0.727898 (Simulation time: 0 hr 4 min 28 sec) 
Heartbeat CPU 0 instructions: 150000003 cycles: 116754742 heartbeat IPC: 0.755549 cumulative IPC: 0.733265 (Simulation time: 0 hr 4 min 52 sec) 
Heartbeat CPU 0 instructions: 160000000 cycles: 130522845 heartbeat IPC: 0.726316 cumulative IPC: 0.732098 (Simulation time: 0 hr 5 min 18 sec) 
Heartbeat CPU 0 instructions: 170000001 cycles: 144313728 heartbeat IPC: 0.725117 cumulative IPC: 0.731093 (Simulation time: 0 hr 5 min 44 sec) 
Heartbeat CPU 0 instructions: 180000000 cycles: 158594469 heartbeat IPC: 0.700244 cumulative IPC: 0.727089 (Simulation time: 0 hr 6 min 10 sec) 
Heartbeat CPU 0 instructions: 190000003 cycles: 171806458 heartbeat IPC: 0.756889 cumulative IPC: 0.730283 (Simulation time: 0 hr 6 min 33 sec) 
Heartbeat CPU 0 instructions: 200000000 cycles: 185574568 heartbeat IPC: 0.726316 cumulative IPC: 0.729885 (Simulation time: 0 hr 6 min 59 sec) 
Heartbeat CPU 0 instructions: 210000002 cycles: 199370822 heartbeat IPC: 0.724835 cumulative IPC: 0.729423 (Simulation time: 0 hr 7 min 25 sec) 
Heartbeat CPU 0 instructions: 220000000 cycles: 213647116 heartbeat IPC: 0.700462 cumulative IPC: 0.726918 (Simulation time: 0 hr 7 min 51 sec) 
Heartbeat CPU 0 instructions: 230000001 cycles: 226815109 heartbeat IPC: 0.759417 cumulative IPC: 0.729319 (Simulation time: 0 hr 8 min 14 sec) 
Heartbeat CPU 0 instructions: 240000000 cycles: 240575049 heartbeat IPC: 0.726747 cumulative IPC: 0.729135 (Simulation time: 0 hr 8 min 40 sec) 
Heartbeat CPU 0 instructions: 250000001 cycles: 254315460 heartbeat IPC: 0.72778 cumulative IPC: 0.729044 (Simulation time: 0 hr 9 min 6 sec) 
Heartbeat CPU 0 instructions: 260000000 cycles: 268472435 heartbeat IPC: 0.706366 cumulative IPC: 0.727584 (Simulation time: 0 hr 9 min 32 sec) 
Heartbeat CPU 0 instructions: 270000003 cycles: 281765798 heartbeat IPC: 0.752255 cumulative IPC: 0.728991 (Simulation time: 0 hr 9 min 55 sec) 
Heartbeat CPU 0 instructions: 280000000 cycles: 295539699 heartbeat IPC: 0.726011 cumulative IPC: 0.728824 (Simulation time: 0 hr 10 min 21 sec) 
Heartbeat CPU 0 instructions: 290000001 cycles: 309326858 heartbeat IPC: 0.725313 cumulative IPC: 0.728639 (Simulation time: 0 hr 10 min 47 sec) 
Heartbeat CPU 0 instructions: 300000000 cycles: 323421515 heartbeat IPC: 0.709489 cumulative IPC: 0.727657 (Simulation time: 0 hr 11 min 13 sec) 
Heartbeat CPU 0 instructions: 310000000 cycles: 336726128 heartbeat IPC: 0.751619 cumulative IPC: 0.728763 (Simulation time: 0 hr 11 min 36 sec) 
Heartbeat CPU 0 instructions: 320000000 cycles: 350549047 heartbeat IPC: 0.723436 cumulative IPC: 0.728519 (Simulation time: 0 hr 12 min 2 sec) 
Heartbeat CPU 0 instructions: 330000000 cycles: 364354614 heartbeat IPC: 0.724346 cumulative IPC: 0.728337 (Simulation time: 0 hr 12 min 28 sec) 
Heartbeat CPU 0 instructions: 340000000 cycles: 378420686 heartbeat IPC: 0.710931 cumulative IPC: 0.727594 (Simulation time: 0 hr 12 min 53 sec) 
Heartbeat CPU 0 instructions: 350000000 cycles: 391758510 heartbeat IPC: 0.749748 cumulative IPC: 0.728455 (Simulation time: 0 hr 13 min 16 sec) 
Heartbeat CPU 0 instructions: 360000000 cycles: 405610074 heartbeat IPC: 0.72194 cumulative IPC: 0.728203 (Simulation time: 0 hr 13 min 42 sec) 
Heartbeat CPU 0 instructions: 370000003 cycles: 419416604 heartbeat IPC: 0.724295 cumulative IPC: 0.728057 (Simulation time: 0 hr 14 min 7 sec) 
Heartbeat CPU 0 instructions: 380000000 cycles: 433443617 heartbeat IPC: 0.71291 cumulative IPC: 0.727505 (Simulation time: 0 hr 14 min 33 sec) 
Heartbeat CPU 0 instructions: 390000003 cycles: 446786010 heartbeat IPC: 0.749491 cumulative IPC: 0.728242 (Simulation time: 0 hr 14 min 56 sec) 
Heartbeat CPU 0 instructions: 400000000 cycles: 460629075 heartbeat IPC: 0.722383 cumulative IPC: 0.728045 (Simulation time: 0 hr 15 min 21 sec) 
Heartbeat CPU 0 instructions: 410000000 cycles: 474405528 heartbeat IPC: 0.725876 cumulative IPC: 0.727975 (Simulation time: 0 hr 15 min 46 sec) 
Heartbeat CPU 0 instructions: 420000000 cycles: 488423377 heartbeat IPC: 0.713376 cumulative IPC: 0.72751 (Simulation time: 0 hr 16 min 12 sec) 
Heartbeat CPU 0 instructions: 430000003 cycles: 501794424 heartbeat IPC: 0.747885 cumulative IPC: 0.728111 (Simulation time: 0 hr 16 min 34 sec) 
Heartbeat CPU 0 instructions: 440000000 cycles: 515635501 heartbeat IPC: 0.722487 cumulative IPC: 0.727944 (Simulation time: 0 hr 17 min 0 sec) 
Heartbeat CPU 0 instructions: 450000000 cycles: 529433829 heartbeat IPC: 0.724725 cumulative IPC: 0.727852 (Simulation time: 0 hr 17 min 24 sec) 
Heartbeat CPU 0 instructions: 460000000 cycles: 543433392 heartbeat IPC: 0.714308 cumulative IPC: 0.727468 (Simulation time: 0 hr 17 min 49 sec) 
Heartbeat CPU 0 instructions: 470000001 cycles: 556778056 heartbeat IPC: 0.749363 cumulative IPC: 0.728043 (Simulation time: 0 hr 18 min 12 sec) 
Heartbeat CPU 0 instructions: 480000000 cycles: 570593563 heartbeat IPC: 0.723824 cumulative IPC: 0.727932 (Simulation time: 0 hr 18 min 37 sec) 
Heartbeat CPU 0 instructions: 490000002 cycles: 584361725 heartbeat IPC: 0.726314 cumulative IPC: 0.72789 (Simulation time: 0 hr 19 min 2 sec) 
Heartbeat CPU 0 instructions: 500000000 cycles: 598358493 heartbeat IPC: 0.71445 cumulative IPC: 0.727548 (Simulation time: 0 hr 19 min 27 sec) 
Heartbeat CPU 0 instructions: 510000002 cycles: 611782295 heartbeat IPC: 0.744946 cumulative IPC: 0.727963 (Simulation time: 0 hr 19 min 49 sec) 
Heartbeat CPU 0 instructions: 520000000 cycles: 625587032 heartbeat IPC: 0.724389 cumulative IPC: 0.727877 (Simulation time: 0 hr 20 min 14 sec) 
Heartbeat CPU 0 instructions: 530000003 cycles: 639337752 heartbeat IPC: 0.727235 cumulative IPC: 0.727862 (Simulation time: 0 hr 20 min 39 sec) 
Heartbeat CPU 0 instructions: 540000000 cycles: 653355222 heartbeat IPC: 0.713395 cumulative IPC: 0.727527 (Simulation time: 0 hr 21 min 4 sec) 
Heartbeat CPU 0 instructions: 550000003 cycles: 666775731 heartbeat IPC: 0.745128 cumulative IPC: 0.727909 (Simulation time: 0 hr 21 min 27 sec) 
Heartbeat CPU 0 instructions: 560000000 cycles: 680558608 heartbeat IPC: 0.725538 cumulative IPC: 0.727857 (Simulation time: 0 hr 21 min 51 sec) 
Heartbeat CPU 0 instructions: 570000001 cycles: 694336366 heartbeat IPC: 0.725808 cumulative IPC: 0.727814 (Simulation time: 0 hr 22 min 16 sec) 
Heartbeat CPU 0 instructions: 580000000 cycles: 708376299 heartbeat IPC: 0.712254 cumulative IPC: 0.727482 (Simulation time: 0 hr 22 min 41 sec) 
Heartbeat CPU 0 instructions: 590000000 cycles: 721743377 heartbeat IPC: 0.748107 cumulative IPC: 0.727892 (Simulation time: 0 hr 23 min 4 sec) 
Heartbeat CPU 0 instructions: 600000000 cycles: 735532240 heartbeat IPC: 0.725223 cumulative IPC: 0.727838 (Simulation time: 0 hr 23 min 29 sec) 
Finished CPU 0 instructions: 500000001 cycles: 686965636 cumulative IPC: 0.727838 (Simulation time: 0 hr 23 min 29 sec) 

CPU 0 Branch Prediction Accuracy: 97.5275% MPKI: 2.1997
Number of Branches: 44482865 Number of Mispredictions: 1099852
Number of LOAD Instructions: 144955155
Number of LOAD Instructions (ROI): 144955155
Number of STORE Instructions: 55921098
Number of STORE Instructions (ROI): 55921098
Total Destination Memory Operands: 57111147
Total Destination Memory Operands (ROI): 57111147
Total Source Memory Operands: 144955155
Total Source Memory Operands (ROI): 144955155
Number of DEPENDED LOADS: 13454796
Number of DEPENDED LOADS (ROI): 13454796
Number of SQ_ADDED: 57111126
Number of SQ_ADDED (ROI): 57111126
Number of LQ_ADDED: 174280013
Number of LQ_ADDED (ROI): 174280013
Number of Instructions read from trace: 600000256

ChampSim completed all CPUs

Region of Interest Statistics

CPU 0 cumulative IPC: 0.727838 instructions: 500000001 cycles: 686965636
ITLB TOTAL     ACCESS:  136068609  HIT:  136066056  MISS:       2553
ITLB LOAD      ACCESS:  136068609  HIT:  136066056  MISS:       2553
ITLB RFO       ACCESS:          0  HIT:          0  MISS:          0
ITLB PREFETCH  ACCESS:          0  HIT:          0  MISS:          0
ITLB WRITEBACK ACCESS:          0  HIT:          0  MISS:          0
ITLB PREFETCH  REQUESTED:          0  ISSUED:          0  USEFUL:          0  USELESS:          0
ITLB TOTAL MSHR MERGED:       4377
ITLB LOAD MSHR MERGED:       4377
ITLB RFO MSHR MERGED:          0
ITLB PREFETCH MSHR MERGED:          0
ITLB WRITEBACK MSHR MERGED:          0
ITLB TOTAL ACCESSES:  136072986 HITS:  136066056 MISSES:       6930
ITLB LOAD ACCESSES:  136072986 HITS:  136066056 MISSES:       6930
ITLB RFO ACCESSES:          0 HITS:          0 MISSES:          0
ITLB PREFETCH ACCESSES:          0 HITS:          0 MISSES:          0
ITLB WRITEBACK ACCESSES:          0 HITS:          0 MISSES:          0
ITLB RQ ACCESS:  500000202
ITLB RQ TO_CACHE:  136072986
ITLB RQ MERGED:  363927216
ITLB RQ FORWARD:          0
ITLB WQ ACCESS:          0
ITLB WQ TO_CACHE:          0
ITLB WQ MERGED:          0
ITLB WQ FORWARD:          0
DTLB TOTAL     ACCESS:  111551512  HIT:  111415316  MISS:     136196
DTLB LOAD      ACCESS:   78953286  HIT:   78827659  MISS:     125627
DTLB RFO       ACCESS:   32598226  HIT:   32587657  MISS:      10569
DTLB PREFETCH  ACCESS:          0  HIT:          0  MISS:          0
DTLB WRITEBACK ACCESS:          0  HIT:          0  MISS:          0
DTLB PREFETCH  REQUESTED:          0  ISSUED:          0  USEFUL:          0  USELESS:          0
DTLB TOTAL MSHR MERGED:      63439
DTLB LOAD MSHR MERGED:      50853
DTLB RFO MSHR MERGED:      12586
DTLB PREFETCH MSHR MERGED:          0
DTLB WRITEBACK MSHR MERGED:          0
DTLB TOTAL ACCESSES:  111614951 HITS:  111415316 MISSES:     199635
DTLB LOAD ACCESSES:   79004139 HITS:   78827659 MISSES:     176480
DTLB RFO ACCESSES:   32610812 HITS:   32587657 MISSES:      23155
DTLB PREFETCH ACCESSES:          0 HITS:          0 MISSES:          0
DTLB WRITEBACK ACCESSES:          0 HITS:          0 MISSES:          0
DTLB RQ ACCESS:  157180631
DTLB RQ TO_CACHE:  111614951
DTLB RQ MERGED:   45565680
DTLB RQ FORWARD:          0
DTLB WQ ACCESS:          0
DTLB WQ TO_CACHE:          0
DTLB WQ MERGED:          0
DTLB WQ FORWARD:          0
L1D TOTAL     ACCESS:  198243270  HIT:  188402180  MISS:    9841090
L1D LOAD      ACCESS:   79950868  HIT:   75689017  MISS:    4261851
L1D RFO       ACCESS:   44534407  HIT:   43634003  MISS:     900404
L1D PREFETCH  ACCESS:   73757995  HIT:   69079160  MISS:    4678835
L1D WRITEBACK ACCESS:          0  HIT:          0  MISS:          0
L1D PREFETCH  REQUESTED:   80348309  ISSUED:   79892640  USEFUL:    1820548  USELESS:    2858196
L1D TOTAL MSHR MERGED:    2491101
L1D LOAD MSHR MERGED:     520762
L1D RFO MSHR MERGED:    1418228
L1D PREFETCH MSHR MERGED:     552111
L1D WRITEBACK MSHR MERGED:          0
L1D TOTAL ACCESSES:  200755695 HITS:  188423504 MISSES:   12332191
L1D LOAD ACCESSES:   80361003 HITS:   75701711 MISSES:    4659292
L1D RFO ACCESSES:   45949594 HITS:   43634003 MISSES:    2315591
L1D PREFETCH ACCESSES:   74445098 HITS:   69087790 MISSES:    5357308
L1D WRITEBACK ACCESSES:          0 HITS:          0 MISSES:          0
L1D RQ ACCESS:  109538661
L1D RQ TO_CACHE:   80348309
L1D RQ MERGED:   29177658
L1D RQ FORWARD:          0
L1D WQ ACCESS:   47641970
L1D WQ TO_CACHE:   45949594
L1D WQ MERGED:    1692376
L1D WQ FORWARD:      21324
L1I TOTAL     ACCESS:  161538240  HIT:  161274274  MISS:     263966
L1I LOAD      ACCESS:  161538240  HIT:  161274274  MISS:     263966
L1I RFO       ACCESS:          0  HIT:          0  MISS:          0
L1I PREFETCH  ACCESS:          0  HIT:          0  MISS:          0
L1I WRITEBACK ACCESS:          0  HIT:          0  MISS:          0
L1I PREFETCH  REQUESTED:          0  ISSUED:          0  USEFUL:          0  USELESS:          0
L1I TOTAL MSHR MERGED:     261080
L1I LOAD MSHR MERGED:     261080
L1I RFO MSHR MERGED:          0
L1I PREFETCH MSHR MERGED:          0
L1I WRITEBACK MSHR MERGED:          0
L1I TOTAL ACCESSES:  161799320 HITS:  161274274 MISSES:     525046
L1I LOAD ACCESSES:  161799320 HITS:  161274274 MISSES:     525046
L1I RFO ACCESSES:          0 HITS:          0 MISSES:          0
L1I PREFETCH ACCESSES:          0 HITS:          0 MISSES:          0
L1I WRITEBACK ACCESSES:          0 HITS:          0 MISSES:          0
L1I RQ ACCESS:  500000202
L1I RQ TO_CACHE:  161799320
L1I RQ MERGED:  338200882
L1I RQ FORWARD:          0
L1I WQ ACCESS:          0
L1I WQ TO_CACHE:          0
L1I WQ MERGED:          0
L1I WQ FORWARD:          0
L2C TOTAL     ACCESS:   11771719  HIT:   10382413  MISS:    1389306
L2C LOAD      ACCESS:    4402430  HIT:    3905796  MISS:     496634
L2C RFO       ACCESS:     897298  HIT:     536271  MISS:     361027
L2C PREFETCH  ACCESS:    5284448  HIT:    4755750  MISS:     528698
L2C WRITEBACK ACCESS:    1187543  HIT:    1184596  MISS:       2947
L2C PREFETCH  REQUESTED:     504464  ISSUED:     504464  USEFUL:     114940  USELESS:     413950
L2C TOTAL MSHR MERGED:       1933
L2C LOAD MSHR MERGED:        398
L2C RFO MSHR MERGED:          0
L2C PREFETCH MSHR MERGED:       1535
L2C WRITEBACK MSHR MERGED:          0
L2C TOTAL ACCESSES:   11776422 HITS:   10382635 MISSES:    1393787
L2C LOAD ACCESSES:    4402496 HITS:    3905862 MISSES:     496634
L2C RFO ACCESSES:     897363 HITS:     536336 MISSES:     361027
L2C PREFETCH ACCESSES:    5289020 HITS:    4755841 MISSES:     533179
L2C WRITEBACK ACCESSES:    1187543 HITS:    1184596 MISSES:       2947
L2C RQ ACCESS:    5299859
L2C RQ TO_CACHE:    5299728
L2C RQ MERGED:          0
L2C RQ FORWARD:          0
L2C WQ ACCESS:    1187543
L2C WQ TO_CACHE:    1187543
L2C WQ MERGED:          0
L2C WQ FORWARD:        222
LLC TOTAL     ACCESS:    1849555  HIT:    1097401  MISS:     752154
LLC LOAD      ACCESS:     496234  HIT:     203220  MISS:     293014
LLC RFO       ACCESS:     361025  HIT:     231228  MISS:     129797
LLC PREFETCH  ACCESS:     531551  HIT:     313715  MISS:     217836
LLC WRITEBACK ACCESS:     460745  HIT:     349238  MISS:     111507
LLC PREFETCH  REQUESTED:          0  ISSUED:          0  USEFUL:       4352  USELESS:     213565
LLC TOTAL MSHR MERGED:         62
LLC LOAD MSHR MERGED:         30
LLC RFO MSHR MERGED:          0
LLC PREFETCH MSHR MERGED:         32
LLC WRITEBACK MSHR MERGED:          0
LLC TOTAL ACCESSES:    1849640 HITS:    1097424 MISSES:     752216
LLC LOAD ACCESSES:     496236 HITS:     203222 MISSES:     293014
LLC RFO ACCESSES:     361027 HITS:     231230 MISSES:     129797
LLC PREFETCH ACCESSES:     531632 HITS:     313734 MISSES:     217898
LLC WRITEBACK ACCESSES:     460745 HITS:     349238 MISSES:     111507
LLC 0 RQ ACCESS:     857263
LLC 0 RQ TO_CACHE:     857259
LLC 0 RQ MERGED:          0
LLC 0 RQ FORWARD:          0
LLC WQ ACCESS:     460745
LLC WQ TO_CACHE:     460745
LLC WQ MERGED:          0
LLC WQ FORWARD:         23
Major fault: 0 Minor fault: 3073
CPU 0 L1D next line prefetcher final stats
CPU 0 L2C PC-based stride prefetcher final stats
All Misses: 909765
All Hits: 1266482
SD Algo Stats - Switches: 0 SRR-Repls: 333641 BRR-Repls: 0

DRAM Statistics
 CHANNEL 0
 RQ ROW_BUFFER_HIT:     431828  ROW_BUFFER_MISS:     208636
 DBUS_CONGESTED:     473449
 WQ ROW_BUFFER_HIT:      17393  ROW_BUFFER_MISS:     119402  FULL:          0

 AVG_CONGESTED_CYCLE: 13
LOADS RETIRED: 120673965
INSTR RETIRED: 500000000
