
*** ChampSim Multicore Out-of-Order Simulator ***

Warmup Instructions: 100000000
Simulation Instructions: 500000000
Number of CPUs: 1
LLC sets: 2048
LLC ways: 16
Clean RRIP Policies: 2213232222132322 Dirty RRIP Policies: 2203130222031302 PSEL Width: 10 Track Set: 4294967295 PSEL Mask: 1 Demote Mask: 4040100040401000DS Algo: 0Window size: 0
Off-chip DRAM Size: 4096 MB Channels: 1 Width: 64-bit Data Rate: 1600 MT/s

CPU 0 runs /mnt/beegfs/iconst01/spec2017/Parest.trace.gz
NOT SORTED
TRACE STRING: /mnt/beegfs/iconst01/spec2017/Parest.trace.gz
SORTED
TRACE STRING: /mnt/beegfs/iconst01/spec2017/Parest.trace.gz
INITIAL
TRACE STRING: /mnt/beegfs/iconst01/spec2017/Parest.trace.gz

champsim_seed used: 623

CPU 0 L1D next line prefetcher
CPU 0 L2C IP-based stride prefetcher
Initialize DRRIP state
Assign rand_sets[0]: 454  LLC: 2048
rand_sets[0]: 454
Assign rand_sets[1]: 1662  LLC: 2048
rand_sets[1]: 1662
Assign rand_sets[2]: 1921  LLC: 2048
rand_sets[2]: 1921
Assign rand_sets[3]: 1131  LLC: 2048
rand_sets[3]: 1131
Assign rand_sets[4]: 331  LLC: 2048
rand_sets[4]: 331
Assign rand_sets[5]: 1531  LLC: 2048
rand_sets[5]: 1531
Assign rand_sets[6]: 482  LLC: 2048
rand_sets[6]: 482
Assign rand_sets[7]: 1275  LLC: 2048
rand_sets[7]: 1275
Assign rand_sets[8]: 1876  LLC: 2048
rand_sets[8]: 1876
Assign rand_sets[9]: 2038  LLC: 2048
rand_sets[9]: 2038
Assign rand_sets[10]: 701  LLC: 2048
rand_sets[10]: 701
Assign rand_sets[11]: 479  LLC: 2048
rand_sets[11]: 479
Assign rand_sets[12]: 892  LLC: 2048
rand_sets[12]: 892
Assign rand_sets[13]: 1820  LLC: 2048
rand_sets[13]: 1820
Assign rand_sets[14]: 1505  LLC: 2048
rand_sets[14]: 1505
Assign rand_sets[15]: 1159  LLC: 2048
rand_sets[15]: 1159
Assign rand_sets[16]: 513  LLC: 2048
rand_sets[16]: 513
Assign rand_sets[17]: 703  LLC: 2048
rand_sets[17]: 703
Assign rand_sets[18]: 561  LLC: 2048
rand_sets[18]: 561
Assign rand_sets[19]: 990  LLC: 2048
rand_sets[19]: 990
Assign rand_sets[20]: 342  LLC: 2048
rand_sets[20]: 342
Assign rand_sets[21]: 882  LLC: 2048
rand_sets[21]: 882
Assign rand_sets[22]: 15  LLC: 2048
rand_sets[22]: 15
Assign rand_sets[23]: 71  LLC: 2048
rand_sets[23]: 71
Assign rand_sets[24]: 1127  LLC: 2048
rand_sets[24]: 1127
Assign rand_sets[25]: 1382  LLC: 2048
rand_sets[25]: 1382
Assign rand_sets[26]: 647  LLC: 2048
rand_sets[26]: 647
Assign rand_sets[27]: 857  LLC: 2048
rand_sets[27]: 857
Assign rand_sets[28]: 1450  LLC: 2048
rand_sets[28]: 1450
Assign rand_sets[29]: 1160  LLC: 2048
rand_sets[29]: 1160
Assign rand_sets[30]: 1852  LLC: 2048
rand_sets[30]: 1852
Assign rand_sets[31]: 1881  LLC: 2048
rand_sets[31]: 1881
Assign rand_sets[32]: 1770  LLC: 2048
rand_sets[32]: 1770
Assign rand_sets[33]: 1622  LLC: 2048
rand_sets[33]: 1622
Assign rand_sets[34]: 275  LLC: 2048
rand_sets[34]: 275
Assign rand_sets[35]: 635  LLC: 2048
rand_sets[35]: 635
Assign rand_sets[36]: 466  LLC: 2048
rand_sets[36]: 466
Assign rand_sets[37]: 1413  LLC: 2048
rand_sets[37]: 1413
Assign rand_sets[38]: 417  LLC: 2048
rand_sets[38]: 417
Assign rand_sets[39]: 472  LLC: 2048
rand_sets[39]: 472
Assign rand_sets[40]: 1340  LLC: 2048
rand_sets[40]: 1340
Assign rand_sets[41]: 852  LLC: 2048
rand_sets[41]: 852
Assign rand_sets[42]: 1365  LLC: 2048
rand_sets[42]: 1365
Assign rand_sets[43]: 47  LLC: 2048
rand_sets[43]: 47
Assign rand_sets[44]: 823  LLC: 2048
rand_sets[44]: 823
Assign rand_sets[45]: 686  LLC: 2048
rand_sets[45]: 686
Assign rand_sets[46]: 1637  LLC: 2048
rand_sets[46]: 1637
Assign rand_sets[47]: 1115  LLC: 2048
rand_sets[47]: 1115
Assign rand_sets[48]: 986  LLC: 2048
rand_sets[48]: 986
Assign rand_sets[49]: 258  LLC: 2048
rand_sets[49]: 258
Assign rand_sets[50]: 633  LLC: 2048
rand_sets[50]: 633
Assign rand_sets[51]: 920  LLC: 2048
rand_sets[51]: 920
Assign rand_sets[52]: 204  LLC: 2048
rand_sets[52]: 204
Assign rand_sets[53]: 227  LLC: 2048
rand_sets[53]: 227
Assign rand_sets[54]: 1818  LLC: 2048
rand_sets[54]: 1818
Assign rand_sets[55]: 886  LLC: 2048
rand_sets[55]: 886
Assign rand_sets[56]: 1422  LLC: 2048
rand_sets[56]: 1422
Assign rand_sets[57]: 607  LLC: 2048
rand_sets[57]: 607
Assign rand_sets[58]: 217  LLC: 2048
rand_sets[58]: 217
Assign rand_sets[59]: 1945  LLC: 2048
rand_sets[59]: 1945
Assign rand_sets[60]: 143  LLC: 2048
rand_sets[60]: 143
Assign rand_sets[61]: 1311  LLC: 2048
rand_sets[61]: 1311
Assign rand_sets[62]: 319  LLC: 2048
rand_sets[62]: 319
Assign rand_sets[63]: 1846  LLC: 2048
rand_sets[63]: 1846
 CLEAN-RRIP-POLICY-1: 2-2-1-3-2-3-2-2- CLEAN-RRIP-POLICY-2: 2-2-1-3-2-3-2-2-
 DIRTY-RRIP-POLICY-1: 2-2-0-3-1-3-0-2- DIRTY-RRIP-POLICY-2: 2-2-0-3-1-3-0-2-
 PSEL width: 10
Heartbeat CPU 0 instructions: 10000001 cycles: 4387110 heartbeat IPC: 2.27941 cumulative IPC: 2.27941 (Simulation time: 0 hr 0 min 15 sec) 
Heartbeat CPU 0 instructions: 20000000 cycles: 8781225 heartbeat IPC: 2.27577 cumulative IPC: 2.27759 (Simulation time: 0 hr 0 min 30 sec) 
Heartbeat CPU 0 instructions: 30000003 cycles: 13213168 heartbeat IPC: 2.25635 cumulative IPC: 2.27046 (Simulation time: 0 hr 0 min 46 sec) 
Heartbeat CPU 0 instructions: 40000000 cycles: 17643707 heartbeat IPC: 2.25706 cumulative IPC: 2.2671 (Simulation time: 0 hr 1 min 0 sec) 
Heartbeat CPU 0 instructions: 50000000 cycles: 22051866 heartbeat IPC: 2.26852 cumulative IPC: 2.26738 (Simulation time: 0 hr 1 min 15 sec) 
Heartbeat CPU 0 instructions: 60000000 cycles: 26457531 heartbeat IPC: 2.2698 cumulative IPC: 2.26779 (Simulation time: 0 hr 1 min 29 sec) 
Heartbeat CPU 0 instructions: 70000000 cycles: 30858374 heartbeat IPC: 2.27229 cumulative IPC: 2.26843 (Simulation time: 0 hr 1 min 44 sec) 
Heartbeat CPU 0 instructions: 80000000 cycles: 35253903 heartbeat IPC: 2.27504 cumulative IPC: 2.26925 (Simulation time: 0 hr 1 min 59 sec) 
Heartbeat CPU 0 instructions: 90000000 cycles: 39648150 heartbeat IPC: 2.2757 cumulative IPC: 2.26997 (Simulation time: 0 hr 2 min 14 sec) 
Heartbeat CPU 0 instructions: 100000000 cycles: 44045431 heartbeat IPC: 2.27413 cumulative IPC: 2.27038 (Simulation time: 0 hr 2 min 29 sec) 

Warmup complete CPU 0 instructions: 100000002 cycles: 44045441 (Simulation time: 0 hr 2 min 29 sec) 

Heartbeat CPU 0 instructions: 110000000 cycles: 53998556 heartbeat IPC: 1.00471 cumulative IPC: 1.00471 (Simulation time: 0 hr 2 min 48 sec) 
Heartbeat CPU 0 instructions: 120000000 cycles: 63046838 heartbeat IPC: 1.10518 cumulative IPC: 1.05255 (Simulation time: 0 hr 3 min 7 sec) 
Heartbeat CPU 0 instructions: 130000000 cycles: 72125570 heartbeat IPC: 1.10148 cumulative IPC: 1.06837 (Simulation time: 0 hr 3 min 26 sec) 
Heartbeat CPU 0 instructions: 140000000 cycles: 81293926 heartbeat IPC: 1.09071 cumulative IPC: 1.07387 (Simulation time: 0 hr 3 min 45 sec) 
Heartbeat CPU 0 instructions: 150000000 cycles: 92629656 heartbeat IPC: 0.882166 cumulative IPC: 1.02914 (Simulation time: 0 hr 4 min 4 sec) 
Heartbeat CPU 0 instructions: 160000000 cycles: 102851180 heartbeat IPC: 0.978328 cumulative IPC: 1.02031 (Simulation time: 0 hr 4 min 23 sec) 
Heartbeat CPU 0 instructions: 170000000 cycles: 112801900 heartbeat IPC: 1.00495 cumulative IPC: 1.01809 (Simulation time: 0 hr 4 min 42 sec) 
Heartbeat CPU 0 instructions: 180000000 cycles: 122646551 heartbeat IPC: 1.01578 cumulative IPC: 1.0178 (Simulation time: 0 hr 5 min 1 sec) 
Heartbeat CPU 0 instructions: 190000002 cycles: 132630482 heartbeat IPC: 1.00161 cumulative IPC: 1.01597 (Simulation time: 0 hr 5 min 20 sec) 
Heartbeat CPU 0 instructions: 200000000 cycles: 142028603 heartbeat IPC: 1.06404 cumulative IPC: 1.02058 (Simulation time: 0 hr 5 min 39 sec) 
Heartbeat CPU 0 instructions: 210000000 cycles: 151869413 heartbeat IPC: 1.01618 cumulative IPC: 1.02018 (Simulation time: 0 hr 5 min 58 sec) 
Heartbeat CPU 0 instructions: 220000000 cycles: 160899925 heartbeat IPC: 1.10736 cumulative IPC: 1.02692 (Simulation time: 0 hr 6 min 17 sec) 
Heartbeat CPU 0 instructions: 230000001 cycles: 172943537 heartbeat IPC: 0.830316 cumulative IPC: 1.00855 (Simulation time: 0 hr 6 min 37 sec) 
Heartbeat CPU 0 instructions: 240000000 cycles: 183531161 heartbeat IPC: 0.944499 cumulative IPC: 1.00369 (Simulation time: 0 hr 6 min 57 sec) 
Heartbeat CPU 0 instructions: 250000002 cycles: 193507307 heartbeat IPC: 1.00239 cumulative IPC: 1.0036 (Simulation time: 0 hr 7 min 15 sec) 
Heartbeat CPU 0 instructions: 260000000 cycles: 203238883 heartbeat IPC: 1.02758 cumulative IPC: 1.00507 (Simulation time: 0 hr 7 min 34 sec) 
Heartbeat CPU 0 instructions: 270000001 cycles: 212866251 heartbeat IPC: 1.03871 cumulative IPC: 1.00698 (Simulation time: 0 hr 7 min 53 sec) 
Heartbeat CPU 0 instructions: 280000000 cycles: 222773657 heartbeat IPC: 1.00935 cumulative IPC: 1.00712 (Simulation time: 0 hr 8 min 12 sec) 
Heartbeat CPU 0 instructions: 290000002 cycles: 231930441 heartbeat IPC: 1.09209 cumulative IPC: 1.01126 (Simulation time: 0 hr 8 min 31 sec) 
Heartbeat CPU 0 instructions: 300000000 cycles: 241658585 heartbeat IPC: 1.02795 cumulative IPC: 1.01208 (Simulation time: 0 hr 8 min 50 sec) 
Heartbeat CPU 0 instructions: 310000000 cycles: 250687849 heartbeat IPC: 1.10751 cumulative IPC: 1.01625 (Simulation time: 0 hr 9 min 8 sec) 
Heartbeat CPU 0 instructions: 320000000 cycles: 259833676 heartbeat IPC: 1.09339 cumulative IPC: 1.01952 (Simulation time: 0 hr 9 min 27 sec) 
Heartbeat CPU 0 instructions: 330000003 cycles: 269163627 heartbeat IPC: 1.07182 cumulative IPC: 1.02169 (Simulation time: 0 hr 9 min 46 sec) 
Heartbeat CPU 0 instructions: 340000000 cycles: 279285799 heartbeat IPC: 0.98793 cumulative IPC: 1.02023 (Simulation time: 0 hr 10 min 5 sec) 
Heartbeat CPU 0 instructions: 350000000 cycles: 289756394 heartbeat IPC: 0.955056 cumulative IPC: 1.01746 (Simulation time: 0 hr 10 min 24 sec) 
Heartbeat CPU 0 instructions: 360000000 cycles: 299673820 heartbeat IPC: 1.00833 cumulative IPC: 1.0171 (Simulation time: 0 hr 10 min 43 sec) 
Heartbeat CPU 0 instructions: 370000000 cycles: 309358837 heartbeat IPC: 1.03252 cumulative IPC: 1.01766 (Simulation time: 0 hr 11 min 1 sec) 
Heartbeat CPU 0 instructions: 380000000 cycles: 318854678 heartbeat IPC: 1.05309 cumulative IPC: 1.01889 (Simulation time: 0 hr 11 min 20 sec) 
Heartbeat CPU 0 instructions: 390000002 cycles: 328181114 heartbeat IPC: 1.07222 cumulative IPC: 1.02064 (Simulation time: 0 hr 11 min 39 sec) 
Heartbeat CPU 0 instructions: 400000000 cycles: 337937345 heartbeat IPC: 1.02499 cumulative IPC: 1.02078 (Simulation time: 0 hr 11 min 57 sec) 
Heartbeat CPU 0 instructions: 410000000 cycles: 346935404 heartbeat IPC: 1.11135 cumulative IPC: 1.02347 (Simulation time: 0 hr 12 min 16 sec) 
Heartbeat CPU 0 instructions: 420000000 cycles: 357725596 heartbeat IPC: 0.926768 cumulative IPC: 1.02015 (Simulation time: 0 hr 12 min 36 sec) 
Heartbeat CPU 0 instructions: 430000000 cycles: 368708725 heartbeat IPC: 0.910487 cumulative IPC: 1.01644 (Simulation time: 0 hr 12 min 55 sec) 
Heartbeat CPU 0 instructions: 440000000 cycles: 378732679 heartbeat IPC: 0.99761 cumulative IPC: 1.01587 (Simulation time: 0 hr 13 min 14 sec) 
Heartbeat CPU 0 instructions: 450000000 cycles: 388639519 heartbeat IPC: 1.0094 cumulative IPC: 1.01569 (Simulation time: 0 hr 13 min 33 sec) 
Heartbeat CPU 0 instructions: 460000000 cycles: 398529717 heartbeat IPC: 1.0111 cumulative IPC: 1.01556 (Simulation time: 0 hr 13 min 51 sec) 
Heartbeat CPU 0 instructions: 470000002 cycles: 408445631 heartbeat IPC: 1.00848 cumulative IPC: 1.01537 (Simulation time: 0 hr 14 min 10 sec) 
Heartbeat CPU 0 instructions: 480000000 cycles: 417714227 heartbeat IPC: 1.07891 cumulative IPC: 1.01694 (Simulation time: 0 hr 14 min 29 sec) 
Heartbeat CPU 0 instructions: 490000000 cycles: 427536315 heartbeat IPC: 1.01811 cumulative IPC: 1.01697 (Simulation time: 0 hr 14 min 48 sec) 
Heartbeat CPU 0 instructions: 500000000 cycles: 436907928 heartbeat IPC: 1.06705 cumulative IPC: 1.01817 (Simulation time: 0 hr 15 min 7 sec) 
Heartbeat CPU 0 instructions: 510000000 cycles: 446011512 heartbeat IPC: 1.09847 cumulative IPC: 1.01999 (Simulation time: 0 hr 15 min 25 sec) 
Heartbeat CPU 0 instructions: 520000000 cycles: 455415356 heartbeat IPC: 1.06339 cumulative IPC: 1.02098 (Simulation time: 0 hr 15 min 44 sec) 
Heartbeat CPU 0 instructions: 530000001 cycles: 465752392 heartbeat IPC: 0.967395 cumulative IPC: 1.01967 (Simulation time: 0 hr 16 min 3 sec) 
Heartbeat CPU 0 instructions: 540000000 cycles: 476402212 heartbeat IPC: 0.938983 cumulative IPC: 1.01768 (Simulation time: 0 hr 16 min 22 sec) 
Heartbeat CPU 0 instructions: 550000003 cycles: 486511918 heartbeat IPC: 0.989149 cumulative IPC: 1.01703 (Simulation time: 0 hr 16 min 41 sec) 
Heartbeat CPU 0 instructions: 560000000 cycles: 496362401 heartbeat IPC: 1.01518 cumulative IPC: 1.01699 (Simulation time: 0 hr 16 min 59 sec) 
Heartbeat CPU 0 instructions: 570000002 cycles: 506031092 heartbeat IPC: 1.03427 cumulative IPC: 1.01735 (Simulation time: 0 hr 17 min 18 sec) 
Heartbeat CPU 0 instructions: 580000000 cycles: 515527673 heartbeat IPC: 1.05301 cumulative IPC: 1.01807 (Simulation time: 0 hr 17 min 36 sec) 
Heartbeat CPU 0 instructions: 590000002 cycles: 525338122 heartbeat IPC: 1.01932 cumulative IPC: 1.01809 (Simulation time: 0 hr 17 min 54 sec) 
Heartbeat CPU 0 instructions: 600000000 cycles: 534659524 heartbeat IPC: 1.0728 cumulative IPC: 1.01913 (Simulation time: 0 hr 18 min 12 sec) 
Finished CPU 0 instructions: 500000000 cycles: 490614097 cumulative IPC: 1.01913 (Simulation time: 0 hr 18 min 12 sec) 

CPU 0 Branch Prediction Accuracy: 97.8526% MPKI: 2.66709
Number of Branches: 62099103 Number of Mispredictions: 1333545
Number of LOAD Instructions: 210576465
Number of LOAD Instructions (ROI): 210576465
Number of STORE Instructions: 16915507
Number of STORE Instructions (ROI): 16915507
Total Destination Memory Operands: 16918869
Total Destination Memory Operands (ROI): 16918869
Total Source Memory Operands: 210576465
Total Source Memory Operands (ROI): 210576465
Number of DEPENDED LOADS: 334132
Number of DEPENDED LOADS (ROI): 334132
Number of SQ_ADDED: 16918826
Number of SQ_ADDED (ROI): 16918826
Number of LQ_ADDED: 210620733
Number of LQ_ADDED (ROI): 210620733
Number of Instructions read from trace: 600000257

ChampSim completed all CPUs

Region of Interest Statistics

CPU 0 cumulative IPC: 1.01913 instructions: 500000000 cycles: 490614097
ITLB TOTAL     ACCESS:   76372029  HIT:   76371991  MISS:         38
ITLB LOAD      ACCESS:   76372029  HIT:   76371991  MISS:         38
ITLB RFO       ACCESS:          0  HIT:          0  MISS:          0
ITLB PREFETCH  ACCESS:          0  HIT:          0  MISS:          0
ITLB WRITEBACK ACCESS:          0  HIT:          0  MISS:          0
ITLB PREFETCH  REQUESTED:          0  ISSUED:          0  USEFUL:          0  USELESS:          0
ITLB TOTAL MSHR MERGED:         37
ITLB LOAD MSHR MERGED:         37
ITLB RFO MSHR MERGED:          0
ITLB PREFETCH MSHR MERGED:          0
ITLB WRITEBACK MSHR MERGED:          0
ITLB TOTAL ACCESSES:   76372066 HITS:   76371991 MISSES:         75
ITLB LOAD ACCESSES:   76372066 HITS:   76371991 MISSES:         75
ITLB RFO ACCESSES:          0 HITS:          0 MISSES:          0
ITLB PREFETCH ACCESSES:          0 HITS:          0 MISSES:          0
ITLB WRITEBACK ACCESSES:          0 HITS:          0 MISSES:          0
ITLB RQ ACCESS:  500000188
ITLB RQ TO_CACHE:   76372067
ITLB RQ MERGED:  423628121
ITLB RQ FORWARD:          0
ITLB WQ ACCESS:          0
ITLB WQ TO_CACHE:          0
ITLB WQ MERGED:          0
ITLB WQ FORWARD:          0
DTLB TOTAL     ACCESS:  136795467  HIT:  136592676  MISS:     202791
DTLB LOAD      ACCESS:  128733402  HIT:  128533332  MISS:     200070
DTLB RFO       ACCESS:    8062065  HIT:    8059344  MISS:       2721
DTLB PREFETCH  ACCESS:          0  HIT:          0  MISS:          0
DTLB WRITEBACK ACCESS:          0  HIT:          0  MISS:          0
DTLB PREFETCH  REQUESTED:          0  ISSUED:          0  USEFUL:          0  USELESS:          0
DTLB TOTAL MSHR MERGED:     447298
DTLB LOAD MSHR MERGED:     443448
DTLB RFO MSHR MERGED:       3850
DTLB PREFETCH MSHR MERGED:          0
DTLB WRITEBACK MSHR MERGED:          0
DTLB TOTAL ACCESSES:  137242765 HITS:  136592676 MISSES:     650089
DTLB LOAD ACCESSES:  129176850 HITS:  128533332 MISSES:     643518
DTLB RFO ACCESSES:    8065915 HITS:    8059344 MISSES:       6571
DTLB PREFETCH ACCESSES:          0 HITS:          0 MISSES:          0
DTLB WRITEBACK ACCESSES:          0 HITS:          0 MISSES:          0
DTLB RQ ACCESS:  189430433
DTLB RQ TO_CACHE:  137242765
DTLB RQ MERGED:   52187668
DTLB RQ FORWARD:          0
DTLB WQ ACCESS:          0
DTLB WQ TO_CACHE:          0
DTLB WQ MERGED:          0
DTLB WQ FORWARD:          0
L1D TOTAL     ACCESS:  125646848  HIT:  108089767  MISS:   17557081
L1D LOAD      ACCESS:   72539026  HIT:   62318016  MISS:   10221010
L1D RFO       ACCESS:   14013121  HIT:   13860287  MISS:     152834
L1D PREFETCH  ACCESS:   39094701  HIT:   31911464  MISS:    7183237
L1D WRITEBACK ACCESS:          0  HIT:          0  MISS:          0
L1D PREFETCH  REQUESTED:   85587065  ISSUED:   84264120  USEFUL:    5923763  USELESS:    1259485
L1D TOTAL MSHR MERGED:   31394762
L1D LOAD MSHR MERGED:   18167970
L1D RFO MSHR MERGED:     265531
L1D PREFETCH MSHR MERGED:   12961261
L1D WRITEBACK MSHR MERGED:          0
L1D TOTAL ACCESSES:  157042112 HITS:  108090270 MISSES:   48951842
L1D LOAD ACCESSES:   85587074 HITS:   62318025 MISSES:   23269049
L1D RFO ACCESSES:   14278626 HITS:   13860287 MISSES:     418339
L1D PREFETCH ACCESSES:   57176412 HITS:   31911958 MISSES:   25264454
L1D WRITEBACK ACCESSES:          0 HITS:          0 MISSES:          0
L1D RQ ACCESS:  175141411
L1D RQ TO_CACHE:   85587065
L1D RQ MERGED:   89554337
L1D RQ FORWARD:          0
L1D WQ ACCESS:   14289037
L1D WQ TO_CACHE:   14278626
L1D WQ MERGED:      10411
L1D WQ FORWARD:        503
L1I TOTAL     ACCESS:   93395335  HIT:   93393539  MISS:       1796
L1I LOAD      ACCESS:   93395335  HIT:   93393539  MISS:       1796
L1I RFO       ACCESS:          0  HIT:          0  MISS:          0
L1I PREFETCH  ACCESS:          0  HIT:          0  MISS:          0
L1I WRITEBACK ACCESS:          0  HIT:          0  MISS:          0
L1I PREFETCH  REQUESTED:          0  ISSUED:          0  USEFUL:          0  USELESS:          0
L1I TOTAL MSHR MERGED:       2338
L1I LOAD MSHR MERGED:       2338
L1I RFO MSHR MERGED:          0
L1I PREFETCH MSHR MERGED:          0
L1I WRITEBACK MSHR MERGED:          0
L1I TOTAL ACCESSES:   93397673 HITS:   93393539 MISSES:       4134
L1I LOAD ACCESSES:   93397673 HITS:   93393539 MISSES:       4134
L1I RFO ACCESSES:          0 HITS:          0 MISSES:          0
L1I PREFETCH ACCESSES:          0 HITS:          0 MISSES:          0
L1I WRITEBACK ACCESSES:          0 HITS:          0 MISSES:          0
L1I RQ ACCESS:  500000187
L1I RQ TO_CACHE:   93397673
L1I RQ MERGED:  406602514
L1I RQ FORWARD:          0
L1I WQ ACCESS:          0
L1I WQ TO_CACHE:          0
L1I WQ MERGED:          0
L1I WQ FORWARD:          0
L2C TOTAL     ACCESS:   20905639  HIT:    8676933  MISS:   12228706
L2C LOAD      ACCESS:    5102853  HIT:    2144711  MISS:    2958142
L2C RFO       ACCESS:     152807  HIT:       6510  MISS:     146297
L2C PREFETCH  ACCESS:   13877226  HIT:    4753069  MISS:    9124157
L2C WRITEBACK ACCESS:    1772753  HIT:    1772643  MISS:        110
L2C PREFETCH  REQUESTED:    1803307  ISSUED:    1803307  USEFUL:    1065871  USELESS:    8059953
L2C TOTAL MSHR MERGED:      87529
L2C LOAD MSHR MERGED:      19547
L2C RFO MSHR MERGED:          0
L2C PREFETCH MSHR MERGED:      67982
L2C WRITEBACK MSHR MERGED:          0
L2C TOTAL ACCESSES:   21015692 HITS:    8676973 MISSES:   12338719
L2C LOAD ACCESSES:    5102875 HITS:    2144733 MISSES:    2958142
L2C RFO ACCESSES:     152808 HITS:       6511 MISSES:     146297
L2C PREFETCH ACCESSES:   13987256 HITS:    4753086 MISSES:    9234170
L2C WRITEBACK ACCESSES:    1772753 HITS:    1772643 MISSES:        110
L2C RQ ACCESS:    5255683
L2C RQ TO_CACHE:    5255660
L2C RQ MERGED:          0
L2C RQ FORWARD:          0
L2C WQ ACCESS:    1772753
L2C WQ TO_CACHE:    1772753
L2C WQ MERGED:          0
L2C WQ FORWARD:         40
LLC TOTAL     ACCESS:   12532028  HIT:    6614823  MISS:    5917205
LLC LOAD      ACCESS:    2938577  HIT:    2265677  MISS:     672900
LLC RFO       ACCESS:     146297  HIT:      90155  MISS:      56142
LLC PREFETCH  ACCESS:    9161173  HIT:    4015579  MISS:    5145594
LLC WRITEBACK ACCESS:     285981  HIT:     243412  MISS:      42569
LLC PREFETCH  REQUESTED:          0  ISSUED:          0  USEFUL:       7758  USELESS:    5137950
LLC TOTAL MSHR MERGED:        725
LLC LOAD MSHR MERGED:        134
LLC RFO MSHR MERGED:          0
LLC PREFETCH MSHR MERGED:        591
LLC WRITEBACK MSHR MERGED:          0
LLC TOTAL ACCESSES:   12532782 HITS:    6614852 MISSES:    5917930
LLC LOAD ACCESSES:    2938595 HITS:    2265695 MISSES:     672900
LLC RFO ACCESSES:     146297 HITS:      90155 MISSES:      56142
LLC PREFETCH ACCESSES:    9161909 HITS:    4015590 MISSES:    5146319
LLC WRITEBACK ACCESSES:     285981 HITS:     243412 MISSES:      42569
LLC 0 RQ ACCESS:    3084892
LLC 0 RQ TO_CACHE:    3084874
LLC 0 RQ MERGED:          0
LLC 0 RQ FORWARD:          0
LLC WQ ACCESS:     285981
LLC WQ TO_CACHE:     285981
LLC WQ MERGED:          0
LLC WQ FORWARD:         29
Major fault: 0 Minor fault: 6524
CPU 0 L1D next line prefetcher final stats
CPU 0 L2C PC-based stride prefetcher final stats
All Misses: 7715685
All Hits: 7341355
SD Algo Stats - Switches: 0 SRR-Repls: 698514 BRR-Repls: 0

DRAM Statistics
 CHANNEL 0
 RQ ROW_BUFFER_HIT:    5095389  ROW_BUFFER_MISS:     772941
 DBUS_CONGESTED:    2150292
 WQ ROW_BUFFER_HIT:       7417  ROW_BUFFER_MISS:      61154  FULL:          0

 AVG_CONGESTED_CYCLE: 12
LOADS RETIRED: 175418235
INSTR RETIRED: 500000000
