
*** ChampSim Multicore Out-of-Order Simulator ***

Warmup Instructions: 100000000
Simulation Instructions: 500000000
Number of CPUs: 1
LLC sets: 2048
LLC ways: 16
Clean RRIP Policies: 1213030112130301 Dirty RRIP Policies: 2213130122131301 PSEL Width: 10 Track Set: 4294967295 PSEL Mask: 1 Demote Mask: 3340101033401010DS Algo: 0Window size: 0
Off-chip DRAM Size: 4096 MB Channels: 1 Width: 64-bit Data Rate: 1600 MT/s

CPU 0 runs /mnt/beegfs/iconst01/spec2017/x264.trace.gz
NOT SORTED
TRACE STRING: /mnt/beegfs/iconst01/spec2017/x264.trace.gz
SORTED
TRACE STRING: /mnt/beegfs/iconst01/spec2017/x264.trace.gz
INITIAL
TRACE STRING: /mnt/beegfs/iconst01/spec2017/x264.trace.gz

champsim_seed used: 276

CPU 0 L1D next line prefetcher
CPU 0 L2C IP-based stride prefetcher
Initialize DRRIP state
Assign rand_sets[0]: 454  LLC: 2048
rand_sets[0]: 454
Assign rand_sets[1]: 1662  LLC: 2048
rand_sets[1]: 1662
Assign rand_sets[2]: 1921  LLC: 2048
rand_sets[2]: 1921
Assign rand_sets[3]: 1131  LLC: 2048
rand_sets[3]: 1131
Assign rand_sets[4]: 331  LLC: 2048
rand_sets[4]: 331
Assign rand_sets[5]: 1531  LLC: 2048
rand_sets[5]: 1531
Assign rand_sets[6]: 482  LLC: 2048
rand_sets[6]: 482
Assign rand_sets[7]: 1275  LLC: 2048
rand_sets[7]: 1275
Assign rand_sets[8]: 1876  LLC: 2048
rand_sets[8]: 1876
Assign rand_sets[9]: 2038  LLC: 2048
rand_sets[9]: 2038
Assign rand_sets[10]: 701  LLC: 2048
rand_sets[10]: 701
Assign rand_sets[11]: 479  LLC: 2048
rand_sets[11]: 479
Assign rand_sets[12]: 892  LLC: 2048
rand_sets[12]: 892
Assign rand_sets[13]: 1820  LLC: 2048
rand_sets[13]: 1820
Assign rand_sets[14]: 1505  LLC: 2048
rand_sets[14]: 1505
Assign rand_sets[15]: 1159  LLC: 2048
rand_sets[15]: 1159
Assign rand_sets[16]: 513  LLC: 2048
rand_sets[16]: 513
Assign rand_sets[17]: 703  LLC: 2048
rand_sets[17]: 703
Assign rand_sets[18]: 561  LLC: 2048
rand_sets[18]: 561
Assign rand_sets[19]: 990  LLC: 2048
rand_sets[19]: 990
Assign rand_sets[20]: 342  LLC: 2048
rand_sets[20]: 342
Assign rand_sets[21]: 882  LLC: 2048
rand_sets[21]: 882
Assign rand_sets[22]: 15  LLC: 2048
rand_sets[22]: 15
Assign rand_sets[23]: 71  LLC: 2048
rand_sets[23]: 71
Assign rand_sets[24]: 1127  LLC: 2048
rand_sets[24]: 1127
Assign rand_sets[25]: 1382  LLC: 2048
rand_sets[25]: 1382
Assign rand_sets[26]: 647  LLC: 2048
rand_sets[26]: 647
Assign rand_sets[27]: 857  LLC: 2048
rand_sets[27]: 857
Assign rand_sets[28]: 1450  LLC: 2048
rand_sets[28]: 1450
Assign rand_sets[29]: 1160  LLC: 2048
rand_sets[29]: 1160
Assign rand_sets[30]: 1852  LLC: 2048
rand_sets[30]: 1852
Assign rand_sets[31]: 1881  LLC: 2048
rand_sets[31]: 1881
Assign rand_sets[32]: 1770  LLC: 2048
rand_sets[32]: 1770
Assign rand_sets[33]: 1622  LLC: 2048
rand_sets[33]: 1622
Assign rand_sets[34]: 275  LLC: 2048
rand_sets[34]: 275
Assign rand_sets[35]: 635  LLC: 2048
rand_sets[35]: 635
Assign rand_sets[36]: 466  LLC: 2048
rand_sets[36]: 466
Assign rand_sets[37]: 1413  LLC: 2048
rand_sets[37]: 1413
Assign rand_sets[38]: 417  LLC: 2048
rand_sets[38]: 417
Assign rand_sets[39]: 472  LLC: 2048
rand_sets[39]: 472
Assign rand_sets[40]: 1340  LLC: 2048
rand_sets[40]: 1340
Assign rand_sets[41]: 852  LLC: 2048
rand_sets[41]: 852
Assign rand_sets[42]: 1365  LLC: 2048
rand_sets[42]: 1365
Assign rand_sets[43]: 47  LLC: 2048
rand_sets[43]: 47
Assign rand_sets[44]: 823  LLC: 2048
rand_sets[44]: 823
Assign rand_sets[45]: 686  LLC: 2048
rand_sets[45]: 686
Assign rand_sets[46]: 1637  LLC: 2048
rand_sets[46]: 1637
Assign rand_sets[47]: 1115  LLC: 2048
rand_sets[47]: 1115
Assign rand_sets[48]: 986  LLC: 2048
rand_sets[48]: 986
Assign rand_sets[49]: 258  LLC: 2048
rand_sets[49]: 258
Assign rand_sets[50]: 633  LLC: 2048
rand_sets[50]: 633
Assign rand_sets[51]: 920  LLC: 2048
rand_sets[51]: 920
Assign rand_sets[52]: 204  LLC: 2048
rand_sets[52]: 204
Assign rand_sets[53]: 227  LLC: 2048
rand_sets[53]: 227
Assign rand_sets[54]: 1818  LLC: 2048
rand_sets[54]: 1818
Assign rand_sets[55]: 886  LLC: 2048
rand_sets[55]: 886
Assign rand_sets[56]: 1422  LLC: 2048
rand_sets[56]: 1422
Assign rand_sets[57]: 607  LLC: 2048
rand_sets[57]: 607
Assign rand_sets[58]: 217  LLC: 2048
rand_sets[58]: 217
Assign rand_sets[59]: 1945  LLC: 2048
rand_sets[59]: 1945
Assign rand_sets[60]: 143  LLC: 2048
rand_sets[60]: 143
Assign rand_sets[61]: 1311  LLC: 2048
rand_sets[61]: 1311
Assign rand_sets[62]: 319  LLC: 2048
rand_sets[62]: 319
Assign rand_sets[63]: 1846  LLC: 2048
rand_sets[63]: 1846
 CLEAN-RRIP-POLICY-1: 1-2-1-3-0-3-0-1- CLEAN-RRIP-POLICY-2: 1-2-1-3-0-3-0-1-
 DIRTY-RRIP-POLICY-1: 2-2-1-3-1-3-0-1- DIRTY-RRIP-POLICY-2: 2-2-1-3-1-3-0-1-
 PSEL width: 10
Heartbeat CPU 0 instructions: 10000000 cycles: 4124759 heartbeat IPC: 2.42438 cumulative IPC: 2.42438 (Simulation time: 0 hr 0 min 14 sec) 
Heartbeat CPU 0 instructions: 20000000 cycles: 8233863 heartbeat IPC: 2.43362 cumulative IPC: 2.42899 (Simulation time: 0 hr 0 min 27 sec) 
Heartbeat CPU 0 instructions: 30000003 cycles: 12464696 heartbeat IPC: 2.3636 cumulative IPC: 2.4068 (Simulation time: 0 hr 0 min 40 sec) 
Heartbeat CPU 0 instructions: 40000000 cycles: 16636669 heartbeat IPC: 2.39695 cumulative IPC: 2.40433 (Simulation time: 0 hr 0 min 53 sec) 
Heartbeat CPU 0 instructions: 50000000 cycles: 20699131 heartbeat IPC: 2.46156 cumulative IPC: 2.41556 (Simulation time: 0 hr 1 min 7 sec) 
Heartbeat CPU 0 instructions: 60000000 cycles: 25022622 heartbeat IPC: 2.31295 cumulative IPC: 2.39783 (Simulation time: 0 hr 1 min 20 sec) 
Heartbeat CPU 0 instructions: 70000000 cycles: 29371021 heartbeat IPC: 2.2997 cumulative IPC: 2.3833 (Simulation time: 0 hr 1 min 33 sec) 
Heartbeat CPU 0 instructions: 80000000 cycles: 33721190 heartbeat IPC: 2.29876 cumulative IPC: 2.3724 (Simulation time: 0 hr 1 min 46 sec) 
Heartbeat CPU 0 instructions: 90000002 cycles: 38032199 heartbeat IPC: 2.31964 cumulative IPC: 2.36642 (Simulation time: 0 hr 1 min 59 sec) 
Heartbeat CPU 0 instructions: 100000000 cycles: 42329179 heartbeat IPC: 2.32722 cumulative IPC: 2.36244 (Simulation time: 0 hr 2 min 12 sec) 

Warmup complete CPU 0 instructions: 100000001 cycles: 42329180 (Simulation time: 0 hr 2 min 12 sec) 

Heartbeat CPU 0 instructions: 110000001 cycles: 49382648 heartbeat IPC: 1.41774 cumulative IPC: 1.41774 (Simulation time: 0 hr 2 min 29 sec) 
Heartbeat CPU 0 instructions: 120000000 cycles: 58881058 heartbeat IPC: 1.05281 cumulative IPC: 1.20832 (Simulation time: 0 hr 2 min 48 sec) 
Heartbeat CPU 0 instructions: 130000000 cycles: 63712182 heartbeat IPC: 2.06991 cumulative IPC: 1.40298 (Simulation time: 0 hr 3 min 4 sec) 
Heartbeat CPU 0 instructions: 140000000 cycles: 68666924 heartbeat IPC: 2.01827 cumulative IPC: 1.51873 (Simulation time: 0 hr 3 min 21 sec) 
Heartbeat CPU 0 instructions: 150000002 cycles: 75488905 heartbeat IPC: 1.46585 cumulative IPC: 1.50785 (Simulation time: 0 hr 3 min 39 sec) 
Heartbeat CPU 0 instructions: 160000000 cycles: 83313886 heartbeat IPC: 1.27796 cumulative IPC: 1.46396 (Simulation time: 0 hr 3 min 56 sec) 
Heartbeat CPU 0 instructions: 170000000 cycles: 90711136 heartbeat IPC: 1.35185 cumulative IPC: 1.44682 (Simulation time: 0 hr 4 min 13 sec) 
Heartbeat CPU 0 instructions: 180000000 cycles: 98015180 heartbeat IPC: 1.3691 cumulative IPC: 1.43663 (Simulation time: 0 hr 4 min 30 sec) 
Heartbeat CPU 0 instructions: 190000002 cycles: 105184508 heartbeat IPC: 1.39483 cumulative IPC: 1.43186 (Simulation time: 0 hr 4 min 47 sec) 
Heartbeat CPU 0 instructions: 200000000 cycles: 112416369 heartbeat IPC: 1.38277 cumulative IPC: 1.42679 (Simulation time: 0 hr 5 min 4 sec) 
Heartbeat CPU 0 instructions: 210000000 cycles: 119282736 heartbeat IPC: 1.45637 cumulative IPC: 1.42943 (Simulation time: 0 hr 5 min 21 sec) 
Heartbeat CPU 0 instructions: 220000000 cycles: 126053212 heartbeat IPC: 1.477 cumulative IPC: 1.43328 (Simulation time: 0 hr 5 min 37 sec) 
Heartbeat CPU 0 instructions: 230000003 cycles: 132777838 heartbeat IPC: 1.48707 cumulative IPC: 1.43728 (Simulation time: 0 hr 5 min 54 sec) 
Heartbeat CPU 0 instructions: 240000000 cycles: 139526585 heartbeat IPC: 1.48176 cumulative IPC: 1.44037 (Simulation time: 0 hr 6 min 10 sec) 
Heartbeat CPU 0 instructions: 250000001 cycles: 146251566 heartbeat IPC: 1.48699 cumulative IPC: 1.44338 (Simulation time: 0 hr 6 min 27 sec) 
Heartbeat CPU 0 instructions: 260000000 cycles: 152954317 heartbeat IPC: 1.49192 cumulative IPC: 1.44633 (Simulation time: 0 hr 6 min 43 sec) 
Heartbeat CPU 0 instructions: 270000001 cycles: 159924691 heartbeat IPC: 1.43464 cumulative IPC: 1.44563 (Simulation time: 0 hr 7 min 0 sec) 
Heartbeat CPU 0 instructions: 280000000 cycles: 167455239 heartbeat IPC: 1.32792 cumulative IPC: 1.43855 (Simulation time: 0 hr 7 min 17 sec) 
Heartbeat CPU 0 instructions: 290000000 cycles: 175372684 heartbeat IPC: 1.26303 cumulative IPC: 1.4281 (Simulation time: 0 hr 7 min 34 sec) 
Heartbeat CPU 0 instructions: 300000000 cycles: 183548374 heartbeat IPC: 1.22314 cumulative IPC: 1.41624 (Simulation time: 0 hr 7 min 52 sec) 
Heartbeat CPU 0 instructions: 310000002 cycles: 191852022 heartbeat IPC: 1.20429 cumulative IPC: 1.40447 (Simulation time: 0 hr 8 min 10 sec) 
Heartbeat CPU 0 instructions: 320000000 cycles: 201863956 heartbeat IPC: 0.998808 cumulative IPC: 1.37901 (Simulation time: 0 hr 8 min 30 sec) 
Heartbeat CPU 0 instructions: 330000002 cycles: 206514398 heartbeat IPC: 2.15033 cumulative IPC: 1.40086 (Simulation time: 0 hr 8 min 47 sec) 
Heartbeat CPU 0 instructions: 340000000 cycles: 211781986 heartbeat IPC: 1.8984 cumulative IPC: 1.41632 (Simulation time: 0 hr 9 min 4 sec) 
Heartbeat CPU 0 instructions: 350000000 cycles: 218984626 heartbeat IPC: 1.38838 cumulative IPC: 1.41518 (Simulation time: 0 hr 9 min 21 sec) 
Heartbeat CPU 0 instructions: 360000000 cycles: 226640375 heartbeat IPC: 1.30621 cumulative IPC: 1.41066 (Simulation time: 0 hr 9 min 39 sec) 
Heartbeat CPU 0 instructions: 370000000 cycles: 234042894 heartbeat IPC: 1.35089 cumulative IPC: 1.40835 (Simulation time: 0 hr 9 min 56 sec) 
Heartbeat CPU 0 instructions: 380000000 cycles: 241311208 heartbeat IPC: 1.37583 cumulative IPC: 1.40716 (Simulation time: 0 hr 10 min 13 sec) 
Heartbeat CPU 0 instructions: 390000000 cycles: 249422165 heartbeat IPC: 1.2329 cumulative IPC: 1.40034 (Simulation time: 0 hr 10 min 31 sec) 
Heartbeat CPU 0 instructions: 400000000 cycles: 257621828 heartbeat IPC: 1.21956 cumulative IPC: 1.39345 (Simulation time: 0 hr 10 min 49 sec) 
Heartbeat CPU 0 instructions: 410000001 cycles: 265435078 heartbeat IPC: 1.27988 cumulative IPC: 1.38947 (Simulation time: 0 hr 11 min 6 sec) 
Heartbeat CPU 0 instructions: 420000000 cycles: 273482749 heartbeat IPC: 1.2426 cumulative IPC: 1.38436 (Simulation time: 0 hr 11 min 24 sec) 
Heartbeat CPU 0 instructions: 430000001 cycles: 281732497 heartbeat IPC: 1.21216 cumulative IPC: 1.37843 (Simulation time: 0 hr 11 min 42 sec) 
Heartbeat CPU 0 instructions: 440000000 cycles: 289769449 heartbeat IPC: 1.24425 cumulative IPC: 1.37407 (Simulation time: 0 hr 12 min 0 sec) 
Heartbeat CPU 0 instructions: 450000001 cycles: 297636049 heartbeat IPC: 1.2712 cumulative IPC: 1.3709 (Simulation time: 0 hr 12 min 17 sec) 
Heartbeat CPU 0 instructions: 460000000 cycles: 307575129 heartbeat IPC: 1.00613 cumulative IPC: 1.35723 (Simulation time: 0 hr 12 min 37 sec) 
Heartbeat CPU 0 instructions: 470000002 cycles: 312218444 heartbeat IPC: 2.15363 cumulative IPC: 1.37093 (Simulation time: 0 hr 12 min 53 sec) 
Heartbeat CPU 0 instructions: 480000000 cycles: 317510800 heartbeat IPC: 1.88952 cumulative IPC: 1.38091 (Simulation time: 0 hr 13 min 10 sec) 
Heartbeat CPU 0 instructions: 490000001 cycles: 324826654 heartbeat IPC: 1.36689 cumulative IPC: 1.38054 (Simulation time: 0 hr 13 min 28 sec) 
Heartbeat CPU 0 instructions: 500000000 cycles: 333556954 heartbeat IPC: 1.14544 cumulative IPC: 1.3735 (Simulation time: 0 hr 13 min 48 sec) 
Heartbeat CPU 0 instructions: 510000002 cycles: 342287325 heartbeat IPC: 1.14543 cumulative IPC: 1.36686 (Simulation time: 0 hr 14 min 8 sec) 
Heartbeat CPU 0 instructions: 520000000 cycles: 351014449 heartbeat IPC: 1.14585 cumulative IPC: 1.36061 (Simulation time: 0 hr 14 min 27 sec) 
Heartbeat CPU 0 instructions: 530000000 cycles: 359720570 heartbeat IPC: 1.14862 cumulative IPC: 1.35479 (Simulation time: 0 hr 14 min 47 sec) 
Heartbeat CPU 0 instructions: 540000000 cycles: 367974803 heartbeat IPC: 1.2115 cumulative IPC: 1.35116 (Simulation time: 0 hr 15 min 6 sec) 
Heartbeat CPU 0 instructions: 550000000 cycles: 375012968 heartbeat IPC: 1.42082 cumulative IPC: 1.35264 (Simulation time: 0 hr 15 min 23 sec) 
Heartbeat CPU 0 instructions: 560000000 cycles: 381621558 heartbeat IPC: 1.51318 cumulative IPC: 1.35576 (Simulation time: 0 hr 15 min 40 sec) 
Heartbeat CPU 0 instructions: 570000002 cycles: 388208228 heartbeat IPC: 1.51822 cumulative IPC: 1.35886 (Simulation time: 0 hr 15 min 57 sec) 
Heartbeat CPU 0 instructions: 580000000 cycles: 394850515 heartbeat IPC: 1.50551 cumulative IPC: 1.36162 (Simulation time: 0 hr 16 min 14 sec) 
Heartbeat CPU 0 instructions: 590000002 cycles: 401533527 heartbeat IPC: 1.49633 cumulative IPC: 1.36413 (Simulation time: 0 hr 16 min 31 sec) 
Heartbeat CPU 0 instructions: 600000000 cycles: 408346067 heartbeat IPC: 1.46788 cumulative IPC: 1.36606 (Simulation time: 0 hr 16 min 48 sec) 
Finished CPU 0 instructions: 500000000 cycles: 366016895 cumulative IPC: 1.36606 (Simulation time: 0 hr 16 min 48 sec) 

CPU 0 Branch Prediction Accuracy: 93.4682% MPKI: 2.44079
Number of Branches: 18683822 Number of Mispredictions: 1220394
Number of LOAD Instructions: 142551610
Number of LOAD Instructions (ROI): 142551610
Number of STORE Instructions: 44807454
Number of STORE Instructions (ROI): 44807454
Total Destination Memory Operands: 48357071
Total Destination Memory Operands (ROI): 48357071
Total Source Memory Operands: 142551610
Total Source Memory Operands (ROI): 142551610
Number of DEPENDED LOADS: 7395108
Number of DEPENDED LOADS (ROI): 7395108
Number of SQ_ADDED: 48357051
Number of SQ_ADDED (ROI): 48357051
Number of LQ_ADDED: 157221706
Number of LQ_ADDED (ROI): 157221706
Number of Instructions read from trace: 600000256

ChampSim completed all CPUs

Region of Interest Statistics

CPU 0 cumulative IPC: 1.36606 instructions: 500000000 cycles: 366016895
ITLB TOTAL     ACCESS:   88177379  HIT:   88177310  MISS:         69
ITLB LOAD      ACCESS:   88177379  HIT:   88177310  MISS:         69
ITLB RFO       ACCESS:          0  HIT:          0  MISS:          0
ITLB PREFETCH  ACCESS:          0  HIT:          0  MISS:          0
ITLB WRITEBACK ACCESS:          0  HIT:          0  MISS:          0
ITLB PREFETCH  REQUESTED:          0  ISSUED:          0  USEFUL:          0  USELESS:          0
ITLB TOTAL MSHR MERGED:         85
ITLB LOAD MSHR MERGED:         85
ITLB RFO MSHR MERGED:          0
ITLB PREFETCH MSHR MERGED:          0
ITLB WRITEBACK MSHR MERGED:          0
ITLB TOTAL ACCESSES:   88177464 HITS:   88177310 MISSES:        154
ITLB LOAD ACCESSES:   88177464 HITS:   88177310 MISSES:        154
ITLB RFO ACCESSES:          0 HITS:          0 MISSES:          0
ITLB PREFETCH ACCESSES:          0 HITS:          0 MISSES:          0
ITLB WRITEBACK ACCESSES:          0 HITS:          0 MISSES:          0
ITLB RQ ACCESS:  500000000
ITLB RQ TO_CACHE:   88177464
ITLB RQ MERGED:  411822536
ITLB RQ FORWARD:          0
ITLB WQ ACCESS:          0
ITLB WQ TO_CACHE:          0
ITLB WQ MERGED:          0
ITLB WQ FORWARD:          0
DTLB TOTAL     ACCESS:   88203860  HIT:   88076443  MISS:     127417
DTLB LOAD      ACCESS:   59485737  HIT:   59393279  MISS:      92458
DTLB RFO       ACCESS:   28718123  HIT:   28683164  MISS:      34959
DTLB PREFETCH  ACCESS:          0  HIT:          0  MISS:          0
DTLB WRITEBACK ACCESS:          0  HIT:          0  MISS:          0
DTLB PREFETCH  REQUESTED:          0  ISSUED:          0  USEFUL:          0  USELESS:          0
DTLB TOTAL MSHR MERGED:     140884
DTLB LOAD MSHR MERGED:     107586
DTLB RFO MSHR MERGED:      33298
DTLB PREFETCH MSHR MERGED:          0
DTLB WRITEBACK MSHR MERGED:          0
DTLB TOTAL ACCESSES:   88344744 HITS:   88076443 MISSES:     268301
DTLB LOAD ACCESSES:   59593323 HITS:   59393279 MISSES:     200044
DTLB RFO ACCESSES:   28751421 HITS:   28683164 MISSES:      68257
DTLB PREFETCH ACCESSES:          0 HITS:          0 MISSES:          0
DTLB WRITEBACK ACCESSES:          0 HITS:          0 MISSES:          0
DTLB RQ ACCESS:  154558786
DTLB RQ TO_CACHE:   88344744
DTLB RQ MERGED:   66214042
DTLB RQ FORWARD:          0
DTLB WQ ACCESS:          0
DTLB WQ TO_CACHE:          0
DTLB WQ MERGED:          0
DTLB WQ FORWARD:          0
L1D TOTAL     ACCESS:  127884333  HIT:  124658921  MISS:    3225412
L1D LOAD      ACCESS:   53172446  HIT:   51976850  MISS:    1195596
L1D RFO       ACCESS:   37340938  HIT:   36726654  MISS:     614284
L1D PREFETCH  ACCESS:   37370949  HIT:   35955417  MISS:    1415532
L1D WRITEBACK ACCESS:          0  HIT:          0  MISS:          0
L1D PREFETCH  REQUESTED:   53658064  ISSUED:   52457436  USEFUL:     351852  USELESS:    1063645
L1D TOTAL MSHR MERGED:    2963419
L1D LOAD MSHR MERGED:     524546
L1D RFO MSHR MERGED:    1613103
L1D PREFETCH MSHR MERGED:     825770
L1D WRITEBACK MSHR MERGED:          0
L1D TOTAL ACCESSES:  130882466 HITS:  124693635 MISSES:    6188831
L1D LOAD ACCESSES:   53660777 HITS:   51979563 MISSES:    1681214
L1D RFO ACCESSES:   38952829 HITS:   36726654 MISSES:    2226175
L1D PREFETCH ACCESSES:   38268860 HITS:   35987418 MISSES:    2281442
L1D WRITEBACK ACCESSES:          0 HITS:          0 MISSES:          0
L1D RQ ACCESS:  113713894
L1D RQ TO_CACHE:   53658064
L1D RQ MERGED:   60053117
L1D RQ FORWARD:          0
L1D WQ ACCESS:   40844891
L1D WQ TO_CACHE:   38952829
L1D WQ MERGED:    1892062
L1D WQ FORWARD:      34714
L1I TOTAL     ACCESS:  108368877  HIT:  107809743  MISS:     559134
L1I LOAD      ACCESS:  108368877  HIT:  107809743  MISS:     559134
L1I RFO       ACCESS:          0  HIT:          0  MISS:          0
L1I PREFETCH  ACCESS:          0  HIT:          0  MISS:          0
L1I WRITEBACK ACCESS:          0  HIT:          0  MISS:          0
L1I PREFETCH  REQUESTED:          0  ISSUED:          0  USEFUL:          0  USELESS:          0
L1I TOTAL MSHR MERGED:     525786
L1I LOAD MSHR MERGED:     525786
L1I RFO MSHR MERGED:          0
L1I PREFETCH MSHR MERGED:          0
L1I WRITEBACK MSHR MERGED:          0
L1I TOTAL ACCESSES:  108894663 HITS:  107809743 MISSES:    1084920
L1I LOAD ACCESSES:  108894663 HITS:  107809743 MISSES:    1084920
L1I RFO ACCESSES:          0 HITS:          0 MISSES:          0
L1I PREFETCH ACCESSES:          0 HITS:          0 MISSES:          0
L1I WRITEBACK ACCESSES:          0 HITS:          0 MISSES:          0
L1I RQ ACCESS:  500000002
L1I RQ TO_CACHE:  108894663
L1I RQ MERGED:  391105339
L1I RQ FORWARD:          0
L1I WQ ACCESS:          0
L1I WQ TO_CACHE:          0
L1I WQ MERGED:          0
L1I WQ FORWARD:          0
L2C TOTAL     ACCESS:    4691253  HIT:    3865428  MISS:     825825
L2C LOAD      ACCESS:    1715690  HIT:    1562372  MISS:     153318
L2C RFO       ACCESS:     611655  HIT:     421166  MISS:     190489
L2C PREFETCH  ACCESS:    1661001  HIT:    1181168  MISS:     479833
L2C WRITEBACK ACCESS:     702907  HIT:     700722  MISS:       2185
L2C PREFETCH  REQUESTED:     256485  ISSUED:     256485  USEFUL:     172725  USELESS:     307774
L2C TOTAL MSHR MERGED:      13256
L2C LOAD MSHR MERGED:       4098
L2C RFO MSHR MERGED:          0
L2C PREFETCH MSHR MERGED:       9158
L2C WRITEBACK MSHR MERGED:          0
L2C TOTAL ACCESSES:    4712326 HITS:    3867030 MISSES:     845296
L2C LOAD ACCESSES:    1715802 HITS:    1562484 MISSES:     153318
L2C RFO ACCESSES:     613072 HITS:     422583 MISSES:     190489
L2C PREFETCH ACCESSES:    1680545 HITS:    1181241 MISSES:     499304
L2C WRITEBACK ACCESSES:     702907 HITS:     700722 MISSES:       2185
L2C RQ ACCESS:    2328874
L2C RQ TO_CACHE:    2327345
L2C RQ MERGED:          0
L2C RQ FORWARD:          0
L2C WQ ACCESS:     702907
L2C WQ TO_CACHE:     702907
L2C WQ MERGED:          0
L2C WQ FORWARD:       1602
LLC TOTAL     ACCESS:    1047589  HIT:     232930  MISS:     814659
LLC LOAD      ACCESS:     149217  HIT:      86769  MISS:      62448
LLC RFO       ACCESS:     190481  HIT:       6973  MISS:     183508
LLC PREFETCH  ACCESS:     487017  HIT:     102654  MISS:     384363
LLC WRITEBACK ACCESS:     220874  HIT:      36534  MISS:     184340
LLC PREFETCH  REQUESTED:          0  ISSUED:          0  USEFUL:       1995  USELESS:     382808
LLC TOTAL MSHR MERGED:       2322
LLC LOAD MSHR MERGED:        909
LLC RFO MSHR MERGED:          0
LLC PREFETCH MSHR MERGED:       1413
LLC WRITEBACK MSHR MERGED:          0
LLC TOTAL ACCESSES:    1049922 HITS:     232941 MISSES:     816981
LLC LOAD ACCESSES:     149220 HITS:      86772 MISSES:      62448
LLC RFO ACCESSES:     190489 HITS:       6981 MISSES:     183508
LLC PREFETCH ACCESSES:     489339 HITS:     102654 MISSES:     386685
LLC WRITEBACK ACCESSES:     220874 HITS:      36534 MISSES:     184340
LLC 0 RQ ACCESS:     339709
LLC 0 RQ TO_CACHE:     339698
LLC 0 RQ MERGED:          0
LLC 0 RQ FORWARD:          0
LLC WQ ACCESS:     220874
LLC WQ TO_CACHE:     220874
LLC WQ MERGED:          0
LLC WQ FORWARD:         11
Major fault: 0 Minor fault: 6811
CPU 0 L1D next line prefetcher final stats
CPU 0 L2C PC-based stride prefetcher final stats
All Misses: 955117
All Hits: 299455
SD Algo Stats - Switches: 0 SRR-Repls: 69790 BRR-Repls: 0

DRAM Statistics
 CHANNEL 0
 RQ ROW_BUFFER_HIT:     331623  ROW_BUFFER_MISS:     298568
 DBUS_CONGESTED:     438938
 WQ ROW_BUFFER_HIT:      32434  ROW_BUFFER_MISS:     184024  FULL:          0

 AVG_CONGESTED_CYCLE: 13
LOADS RETIRED: 119922929
INSTR RETIRED: 500000000
