
*** ChampSim Multicore Out-of-Order Simulator ***

Warmup Instructions: 100000000
Simulation Instructions: 500000000
Number of CPUs: 1
LLC sets: 2048
LLC ways: 16
Clean RRIP Policies: 2213231222132312 Dirty RRIP Policies: 1203130212031302 PSEL Width: 10 Track Set: 4294967295 PSEL Mask: 1 Demote Mask: 1040100310401003DS Algo: 0Window size: 0
Off-chip DRAM Size: 4096 MB Channels: 1 Width: 64-bit Data Rate: 1600 MT/s

CPU 0 runs /mnt/beegfs/iconst01/spec2017/Xz.trace.gz
NOT SORTED
TRACE STRING: /mnt/beegfs/iconst01/spec2017/Xz.trace.gz
SORTED
TRACE STRING: /mnt/beegfs/iconst01/spec2017/Xz.trace.gz
INITIAL
TRACE STRING: /mnt/beegfs/iconst01/spec2017/Xz.trace.gz

champsim_seed used: 210

CPU 0 L1D next line prefetcher
CPU 0 L2C IP-based stride prefetcher
Initialize DRRIP state
Assign rand_sets[0]: 454  LLC: 2048
rand_sets[0]: 454
Assign rand_sets[1]: 1662  LLC: 2048
rand_sets[1]: 1662
Assign rand_sets[2]: 1921  LLC: 2048
rand_sets[2]: 1921
Assign rand_sets[3]: 1131  LLC: 2048
rand_sets[3]: 1131
Assign rand_sets[4]: 331  LLC: 2048
rand_sets[4]: 331
Assign rand_sets[5]: 1531  LLC: 2048
rand_sets[5]: 1531
Assign rand_sets[6]: 482  LLC: 2048
rand_sets[6]: 482
Assign rand_sets[7]: 1275  LLC: 2048
rand_sets[7]: 1275
Assign rand_sets[8]: 1876  LLC: 2048
rand_sets[8]: 1876
Assign rand_sets[9]: 2038  LLC: 2048
rand_sets[9]: 2038
Assign rand_sets[10]: 701  LLC: 2048
rand_sets[10]: 701
Assign rand_sets[11]: 479  LLC: 2048
rand_sets[11]: 479
Assign rand_sets[12]: 892  LLC: 2048
rand_sets[12]: 892
Assign rand_sets[13]: 1820  LLC: 2048
rand_sets[13]: 1820
Assign rand_sets[14]: 1505  LLC: 2048
rand_sets[14]: 1505
Assign rand_sets[15]: 1159  LLC: 2048
rand_sets[15]: 1159
Assign rand_sets[16]: 513  LLC: 2048
rand_sets[16]: 513
Assign rand_sets[17]: 703  LLC: 2048
rand_sets[17]: 703
Assign rand_sets[18]: 561  LLC: 2048
rand_sets[18]: 561
Assign rand_sets[19]: 990  LLC: 2048
rand_sets[19]: 990
Assign rand_sets[20]: 342  LLC: 2048
rand_sets[20]: 342
Assign rand_sets[21]: 882  LLC: 2048
rand_sets[21]: 882
Assign rand_sets[22]: 15  LLC: 2048
rand_sets[22]: 15
Assign rand_sets[23]: 71  LLC: 2048
rand_sets[23]: 71
Assign rand_sets[24]: 1127  LLC: 2048
rand_sets[24]: 1127
Assign rand_sets[25]: 1382  LLC: 2048
rand_sets[25]: 1382
Assign rand_sets[26]: 647  LLC: 2048
rand_sets[26]: 647
Assign rand_sets[27]: 857  LLC: 2048
rand_sets[27]: 857
Assign rand_sets[28]: 1450  LLC: 2048
rand_sets[28]: 1450
Assign rand_sets[29]: 1160  LLC: 2048
rand_sets[29]: 1160
Assign rand_sets[30]: 1852  LLC: 2048
rand_sets[30]: 1852
Assign rand_sets[31]: 1881  LLC: 2048
rand_sets[31]: 1881
Assign rand_sets[32]: 1770  LLC: 2048
rand_sets[32]: 1770
Assign rand_sets[33]: 1622  LLC: 2048
rand_sets[33]: 1622
Assign rand_sets[34]: 275  LLC: 2048
rand_sets[34]: 275
Assign rand_sets[35]: 635  LLC: 2048
rand_sets[35]: 635
Assign rand_sets[36]: 466  LLC: 2048
rand_sets[36]: 466
Assign rand_sets[37]: 1413  LLC: 2048
rand_sets[37]: 1413
Assign rand_sets[38]: 417  LLC: 2048
rand_sets[38]: 417
Assign rand_sets[39]: 472  LLC: 2048
rand_sets[39]: 472
Assign rand_sets[40]: 1340  LLC: 2048
rand_sets[40]: 1340
Assign rand_sets[41]: 852  LLC: 2048
rand_sets[41]: 852
Assign rand_sets[42]: 1365  LLC: 2048
rand_sets[42]: 1365
Assign rand_sets[43]: 47  LLC: 2048
rand_sets[43]: 47
Assign rand_sets[44]: 823  LLC: 2048
rand_sets[44]: 823
Assign rand_sets[45]: 686  LLC: 2048
rand_sets[45]: 686
Assign rand_sets[46]: 1637  LLC: 2048
rand_sets[46]: 1637
Assign rand_sets[47]: 1115  LLC: 2048
rand_sets[47]: 1115
Assign rand_sets[48]: 986  LLC: 2048
rand_sets[48]: 986
Assign rand_sets[49]: 258  LLC: 2048
rand_sets[49]: 258
Assign rand_sets[50]: 633  LLC: 2048
rand_sets[50]: 633
Assign rand_sets[51]: 920  LLC: 2048
rand_sets[51]: 920
Assign rand_sets[52]: 204  LLC: 2048
rand_sets[52]: 204
Assign rand_sets[53]: 227  LLC: 2048
rand_sets[53]: 227
Assign rand_sets[54]: 1818  LLC: 2048
rand_sets[54]: 1818
Assign rand_sets[55]: 886  LLC: 2048
rand_sets[55]: 886
Assign rand_sets[56]: 1422  LLC: 2048
rand_sets[56]: 1422
Assign rand_sets[57]: 607  LLC: 2048
rand_sets[57]: 607
Assign rand_sets[58]: 217  LLC: 2048
rand_sets[58]: 217
Assign rand_sets[59]: 1945  LLC: 2048
rand_sets[59]: 1945
Assign rand_sets[60]: 143  LLC: 2048
rand_sets[60]: 143
Assign rand_sets[61]: 1311  LLC: 2048
rand_sets[61]: 1311
Assign rand_sets[62]: 319  LLC: 2048
rand_sets[62]: 319
Assign rand_sets[63]: 1846  LLC: 2048
rand_sets[63]: 1846
 CLEAN-RRIP-POLICY-1: 2-2-1-3-2-3-1-2- CLEAN-RRIP-POLICY-2: 2-2-1-3-2-3-1-2-
 DIRTY-RRIP-POLICY-1: 1-2-0-3-1-3-0-2- DIRTY-RRIP-POLICY-2: 1-2-0-3-1-3-0-2-
 PSEL width: 10
Heartbeat CPU 0 instructions: 10000000 cycles: 4305270 heartbeat IPC: 2.32273 cumulative IPC: 2.32273 (Simulation time: 0 hr 0 min 11 sec) 
Heartbeat CPU 0 instructions: 20000000 cycles: 8617101 heartbeat IPC: 2.3192 cumulative IPC: 2.32097 (Simulation time: 0 hr 0 min 23 sec) 
Heartbeat CPU 0 instructions: 30000003 cycles: 13160976 heartbeat IPC: 2.20077 cumulative IPC: 2.27947 (Simulation time: 0 hr 0 min 35 sec) 
Heartbeat CPU 0 instructions: 40000000 cycles: 17515454 heartbeat IPC: 2.29649 cumulative IPC: 2.2837 (Simulation time: 0 hr 0 min 47 sec) 
Heartbeat CPU 0 instructions: 50000001 cycles: 21878228 heartbeat IPC: 2.29212 cumulative IPC: 2.28538 (Simulation time: 0 hr 0 min 59 sec) 
Heartbeat CPU 0 instructions: 60000000 cycles: 26178395 heartbeat IPC: 2.32549 cumulative IPC: 2.29197 (Simulation time: 0 hr 1 min 10 sec) 
Heartbeat CPU 0 instructions: 70000001 cycles: 30244257 heartbeat IPC: 2.4595 cumulative IPC: 2.31449 (Simulation time: 0 hr 1 min 21 sec) 
Heartbeat CPU 0 instructions: 80000000 cycles: 34523005 heartbeat IPC: 2.33713 cumulative IPC: 2.3173 (Simulation time: 0 hr 1 min 32 sec) 
Heartbeat CPU 0 instructions: 90000001 cycles: 38739601 heartbeat IPC: 2.37158 cumulative IPC: 2.3232 (Simulation time: 0 hr 1 min 44 sec) 
Heartbeat CPU 0 instructions: 100000000 cycles: 42979955 heartbeat IPC: 2.35829 cumulative IPC: 2.32667 (Simulation time: 0 hr 1 min 55 sec) 

Warmup complete CPU 0 instructions: 100000001 cycles: 42979956 (Simulation time: 0 hr 1 min 55 sec) 

Heartbeat CPU 0 instructions: 110000000 cycles: 53091196 heartbeat IPC: 0.988998 cumulative IPC: 0.988998 (Simulation time: 0 hr 2 min 11 sec) 
Heartbeat CPU 0 instructions: 120000000 cycles: 63685592 heartbeat IPC: 0.943895 cumulative IPC: 0.965921 (Simulation time: 0 hr 2 min 29 sec) 
Heartbeat CPU 0 instructions: 130000001 cycles: 74252718 heartbeat IPC: 0.946331 cumulative IPC: 0.959301 (Simulation time: 0 hr 2 min 46 sec) 
Heartbeat CPU 0 instructions: 140000000 cycles: 83926503 heartbeat IPC: 1.03372 cumulative IPC: 0.976883 (Simulation time: 0 hr 3 min 2 sec) 
Heartbeat CPU 0 instructions: 150000001 cycles: 94213823 heartbeat IPC: 0.972071 cumulative IPC: 0.975917 (Simulation time: 0 hr 3 min 19 sec) 
Heartbeat CPU 0 instructions: 160000000 cycles: 104244635 heartbeat IPC: 0.996928 cumulative IPC: 0.979357 (Simulation time: 0 hr 3 min 36 sec) 
Heartbeat CPU 0 instructions: 170000000 cycles: 113890866 heartbeat IPC: 1.03667 cumulative IPC: 0.987154 (Simulation time: 0 hr 3 min 52 sec) 
Heartbeat CPU 0 instructions: 180000000 cycles: 124409511 heartbeat IPC: 0.950693 cumulative IPC: 0.982444 (Simulation time: 0 hr 4 min 9 sec) 
Heartbeat CPU 0 instructions: 190000001 cycles: 134643608 heartbeat IPC: 0.977126 cumulative IPC: 0.98185 (Simulation time: 0 hr 4 min 26 sec) 
Heartbeat CPU 0 instructions: 200000000 cycles: 145187005 heartbeat IPC: 0.948461 cumulative IPC: 0.978406 (Simulation time: 0 hr 4 min 43 sec) 
Heartbeat CPU 0 instructions: 210000002 cycles: 157606855 heartbeat IPC: 0.805163 cumulative IPC: 0.959635 (Simulation time: 0 hr 5 min 1 sec) 
Heartbeat CPU 0 instructions: 220000000 cycles: 170099087 heartbeat IPC: 0.800497 cumulative IPC: 0.943996 (Simulation time: 0 hr 5 min 19 sec) 
Heartbeat CPU 0 instructions: 230000000 cycles: 182222032 heartbeat IPC: 0.824882 cumulative IPC: 0.933626 (Simulation time: 0 hr 5 min 37 sec) 
Heartbeat CPU 0 instructions: 240000000 cycles: 194301531 heartbeat IPC: 0.827849 cumulative IPC: 0.925182 (Simulation time: 0 hr 5 min 55 sec) 
Heartbeat CPU 0 instructions: 250000000 cycles: 206225956 heartbeat IPC: 0.838615 cumulative IPC: 0.918859 (Simulation time: 0 hr 6 min 13 sec) 
Heartbeat CPU 0 instructions: 260000000 cycles: 217739892 heartbeat IPC: 0.868513 cumulative IPC: 0.915542 (Simulation time: 0 hr 6 min 31 sec) 
Heartbeat CPU 0 instructions: 270000003 cycles: 229547393 heartbeat IPC: 0.84692 cumulative IPC: 0.911199 (Simulation time: 0 hr 6 min 49 sec) 
Heartbeat CPU 0 instructions: 280000000 cycles: 241050838 heartbeat IPC: 0.869305 cumulative IPC: 0.908766 (Simulation time: 0 hr 7 min 7 sec) 
Heartbeat CPU 0 instructions: 290000002 cycles: 252505180 heartbeat IPC: 0.873032 cumulative IPC: 0.906812 (Simulation time: 0 hr 7 min 24 sec) 
Heartbeat CPU 0 instructions: 300000000 cycles: 264897670 heartbeat IPC: 0.80694 cumulative IPC: 0.901235 (Simulation time: 0 hr 7 min 42 sec) 
Heartbeat CPU 0 instructions: 310000000 cycles: 276988569 heartbeat IPC: 0.827068 cumulative IPC: 0.897403 (Simulation time: 0 hr 8 min 0 sec) 
Heartbeat CPU 0 instructions: 320000000 cycles: 289579176 heartbeat IPC: 0.794243 cumulative IPC: 0.892136 (Simulation time: 0 hr 8 min 18 sec) 
Heartbeat CPU 0 instructions: 330000003 cycles: 301449966 heartbeat IPC: 0.842404 cumulative IPC: 0.889852 (Simulation time: 0 hr 8 min 36 sec) 
Heartbeat CPU 0 instructions: 340000000 cycles: 313487764 heartbeat IPC: 0.830716 cumulative IPC: 0.88722 (Simulation time: 0 hr 8 min 54 sec) 
Heartbeat CPU 0 instructions: 350000001 cycles: 324447250 heartbeat IPC: 0.912452 cumulative IPC: 0.888203 (Simulation time: 0 hr 9 min 11 sec) 
Heartbeat CPU 0 instructions: 360000000 cycles: 336183508 heartbeat IPC: 0.85206 cumulative IPC: 0.886756 (Simulation time: 0 hr 9 min 29 sec) 
Heartbeat CPU 0 instructions: 370000001 cycles: 347570643 heartbeat IPC: 0.878184 cumulative IPC: 0.886436 (Simulation time: 0 hr 9 min 47 sec) 
Heartbeat CPU 0 instructions: 380000000 cycles: 358551569 heartbeat IPC: 0.91067 cumulative IPC: 0.887279 (Simulation time: 0 hr 10 min 4 sec) 
Heartbeat CPU 0 instructions: 390000003 cycles: 369146335 heartbeat IPC: 0.943863 cumulative IPC: 0.889117 (Simulation time: 0 hr 10 min 21 sec) 
Heartbeat CPU 0 instructions: 400000000 cycles: 379352411 heartbeat IPC: 0.979808 cumulative IPC: 0.891869 (Simulation time: 0 hr 10 min 39 sec) 
Heartbeat CPU 0 instructions: 410000000 cycles: 389842787 heartbeat IPC: 0.953255 cumulative IPC: 0.893725 (Simulation time: 0 hr 10 min 56 sec) 
Heartbeat CPU 0 instructions: 420000000 cycles: 399221088 heartbeat IPC: 1.06629 cumulative IPC: 0.898268 (Simulation time: 0 hr 11 min 12 sec) 
Heartbeat CPU 0 instructions: 430000002 cycles: 408310579 heartbeat IPC: 1.10017 cumulative IPC: 0.903291 (Simulation time: 0 hr 11 min 29 sec) 
Heartbeat CPU 0 instructions: 440000000 cycles: 418552303 heartbeat IPC: 0.976398 cumulative IPC: 0.905285 (Simulation time: 0 hr 11 min 46 sec) 
Heartbeat CPU 0 instructions: 450000002 cycles: 429600070 heartbeat IPC: 0.90516 cumulative IPC: 0.905281 (Simulation time: 0 hr 12 min 4 sec) 
Heartbeat CPU 0 instructions: 460000000 cycles: 441098258 heartbeat IPC: 0.869702 cumulative IPC: 0.904254 (Simulation time: 0 hr 12 min 21 sec) 
Heartbeat CPU 0 instructions: 470000003 cycles: 451274403 heartbeat IPC: 0.982691 cumulative IPC: 0.906209 (Simulation time: 0 hr 12 min 38 sec) 
Heartbeat CPU 0 instructions: 480000000 cycles: 461789642 heartbeat IPC: 0.951 cumulative IPC: 0.907333 (Simulation time: 0 hr 12 min 56 sec) 
Heartbeat CPU 0 instructions: 490000000 cycles: 471730109 heartbeat IPC: 1.00599 cumulative IPC: 0.909621 (Simulation time: 0 hr 13 min 13 sec) 
Heartbeat CPU 0 instructions: 500000000 cycles: 483466747 heartbeat IPC: 0.852033 cumulative IPC: 0.908086 (Simulation time: 0 hr 13 min 30 sec) 
Heartbeat CPU 0 instructions: 510000002 cycles: 495855684 heartbeat IPC: 0.807172 cumulative IPC: 0.905326 (Simulation time: 0 hr 13 min 48 sec) 
Heartbeat CPU 0 instructions: 520000000 cycles: 507697154 heartbeat IPC: 0.84449 cumulative IPC: 0.903775 (Simulation time: 0 hr 14 min 6 sec) 
Heartbeat CPU 0 instructions: 530000001 cycles: 519502872 heartbeat IPC: 0.847047 cumulative IPC: 0.90237 (Simulation time: 0 hr 14 min 24 sec) 
Heartbeat CPU 0 instructions: 540000000 cycles: 531063797 heartbeat IPC: 0.864983 cumulative IPC: 0.901484 (Simulation time: 0 hr 14 min 42 sec) 
Heartbeat CPU 0 instructions: 550000001 cycles: 542405842 heartbeat IPC: 0.881675 cumulative IPC: 0.901035 (Simulation time: 0 hr 14 min 59 sec) 
Heartbeat CPU 0 instructions: 560000000 cycles: 553920755 heartbeat IPC: 0.868439 cumulative IPC: 0.9003 (Simulation time: 0 hr 15 min 17 sec) 
Heartbeat CPU 0 instructions: 570000000 cycles: 565289102 heartbeat IPC: 0.879635 cumulative IPC: 0.89985 (Simulation time: 0 hr 15 min 35 sec) 
Heartbeat CPU 0 instructions: 580000000 cycles: 576020801 heartbeat IPC: 0.931819 cumulative IPC: 0.900494 (Simulation time: 0 hr 15 min 52 sec) 
Heartbeat CPU 0 instructions: 590000003 cycles: 587372319 heartbeat IPC: 0.88094 cumulative IPC: 0.900086 (Simulation time: 0 hr 16 min 9 sec) 
Heartbeat CPU 0 instructions: 600000000 cycles: 597923027 heartbeat IPC: 0.947803 cumulative IPC: 0.900993 (Simulation time: 0 hr 16 min 26 sec) 
Finished CPU 0 instructions: 500000001 cycles: 554943079 cumulative IPC: 0.900993 (Simulation time: 0 hr 16 min 26 sec) 

CPU 0 Branch Prediction Accuracy: 93.0095% MPKI: 10.0046
Number of Branches: 71558147 Number of Mispredictions: 5002285
Number of LOAD Instructions: 145708893
Number of LOAD Instructions (ROI): 145708893
Number of STORE Instructions: 40463820
Number of STORE Instructions (ROI): 40463820
Total Destination Memory Operands: 45240498
Total Destination Memory Operands (ROI): 45240498
Total Source Memory Operands: 145708893
Total Source Memory Operands (ROI): 145708893
Number of DEPENDED LOADS: 10670536
Number of DEPENDED LOADS (ROI): 10670536
Number of SQ_ADDED: 45240498
Number of SQ_ADDED (ROI): 45240498
Number of LQ_ADDED: 193322458
Number of LQ_ADDED (ROI): 193322458
Number of Instructions read from trace: 600000002

ChampSim completed all CPUs

Region of Interest Statistics

CPU 0 cumulative IPC: 0.900993 instructions: 500000001 cycles: 554943079
ITLB TOTAL     ACCESS:   77992502  HIT:   77992501  MISS:          1
ITLB LOAD      ACCESS:   77992502  HIT:   77992501  MISS:          1
ITLB RFO       ACCESS:          0  HIT:          0  MISS:          0
ITLB PREFETCH  ACCESS:          0  HIT:          0  MISS:          0
ITLB WRITEBACK ACCESS:          0  HIT:          0  MISS:          0
ITLB PREFETCH  REQUESTED:          0  ISSUED:          0  USEFUL:          0  USELESS:          0
ITLB TOTAL MSHR MERGED:          0
ITLB LOAD MSHR MERGED:          0
ITLB RFO MSHR MERGED:          0
ITLB PREFETCH MSHR MERGED:          0
ITLB WRITEBACK MSHR MERGED:          0
ITLB TOTAL ACCESSES:   77992502 HITS:   77992501 MISSES:          1
ITLB LOAD ACCESSES:   77992502 HITS:   77992501 MISSES:          1
ITLB RFO ACCESSES:          0 HITS:          0 MISSES:          0
ITLB PREFETCH ACCESSES:          0 HITS:          0 MISSES:          0
ITLB WRITEBACK ACCESSES:          0 HITS:          0 MISSES:          0
ITLB RQ ACCESS:  499999995
ITLB RQ TO_CACHE:   77992502
ITLB RQ MERGED:  422007493
ITLB RQ FORWARD:          0
ITLB WQ ACCESS:          0
ITLB WQ TO_CACHE:          0
ITLB WQ MERGED:          0
ITLB WQ FORWARD:          0
DTLB TOTAL     ACCESS:   98669777  HIT:   97788441  MISS:     881336
DTLB LOAD      ACCESS:   70889888  HIT:   70028355  MISS:     861533
DTLB RFO       ACCESS:   27779889  HIT:   27760086  MISS:      19803
DTLB PREFETCH  ACCESS:          0  HIT:          0  MISS:          0
DTLB WRITEBACK ACCESS:          0  HIT:          0  MISS:          0
DTLB PREFETCH  REQUESTED:          0  ISSUED:          0  USEFUL:          0  USELESS:          0
DTLB TOTAL MSHR MERGED:      87415
DTLB LOAD MSHR MERGED:      65674
DTLB RFO MSHR MERGED:      21741
DTLB PREFETCH MSHR MERGED:          0
DTLB WRITEBACK MSHR MERGED:          0
DTLB TOTAL ACCESSES:   98757192 HITS:   97788441 MISSES:     968751
DTLB LOAD ACCESSES:   70955562 HITS:   70028355 MISSES:     927207
DTLB RFO ACCESSES:   27801630 HITS:   27760086 MISSES:      41544
DTLB PREFETCH ACCESSES:          0 HITS:          0 MISSES:          0
DTLB WRITEBACK ACCESSES:          0 HITS:          0 MISSES:          0
DTLB RQ ACCESS:  150274520
DTLB RQ TO_CACHE:   98757192
DTLB RQ MERGED:   51517328
DTLB RQ FORWARD:          0
DTLB WQ ACCESS:          0
DTLB WQ TO_CACHE:          0
DTLB WQ MERGED:          0
DTLB WQ FORWARD:          0
L1D TOTAL     ACCESS:  173332391  HIT:  169163764  MISS:    4168627
L1D LOAD      ACCESS:   75282704  HIT:   73401373  MISS:    1881331
L1D RFO       ACCESS:   36778590  HIT:   36571991  MISS:     206599
L1D PREFETCH  ACCESS:   61271097  HIT:   59190400  MISS:    2080697
L1D WRITEBACK ACCESS:          0  HIT:          0  MISS:          0
L1D PREFETCH  REQUESTED:   75386001  ISSUED:   74821815  USEFUL:     415144  USELESS:    1665542
L1D TOTAL MSHR MERGED:     372975
L1D LOAD MSHR MERGED:     112060
L1D RFO MSHR MERGED:     132863
L1D PREFETCH MSHR MERGED:     128052
L1D WRITEBACK MSHR MERGED:          0
L1D TOTAL ACCESSES:  173856951 HITS:  169315349 MISSES:    4541602
L1D LOAD ACCESSES:   75388950 HITS:   73404322 MISSES:    1984628
L1D RFO ACCESSES:   36910064 HITS:   36571991 MISSES:     338073
L1D PREFETCH ACCESSES:   61557937 HITS:   59339036 MISSES:    2218901
L1D WRITEBACK ACCESSES:          0 HITS:          0 MISSES:          0
L1D RQ ACCESS:  112612117
L1D RQ TO_CACHE:   75386001
L1D RQ MERGED:   37223167
L1D RQ FORWARD:          0
L1D WQ ACCESS:   37662403
L1D WQ TO_CACHE:   36910064
L1D WQ MERGED:     752339
L1D WQ FORWARD:     151585
L1I TOTAL     ACCESS:  100700419  HIT:  100700394  MISS:         25
L1I LOAD      ACCESS:  100700419  HIT:  100700394  MISS:         25
L1I RFO       ACCESS:          0  HIT:          0  MISS:          0
L1I PREFETCH  ACCESS:          0  HIT:          0  MISS:          0
L1I WRITEBACK ACCESS:          0  HIT:          0  MISS:          0
L1I PREFETCH  REQUESTED:          0  ISSUED:          0  USEFUL:          0  USELESS:          0
L1I TOTAL MSHR MERGED:         10
L1I LOAD MSHR MERGED:         10
L1I RFO MSHR MERGED:          0
L1I PREFETCH MSHR MERGED:          0
L1I WRITEBACK MSHR MERGED:          0
L1I TOTAL ACCESSES:  100700429 HITS:  100700394 MISSES:         35
L1I LOAD ACCESSES:  100700429 HITS:  100700394 MISSES:         35
L1I RFO ACCESSES:          0 HITS:          0 MISSES:          0
L1I PREFETCH ACCESSES:          0 HITS:          0 MISSES:          0
L1I WRITEBACK ACCESSES:          0 HITS:          0 MISSES:          0
L1I RQ ACCESS:  499999995
L1I RQ TO_CACHE:  100700429
L1I RQ MERGED:  399299566
L1I RQ FORWARD:          0
L1I WQ ACCESS:          0
L1I WQ TO_CACHE:          0
L1I WQ MERGED:          0
L1I WQ FORWARD:          0
L2C TOTAL     ACCESS:    5852600  HIT:    4009403  MISS:    1843197
L2C LOAD      ACCESS:    1872468  HIT:    1061516  MISS:     810952
L2C RFO       ACCESS:     205204  HIT:     100565  MISS:     104639
L2C PREFETCH  ACCESS:    2169295  HIT:    1246109  MISS:     923186
L2C WRITEBACK ACCESS:    1605633  HIT:    1601213  MISS:       4420
L2C PREFETCH  REQUESTED:      91709  ISSUED:      91709  USEFUL:      86462  USELESS:     836747
L2C TOTAL MSHR MERGED:       1013
L2C LOAD MSHR MERGED:        253
L2C RFO MSHR MERGED:          0
L2C PREFETCH MSHR MERGED:        760
L2C WRITEBACK MSHR MERGED:          0
L2C TOTAL ACCESSES:    5853923 HITS:    4009571 MISSES:    1844352
L2C LOAD ACCESSES:    1872593 HITS:    1061641 MISSES:     810952
L2C RFO ACCESSES:     205210 HITS:     100571 MISSES:     104639
L2C PREFETCH ACCESSES:    2170487 HITS:    1246146 MISSES:     924341
L2C WRITEBACK ACCESSES:    1605633 HITS:    1601213 MISSES:       4420
L2C RQ ACCESS:    2077803
L2C RQ TO_CACHE:    2077672
L2C RQ MERGED:          0
L2C RQ FORWARD:          0
L2C WQ ACCESS:    1605633
L2C WQ TO_CACHE:    1605633
L2C WQ MERGED:          0
L2C WQ FORWARD:        168
LLC TOTAL     ACCESS:    2673564  HIT:    2210902  MISS:     462662
LLC LOAD      ACCESS:     810690  HIT:     647681  MISS:     163009
LLC RFO       ACCESS:     104639  HIT:      60746  MISS:      43893
LLC PREFETCH  ACCESS:     923560  HIT:     694816  MISS:     228744
LLC WRITEBACK ACCESS:     834675  HIT:     807659  MISS:      27016
LLC PREFETCH  REQUESTED:          0  ISSUED:          0  USEFUL:       7254  USELESS:     221695
LLC TOTAL MSHR MERGED:          8
LLC LOAD MSHR MERGED:          2
LLC RFO MSHR MERGED:          0
LLC PREFETCH MSHR MERGED:          6
LLC WRITEBACK MSHR MERGED:          0
LLC TOTAL ACCESSES:    2673583 HITS:    2210913 MISSES:     462670
LLC LOAD ACCESSES:     810699 HITS:     647690 MISSES:     163009
LLC RFO ACCESSES:     104639 HITS:      60746 MISSES:      43893
LLC PREFETCH ACCESSES:     923570 HITS:     694818 MISSES:     228752
LLC WRITEBACK ACCESSES:     834675 HITS:     807659 MISSES:      27016
LLC 0 RQ ACCESS:     915338
LLC 0 RQ TO_CACHE:     915329
LLC 0 RQ MERGED:          0
LLC 0 RQ FORWARD:          0
LLC WQ ACCESS:     834675
LLC WQ TO_CACHE:     834675
LLC WQ MERGED:          0
LLC WQ FORWARD:         11
Major fault: 0 Minor fault: 11278
CPU 0 L1D next line prefetcher final stats
CPU 0 L2C PC-based stride prefetcher final stats
All Misses: 572641
All Hits: 2481941
SD Algo Stats - Switches: 0 SRR-Repls: 195347 BRR-Repls: 0

DRAM Statistics
 CHANNEL 0
 RQ ROW_BUFFER_HIT:      28956  ROW_BUFFER_MISS:     406433
 DBUS_CONGESTED:     333639
 WQ ROW_BUFFER_HIT:      13023  ROW_BUFFER_MISS:     192226  FULL:          0

 AVG_CONGESTED_CYCLE: 13
LOADS RETIRED: 121769268
INSTR RETIRED: 500000000
