
*** ChampSim Multicore Out-of-Order Simulator ***

Warmup Instructions: 100000000
Simulation Instructions: 500000000
Number of CPUs: 1
LLC sets: 2048
LLC ways: 16
Clean RRIP Policies: 1122031111220311 Dirty RRIP Policies: 2112131121121311 PSEL Width: 10 Track Set: 4294967295 PSEL Mask: 1 Demote Mask: 3330141033301410DS Algo: 0Window size: 0
Off-chip DRAM Size: 4096 MB Channels: 1 Width: 64-bit Data Rate: 1600 MT/s

CPU 0 runs /mnt/beegfs/iconst01/spec2017/Gcc.trace.gz
NOT SORTED
TRACE STRING: /mnt/beegfs/iconst01/spec2017/Gcc.trace.gz
SORTED
TRACE STRING: /mnt/beegfs/iconst01/spec2017/Gcc.trace.gz
INITIAL
TRACE STRING: /mnt/beegfs/iconst01/spec2017/Gcc.trace.gz

champsim_seed used: 269

CPU 0 L1D next line prefetcher
CPU 0 L2C IP-based stride prefetcher
Initialize DRRIP state
Assign rand_sets[0]: 454  LLC: 2048
rand_sets[0]: 454
Assign rand_sets[1]: 1662  LLC: 2048
rand_sets[1]: 1662
Assign rand_sets[2]: 1921  LLC: 2048
rand_sets[2]: 1921
Assign rand_sets[3]: 1131  LLC: 2048
rand_sets[3]: 1131
Assign rand_sets[4]: 331  LLC: 2048
rand_sets[4]: 331
Assign rand_sets[5]: 1531  LLC: 2048
rand_sets[5]: 1531
Assign rand_sets[6]: 482  LLC: 2048
rand_sets[6]: 482
Assign rand_sets[7]: 1275  LLC: 2048
rand_sets[7]: 1275
Assign rand_sets[8]: 1876  LLC: 2048
rand_sets[8]: 1876
Assign rand_sets[9]: 2038  LLC: 2048
rand_sets[9]: 2038
Assign rand_sets[10]: 701  LLC: 2048
rand_sets[10]: 701
Assign rand_sets[11]: 479  LLC: 2048
rand_sets[11]: 479
Assign rand_sets[12]: 892  LLC: 2048
rand_sets[12]: 892
Assign rand_sets[13]: 1820  LLC: 2048
rand_sets[13]: 1820
Assign rand_sets[14]: 1505  LLC: 2048
rand_sets[14]: 1505
Assign rand_sets[15]: 1159  LLC: 2048
rand_sets[15]: 1159
Assign rand_sets[16]: 513  LLC: 2048
rand_sets[16]: 513
Assign rand_sets[17]: 703  LLC: 2048
rand_sets[17]: 703
Assign rand_sets[18]: 561  LLC: 2048
rand_sets[18]: 561
Assign rand_sets[19]: 990  LLC: 2048
rand_sets[19]: 990
Assign rand_sets[20]: 342  LLC: 2048
rand_sets[20]: 342
Assign rand_sets[21]: 882  LLC: 2048
rand_sets[21]: 882
Assign rand_sets[22]: 15  LLC: 2048
rand_sets[22]: 15
Assign rand_sets[23]: 71  LLC: 2048
rand_sets[23]: 71
Assign rand_sets[24]: 1127  LLC: 2048
rand_sets[24]: 1127
Assign rand_sets[25]: 1382  LLC: 2048
rand_sets[25]: 1382
Assign rand_sets[26]: 647  LLC: 2048
rand_sets[26]: 647
Assign rand_sets[27]: 857  LLC: 2048
rand_sets[27]: 857
Assign rand_sets[28]: 1450  LLC: 2048
rand_sets[28]: 1450
Assign rand_sets[29]: 1160  LLC: 2048
rand_sets[29]: 1160
Assign rand_sets[30]: 1852  LLC: 2048
rand_sets[30]: 1852
Assign rand_sets[31]: 1881  LLC: 2048
rand_sets[31]: 1881
Assign rand_sets[32]: 1770  LLC: 2048
rand_sets[32]: 1770
Assign rand_sets[33]: 1622  LLC: 2048
rand_sets[33]: 1622
Assign rand_sets[34]: 275  LLC: 2048
rand_sets[34]: 275
Assign rand_sets[35]: 635  LLC: 2048
rand_sets[35]: 635
Assign rand_sets[36]: 466  LLC: 2048
rand_sets[36]: 466
Assign rand_sets[37]: 1413  LLC: 2048
rand_sets[37]: 1413
Assign rand_sets[38]: 417  LLC: 2048
rand_sets[38]: 417
Assign rand_sets[39]: 472  LLC: 2048
rand_sets[39]: 472
Assign rand_sets[40]: 1340  LLC: 2048
rand_sets[40]: 1340
Assign rand_sets[41]: 852  LLC: 2048
rand_sets[41]: 852
Assign rand_sets[42]: 1365  LLC: 2048
rand_sets[42]: 1365
Assign rand_sets[43]: 47  LLC: 2048
rand_sets[43]: 47
Assign rand_sets[44]: 823  LLC: 2048
rand_sets[44]: 823
Assign rand_sets[45]: 686  LLC: 2048
rand_sets[45]: 686
Assign rand_sets[46]: 1637  LLC: 2048
rand_sets[46]: 1637
Assign rand_sets[47]: 1115  LLC: 2048
rand_sets[47]: 1115
Assign rand_sets[48]: 986  LLC: 2048
rand_sets[48]: 986
Assign rand_sets[49]: 258  LLC: 2048
rand_sets[49]: 258
Assign rand_sets[50]: 633  LLC: 2048
rand_sets[50]: 633
Assign rand_sets[51]: 920  LLC: 2048
rand_sets[51]: 920
Assign rand_sets[52]: 204  LLC: 2048
rand_sets[52]: 204
Assign rand_sets[53]: 227  LLC: 2048
rand_sets[53]: 227
Assign rand_sets[54]: 1818  LLC: 2048
rand_sets[54]: 1818
Assign rand_sets[55]: 886  LLC: 2048
rand_sets[55]: 886
Assign rand_sets[56]: 1422  LLC: 2048
rand_sets[56]: 1422
Assign rand_sets[57]: 607  LLC: 2048
rand_sets[57]: 607
Assign rand_sets[58]: 217  LLC: 2048
rand_sets[58]: 217
Assign rand_sets[59]: 1945  LLC: 2048
rand_sets[59]: 1945
Assign rand_sets[60]: 143  LLC: 2048
rand_sets[60]: 143
Assign rand_sets[61]: 1311  LLC: 2048
rand_sets[61]: 1311
Assign rand_sets[62]: 319  LLC: 2048
rand_sets[62]: 319
Assign rand_sets[63]: 1846  LLC: 2048
rand_sets[63]: 1846
 CLEAN-RRIP-POLICY-1: 1-1-2-2-0-3-1-1- CLEAN-RRIP-POLICY-2: 1-1-2-2-0-3-1-1-
 DIRTY-RRIP-POLICY-1: 2-1-1-2-1-3-1-1- DIRTY-RRIP-POLICY-2: 2-1-1-2-1-3-1-1-
 PSEL width: 10
Heartbeat CPU 0 instructions: 10000001 cycles: 7315912 heartbeat IPC: 1.36688 cumulative IPC: 1.36688 (Simulation time: 0 hr 0 min 14 sec) 
Heartbeat CPU 0 instructions: 20000000 cycles: 14307482 heartbeat IPC: 1.43029 cumulative IPC: 1.39787 (Simulation time: 0 hr 0 min 29 sec) 
Heartbeat CPU 0 instructions: 30000001 cycles: 21020665 heartbeat IPC: 1.48961 cumulative IPC: 1.42717 (Simulation time: 0 hr 0 min 45 sec) 
Heartbeat CPU 0 instructions: 40000000 cycles: 27481642 heartbeat IPC: 1.54775 cumulative IPC: 1.45552 (Simulation time: 0 hr 1 min 1 sec) 
Heartbeat CPU 0 instructions: 50000001 cycles: 33583577 heartbeat IPC: 1.63882 cumulative IPC: 1.48882 (Simulation time: 0 hr 1 min 16 sec) 
Heartbeat CPU 0 instructions: 60000000 cycles: 40064849 heartbeat IPC: 1.54291 cumulative IPC: 1.49757 (Simulation time: 0 hr 1 min 32 sec) 
Heartbeat CPU 0 instructions: 70000000 cycles: 47104007 heartbeat IPC: 1.42062 cumulative IPC: 1.48607 (Simulation time: 0 hr 1 min 47 sec) 
Heartbeat CPU 0 instructions: 80000000 cycles: 54193811 heartbeat IPC: 1.41048 cumulative IPC: 1.47618 (Simulation time: 0 hr 2 min 2 sec) 
Heartbeat CPU 0 instructions: 90000003 cycles: 61198380 heartbeat IPC: 1.42764 cumulative IPC: 1.47063 (Simulation time: 0 hr 2 min 16 sec) 
Heartbeat CPU 0 instructions: 100000000 cycles: 68366034 heartbeat IPC: 1.39516 cumulative IPC: 1.46271 (Simulation time: 0 hr 2 min 31 sec) 

Warmup complete CPU 0 instructions: 100000004 cycles: 68366035 (Simulation time: 0 hr 2 min 31 sec) 

Heartbeat CPU 0 instructions: 110000003 cycles: 96104114 heartbeat IPC: 0.360515 cumulative IPC: 0.360515 (Simulation time: 0 hr 2 min 59 sec) 
Heartbeat CPU 0 instructions: 120000000 cycles: 123601613 heartbeat IPC: 0.363669 cumulative IPC: 0.362085 (Simulation time: 0 hr 3 min 28 sec) 
Heartbeat CPU 0 instructions: 130000000 cycles: 148632171 heartbeat IPC: 0.399512 cumulative IPC: 0.373757 (Simulation time: 0 hr 3 min 56 sec) 
Heartbeat CPU 0 instructions: 140000000 cycles: 178203658 heartbeat IPC: 0.338164 cumulative IPC: 0.364174 (Simulation time: 0 hr 4 min 24 sec) 
Heartbeat CPU 0 instructions: 150000000 cycles: 208117857 heartbeat IPC: 0.334289 cumulative IPC: 0.357777 (Simulation time: 0 hr 4 min 52 sec) 
Heartbeat CPU 0 instructions: 160000000 cycles: 235548082 heartbeat IPC: 0.364561 cumulative IPC: 0.35889 (Simulation time: 0 hr 5 min 19 sec) 
Heartbeat CPU 0 instructions: 170000001 cycles: 263652005 heartbeat IPC: 0.355822 cumulative IPC: 0.358449 (Simulation time: 0 hr 5 min 48 sec) 
Heartbeat CPU 0 instructions: 180000000 cycles: 292176485 heartbeat IPC: 0.350576 cumulative IPC: 0.357445 (Simulation time: 0 hr 6 min 17 sec) 
Heartbeat CPU 0 instructions: 190000002 cycles: 320307421 heartbeat IPC: 0.355481 cumulative IPC: 0.357226 (Simulation time: 0 hr 6 min 46 sec) 
Heartbeat CPU 0 instructions: 200000000 cycles: 348694926 heartbeat IPC: 0.352268 cumulative IPC: 0.356724 (Simulation time: 0 hr 7 min 14 sec) 
Heartbeat CPU 0 instructions: 210000002 cycles: 376597108 heartbeat IPC: 0.358395 cumulative IPC: 0.356875 (Simulation time: 0 hr 7 min 43 sec) 
Heartbeat CPU 0 instructions: 220000000 cycles: 405771803 heartbeat IPC: 0.342763 cumulative IPC: 0.355655 (Simulation time: 0 hr 8 min 10 sec) 
Heartbeat CPU 0 instructions: 230000000 cycles: 433363139 heartbeat IPC: 0.362433 cumulative IPC: 0.356167 (Simulation time: 0 hr 8 min 37 sec) 
Heartbeat CPU 0 instructions: 240000000 cycles: 459288032 heartbeat IPC: 0.38573 cumulative IPC: 0.358128 (Simulation time: 0 hr 9 min 4 sec) 
Heartbeat CPU 0 instructions: 250000000 cycles: 489462242 heartbeat IPC: 0.331409 cumulative IPC: 0.356213 (Simulation time: 0 hr 9 min 34 sec) 
Heartbeat CPU 0 instructions: 260000000 cycles: 516582299 heartbeat IPC: 0.368731 cumulative IPC: 0.356971 (Simulation time: 0 hr 10 min 1 sec) 
Heartbeat CPU 0 instructions: 270000003 cycles: 545123707 heartbeat IPC: 0.350368 cumulative IPC: 0.356575 (Simulation time: 0 hr 10 min 31 sec) 
Heartbeat CPU 0 instructions: 280000000 cycles: 573421760 heartbeat IPC: 0.353381 cumulative IPC: 0.356396 (Simulation time: 0 hr 11 min 0 sec) 
Heartbeat CPU 0 instructions: 290000000 cycles: 602362689 heartbeat IPC: 0.345531 cumulative IPC: 0.355807 (Simulation time: 0 hr 11 min 29 sec) 
Heartbeat CPU 0 instructions: 300000000 cycles: 632428034 heartbeat IPC: 0.332609 cumulative IPC: 0.354571 (Simulation time: 0 hr 11 min 57 sec) 
Heartbeat CPU 0 instructions: 310000001 cycles: 661851409 heartbeat IPC: 0.339866 cumulative IPC: 0.353842 (Simulation time: 0 hr 12 min 25 sec) 
Heartbeat CPU 0 instructions: 320000000 cycles: 690151292 heartbeat IPC: 0.353358 cumulative IPC: 0.35382 (Simulation time: 0 hr 12 min 53 sec) 
Heartbeat CPU 0 instructions: 330000000 cycles: 718859352 heartbeat IPC: 0.348334 cumulative IPC: 0.353578 (Simulation time: 0 hr 13 min 21 sec) 
Heartbeat CPU 0 instructions: 340000000 cycles: 748228285 heartbeat IPC: 0.340496 cumulative IPC: 0.353013 (Simulation time: 0 hr 13 min 49 sec) 
Heartbeat CPU 0 instructions: 350000003 cycles: 775284936 heartbeat IPC: 0.369595 cumulative IPC: 0.353647 (Simulation time: 0 hr 14 min 17 sec) 
Heartbeat CPU 0 instructions: 360000000 cycles: 803426461 heartbeat IPC: 0.355347 cumulative IPC: 0.353712 (Simulation time: 0 hr 14 min 44 sec) 
Heartbeat CPU 0 instructions: 370000000 cycles: 831586991 heartbeat IPC: 0.355107 cumulative IPC: 0.353764 (Simulation time: 0 hr 15 min 10 sec) 
Heartbeat CPU 0 instructions: 380000000 cycles: 860090040 heartbeat IPC: 0.35084 cumulative IPC: 0.353659 (Simulation time: 0 hr 15 min 37 sec) 
Heartbeat CPU 0 instructions: 390000001 cycles: 887687622 heartbeat IPC: 0.362351 cumulative IPC: 0.353951 (Simulation time: 0 hr 16 min 4 sec) 
Heartbeat CPU 0 instructions: 400000000 cycles: 916311596 heartbeat IPC: 0.349357 cumulative IPC: 0.353796 (Simulation time: 0 hr 16 min 31 sec) 
Heartbeat CPU 0 instructions: 410000001 cycles: 943574599 heartbeat IPC: 0.366797 cumulative IPC: 0.354201 (Simulation time: 0 hr 16 min 58 sec) 
Heartbeat CPU 0 instructions: 420000000 cycles: 970841839 heartbeat IPC: 0.36674 cumulative IPC: 0.35458 (Simulation time: 0 hr 17 min 24 sec) 
Heartbeat CPU 0 instructions: 430000002 cycles: 998525006 heartbeat IPC: 0.36123 cumulative IPC: 0.354778 (Simulation time: 0 hr 17 min 51 sec) 
Heartbeat CPU 0 instructions: 440000000 cycles: 1028137351 heartbeat IPC: 0.337697 cumulative IPC: 0.354251 (Simulation time: 0 hr 18 min 18 sec) 
Heartbeat CPU 0 instructions: 450000002 cycles: 1057390497 heartbeat IPC: 0.341844 cumulative IPC: 0.353884 (Simulation time: 0 hr 18 min 46 sec) 
Heartbeat CPU 0 instructions: 460000000 cycles: 1085071302 heartbeat IPC: 0.361261 cumulative IPC: 0.354085 (Simulation time: 0 hr 19 min 13 sec) 
Heartbeat CPU 0 instructions: 470000000 cycles: 1112678674 heartbeat IPC: 0.362222 cumulative IPC: 0.3543 (Simulation time: 0 hr 19 min 39 sec) 
Heartbeat CPU 0 instructions: 480000000 cycles: 1140531981 heartbeat IPC: 0.359024 cumulative IPC: 0.354423 (Simulation time: 0 hr 20 min 6 sec) 
Heartbeat CPU 0 instructions: 490000000 cycles: 1168088694 heartbeat IPC: 0.362888 cumulative IPC: 0.354635 (Simulation time: 0 hr 20 min 33 sec) 
Heartbeat CPU 0 instructions: 500000000 cycles: 1196404752 heartbeat IPC: 0.353157 cumulative IPC: 0.354598 (Simulation time: 0 hr 21 min 0 sec) 
Heartbeat CPU 0 instructions: 510000000 cycles: 1230980503 heartbeat IPC: 0.28922 cumulative IPC: 0.352653 (Simulation time: 0 hr 21 min 30 sec) 
Heartbeat CPU 0 instructions: 520000000 cycles: 1258974035 heartbeat IPC: 0.357225 cumulative IPC: 0.352761 (Simulation time: 0 hr 21 min 58 sec) 
Heartbeat CPU 0 instructions: 530000001 cycles: 1288273728 heartbeat IPC: 0.341301 cumulative IPC: 0.352486 (Simulation time: 0 hr 22 min 26 sec) 
Heartbeat CPU 0 instructions: 540000000 cycles: 1316343004 heartbeat IPC: 0.356261 cumulative IPC: 0.352571 (Simulation time: 0 hr 22 min 54 sec) 
Heartbeat CPU 0 instructions: 550000001 cycles: 1345563039 heartbeat IPC: 0.342231 cumulative IPC: 0.352334 (Simulation time: 0 hr 23 min 23 sec) 
Heartbeat CPU 0 instructions: 560000000 cycles: 1370959141 heartbeat IPC: 0.393761 cumulative IPC: 0.353142 (Simulation time: 0 hr 23 min 50 sec) 
Heartbeat CPU 0 instructions: 570000000 cycles: 1400592816 heartbeat IPC: 0.337454 cumulative IPC: 0.352793 (Simulation time: 0 hr 24 min 19 sec) 
Heartbeat CPU 0 instructions: 580000000 cycles: 1428621991 heartbeat IPC: 0.356771 cumulative IPC: 0.352875 (Simulation time: 0 hr 24 min 47 sec) 
Heartbeat CPU 0 instructions: 590000001 cycles: 1453382722 heartbeat IPC: 0.403865 cumulative IPC: 0.353786 (Simulation time: 0 hr 25 min 13 sec) 
Heartbeat CPU 0 instructions: 600000000 cycles: 1479461759 heartbeat IPC: 0.38345 cumulative IPC: 0.354335 (Simulation time: 0 hr 25 min 41 sec) 
Finished CPU 0 instructions: 500000000 cycles: 1411095746 cumulative IPC: 0.354335 (Simulation time: 0 hr 25 min 41 sec) 

CPU 0 Branch Prediction Accuracy: 86.4311% MPKI: 26.2662
Number of Branches: 96788573 Number of Mispredictions: 13133102
Number of LOAD Instructions: 164682285
Number of LOAD Instructions (ROI): 164682285
Number of STORE Instructions: 78194750
Number of STORE Instructions (ROI): 78194750
Total Destination Memory Operands: 83268534
Total Destination Memory Operands (ROI): 83268534
Total Source Memory Operands: 164712438
Total Source Memory Operands (ROI): 164712438
Number of DEPENDED LOADS: 7058485
Number of DEPENDED LOADS (ROI): 7058485
Number of SQ_ADDED: 83268522
Number of SQ_ADDED (ROI): 83268522
Number of LQ_ADDED: 236583630
Number of LQ_ADDED (ROI): 236583630
Number of Instructions read from trace: 600000066

ChampSim completed all CPUs

Region of Interest Statistics

CPU 0 cumulative IPC: 0.354335 instructions: 500000000 cycles: 1411095746
ITLB TOTAL     ACCESS:  100516503  HIT:  100312057  MISS:     204446
ITLB LOAD      ACCESS:  100516503  HIT:  100312057  MISS:     204446
ITLB RFO       ACCESS:          0  HIT:          0  MISS:          0
ITLB PREFETCH  ACCESS:          0  HIT:          0  MISS:          0
ITLB WRITEBACK ACCESS:          0  HIT:          0  MISS:          0
ITLB PREFETCH  REQUESTED:          0  ISSUED:          0  USEFUL:          0  USELESS:          0
ITLB TOTAL MSHR MERGED:     172423
ITLB LOAD MSHR MERGED:     172423
ITLB RFO MSHR MERGED:          0
ITLB PREFETCH MSHR MERGED:          0
ITLB WRITEBACK MSHR MERGED:          0
ITLB TOTAL ACCESSES:  100688926 HITS:  100312057 MISSES:     376869
ITLB LOAD ACCESSES:  100688926 HITS:  100312057 MISSES:     376869
ITLB RFO ACCESSES:          0 HITS:          0 MISSES:          0
ITLB PREFETCH ACCESSES:          0 HITS:          0 MISSES:          0
ITLB WRITEBACK ACCESSES:          0 HITS:          0 MISSES:          0
ITLB RQ ACCESS:  500000057
ITLB RQ TO_CACHE:  100688926
ITLB RQ MERGED:  399311131
ITLB RQ FORWARD:          0
ITLB WQ ACCESS:          0
ITLB WQ TO_CACHE:          0
ITLB WQ MERGED:          0
ITLB WQ FORWARD:          0
DTLB TOTAL     ACCESS:  165338243  HIT:  164703896  MISS:     634347
DTLB LOAD      ACCESS:  106293564  HIT:  105723630  MISS:     569934
DTLB RFO       ACCESS:   59044679  HIT:   58980266  MISS:      64413
DTLB PREFETCH  ACCESS:          0  HIT:          0  MISS:          0
DTLB WRITEBACK ACCESS:          0  HIT:          0  MISS:          0
DTLB PREFETCH  REQUESTED:          0  ISSUED:          0  USEFUL:          0  USELESS:          0
DTLB TOTAL MSHR MERGED:      99944
DTLB LOAD MSHR MERGED:      59449
DTLB RFO MSHR MERGED:      40495
DTLB PREFETCH MSHR MERGED:          0
DTLB WRITEBACK MSHR MERGED:          0
DTLB TOTAL ACCESSES:  165438187 HITS:  164703896 MISSES:     734291
DTLB LOAD ACCESSES:  106353013 HITS:  105723630 MISSES:     629383
DTLB RFO ACCESSES:   59085174 HITS:   58980266 MISSES:     104908
DTLB PREFETCH ACCESSES:          0 HITS:          0 MISSES:          0
DTLB WRITEBACK ACCESSES:          0 HITS:          0 MISSES:          0
DTLB RQ ACCESS:  200312426
DTLB RQ TO_CACHE:  165438187
DTLB RQ MERGED:   34874239
DTLB RQ FORWARD:          0
DTLB WQ ACCESS:          0
DTLB WQ TO_CACHE:          0
DTLB WQ MERGED:          0
DTLB WQ FORWARD:          0
L1D TOTAL     ACCESS:  281853171  HIT:  273943791  MISS:    7909380
L1D LOAD      ACCESS:  110427447  HIT:  107151995  MISS:    3275452
L1D RFO       ACCESS:   67114585  HIT:   66223775  MISS:     890810
L1D PREFETCH  ACCESS:  104311139  HIT:  100568021  MISS:    3743118
L1D WRITEBACK ACCESS:          0  HIT:          0  MISS:          0
L1D PREFETCH  REQUESTED:  110818176  ISSUED:  109118860  USEFUL:    1663829  USELESS:    2079253
L1D TOTAL MSHR MERGED:    2853566
L1D LOAD MSHR MERGED:     485693
L1D RFO MSHR MERGED:    1871564
L1D PREFETCH MSHR MERGED:     496309
L1D WRITEBACK MSHR MERGED:          0
L1D TOTAL ACCESSES:  284734207 HITS:  273971261 MISSES:   10762946
L1D LOAD ACCESSES:  110819659 HITS:  107153478 MISSES:    3666181
L1D RFO ACCESSES:   68974154 HITS:   66223775 MISSES:    2750379
L1D PREFETCH ACCESSES:  104940394 HITS:  100594008 MISSES:    4346386
L1D WRITEBACK ACCESSES:          0 HITS:          0 MISSES:          0
L1D RQ ACCESS:  130759823
L1D RQ TO_CACHE:  110818179
L1D RQ MERGED:   19940161
L1D RQ FORWARD:          0
L1D WQ ACCESS:   69552603
L1D WQ TO_CACHE:   68974155
L1D WQ MERGED:     578448
L1D WQ FORWARD:      27470
L1I TOTAL     ACCESS:  126563749  HIT:  122325197  MISS:    4238552
L1I LOAD      ACCESS:  126563749  HIT:  122325197  MISS:    4238552
L1I RFO       ACCESS:          0  HIT:          0  MISS:          0
L1I PREFETCH  ACCESS:          0  HIT:          0  MISS:          0
L1I WRITEBACK ACCESS:          0  HIT:          0  MISS:          0
L1I PREFETCH  REQUESTED:          0  ISSUED:          0  USEFUL:          0  USELESS:          0
L1I TOTAL MSHR MERGED:    1834762
L1I LOAD MSHR MERGED:    1834762
L1I RFO MSHR MERGED:          0
L1I PREFETCH MSHR MERGED:          0
L1I WRITEBACK MSHR MERGED:          0
L1I TOTAL ACCESSES:  128398514 HITS:  122325197 MISSES:    6073317
L1I LOAD ACCESSES:  128398514 HITS:  122325197 MISSES:    6073317
L1I RFO ACCESSES:          0 HITS:          0 MISSES:          0
L1I PREFETCH ACCESSES:          0 HITS:          0 MISSES:          0
L1I WRITEBACK ACCESSES:          0 HITS:          0 MISSES:          0
L1I RQ ACCESS:  500000057
L1I RQ TO_CACHE:  128398514
L1I RQ MERGED:  371601543
L1I RQ FORWARD:          0
L1I WQ ACCESS:          0
L1I WQ TO_CACHE:          0
L1I WQ MERGED:          0
L1I WQ FORWARD:          0
L2C TOTAL     ACCESS:   14905071  HIT:   11158689  MISS:    3746382
L2C LOAD      ACCESS:    7418833  HIT:    5098822  MISS:    2320011
L2C RFO       ACCESS:     878718  HIT:     409929  MISS:     468789
L2C PREFETCH  ACCESS:    4568265  HIT:    3627938  MISS:     940327
L2C WRITEBACK ACCESS:    2039255  HIT:    2022000  MISS:      17255
L2C PREFETCH  REQUESTED:     842755  ISSUED:     842755  USEFUL:     203302  USELESS:     736731
L2C TOTAL MSHR MERGED:       7274
L2C LOAD MSHR MERGED:        877
L2C RFO MSHR MERGED:          0
L2C PREFETCH MSHR MERGED:       6397
L2C WRITEBACK MSHR MERGED:          0
L2C TOTAL ACCESSES:   14913231 HITS:   11159136 MISSES:    3754095
L2C LOAD ACCESSES:    7419040 HITS:    5099029 MISSES:    2320011
L2C RFO ACCESSES:     878815 HITS:     410026 MISSES:     468789
L2C PREFETCH ACCESSES:    4576121 HITS:    3628081 MISSES:     948040
L2C WRITEBACK ACCESSES:    2039255 HITS:    2022000 MISSES:      17255
L2C RQ ACCESS:    8297858
L2C RQ TO_CACHE:    8297554
L2C RQ MERGED:          0
L2C RQ FORWARD:          0
L2C WQ ACCESS:    2039255
L2C WQ TO_CACHE:    2039255
L2C WQ MERGED:          0
L2C WQ FORWARD:        447
LLC TOTAL     ACCESS:    4609671  HIT:    3984308  MISS:     625363
LLC LOAD      ACCESS:    2319119  HIT:    2057401  MISS:     261718
LLC RFO       ACCESS:     468778  HIT:     394739  MISS:      74039
LLC PREFETCH  ACCESS:     941521  HIT:     693629  MISS:     247892
LLC WRITEBACK ACCESS:     880253  HIT:     838539  MISS:      41714
LLC PREFETCH  REQUESTED:          0  ISSUED:          0  USEFUL:      30121  USELESS:     218372
LLC TOTAL MSHR MERGED:        100
LLC LOAD MSHR MERGED:         32
LLC RFO MSHR MERGED:          0
LLC PREFETCH MSHR MERGED:         68
LLC WRITEBACK MSHR MERGED:          0
LLC TOTAL ACCESSES:    4609808 HITS:    3984345 MISSES:     625463
LLC LOAD ACCESSES:    2319134 HITS:    2057416 MISSES:     261718
LLC RFO ACCESSES:     468789 HITS:     394750 MISSES:      74039
LLC PREFETCH ACCESSES:     941632 HITS:     693640 MISSES:     247992
LLC WRITEBACK ACCESSES:     880253 HITS:     838539 MISSES:      41714
LLC 0 RQ ACCESS:    2787923
LLC 0 RQ TO_CACHE:    2787897
LLC 0 RQ MERGED:          0
LLC 0 RQ FORWARD:          0
LLC WQ ACCESS:     880253
LLC WQ TO_CACHE:     880253
LLC WQ MERGED:          0
LLC WQ FORWARD:         37
Major fault: 0 Minor fault: 12862
CPU 0 L1D next line prefetcher final stats
CPU 0 L2C PC-based stride prefetcher final stats
All Misses: 747629
All Hits: 4679048
SD Algo Stats - Switches: 0 SRR-Repls: 307487 BRR-Repls: 0

DRAM Statistics
 CHANNEL 0
 RQ ROW_BUFFER_HIT:     124422  ROW_BUFFER_MISS:     457728
 DBUS_CONGESTED:     356635
 WQ ROW_BUFFER_HIT:      15452  ROW_BUFFER_MISS:     181989  FULL:          0

 AVG_CONGESTED_CYCLE: 13
LOADS RETIRED: 136549171
INSTR RETIRED: 500000000
