
*** ChampSim Multicore Out-of-Order Simulator ***

Warmup Instructions: 100000000
Simulation Instructions: 500000000
Number of CPUs: 1
LLC sets: 2048
LLC ways: 16
Clean RRIP Policies: 2213030122130301 Dirty RRIP Policies: 2213130122131301 PSEL Width: 10 Track Set: 4294967295 PSEL Mask: 1 Demote Mask: 3340201033402010DS Algo: 0Window size: 0
Off-chip DRAM Size: 4096 MB Channels: 1 Width: 64-bit Data Rate: 1600 MT/s

CPU 0 runs /mnt/beegfs/iconst01/spec2017/Fotonik3d.trace.gz
NOT SORTED
TRACE STRING: /mnt/beegfs/iconst01/spec2017/Fotonik3d.trace.gz
SORTED
TRACE STRING: /mnt/beegfs/iconst01/spec2017/Fotonik3d.trace.gz
INITIAL
TRACE STRING: /mnt/beegfs/iconst01/spec2017/Fotonik3d.trace.gz

champsim_seed used: 881

CPU 0 L1D next line prefetcher
CPU 0 L2C IP-based stride prefetcher
Initialize DRRIP state
Assign rand_sets[0]: 454  LLC: 2048
rand_sets[0]: 454
Assign rand_sets[1]: 1662  LLC: 2048
rand_sets[1]: 1662
Assign rand_sets[2]: 1921  LLC: 2048
rand_sets[2]: 1921
Assign rand_sets[3]: 1131  LLC: 2048
rand_sets[3]: 1131
Assign rand_sets[4]: 331  LLC: 2048
rand_sets[4]: 331
Assign rand_sets[5]: 1531  LLC: 2048
rand_sets[5]: 1531
Assign rand_sets[6]: 482  LLC: 2048
rand_sets[6]: 482
Assign rand_sets[7]: 1275  LLC: 2048
rand_sets[7]: 1275
Assign rand_sets[8]: 1876  LLC: 2048
rand_sets[8]: 1876
Assign rand_sets[9]: 2038  LLC: 2048
rand_sets[9]: 2038
Assign rand_sets[10]: 701  LLC: 2048
rand_sets[10]: 701
Assign rand_sets[11]: 479  LLC: 2048
rand_sets[11]: 479
Assign rand_sets[12]: 892  LLC: 2048
rand_sets[12]: 892
Assign rand_sets[13]: 1820  LLC: 2048
rand_sets[13]: 1820
Assign rand_sets[14]: 1505  LLC: 2048
rand_sets[14]: 1505
Assign rand_sets[15]: 1159  LLC: 2048
rand_sets[15]: 1159
Assign rand_sets[16]: 513  LLC: 2048
rand_sets[16]: 513
Assign rand_sets[17]: 703  LLC: 2048
rand_sets[17]: 703
Assign rand_sets[18]: 561  LLC: 2048
rand_sets[18]: 561
Assign rand_sets[19]: 990  LLC: 2048
rand_sets[19]: 990
Assign rand_sets[20]: 342  LLC: 2048
rand_sets[20]: 342
Assign rand_sets[21]: 882  LLC: 2048
rand_sets[21]: 882
Assign rand_sets[22]: 15  LLC: 2048
rand_sets[22]: 15
Assign rand_sets[23]: 71  LLC: 2048
rand_sets[23]: 71
Assign rand_sets[24]: 1127  LLC: 2048
rand_sets[24]: 1127
Assign rand_sets[25]: 1382  LLC: 2048
rand_sets[25]: 1382
Assign rand_sets[26]: 647  LLC: 2048
rand_sets[26]: 647
Assign rand_sets[27]: 857  LLC: 2048
rand_sets[27]: 857
Assign rand_sets[28]: 1450  LLC: 2048
rand_sets[28]: 1450
Assign rand_sets[29]: 1160  LLC: 2048
rand_sets[29]: 1160
Assign rand_sets[30]: 1852  LLC: 2048
rand_sets[30]: 1852
Assign rand_sets[31]: 1881  LLC: 2048
rand_sets[31]: 1881
Assign rand_sets[32]: 1770  LLC: 2048
rand_sets[32]: 1770
Assign rand_sets[33]: 1622  LLC: 2048
rand_sets[33]: 1622
Assign rand_sets[34]: 275  LLC: 2048
rand_sets[34]: 275
Assign rand_sets[35]: 635  LLC: 2048
rand_sets[35]: 635
Assign rand_sets[36]: 466  LLC: 2048
rand_sets[36]: 466
Assign rand_sets[37]: 1413  LLC: 2048
rand_sets[37]: 1413
Assign rand_sets[38]: 417  LLC: 2048
rand_sets[38]: 417
Assign rand_sets[39]: 472  LLC: 2048
rand_sets[39]: 472
Assign rand_sets[40]: 1340  LLC: 2048
rand_sets[40]: 1340
Assign rand_sets[41]: 852  LLC: 2048
rand_sets[41]: 852
Assign rand_sets[42]: 1365  LLC: 2048
rand_sets[42]: 1365
Assign rand_sets[43]: 47  LLC: 2048
rand_sets[43]: 47
Assign rand_sets[44]: 823  LLC: 2048
rand_sets[44]: 823
Assign rand_sets[45]: 686  LLC: 2048
rand_sets[45]: 686
Assign rand_sets[46]: 1637  LLC: 2048
rand_sets[46]: 1637
Assign rand_sets[47]: 1115  LLC: 2048
rand_sets[47]: 1115
Assign rand_sets[48]: 986  LLC: 2048
rand_sets[48]: 986
Assign rand_sets[49]: 258  LLC: 2048
rand_sets[49]: 258
Assign rand_sets[50]: 633  LLC: 2048
rand_sets[50]: 633
Assign rand_sets[51]: 920  LLC: 2048
rand_sets[51]: 920
Assign rand_sets[52]: 204  LLC: 2048
rand_sets[52]: 204
Assign rand_sets[53]: 227  LLC: 2048
rand_sets[53]: 227
Assign rand_sets[54]: 1818  LLC: 2048
rand_sets[54]: 1818
Assign rand_sets[55]: 886  LLC: 2048
rand_sets[55]: 886
Assign rand_sets[56]: 1422  LLC: 2048
rand_sets[56]: 1422
Assign rand_sets[57]: 607  LLC: 2048
rand_sets[57]: 607
Assign rand_sets[58]: 217  LLC: 2048
rand_sets[58]: 217
Assign rand_sets[59]: 1945  LLC: 2048
rand_sets[59]: 1945
Assign rand_sets[60]: 143  LLC: 2048
rand_sets[60]: 143
Assign rand_sets[61]: 1311  LLC: 2048
rand_sets[61]: 1311
Assign rand_sets[62]: 319  LLC: 2048
rand_sets[62]: 319
Assign rand_sets[63]: 1846  LLC: 2048
rand_sets[63]: 1846
 CLEAN-RRIP-POLICY-1: 2-2-1-3-0-3-0-1- CLEAN-RRIP-POLICY-2: 2-2-1-3-0-3-0-1-
 DIRTY-RRIP-POLICY-1: 2-2-1-3-1-3-0-1- DIRTY-RRIP-POLICY-2: 2-2-1-3-1-3-0-1-
 PSEL width: 10
Heartbeat CPU 0 instructions: 10000002 cycles: 7306813 heartbeat IPC: 1.36859 cumulative IPC: 1.36859 (Simulation time: 0 hr 0 min 25 sec) 
Heartbeat CPU 0 instructions: 20000000 cycles: 14613778 heartbeat IPC: 1.36856 cumulative IPC: 1.36857 (Simulation time: 0 hr 0 min 49 sec) 
Heartbeat CPU 0 instructions: 30000001 cycles: 21920620 heartbeat IPC: 1.36858 cumulative IPC: 1.36857 (Simulation time: 0 hr 1 min 14 sec) 
Heartbeat CPU 0 instructions: 40000000 cycles: 29227357 heartbeat IPC: 1.3686 cumulative IPC: 1.36858 (Simulation time: 0 hr 1 min 38 sec) 
Heartbeat CPU 0 instructions: 50000001 cycles: 36534083 heartbeat IPC: 1.3686 cumulative IPC: 1.36859 (Simulation time: 0 hr 2 min 3 sec) 
Heartbeat CPU 0 instructions: 60000000 cycles: 43841020 heartbeat IPC: 1.36856 cumulative IPC: 1.36858 (Simulation time: 0 hr 2 min 27 sec) 
Heartbeat CPU 0 instructions: 70000002 cycles: 51147751 heartbeat IPC: 1.3686 cumulative IPC: 1.36858 (Simulation time: 0 hr 2 min 52 sec) 
Heartbeat CPU 0 instructions: 80000000 cycles: 58454496 heartbeat IPC: 1.3686 cumulative IPC: 1.36859 (Simulation time: 0 hr 3 min 17 sec) 
Heartbeat CPU 0 instructions: 90000003 cycles: 65765027 heartbeat IPC: 1.36789 cumulative IPC: 1.36851 (Simulation time: 0 hr 3 min 41 sec) 
Heartbeat CPU 0 instructions: 100000000 cycles: 73075644 heartbeat IPC: 1.36787 cumulative IPC: 1.36845 (Simulation time: 0 hr 4 min 6 sec) 

Warmup complete CPU 0 instructions: 100000002 cycles: 73075656 (Simulation time: 0 hr 4 min 6 sec) 

Heartbeat CPU 0 instructions: 110000001 cycles: 85561086 heartbeat IPC: 0.800933 cumulative IPC: 0.800933 (Simulation time: 0 hr 4 min 36 sec) 
Heartbeat CPU 0 instructions: 120000000 cycles: 97988368 heartbeat IPC: 0.804681 cumulative IPC: 0.802803 (Simulation time: 0 hr 5 min 5 sec) 
Heartbeat CPU 0 instructions: 130000000 cycles: 110473610 heartbeat IPC: 0.800946 cumulative IPC: 0.802183 (Simulation time: 0 hr 5 min 35 sec) 
Heartbeat CPU 0 instructions: 140000000 cycles: 122929485 heartbeat IPC: 0.802834 cumulative IPC: 0.802346 (Simulation time: 0 hr 6 min 5 sec) 
Heartbeat CPU 0 instructions: 150000000 cycles: 135338455 heartbeat IPC: 0.805869 cumulative IPC: 0.803048 (Simulation time: 0 hr 6 min 34 sec) 
Heartbeat CPU 0 instructions: 160000000 cycles: 147796103 heartbeat IPC: 0.80272 cumulative IPC: 0.802993 (Simulation time: 0 hr 7 min 4 sec) 
Heartbeat CPU 0 instructions: 170000001 cycles: 160257138 heartbeat IPC: 0.802502 cumulative IPC: 0.802923 (Simulation time: 0 hr 7 min 34 sec) 
Heartbeat CPU 0 instructions: 180000000 cycles: 172708966 heartbeat IPC: 0.803095 cumulative IPC: 0.802944 (Simulation time: 0 hr 8 min 3 sec) 
Heartbeat CPU 0 instructions: 190000000 cycles: 185199307 heartbeat IPC: 0.800619 cumulative IPC: 0.802685 (Simulation time: 0 hr 8 min 33 sec) 
Heartbeat CPU 0 instructions: 200000000 cycles: 197646053 heartbeat IPC: 0.803423 cumulative IPC: 0.802759 (Simulation time: 0 hr 9 min 2 sec) 
Heartbeat CPU 0 instructions: 210000002 cycles: 210136380 heartbeat IPC: 0.80062 cumulative IPC: 0.802564 (Simulation time: 0 hr 9 min 32 sec) 
Heartbeat CPU 0 instructions: 220000000 cycles: 222635892 heartbeat IPC: 0.800031 cumulative IPC: 0.802352 (Simulation time: 0 hr 10 min 2 sec) 
Heartbeat CPU 0 instructions: 230000002 cycles: 235077970 heartbeat IPC: 0.803724 cumulative IPC: 0.802458 (Simulation time: 0 hr 10 min 31 sec) 
Heartbeat CPU 0 instructions: 240000000 cycles: 248257054 heartbeat IPC: 0.758778 cumulative IPC: 0.799172 (Simulation time: 0 hr 11 min 1 sec) 
Heartbeat CPU 0 instructions: 250000001 cycles: 265522688 heartbeat IPC: 0.579185 cumulative IPC: 0.779435 (Simulation time: 0 hr 11 min 34 sec) 
Heartbeat CPU 0 instructions: 260000000 cycles: 282734558 heartbeat IPC: 0.580994 cumulative IPC: 0.763144 (Simulation time: 0 hr 12 min 6 sec) 
Heartbeat CPU 0 instructions: 270000000 cycles: 300005457 heartbeat IPC: 0.579009 cumulative IPC: 0.74913 (Simulation time: 0 hr 12 min 38 sec) 
Heartbeat CPU 0 instructions: 280000000 cycles: 317265089 heartbeat IPC: 0.579387 cumulative IPC: 0.737133 (Simulation time: 0 hr 13 min 10 sec) 
Heartbeat CPU 0 instructions: 290000000 cycles: 345799907 heartbeat IPC: 0.350449 cumulative IPC: 0.696674 (Simulation time: 0 hr 13 min 50 sec) 
Heartbeat CPU 0 instructions: 300000000 cycles: 382748001 heartbeat IPC: 0.27065 cumulative IPC: 0.645844 (Simulation time: 0 hr 14 min 35 sec) 
Heartbeat CPU 0 instructions: 310000000 cycles: 399393390 heartbeat IPC: 0.600767 cumulative IPC: 0.643545 (Simulation time: 0 hr 15 min 6 sec) 
Heartbeat CPU 0 instructions: 320000000 cycles: 416018161 heartbeat IPC: 0.601512 cumulative IPC: 0.641507 (Simulation time: 0 hr 15 min 38 sec) 
Heartbeat CPU 0 instructions: 330000003 cycles: 432693014 heartbeat IPC: 0.599706 cumulative IPC: 0.639569 (Simulation time: 0 hr 16 min 9 sec) 
Heartbeat CPU 0 instructions: 340000000 cycles: 449336264 heartbeat IPC: 0.600844 cumulative IPC: 0.637856 (Simulation time: 0 hr 16 min 40 sec) 
Heartbeat CPU 0 instructions: 350000001 cycles: 464157395 heartbeat IPC: 0.674712 cumulative IPC: 0.639253 (Simulation time: 0 hr 17 min 9 sec) 
Heartbeat CPU 0 instructions: 360000000 cycles: 476050986 heartbeat IPC: 0.840789 cumulative IPC: 0.645201 (Simulation time: 0 hr 17 min 36 sec) 
Heartbeat CPU 0 instructions: 370000002 cycles: 487737925 heartbeat IPC: 0.855656 cumulative IPC: 0.651132 (Simulation time: 0 hr 18 min 3 sec) 
Heartbeat CPU 0 instructions: 380000000 cycles: 499626401 heartbeat IPC: 0.841151 cumulative IPC: 0.656428 (Simulation time: 0 hr 18 min 31 sec) 
Heartbeat CPU 0 instructions: 390000003 cycles: 512980470 heartbeat IPC: 0.748836 cumulative IPC: 0.659234 (Simulation time: 0 hr 18 min 59 sec) 
Heartbeat CPU 0 instructions: 400000000 cycles: 525258956 heartbeat IPC: 0.814432 cumulative IPC: 0.663448 (Simulation time: 0 hr 19 min 27 sec) 
Heartbeat CPU 0 instructions: 410000002 cycles: 537252327 heartbeat IPC: 0.833794 cumulative IPC: 0.667849 (Simulation time: 0 hr 19 min 54 sec) 
Heartbeat CPU 0 instructions: 420000000 cycles: 550113806 heartbeat IPC: 0.777515 cumulative IPC: 0.670806 (Simulation time: 0 hr 20 min 22 sec) 
Heartbeat CPU 0 instructions: 430000003 cycles: 568728824 heartbeat IPC: 0.537201 cumulative IPC: 0.665788 (Simulation time: 0 hr 20 min 47 sec) 
Heartbeat CPU 0 instructions: 440000000 cycles: 587328545 heartbeat IPC: 0.537642 cumulative IPC: 0.661153 (Simulation time: 0 hr 21 min 13 sec) 
Heartbeat CPU 0 instructions: 450000003 cycles: 605959125 heartbeat IPC: 0.536752 cumulative IPC: 0.656804 (Simulation time: 0 hr 21 min 38 sec) 
Heartbeat CPU 0 instructions: 460000000 cycles: 624559391 heartbeat IPC: 0.537627 cumulative IPC: 0.652784 (Simulation time: 0 hr 22 min 3 sec) 
Heartbeat CPU 0 instructions: 470000003 cycles: 643177213 heartbeat IPC: 0.53712 cumulative IPC: 0.649007 (Simulation time: 0 hr 22 min 28 sec) 
Heartbeat CPU 0 instructions: 480000000 cycles: 661798878 heartbeat IPC: 0.537009 cumulative IPC: 0.645465 (Simulation time: 0 hr 22 min 54 sec) 
Heartbeat CPU 0 instructions: 490000003 cycles: 680432310 heartbeat IPC: 0.53667 cumulative IPC: 0.642127 (Simulation time: 0 hr 23 min 19 sec) 
Heartbeat CPU 0 instructions: 500000000 cycles: 699018515 heartbeat IPC: 0.538033 cumulative IPC: 0.639036 (Simulation time: 0 hr 23 min 44 sec) 
Heartbeat CPU 0 instructions: 510000003 cycles: 717642656 heartbeat IPC: 0.536938 cumulative IPC: 0.636086 (Simulation time: 0 hr 24 min 9 sec) 
Heartbeat CPU 0 instructions: 520000000 cycles: 736259162 heartbeat IPC: 0.537158 cumulative IPC: 0.633309 (Simulation time: 0 hr 24 min 35 sec) 
Heartbeat CPU 0 instructions: 530000001 cycles: 754892859 heartbeat IPC: 0.536662 cumulative IPC: 0.630668 (Simulation time: 0 hr 25 min 0 sec) 
Heartbeat CPU 0 instructions: 540000000 cycles: 773444219 heartbeat IPC: 0.539044 cumulative IPC: 0.628241 (Simulation time: 0 hr 25 min 25 sec) 
Heartbeat CPU 0 instructions: 550000001 cycles: 792026574 heartbeat IPC: 0.538145 cumulative IPC: 0.625912 (Simulation time: 0 hr 25 min 51 sec) 
Heartbeat CPU 0 instructions: 560000000 cycles: 810612594 heartbeat IPC: 0.538039 cumulative IPC: 0.623698 (Simulation time: 0 hr 26 min 16 sec) 
Heartbeat CPU 0 instructions: 570000001 cycles: 829182248 heartbeat IPC: 0.538513 cumulative IPC: 0.621605 (Simulation time: 0 hr 26 min 41 sec) 
Heartbeat CPU 0 instructions: 580000000 cycles: 847683147 heartbeat IPC: 0.540514 cumulative IPC: 0.619669 (Simulation time: 0 hr 27 min 7 sec) 
Heartbeat CPU 0 instructions: 590000001 cycles: 866257333 heartbeat IPC: 0.538382 cumulative IPC: 0.617765 (Simulation time: 0 hr 27 min 32 sec) 
Heartbeat CPU 0 instructions: 600000000 cycles: 884841602 heartbeat IPC: 0.538089 cumulative IPC: 0.615941 (Simulation time: 0 hr 27 min 57 sec) 
Finished CPU 0 instructions: 500000002 cycles: 811765960 cumulative IPC: 0.615941 (Simulation time: 0 hr 27 min 57 sec) 

CPU 0 Branch Prediction Accuracy: 99.5931% MPKI: 0.08288
Number of Branches: 10184133 Number of Mispredictions: 41440
Number of LOAD Instructions: 261155957
Number of LOAD Instructions (ROI): 261155957
Number of STORE Instructions: 57884062
Number of STORE Instructions (ROI): 57884062
Total Destination Memory Operands: 83293336
Total Destination Memory Operands (ROI): 83293336
Total Source Memory Operands: 261155957
Total Source Memory Operands (ROI): 261155957
Number of DEPENDED LOADS: 22256206
Number of DEPENDED LOADS (ROI): 22256206
Number of SQ_ADDED: 83293300
Number of SQ_ADDED (ROI): 83293300
Number of LQ_ADDED: 1772161360
Number of LQ_ADDED (ROI): 1772161360
Number of Instructions read from trace: 600000257

ChampSim completed all CPUs

Region of Interest Statistics

CPU 0 cumulative IPC: 0.615941 instructions: 500000002 cycles: 811765960
ITLB TOTAL     ACCESS:   94667269  HIT:   94667231  MISS:         38
ITLB LOAD      ACCESS:   94667269  HIT:   94667231  MISS:         38
ITLB RFO       ACCESS:          0  HIT:          0  MISS:          0
ITLB PREFETCH  ACCESS:          0  HIT:          0  MISS:          0
ITLB WRITEBACK ACCESS:          0  HIT:          0  MISS:          0
ITLB PREFETCH  REQUESTED:          0  ISSUED:          0  USEFUL:          0  USELESS:          0
ITLB TOTAL MSHR MERGED:         93
ITLB LOAD MSHR MERGED:         93
ITLB RFO MSHR MERGED:          0
ITLB PREFETCH MSHR MERGED:          0
ITLB WRITEBACK MSHR MERGED:          0
ITLB TOTAL ACCESSES:   94667362 HITS:   94667231 MISSES:        131
ITLB LOAD ACCESSES:   94667362 HITS:   94667231 MISSES:        131
ITLB RFO ACCESSES:          0 HITS:          0 MISSES:          0
ITLB PREFETCH ACCESSES:          0 HITS:          0 MISSES:          0
ITLB WRITEBACK ACCESSES:          0 HITS:          0 MISSES:          0
ITLB RQ ACCESS:  500000001
ITLB RQ TO_CACHE:   94667363
ITLB RQ MERGED:  405332638
ITLB RQ FORWARD:          0
ITLB WQ ACCESS:          0
ITLB WQ TO_CACHE:          0
ITLB WQ MERGED:          0
ITLB WQ FORWARD:          0
DTLB TOTAL     ACCESS:  149177881  HIT:  148580921  MISS:     596960
DTLB LOAD      ACCESS:  107303836  HIT:  106706887  MISS:     596949
DTLB RFO       ACCESS:   41874045  HIT:   41874034  MISS:         11
DTLB PREFETCH  ACCESS:          0  HIT:          0  MISS:          0
DTLB WRITEBACK ACCESS:          0  HIT:          0  MISS:          0
DTLB PREFETCH  REQUESTED:          0  ISSUED:          0  USEFUL:          0  USELESS:          0
DTLB TOTAL MSHR MERGED:     134166
DTLB LOAD MSHR MERGED:     134166
DTLB RFO MSHR MERGED:          0
DTLB PREFETCH MSHR MERGED:          0
DTLB WRITEBACK MSHR MERGED:          0
DTLB TOTAL ACCESSES:  149312047 HITS:  148580921 MISSES:     731126
DTLB LOAD ACCESSES:  107438002 HITS:  106706887 MISSES:     731115
DTLB RFO ACCESSES:   41874045 HITS:   41874034 MISSES:         11
DTLB PREFETCH ACCESSES:          0 HITS:          0 MISSES:          0
DTLB WRITEBACK ACCESSES:          0 HITS:          0 MISSES:          0
DTLB RQ ACCESS:  259759688
DTLB RQ TO_CACHE:  149312047
DTLB RQ MERGED:  110447641
DTLB RQ FORWARD:          0
DTLB WQ ACCESS:          0
DTLB WQ TO_CACHE:          0
DTLB WQ MERGED:          0
DTLB WQ FORWARD:          0
L1D TOTAL     ACCESS:  261036255  HIT:  245638646  MISS:   15397609
L1D LOAD      ACCESS:  118064836  HIT:  112562621  MISS:    5502215
L1D RFO       ACCESS:   68946740  HIT:   68932335  MISS:      14405
L1D PREFETCH  ACCESS:   74024679  HIT:   64143690  MISS:    9880989
L1D WRITEBACK ACCESS:          0  HIT:          0  MISS:          0
L1D PREFETCH  REQUESTED:  120652217  ISSUED:  119078947  USEFUL:    8010413  USELESS:    1870598
L1D TOTAL MSHR MERGED:   16519402
L1D LOAD MSHR MERGED:    4999284
L1D RFO MSHR MERGED:      21833
L1D PREFETCH MSHR MERGED:   11498285
L1D WRITEBACK MSHR MERGED:          0
L1D TOTAL ACCESSES:  277665738 HITS:  245748727 MISSES:   31917011
L1D LOAD ACCESSES:  120659744 HITS:  112570148 MISSES:    8089596
L1D RFO ACCESSES:   68968572 HITS:   68932335 MISSES:      36237
L1D PREFETCH ACCESSES:   88037422 HITS:   64246244 MISSES:   23791178
L1D WRITEBACK ACCESSES:          0 HITS:          0 MISSES:          0
L1D RQ ACCESS:  190685372
L1D RQ TO_CACHE:  120652217
L1D RQ MERGED:   70025628
L1D RQ FORWARD:          0
L1D WQ ACCESS:   69074336
L1D WQ TO_CACHE:   68968574
L1D WQ MERGED:     105762
L1D WQ FORWARD:     110081
L1I TOTAL     ACCESS:  121578512  HIT:  121577439  MISS:       1073
L1I LOAD      ACCESS:  121578512  HIT:  121577439  MISS:       1073
L1I RFO       ACCESS:          0  HIT:          0  MISS:          0
L1I PREFETCH  ACCESS:          0  HIT:          0  MISS:          0
L1I WRITEBACK ACCESS:          0  HIT:          0  MISS:          0
L1I PREFETCH  REQUESTED:          0  ISSUED:          0  USEFUL:          0  USELESS:          0
L1I TOTAL MSHR MERGED:       1102
L1I LOAD MSHR MERGED:       1102
L1I RFO MSHR MERGED:          0
L1I PREFETCH MSHR MERGED:          0
L1I WRITEBACK MSHR MERGED:          0
L1I TOTAL ACCESSES:  121579614 HITS:  121577439 MISSES:       2175
L1I LOAD ACCESSES:  121579614 HITS:  121577439 MISSES:       2175
L1I RFO ACCESSES:          0 HITS:          0 MISSES:          0
L1I PREFETCH ACCESSES:          0 HITS:          0 MISSES:          0
L1I WRITEBACK ACCESSES:          0 HITS:          0 MISSES:          0
L1I RQ ACCESS:  500000000
L1I RQ TO_CACHE:  121579614
L1I RQ MERGED:  378420386
L1I RQ FORWARD:          0
L1I WQ ACCESS:          0
L1I WQ TO_CACHE:          0
L1I WQ MERGED:          0
L1I WQ FORWARD:          0
L2C TOTAL     ACCESS:   22471018  HIT:    9152358  MISS:   13318660
L2C LOAD      ACCESS:    3091351  HIT:     416832  MISS:    2674519
L2C RFO       ACCESS:      14404  HIT:      13990  MISS:        414
L2C PREFETCH  ACCESS:   12735311  HIT:    2093382  MISS:   10641929
L2C WRITEBACK ACCESS:    6629952  HIT:    6628154  MISS:       1798
L2C PREFETCH  REQUESTED:     695564  ISSUED:     695564  USEFUL:     186326  USELESS:   10456406
L2C TOTAL MSHR MERGED:      71668
L2C LOAD MSHR MERGED:      22567
L2C RFO MSHR MERGED:          0
L2C PREFETCH MSHR MERGED:      49101
L2C WRITEBACK MSHR MERGED:          0
L2C TOTAL ACCESSES:   22684181 HITS:    9152406 MISSES:   13531775
L2C LOAD ACCESSES:    3091385 HITS:     416866 MISSES:    2674519
L2C RFO ACCESSES:      14404 HITS:      13990 MISSES:        414
L2C PREFETCH ACCESSES:   12948440 HITS:    2093396 MISSES:   10855044
L2C WRITEBACK ACCESSES:    6629952 HITS:    6628154 MISSES:       1798
L2C RQ ACCESS:    3105789
L2C RQ TO_CACHE:    3105755
L2C RQ MERGED:          0
L2C RQ FORWARD:          0
L2C WQ ACCESS:    6629952
L2C WQ TO_CACHE:    6629952
L2C WQ MERGED:          0
L2C WQ FORWARD:         48
LLC TOTAL     ACCESS:   20026526  HIT:    1894947  MISS:   18131579
LLC LOAD      ACCESS:    2651952  HIT:     397158  MISS:    2254794
LLC RFO       ACCESS:        414  HIT:         17  MISS:        397
LLC PREFETCH  ACCESS:   10782922  HIT:     102118  MISS:   10680804
LLC WRITEBACK ACCESS:    6591238  HIT:    1395654  MISS:    5195584
LLC PREFETCH  REQUESTED:          0  ISSUED:          0  USEFUL:      46576  USELESS:   10635250
LLC TOTAL MSHR MERGED:      21699
LLC LOAD MSHR MERGED:       9937
LLC RFO MSHR MERGED:          0
LLC PREFETCH MSHR MERGED:      11762
LLC WRITEBACK MSHR MERGED:          0
LLC TOTAL ACCESSES:   20048226 HITS:    1894947 MISSES:   18153279
LLC LOAD ACCESSES:    2651952 HITS:     397158 MISSES:    2254794
LLC RFO ACCESSES:        414 HITS:         17 MISSES:        397
LLC PREFETCH ACCESSES:   10804622 HITS:     102118 MISSES:   10702504
LLC WRITEBACK ACCESSES:    6591238 HITS:    1395654 MISSES:    5195584
LLC 0 RQ ACCESS:    2652366
LLC 0 RQ TO_CACHE:    2652366
LLC 0 RQ MERGED:          0
LLC 0 RQ FORWARD:          0
LLC WQ ACCESS:    6591239
LLC WQ TO_CACHE:    6591239
LLC WQ MERGED:          0
LLC WQ FORWARD:          0
Major fault: 0 Minor fault: 183991
CPU 0 L1D next line prefetcher final stats
CPU 0 L2C PC-based stride prefetcher final stats
All Misses: 21003647
All Hits: 1953926
SD Algo Stats - Switches: 0 SRR-Repls: 2314656 BRR-Repls: 0

DRAM Statistics
 CHANNEL 0
 RQ ROW_BUFFER_HIT:    7179110  ROW_BUFFER_MISS:    5756886
 DBUS_CONGESTED:   11291137
 WQ ROW_BUFFER_HIT:     977154  ROW_BUFFER_MISS:    5610218  FULL:          0

 AVG_CONGESTED_CYCLE: 13
LOADS RETIRED: 204440772
INSTR RETIRED: 500000000
