
*** ChampSim Multicore Out-of-Order Simulator ***

Warmup Instructions: 100000000
Simulation Instructions: 500000000
Number of CPUs: 1
LLC sets: 2048
LLC ways: 16
Clean RRIP Policies: 2213030122130301 Dirty RRIP Policies: 2213130122131301 PSEL Width: 10 Track Set: 4294967295 PSEL Mask: 1 Demote Mask: 3340201033402010DS Algo: 0Window size: 0
Off-chip DRAM Size: 4096 MB Channels: 1 Width: 64-bit Data Rate: 1600 MT/s

CPU 0 runs /mnt/beegfs/iconst01/spec2017/Lbm.trace.gz
NOT SORTED
TRACE STRING: /mnt/beegfs/iconst01/spec2017/Lbm.trace.gz
SORTED
TRACE STRING: /mnt/beegfs/iconst01/spec2017/Lbm.trace.gz
INITIAL
TRACE STRING: /mnt/beegfs/iconst01/spec2017/Lbm.trace.gz

champsim_seed used: 283

CPU 0 L1D next line prefetcher
CPU 0 L2C IP-based stride prefetcher
Initialize DRRIP state
Assign rand_sets[0]: 454  LLC: 2048
rand_sets[0]: 454
Assign rand_sets[1]: 1662  LLC: 2048
rand_sets[1]: 1662
Assign rand_sets[2]: 1921  LLC: 2048
rand_sets[2]: 1921
Assign rand_sets[3]: 1131  LLC: 2048
rand_sets[3]: 1131
Assign rand_sets[4]: 331  LLC: 2048
rand_sets[4]: 331
Assign rand_sets[5]: 1531  LLC: 2048
rand_sets[5]: 1531
Assign rand_sets[6]: 482  LLC: 2048
rand_sets[6]: 482
Assign rand_sets[7]: 1275  LLC: 2048
rand_sets[7]: 1275
Assign rand_sets[8]: 1876  LLC: 2048
rand_sets[8]: 1876
Assign rand_sets[9]: 2038  LLC: 2048
rand_sets[9]: 2038
Assign rand_sets[10]: 701  LLC: 2048
rand_sets[10]: 701
Assign rand_sets[11]: 479  LLC: 2048
rand_sets[11]: 479
Assign rand_sets[12]: 892  LLC: 2048
rand_sets[12]: 892
Assign rand_sets[13]: 1820  LLC: 2048
rand_sets[13]: 1820
Assign rand_sets[14]: 1505  LLC: 2048
rand_sets[14]: 1505
Assign rand_sets[15]: 1159  LLC: 2048
rand_sets[15]: 1159
Assign rand_sets[16]: 513  LLC: 2048
rand_sets[16]: 513
Assign rand_sets[17]: 703  LLC: 2048
rand_sets[17]: 703
Assign rand_sets[18]: 561  LLC: 2048
rand_sets[18]: 561
Assign rand_sets[19]: 990  LLC: 2048
rand_sets[19]: 990
Assign rand_sets[20]: 342  LLC: 2048
rand_sets[20]: 342
Assign rand_sets[21]: 882  LLC: 2048
rand_sets[21]: 882
Assign rand_sets[22]: 15  LLC: 2048
rand_sets[22]: 15
Assign rand_sets[23]: 71  LLC: 2048
rand_sets[23]: 71
Assign rand_sets[24]: 1127  LLC: 2048
rand_sets[24]: 1127
Assign rand_sets[25]: 1382  LLC: 2048
rand_sets[25]: 1382
Assign rand_sets[26]: 647  LLC: 2048
rand_sets[26]: 647
Assign rand_sets[27]: 857  LLC: 2048
rand_sets[27]: 857
Assign rand_sets[28]: 1450  LLC: 2048
rand_sets[28]: 1450
Assign rand_sets[29]: 1160  LLC: 2048
rand_sets[29]: 1160
Assign rand_sets[30]: 1852  LLC: 2048
rand_sets[30]: 1852
Assign rand_sets[31]: 1881  LLC: 2048
rand_sets[31]: 1881
Assign rand_sets[32]: 1770  LLC: 2048
rand_sets[32]: 1770
Assign rand_sets[33]: 1622  LLC: 2048
rand_sets[33]: 1622
Assign rand_sets[34]: 275  LLC: 2048
rand_sets[34]: 275
Assign rand_sets[35]: 635  LLC: 2048
rand_sets[35]: 635
Assign rand_sets[36]: 466  LLC: 2048
rand_sets[36]: 466
Assign rand_sets[37]: 1413  LLC: 2048
rand_sets[37]: 1413
Assign rand_sets[38]: 417  LLC: 2048
rand_sets[38]: 417
Assign rand_sets[39]: 472  LLC: 2048
rand_sets[39]: 472
Assign rand_sets[40]: 1340  LLC: 2048
rand_sets[40]: 1340
Assign rand_sets[41]: 852  LLC: 2048
rand_sets[41]: 852
Assign rand_sets[42]: 1365  LLC: 2048
rand_sets[42]: 1365
Assign rand_sets[43]: 47  LLC: 2048
rand_sets[43]: 47
Assign rand_sets[44]: 823  LLC: 2048
rand_sets[44]: 823
Assign rand_sets[45]: 686  LLC: 2048
rand_sets[45]: 686
Assign rand_sets[46]: 1637  LLC: 2048
rand_sets[46]: 1637
Assign rand_sets[47]: 1115  LLC: 2048
rand_sets[47]: 1115
Assign rand_sets[48]: 986  LLC: 2048
rand_sets[48]: 986
Assign rand_sets[49]: 258  LLC: 2048
rand_sets[49]: 258
Assign rand_sets[50]: 633  LLC: 2048
rand_sets[50]: 633
Assign rand_sets[51]: 920  LLC: 2048
rand_sets[51]: 920
Assign rand_sets[52]: 204  LLC: 2048
rand_sets[52]: 204
Assign rand_sets[53]: 227  LLC: 2048
rand_sets[53]: 227
Assign rand_sets[54]: 1818  LLC: 2048
rand_sets[54]: 1818
Assign rand_sets[55]: 886  LLC: 2048
rand_sets[55]: 886
Assign rand_sets[56]: 1422  LLC: 2048
rand_sets[56]: 1422
Assign rand_sets[57]: 607  LLC: 2048
rand_sets[57]: 607
Assign rand_sets[58]: 217  LLC: 2048
rand_sets[58]: 217
Assign rand_sets[59]: 1945  LLC: 2048
rand_sets[59]: 1945
Assign rand_sets[60]: 143  LLC: 2048
rand_sets[60]: 143
Assign rand_sets[61]: 1311  LLC: 2048
rand_sets[61]: 1311
Assign rand_sets[62]: 319  LLC: 2048
rand_sets[62]: 319
Assign rand_sets[63]: 1846  LLC: 2048
rand_sets[63]: 1846
 CLEAN-RRIP-POLICY-1: 2-2-1-3-0-3-0-1- CLEAN-RRIP-POLICY-2: 2-2-1-3-0-3-0-1-
 DIRTY-RRIP-POLICY-1: 2-2-1-3-1-3-0-1- DIRTY-RRIP-POLICY-2: 2-2-1-3-1-3-0-1-
 PSEL width: 10
Heartbeat CPU 0 instructions: 10000000 cycles: 4321555 heartbeat IPC: 2.31398 cumulative IPC: 2.31398 (Simulation time: 0 hr 0 min 17 sec) 
Heartbeat CPU 0 instructions: 20000000 cycles: 8643563 heartbeat IPC: 2.31374 cumulative IPC: 2.31386 (Simulation time: 0 hr 0 min 35 sec) 
Heartbeat CPU 0 instructions: 30000000 cycles: 12965339 heartbeat IPC: 2.31386 cumulative IPC: 2.31386 (Simulation time: 0 hr 0 min 52 sec) 
Heartbeat CPU 0 instructions: 40000000 cycles: 17291213 heartbeat IPC: 2.31167 cumulative IPC: 2.31331 (Simulation time: 0 hr 1 min 9 sec) 
Heartbeat CPU 0 instructions: 50000000 cycles: 21613104 heartbeat IPC: 2.3138 cumulative IPC: 2.31341 (Simulation time: 0 hr 1 min 27 sec) 
Heartbeat CPU 0 instructions: 60000000 cycles: 25934974 heartbeat IPC: 2.31381 cumulative IPC: 2.31348 (Simulation time: 0 hr 1 min 44 sec) 
Heartbeat CPU 0 instructions: 70000000 cycles: 30256427 heartbeat IPC: 2.31404 cumulative IPC: 2.31356 (Simulation time: 0 hr 2 min 1 sec) 
Heartbeat CPU 0 instructions: 80000000 cycles: 34582633 heartbeat IPC: 2.31149 cumulative IPC: 2.3133 (Simulation time: 0 hr 2 min 18 sec) 
Heartbeat CPU 0 instructions: 90000003 cycles: 38904701 heartbeat IPC: 2.31371 cumulative IPC: 2.31335 (Simulation time: 0 hr 2 min 36 sec) 
Heartbeat CPU 0 instructions: 100000000 cycles: 43226088 heartbeat IPC: 2.31407 cumulative IPC: 2.31342 (Simulation time: 0 hr 2 min 53 sec) 

Warmup complete CPU 0 instructions: 100000001 cycles: 43226089 (Simulation time: 0 hr 2 min 53 sec) 

Heartbeat CPU 0 instructions: 110000000 cycles: 57678328 heartbeat IPC: 0.691934 cumulative IPC: 0.691934 (Simulation time: 0 hr 3 min 18 sec) 
Heartbeat CPU 0 instructions: 120000000 cycles: 71988312 heartbeat IPC: 0.698813 cumulative IPC: 0.695356 (Simulation time: 0 hr 3 min 42 sec) 
Heartbeat CPU 0 instructions: 130000000 cycles: 86184208 heartbeat IPC: 0.704429 cumulative IPC: 0.698355 (Simulation time: 0 hr 4 min 7 sec) 
Heartbeat CPU 0 instructions: 140000000 cycles: 100247187 heartbeat IPC: 0.711087 cumulative IPC: 0.701495 (Simulation time: 0 hr 4 min 31 sec) 
Heartbeat CPU 0 instructions: 150000003 cycles: 113873264 heartbeat IPC: 0.733887 cumulative IPC: 0.707742 (Simulation time: 0 hr 4 min 55 sec) 
Heartbeat CPU 0 instructions: 160000000 cycles: 127610232 heartbeat IPC: 0.727962 cumulative IPC: 0.711034 (Simulation time: 0 hr 5 min 20 sec) 
Heartbeat CPU 0 instructions: 170000002 cycles: 142000749 heartbeat IPC: 0.694902 cumulative IPC: 0.708684 (Simulation time: 0 hr 5 min 44 sec) 
Heartbeat CPU 0 instructions: 180000000 cycles: 155884902 heartbeat IPC: 0.720245 cumulative IPC: 0.710109 (Simulation time: 0 hr 6 min 9 sec) 
Heartbeat CPU 0 instructions: 190000003 cycles: 172590922 heartbeat IPC: 0.598587 cumulative IPC: 0.695707 (Simulation time: 0 hr 6 min 36 sec) 
Heartbeat CPU 0 instructions: 200000000 cycles: 192803036 heartbeat IPC: 0.494753 cumulative IPC: 0.668552 (Simulation time: 0 hr 7 min 6 sec) 
Heartbeat CPU 0 instructions: 210000001 cycles: 206904091 heartbeat IPC: 0.709167 cumulative IPC: 0.672051 (Simulation time: 0 hr 7 min 30 sec) 
Heartbeat CPU 0 instructions: 220000000 cycles: 220721910 heartbeat IPC: 0.723703 cumulative IPC: 0.676072 (Simulation time: 0 hr 7 min 55 sec) 
Heartbeat CPU 0 instructions: 230000001 cycles: 234696490 heartbeat IPC: 0.715585 cumulative IPC: 0.678956 (Simulation time: 0 hr 8 min 19 sec) 
Heartbeat CPU 0 instructions: 240000000 cycles: 249034170 heartbeat IPC: 0.697463 cumulative IPC: 0.680245 (Simulation time: 0 hr 8 min 44 sec) 
Heartbeat CPU 0 instructions: 250000000 cycles: 263587524 heartbeat IPC: 0.687127 cumulative IPC: 0.6807 (Simulation time: 0 hr 9 min 9 sec) 
Heartbeat CPU 0 instructions: 260000000 cycles: 278356058 heartbeat IPC: 0.677115 cumulative IPC: 0.680475 (Simulation time: 0 hr 9 min 34 sec) 
Heartbeat CPU 0 instructions: 270000002 cycles: 293160223 heartbeat IPC: 0.675486 cumulative IPC: 0.680179 (Simulation time: 0 hr 9 min 59 sec) 
Heartbeat CPU 0 instructions: 280000000 cycles: 307874547 heartbeat IPC: 0.67961 cumulative IPC: 0.680148 (Simulation time: 0 hr 10 min 24 sec) 
Heartbeat CPU 0 instructions: 290000003 cycles: 323591624 heartbeat IPC: 0.636251 cumulative IPC: 0.677687 (Simulation time: 0 hr 10 min 50 sec) 
Heartbeat CPU 0 instructions: 300000000 cycles: 338740830 heartbeat IPC: 0.6601 cumulative IPC: 0.676785 (Simulation time: 0 hr 11 min 15 sec) 
Heartbeat CPU 0 instructions: 310000000 cycles: 354660042 heartbeat IPC: 0.628172 cumulative IPC: 0.6743 (Simulation time: 0 hr 11 min 41 sec) 
Heartbeat CPU 0 instructions: 320000000 cycles: 370384568 heartbeat IPC: 0.635949 cumulative IPC: 0.672457 (Simulation time: 0 hr 12 min 7 sec) 
Heartbeat CPU 0 instructions: 330000002 cycles: 385235767 heartbeat IPC: 0.673346 cumulative IPC: 0.672496 (Simulation time: 0 hr 12 min 32 sec) 
Heartbeat CPU 0 instructions: 340000000 cycles: 401276809 heartbeat IPC: 0.623401 cumulative IPC: 0.670296 (Simulation time: 0 hr 12 min 58 sec) 
Heartbeat CPU 0 instructions: 350000001 cycles: 415823006 heartbeat IPC: 0.687465 cumulative IPC: 0.670966 (Simulation time: 0 hr 13 min 23 sec) 
Heartbeat CPU 0 instructions: 360000000 cycles: 431081766 heartbeat IPC: 0.655361 cumulative IPC: 0.670352 (Simulation time: 0 hr 13 min 48 sec) 
Heartbeat CPU 0 instructions: 370000000 cycles: 445683517 heartbeat IPC: 0.684849 cumulative IPC: 0.670878 (Simulation time: 0 hr 14 min 13 sec) 
Heartbeat CPU 0 instructions: 380000000 cycles: 460664087 heartbeat IPC: 0.667531 cumulative IPC: 0.670758 (Simulation time: 0 hr 14 min 38 sec) 
Heartbeat CPU 0 instructions: 390000000 cycles: 474957289 heartbeat IPC: 0.699633 cumulative IPC: 0.671714 (Simulation time: 0 hr 15 min 3 sec) 
Heartbeat CPU 0 instructions: 400000000 cycles: 489227774 heartbeat IPC: 0.700747 cumulative IPC: 0.672643 (Simulation time: 0 hr 15 min 27 sec) 
Heartbeat CPU 0 instructions: 410000000 cycles: 503227287 heartbeat IPC: 0.714311 cumulative IPC: 0.673911 (Simulation time: 0 hr 15 min 52 sec) 
Heartbeat CPU 0 instructions: 420000000 cycles: 517258892 heartbeat IPC: 0.712677 cumulative IPC: 0.675059 (Simulation time: 0 hr 16 min 16 sec) 
Heartbeat CPU 0 instructions: 430000002 cycles: 530776762 heartbeat IPC: 0.739762 cumulative IPC: 0.676853 (Simulation time: 0 hr 16 min 40 sec) 
Heartbeat CPU 0 instructions: 440000000 cycles: 544392803 heartbeat IPC: 0.734428 cumulative IPC: 0.678417 (Simulation time: 0 hr 17 min 4 sec) 
Heartbeat CPU 0 instructions: 450000000 cycles: 558384715 heartbeat IPC: 0.714699 cumulative IPC: 0.679402 (Simulation time: 0 hr 17 min 28 sec) 
Heartbeat CPU 0 instructions: 460000000 cycles: 572896615 heartbeat IPC: 0.68909 cumulative IPC: 0.679668 (Simulation time: 0 hr 17 min 53 sec) 
Heartbeat CPU 0 instructions: 470000000 cycles: 586967682 heartbeat IPC: 0.710678 cumulative IPC: 0.68047 (Simulation time: 0 hr 18 min 17 sec) 
Heartbeat CPU 0 instructions: 480000000 cycles: 600926546 heartbeat IPC: 0.716391 cumulative IPC: 0.681369 (Simulation time: 0 hr 18 min 42 sec) 
Heartbeat CPU 0 instructions: 490000001 cycles: 615338504 heartbeat IPC: 0.693868 cumulative IPC: 0.681684 (Simulation time: 0 hr 19 min 6 sec) 
Heartbeat CPU 0 instructions: 500000000 cycles: 629470639 heartbeat IPC: 0.707607 cumulative IPC: 0.682309 (Simulation time: 0 hr 19 min 31 sec) 
Heartbeat CPU 0 instructions: 510000002 cycles: 643375264 heartbeat IPC: 0.719185 cumulative IPC: 0.683163 (Simulation time: 0 hr 19 min 55 sec) 
Heartbeat CPU 0 instructions: 520000000 cycles: 657368619 heartbeat IPC: 0.714625 cumulative IPC: 0.68388 (Simulation time: 0 hr 20 min 19 sec) 
Heartbeat CPU 0 instructions: 530000001 cycles: 671125861 heartbeat IPC: 0.72689 cumulative IPC: 0.684823 (Simulation time: 0 hr 20 min 44 sec) 
Heartbeat CPU 0 instructions: 540000000 cycles: 685342878 heartbeat IPC: 0.703382 cumulative IPC: 0.685234 (Simulation time: 0 hr 21 min 8 sec) 
Heartbeat CPU 0 instructions: 550000003 cycles: 699179131 heartbeat IPC: 0.722739 cumulative IPC: 0.686025 (Simulation time: 0 hr 21 min 32 sec) 
Heartbeat CPU 0 instructions: 560000000 cycles: 713779315 heartbeat IPC: 0.684923 cumulative IPC: 0.686001 (Simulation time: 0 hr 21 min 57 sec) 
Heartbeat CPU 0 instructions: 570000001 cycles: 727708502 heartbeat IPC: 0.717917 cumulative IPC: 0.68665 (Simulation time: 0 hr 22 min 21 sec) 
Heartbeat CPU 0 instructions: 580000000 cycles: 741239392 heartbeat IPC: 0.73905 cumulative IPC: 0.687666 (Simulation time: 0 hr 22 min 45 sec) 
Heartbeat CPU 0 instructions: 590000003 cycles: 754434791 heartbeat IPC: 0.75784 cumulative IPC: 0.688968 (Simulation time: 0 hr 23 min 9 sec) 
Heartbeat CPU 0 instructions: 600000000 cycles: 768290599 heartbeat IPC: 0.721719 cumulative IPC: 0.689594 (Simulation time: 0 hr 23 min 33 sec) 
Finished CPU 0 instructions: 500000000 cycles: 725064518 cumulative IPC: 0.689594 (Simulation time: 0 hr 23 min 33 sec) 

CPU 0 Branch Prediction Accuracy: 99.5915% MPKI: 0.037126
Number of Branches: 4544106 Number of Mispredictions: 18563
Number of LOAD Instructions: 149787067
Number of LOAD Instructions (ROI): 149787067
Number of STORE Instructions: 77239062
Number of STORE Instructions (ROI): 77239062
Total Destination Memory Operands: 77239062
Total Destination Memory Operands (ROI): 77239062
Total Source Memory Operands: 149787067
Total Source Memory Operands (ROI): 149787067
Number of DEPENDED LOADS: 19246918
Number of DEPENDED LOADS (ROI): 19246918
Number of SQ_ADDED: 77239036
Number of SQ_ADDED (ROI): 77239036
Number of LQ_ADDED: 149787020
Number of LQ_ADDED (ROI): 149787020
Number of Instructions read from trace: 600000256

ChampSim completed all CPUs

Region of Interest Statistics

CPU 0 cumulative IPC: 0.689594 instructions: 500000000 cycles: 725064518
ITLB TOTAL     ACCESS:   86451778  HIT:   86451777  MISS:          1
ITLB LOAD      ACCESS:   86451778  HIT:   86451777  MISS:          1
ITLB RFO       ACCESS:          0  HIT:          0  MISS:          0
ITLB PREFETCH  ACCESS:          0  HIT:          0  MISS:          0
ITLB WRITEBACK ACCESS:          0  HIT:          0  MISS:          0
ITLB PREFETCH  REQUESTED:          0  ISSUED:          0  USEFUL:          0  USELESS:          0
ITLB TOTAL MSHR MERGED:          1
ITLB LOAD MSHR MERGED:          1
ITLB RFO MSHR MERGED:          0
ITLB PREFETCH MSHR MERGED:          0
ITLB WRITEBACK MSHR MERGED:          0
ITLB TOTAL ACCESSES:   86451779 HITS:   86451777 MISSES:          2
ITLB LOAD ACCESSES:   86451779 HITS:   86451777 MISSES:          2
ITLB RFO ACCESSES:          0 HITS:          0 MISSES:          0
ITLB PREFETCH ACCESSES:          0 HITS:          0 MISSES:          0
ITLB WRITEBACK ACCESSES:          0 HITS:          0 MISSES:          0
ITLB RQ ACCESS:  500000002
ITLB RQ TO_CACHE:   86451779
ITLB RQ MERGED:  413548223
ITLB RQ FORWARD:          0
ITLB WQ ACCESS:          0
ITLB WQ TO_CACHE:          0
ITLB WQ MERGED:          0
ITLB WQ FORWARD:          0
DTLB TOTAL     ACCESS:   98108263  HIT:   97923002  MISS:     185261
DTLB LOAD      ACCESS:   55040634  HIT:   54994323  MISS:      46311
DTLB RFO       ACCESS:   43067629  HIT:   42928679  MISS:     138950
DTLB PREFETCH  ACCESS:          0  HIT:          0  MISS:          0
DTLB WRITEBACK ACCESS:          0  HIT:          0  MISS:          0
DTLB PREFETCH  REQUESTED:          0  ISSUED:          0  USEFUL:          0  USELESS:          0
DTLB TOTAL MSHR MERGED:      83588
DTLB LOAD MSHR MERGED:      83583
DTLB RFO MSHR MERGED:          5
DTLB PREFETCH MSHR MERGED:          0
DTLB WRITEBACK MSHR MERGED:          0
DTLB TOTAL ACCESSES:   98191851 HITS:   97923002 MISSES:     268849
DTLB LOAD ACCESSES:   55124217 HITS:   54994323 MISSES:     129894
DTLB RFO ACCESSES:   43067634 HITS:   42928679 MISSES:     138955
DTLB PREFETCH ACCESSES:          0 HITS:          0 MISSES:          0
DTLB WRITEBACK ACCESSES:          0 HITS:          0 MISSES:          0
DTLB RQ ACCESS:  173635609
DTLB RQ TO_CACHE:   98191851
DTLB RQ MERGED:   75443758
DTLB RQ FORWARD:          0
DTLB WQ ACCESS:          0
DTLB WQ TO_CACHE:          0
DTLB WQ MERGED:          0
DTLB WQ FORWARD:          0
L1D TOTAL     ACCESS:  164597289  HIT:  145024742  MISS:   19572547
L1D LOAD      ACCESS:   60558356  HIT:   58706265  MISS:    1852091
L1D RFO       ACCESS:   64513926  HIT:   47911798  MISS:   16602128
L1D PREFETCH  ACCESS:   39525007  HIT:   38406679  MISS:    1118328
L1D WRITEBACK ACCESS:          0  HIT:          0  MISS:          0
L1D PREFETCH  REQUESTED:   61749550  ISSUED:   61457102  USEFUL:    1116411  USELESS:       1917
L1D TOTAL MSHR MERGED:    3529579
L1D LOAD MSHR MERGED:    1262489
L1D RFO MSHR MERGED:      11550
L1D PREFETCH MSHR MERGED:    2255540
L1D WRITEBACK MSHR MERGED:          0
L1D TOTAL ACCESSES:  168688200 HITS:  145586075 MISSES:   23102125
L1D LOAD ACCESSES:   62003608 HITS:   58960323 MISSES:    3043285
L1D RFO ACCESSES:   64525448 HITS:   47911798 MISSES:   16613650
L1D PREFETCH ACCESSES:   42159144 HITS:   38713954 MISSES:    3445190
L1D WRITEBACK ACCESSES:          0 HITS:          0 MISSES:          0
L1D RQ ACCESS:  109094294
L1D RQ TO_CACHE:   61749550
L1D RQ MERGED:   47090686
L1D RQ FORWARD:          0
L1D WQ ACCESS:   64541313
L1D WQ TO_CACHE:   64525449
L1D WQ MERGED:      15864
L1D WQ FORWARD:     561333
L1I TOTAL     ACCESS:  107760695  HIT:  107760687  MISS:          8
L1I LOAD      ACCESS:  107760695  HIT:  107760687  MISS:          8
L1I RFO       ACCESS:          0  HIT:          0  MISS:          0
L1I PREFETCH  ACCESS:          0  HIT:          0  MISS:          0
L1I WRITEBACK ACCESS:          0  HIT:          0  MISS:          0
L1I PREFETCH  REQUESTED:          0  ISSUED:          0  USEFUL:          0  USELESS:          0
L1I TOTAL MSHR MERGED:          3
L1I LOAD MSHR MERGED:          3
L1I RFO MSHR MERGED:          0
L1I PREFETCH MSHR MERGED:          0
L1I WRITEBACK MSHR MERGED:          0
L1I TOTAL ACCESSES:  107760698 HITS:  107760687 MISSES:         11
L1I LOAD ACCESSES:  107760698 HITS:  107760687 MISSES:         11
L1I RFO ACCESSES:          0 HITS:          0 MISSES:          0
L1I PREFETCH ACCESSES:          0 HITS:          0 MISSES:          0
L1I WRITEBACK ACCESSES:          0 HITS:          0 MISSES:          0
L1I RQ ACCESS:  500000007
L1I RQ TO_CACHE:  107760698
L1I RQ MERGED:  392239309
L1I RQ FORWARD:          0
L1I WQ ACCESS:          0
L1I WQ TO_CACHE:          0
L1I WQ MERGED:          0
L1I WQ FORWARD:          0
L2C TOTAL     ACCESS:   36812316  HIT:   24854734  MISS:   11957582
L2C LOAD      ACCESS:    1780804  HIT:     257195  MISS:    1523609
L2C RFO       ACCESS:   16602098  HIT:    7610728  MISS:    8991370
L2C PREFETCH  ACCESS:    1827233  HIT:     385862  MISS:    1441371
L2C WRITEBACK ACCESS:   16602181  HIT:   16600949  MISS:       1232
L2C PREFETCH  REQUESTED:     817094  ISSUED:     817094  USEFUL:     254876  USELESS:    1186776
L2C TOTAL MSHR MERGED:       2785
L2C LOAD MSHR MERGED:        638
L2C RFO MSHR MERGED:          0
L2C PREFETCH MSHR MERGED:       2147
L2C WRITEBACK MSHR MERGED:          0
L2C TOTAL ACCESSES:   36991740 HITS:   24854737 MISSES:   12137003
L2C LOAD ACCESSES:    1780804 HITS:     257195 MISSES:    1523609
L2C RFO ACCESSES:   16602100 HITS:    7610731 MISSES:    8991369
L2C PREFETCH ACCESSES:    2006655 HITS:     385862 MISSES:    1620793
L2C WRITEBACK ACCESSES:   16602181 HITS:   16600949 MISSES:       1232
L2C RQ ACCESS:   18382904
L2C RQ TO_CACHE:   18382901
L2C RQ MERGED:          0
L2C RQ FORWARD:          0
L2C WQ ACCESS:   16602181
L2C WQ TO_CACHE:   16602181
L2C WQ MERGED:          0
L2C WQ FORWARD:          3
LLC TOTAL     ACCESS:   21122132  HIT:    1899669  MISS:   19222463
LLC LOAD      ACCESS:    1522971  HIT:      63859  MISS:    1459112
LLC RFO       ACCESS:    8991353  HIT:     782408  MISS:    8208945
LLC PREFETCH  ACCESS:    1615609  HIT:     109463  MISS:    1506146
LLC WRITEBACK ACCESS:    8992199  HIT:     943939  MISS:    8048260
LLC PREFETCH  REQUESTED:          0  ISSUED:          0  USEFUL:      63631  USELESS:    1442359
LLC TOTAL MSHR MERGED:       2665
LLC LOAD MSHR MERGED:        227
LLC RFO MSHR MERGED:          0
LLC PREFETCH MSHR MERGED:       2438
LLC WRITEBACK MSHR MERGED:          0
LLC TOTAL ACCESSES:   21124813 HITS:    1899686 MISSES:   19225127
LLC LOAD ACCESSES:    1522971 HITS:      63859 MISSES:    1459112
LLC RFO ACCESSES:    8991369 HITS:     782425 MISSES:    8208944
LLC PREFETCH ACCESSES:    1618274 HITS:     109463 MISSES:    1508811
LLC WRITEBACK ACCESSES:    8992199 HITS:     943939 MISSES:    8048260
LLC 0 RQ ACCESS:   10514340
LLC 0 RQ TO_CACHE:   10514323
LLC 0 RQ MERGED:          0
LLC 0 RQ FORWARD:          0
LLC WQ ACCESS:    8992199
LLC WQ TO_CACHE:    8992199
LLC WQ MERGED:          0
LLC WQ FORWARD:         17
Major fault: 0 Minor fault: 102360
CPU 0 L1D next line prefetcher final stats
CPU 0 L2C PC-based stride prefetcher final stats
All Misses: 22852746
All Hits: 2244897
SD Algo Stats - Switches: 0 SRR-Repls: 1637729 BRR-Repls: 0

DRAM Statistics
 CHANNEL 0
 RQ ROW_BUFFER_HIT:    3689428  ROW_BUFFER_MISS:    7483434
 DBUS_CONGESTED:   13292840
 WQ ROW_BUFFER_HIT:    1363418  ROW_BUFFER_MISS:    6877765  FULL:          0

 AVG_CONGESTED_CYCLE: 13
LOADS RETIRED: 124982196
INSTR RETIRED: 500000000
