
*** ChampSim Multicore Out-of-Order Simulator ***

Warmup Instructions: 100000000
Simulation Instructions: 500000000
Number of CPUs: 1
LLC sets: 2048
LLC ways: 16
Clean RRIP Policies: 2213030122130301 Dirty RRIP Policies: 2213130122131301 PSEL Width: 10 Track Set: 4294967295 PSEL Mask: 1 Demote Mask: 3340201033402010DS Algo: 0Window size: 0
Off-chip DRAM Size: 4096 MB Channels: 1 Width: 64-bit Data Rate: 1600 MT/s

CPU 0 runs /mnt/beegfs/iconst01/spec2017/Xalancbmk.trace.gz
NOT SORTED
TRACE STRING: /mnt/beegfs/iconst01/spec2017/Xalancbmk.trace.gz
SORTED
TRACE STRING: /mnt/beegfs/iconst01/spec2017/Xalancbmk.trace.gz
INITIAL
TRACE STRING: /mnt/beegfs/iconst01/spec2017/Xalancbmk.trace.gz

champsim_seed used: 913

CPU 0 L1D next line prefetcher
CPU 0 L2C IP-based stride prefetcher
Initialize DRRIP state
Assign rand_sets[0]: 454  LLC: 2048
rand_sets[0]: 454
Assign rand_sets[1]: 1662  LLC: 2048
rand_sets[1]: 1662
Assign rand_sets[2]: 1921  LLC: 2048
rand_sets[2]: 1921
Assign rand_sets[3]: 1131  LLC: 2048
rand_sets[3]: 1131
Assign rand_sets[4]: 331  LLC: 2048
rand_sets[4]: 331
Assign rand_sets[5]: 1531  LLC: 2048
rand_sets[5]: 1531
Assign rand_sets[6]: 482  LLC: 2048
rand_sets[6]: 482
Assign rand_sets[7]: 1275  LLC: 2048
rand_sets[7]: 1275
Assign rand_sets[8]: 1876  LLC: 2048
rand_sets[8]: 1876
Assign rand_sets[9]: 2038  LLC: 2048
rand_sets[9]: 2038
Assign rand_sets[10]: 701  LLC: 2048
rand_sets[10]: 701
Assign rand_sets[11]: 479  LLC: 2048
rand_sets[11]: 479
Assign rand_sets[12]: 892  LLC: 2048
rand_sets[12]: 892
Assign rand_sets[13]: 1820  LLC: 2048
rand_sets[13]: 1820
Assign rand_sets[14]: 1505  LLC: 2048
rand_sets[14]: 1505
Assign rand_sets[15]: 1159  LLC: 2048
rand_sets[15]: 1159
Assign rand_sets[16]: 513  LLC: 2048
rand_sets[16]: 513
Assign rand_sets[17]: 703  LLC: 2048
rand_sets[17]: 703
Assign rand_sets[18]: 561  LLC: 2048
rand_sets[18]: 561
Assign rand_sets[19]: 990  LLC: 2048
rand_sets[19]: 990
Assign rand_sets[20]: 342  LLC: 2048
rand_sets[20]: 342
Assign rand_sets[21]: 882  LLC: 2048
rand_sets[21]: 882
Assign rand_sets[22]: 15  LLC: 2048
rand_sets[22]: 15
Assign rand_sets[23]: 71  LLC: 2048
rand_sets[23]: 71
Assign rand_sets[24]: 1127  LLC: 2048
rand_sets[24]: 1127
Assign rand_sets[25]: 1382  LLC: 2048
rand_sets[25]: 1382
Assign rand_sets[26]: 647  LLC: 2048
rand_sets[26]: 647
Assign rand_sets[27]: 857  LLC: 2048
rand_sets[27]: 857
Assign rand_sets[28]: 1450  LLC: 2048
rand_sets[28]: 1450
Assign rand_sets[29]: 1160  LLC: 2048
rand_sets[29]: 1160
Assign rand_sets[30]: 1852  LLC: 2048
rand_sets[30]: 1852
Assign rand_sets[31]: 1881  LLC: 2048
rand_sets[31]: 1881
Assign rand_sets[32]: 1770  LLC: 2048
rand_sets[32]: 1770
Assign rand_sets[33]: 1622  LLC: 2048
rand_sets[33]: 1622
Assign rand_sets[34]: 275  LLC: 2048
rand_sets[34]: 275
Assign rand_sets[35]: 635  LLC: 2048
rand_sets[35]: 635
Assign rand_sets[36]: 466  LLC: 2048
rand_sets[36]: 466
Assign rand_sets[37]: 1413  LLC: 2048
rand_sets[37]: 1413
Assign rand_sets[38]: 417  LLC: 2048
rand_sets[38]: 417
Assign rand_sets[39]: 472  LLC: 2048
rand_sets[39]: 472
Assign rand_sets[40]: 1340  LLC: 2048
rand_sets[40]: 1340
Assign rand_sets[41]: 852  LLC: 2048
rand_sets[41]: 852
Assign rand_sets[42]: 1365  LLC: 2048
rand_sets[42]: 1365
Assign rand_sets[43]: 47  LLC: 2048
rand_sets[43]: 47
Assign rand_sets[44]: 823  LLC: 2048
rand_sets[44]: 823
Assign rand_sets[45]: 686  LLC: 2048
rand_sets[45]: 686
Assign rand_sets[46]: 1637  LLC: 2048
rand_sets[46]: 1637
Assign rand_sets[47]: 1115  LLC: 2048
rand_sets[47]: 1115
Assign rand_sets[48]: 986  LLC: 2048
rand_sets[48]: 986
Assign rand_sets[49]: 258  LLC: 2048
rand_sets[49]: 258
Assign rand_sets[50]: 633  LLC: 2048
rand_sets[50]: 633
Assign rand_sets[51]: 920  LLC: 2048
rand_sets[51]: 920
Assign rand_sets[52]: 204  LLC: 2048
rand_sets[52]: 204
Assign rand_sets[53]: 227  LLC: 2048
rand_sets[53]: 227
Assign rand_sets[54]: 1818  LLC: 2048
rand_sets[54]: 1818
Assign rand_sets[55]: 886  LLC: 2048
rand_sets[55]: 886
Assign rand_sets[56]: 1422  LLC: 2048
rand_sets[56]: 1422
Assign rand_sets[57]: 607  LLC: 2048
rand_sets[57]: 607
Assign rand_sets[58]: 217  LLC: 2048
rand_sets[58]: 217
Assign rand_sets[59]: 1945  LLC: 2048
rand_sets[59]: 1945
Assign rand_sets[60]: 143  LLC: 2048
rand_sets[60]: 143
Assign rand_sets[61]: 1311  LLC: 2048
rand_sets[61]: 1311
Assign rand_sets[62]: 319  LLC: 2048
rand_sets[62]: 319
Assign rand_sets[63]: 1846  LLC: 2048
rand_sets[63]: 1846
 CLEAN-RRIP-POLICY-1: 2-2-1-3-0-3-0-1- CLEAN-RRIP-POLICY-2: 2-2-1-3-0-3-0-1-
 DIRTY-RRIP-POLICY-1: 2-2-1-3-1-3-0-1- DIRTY-RRIP-POLICY-2: 2-2-1-3-1-3-0-1-
 PSEL width: 10
Heartbeat CPU 0 instructions: 10000003 cycles: 4586382 heartbeat IPC: 2.18037 cumulative IPC: 2.18037 (Simulation time: 0 hr 0 min 15 sec) 
Heartbeat CPU 0 instructions: 20000000 cycles: 8977311 heartbeat IPC: 2.27742 cumulative IPC: 2.22784 (Simulation time: 0 hr 0 min 28 sec) 
Heartbeat CPU 0 instructions: 30000000 cycles: 13386686 heartbeat IPC: 2.2679 cumulative IPC: 2.24103 (Simulation time: 0 hr 0 min 42 sec) 
Heartbeat CPU 0 instructions: 40000000 cycles: 18011897 heartbeat IPC: 2.16206 cumulative IPC: 2.22075 (Simulation time: 0 hr 0 min 57 sec) 
Heartbeat CPU 0 instructions: 50000002 cycles: 22423727 heartbeat IPC: 2.26663 cumulative IPC: 2.22978 (Simulation time: 0 hr 1 min 10 sec) 
Heartbeat CPU 0 instructions: 60000000 cycles: 27075498 heartbeat IPC: 2.14972 cumulative IPC: 2.21603 (Simulation time: 0 hr 1 min 26 sec) 
Heartbeat CPU 0 instructions: 70000003 cycles: 31478383 heartbeat IPC: 2.27124 cumulative IPC: 2.22375 (Simulation time: 0 hr 1 min 39 sec) 
Heartbeat CPU 0 instructions: 80000000 cycles: 35902616 heartbeat IPC: 2.26028 cumulative IPC: 2.22825 (Simulation time: 0 hr 1 min 53 sec) 
Heartbeat CPU 0 instructions: 90000002 cycles: 40359421 heartbeat IPC: 2.24376 cumulative IPC: 2.22996 (Simulation time: 0 hr 2 min 7 sec) 
Heartbeat CPU 0 instructions: 100000000 cycles: 44833681 heartbeat IPC: 2.23501 cumulative IPC: 2.23047 (Simulation time: 0 hr 2 min 21 sec) 

Warmup complete CPU 0 instructions: 100000003 cycles: 44833682 (Simulation time: 0 hr 2 min 21 sec) 

Heartbeat CPU 0 instructions: 110000000 cycles: 71355202 heartbeat IPC: 0.377052 cumulative IPC: 0.377052 (Simulation time: 0 hr 2 min 50 sec) 
Heartbeat CPU 0 instructions: 120000000 cycles: 99556566 heartbeat IPC: 0.354593 cumulative IPC: 0.365478 (Simulation time: 0 hr 3 min 20 sec) 
Heartbeat CPU 0 instructions: 130000000 cycles: 123101919 heartbeat IPC: 0.424712 cumulative IPC: 0.383297 (Simulation time: 0 hr 3 min 48 sec) 
Heartbeat CPU 0 instructions: 140000000 cycles: 145640669 heartbeat IPC: 0.44368 cumulative IPC: 0.396798 (Simulation time: 0 hr 4 min 14 sec) 
Heartbeat CPU 0 instructions: 150000000 cycles: 170049882 heartbeat IPC: 0.409681 cumulative IPC: 0.399309 (Simulation time: 0 hr 4 min 42 sec) 
Heartbeat CPU 0 instructions: 160000000 cycles: 194829210 heartbeat IPC: 0.403562 cumulative IPC: 0.400012 (Simulation time: 0 hr 5 min 10 sec) 
Heartbeat CPU 0 instructions: 170000002 cycles: 216087290 heartbeat IPC: 0.470409 cumulative IPC: 0.408751 (Simulation time: 0 hr 5 min 36 sec) 
Heartbeat CPU 0 instructions: 180000000 cycles: 239048799 heartbeat IPC: 0.435511 cumulative IPC: 0.411914 (Simulation time: 0 hr 6 min 3 sec) 
Heartbeat CPU 0 instructions: 190000000 cycles: 258120782 heartbeat IPC: 0.524329 cumulative IPC: 0.421966 (Simulation time: 0 hr 6 min 27 sec) 
Heartbeat CPU 0 instructions: 200000000 cycles: 279393037 heartbeat IPC: 0.470096 cumulative IPC: 0.426331 (Simulation time: 0 hr 6 min 53 sec) 
Heartbeat CPU 0 instructions: 210000001 cycles: 305696571 heartbeat IPC: 0.380177 cumulative IPC: 0.421677 (Simulation time: 0 hr 7 min 22 sec) 
Heartbeat CPU 0 instructions: 220000000 cycles: 331501583 heartbeat IPC: 0.387522 cumulative IPC: 0.418603 (Simulation time: 0 hr 7 min 50 sec) 
Heartbeat CPU 0 instructions: 230000000 cycles: 353718642 heartbeat IPC: 0.450105 cumulative IPC: 0.420869 (Simulation time: 0 hr 8 min 17 sec) 
Heartbeat CPU 0 instructions: 240000000 cycles: 379301927 heartbeat IPC: 0.39088 cumulative IPC: 0.418575 (Simulation time: 0 hr 8 min 46 sec) 
Heartbeat CPU 0 instructions: 250000001 cycles: 404144446 heartbeat IPC: 0.402536 cumulative IPC: 0.417466 (Simulation time: 0 hr 9 min 14 sec) 
Heartbeat CPU 0 instructions: 260000000 cycles: 425172563 heartbeat IPC: 0.475554 cumulative IPC: 0.420677 (Simulation time: 0 hr 9 min 40 sec) 
Heartbeat CPU 0 instructions: 270000000 cycles: 447152324 heartbeat IPC: 0.454964 cumulative IPC: 0.422551 (Simulation time: 0 hr 10 min 6 sec) 
Heartbeat CPU 0 instructions: 280000000 cycles: 474630201 heartbeat IPC: 0.363929 cumulative IPC: 0.418803 (Simulation time: 0 hr 10 min 36 sec) 
Heartbeat CPU 0 instructions: 290000000 cycles: 495866547 heartbeat IPC: 0.470891 cumulative IPC: 0.421255 (Simulation time: 0 hr 11 min 1 sec) 
Heartbeat CPU 0 instructions: 300000000 cycles: 516522565 heartbeat IPC: 0.48412 cumulative IPC: 0.424008 (Simulation time: 0 hr 11 min 27 sec) 
Heartbeat CPU 0 instructions: 310000000 cycles: 535814126 heartbeat IPC: 0.518361 cumulative IPC: 0.427716 (Simulation time: 0 hr 11 min 51 sec) 
Heartbeat CPU 0 instructions: 320000000 cycles: 565013545 heartbeat IPC: 0.342473 cumulative IPC: 0.422931 (Simulation time: 0 hr 12 min 22 sec) 
Heartbeat CPU 0 instructions: 330000001 cycles: 584387970 heartbeat IPC: 0.516144 cumulative IPC: 0.426278 (Simulation time: 0 hr 12 min 46 sec) 
Heartbeat CPU 0 instructions: 340000000 cycles: 603765738 heartbeat IPC: 0.516055 cumulative IPC: 0.42939 (Simulation time: 0 hr 13 min 11 sec) 
Heartbeat CPU 0 instructions: 350000002 cycles: 628585407 heartbeat IPC: 0.402906 cumulative IPC: 0.428264 (Simulation time: 0 hr 13 min 39 sec) 
Heartbeat CPU 0 instructions: 360000000 cycles: 650869498 heartbeat IPC: 0.448751 cumulative IPC: 0.429018 (Simulation time: 0 hr 14 min 5 sec) 
Heartbeat CPU 0 instructions: 370000001 cycles: 675962862 heartbeat IPC: 0.398512 cumulative IPC: 0.427805 (Simulation time: 0 hr 14 min 33 sec) 
Heartbeat CPU 0 instructions: 380000000 cycles: 698938039 heartbeat IPC: 0.435252 cumulative IPC: 0.428066 (Simulation time: 0 hr 15 min 0 sec) 
Heartbeat CPU 0 instructions: 390000000 cycles: 717702295 heartbeat IPC: 0.532928 cumulative IPC: 0.430991 (Simulation time: 0 hr 15 min 24 sec) 
Heartbeat CPU 0 instructions: 400000000 cycles: 737575892 heartbeat IPC: 0.50318 cumulative IPC: 0.433062 (Simulation time: 0 hr 15 min 49 sec) 
Heartbeat CPU 0 instructions: 410000001 cycles: 763451761 heartbeat IPC: 0.38646 cumulative IPC: 0.431384 (Simulation time: 0 hr 16 min 18 sec) 
Heartbeat CPU 0 instructions: 420000000 cycles: 788050081 heartbeat IPC: 0.406532 cumulative IPC: 0.430561 (Simulation time: 0 hr 16 min 45 sec) 
Heartbeat CPU 0 instructions: 430000002 cycles: 809417525 heartbeat IPC: 0.468002 cumulative IPC: 0.431607 (Simulation time: 0 hr 17 min 11 sec) 
Heartbeat CPU 0 instructions: 440000000 cycles: 829831822 heartbeat IPC: 0.489853 cumulative IPC: 0.433122 (Simulation time: 0 hr 17 min 36 sec) 
Heartbeat CPU 0 instructions: 450000002 cycles: 856322352 heartbeat IPC: 0.377493 cumulative IPC: 0.431306 (Simulation time: 0 hr 18 min 5 sec) 
Heartbeat CPU 0 instructions: 460000000 cycles: 882198020 heartbeat IPC: 0.386463 cumulative IPC: 0.42992 (Simulation time: 0 hr 18 min 34 sec) 
Heartbeat CPU 0 instructions: 470000002 cycles: 908063327 heartbeat IPC: 0.386618 cumulative IPC: 0.428623 (Simulation time: 0 hr 19 min 3 sec) 
Heartbeat CPU 0 instructions: 480000000 cycles: 932726275 heartbeat IPC: 0.405466 cumulative IPC: 0.42798 (Simulation time: 0 hr 19 min 30 sec) 
Heartbeat CPU 0 instructions: 490000000 cycles: 953595244 heartbeat IPC: 0.47918 cumulative IPC: 0.429155 (Simulation time: 0 hr 19 min 56 sec) 
Heartbeat CPU 0 instructions: 500000000 cycles: 978330468 heartbeat IPC: 0.404282 cumulative IPC: 0.428496 (Simulation time: 0 hr 20 min 24 sec) 
Heartbeat CPU 0 instructions: 510000000 cycles: 1003373970 heartbeat IPC: 0.399305 cumulative IPC: 0.427734 (Simulation time: 0 hr 20 min 52 sec) 
Heartbeat CPU 0 instructions: 520000000 cycles: 1024517780 heartbeat IPC: 0.472952 cumulative IPC: 0.42871 (Simulation time: 0 hr 21 min 17 sec) 
Heartbeat CPU 0 instructions: 530000003 cycles: 1050046642 heartbeat IPC: 0.391714 cumulative IPC: 0.42777 (Simulation time: 0 hr 21 min 46 sec) 
Heartbeat CPU 0 instructions: 540000000 cycles: 1072902407 heartbeat IPC: 0.437526 cumulative IPC: 0.427987 (Simulation time: 0 hr 22 min 12 sec) 
Heartbeat CPU 0 instructions: 550000000 cycles: 1098177489 heartbeat IPC: 0.395647 cumulative IPC: 0.427211 (Simulation time: 0 hr 22 min 41 sec) 
Heartbeat CPU 0 instructions: 560000000 cycles: 1121833663 heartbeat IPC: 0.422723 cumulative IPC: 0.427112 (Simulation time: 0 hr 23 min 8 sec) 
Heartbeat CPU 0 instructions: 570000002 cycles: 1145253948 heartbeat IPC: 0.42698 cumulative IPC: 0.42711 (Simulation time: 0 hr 23 min 35 sec) 
Heartbeat CPU 0 instructions: 580000000 cycles: 1166419322 heartbeat IPC: 0.47247 cumulative IPC: 0.427966 (Simulation time: 0 hr 24 min 0 sec) 
Heartbeat CPU 0 instructions: 590000001 cycles: 1190301044 heartbeat IPC: 0.41873 cumulative IPC: 0.427773 (Simulation time: 0 hr 24 min 28 sec) 
Heartbeat CPU 0 instructions: 600000000 cycles: 1209508510 heartbeat IPC: 0.520631 cumulative IPC: 0.429304 (Simulation time: 0 hr 24 min 52 sec) 
Finished CPU 0 instructions: 500000000 cycles: 1164674849 cumulative IPC: 0.429304 (Simulation time: 0 hr 24 min 52 sec) 

CPU 0 Branch Prediction Accuracy: 99.5434% MPKI: 1.33026
Number of Branches: 145676990 Number of Mispredictions: 665128
Number of LOAD Instructions: 188863207
Number of LOAD Instructions (ROI): 188863207
Number of STORE Instructions: 7332002
Number of STORE Instructions (ROI): 7332002
Total Destination Memory Operands: 10029285
Total Destination Memory Operands (ROI): 10029285
Total Source Memory Operands: 188863207
Total Source Memory Operands (ROI): 188863207
Number of DEPENDED LOADS: 291584
Number of DEPENDED LOADS (ROI): 291584
Number of SQ_ADDED: 10029285
Number of SQ_ADDED (ROI): 10029285
Number of LQ_ADDED: 200644727
Number of LQ_ADDED (ROI): 200644727
Number of Instructions read from trace: 600000010

ChampSim completed all CPUs

Region of Interest Statistics

CPU 0 cumulative IPC: 0.429304 instructions: 500000000 cycles: 1164674849
ITLB TOTAL     ACCESS:  145807116  HIT:  145767589  MISS:      39527
ITLB LOAD      ACCESS:  145807116  HIT:  145767589  MISS:      39527
ITLB RFO       ACCESS:          0  HIT:          0  MISS:          0
ITLB PREFETCH  ACCESS:          0  HIT:          0  MISS:          0
ITLB WRITEBACK ACCESS:          0  HIT:          0  MISS:          0
ITLB PREFETCH  REQUESTED:          0  ISSUED:          0  USEFUL:          0  USELESS:          0
ITLB TOTAL MSHR MERGED:      57377
ITLB LOAD MSHR MERGED:      57377
ITLB RFO MSHR MERGED:          0
ITLB PREFETCH MSHR MERGED:          0
ITLB WRITEBACK MSHR MERGED:          0
ITLB TOTAL ACCESSES:  145864493 HITS:  145767589 MISSES:      96904
ITLB LOAD ACCESSES:  145864493 HITS:  145767589 MISSES:      96904
ITLB RFO ACCESSES:          0 HITS:          0 MISSES:          0
ITLB PREFETCH ACCESSES:          0 HITS:          0 MISSES:          0
ITLB WRITEBACK ACCESSES:          0 HITS:          0 MISSES:          0
ITLB RQ ACCESS:  499999754
ITLB RQ TO_CACHE:  145864493
ITLB RQ MERGED:  354135261
ITLB RQ FORWARD:          0
ITLB WQ ACCESS:          0
ITLB WQ TO_CACHE:          0
ITLB WQ MERGED:          0
ITLB WQ FORWARD:          0
DTLB TOTAL     ACCESS:  135190022  HIT:  134021661  MISS:    1168361
DTLB LOAD      ACCESS:  127149028  HIT:  125989773  MISS:    1159255
DTLB RFO       ACCESS:    8040994  HIT:    8031888  MISS:       9106
DTLB PREFETCH  ACCESS:          0  HIT:          0  MISS:          0
DTLB WRITEBACK ACCESS:          0  HIT:          0  MISS:          0
DTLB PREFETCH  REQUESTED:          0  ISSUED:          0  USEFUL:          0  USELESS:          0
DTLB TOTAL MSHR MERGED:     581498
DTLB LOAD MSHR MERGED:     577117
DTLB RFO MSHR MERGED:       4381
DTLB PREFETCH MSHR MERGED:          0
DTLB WRITEBACK MSHR MERGED:          0
DTLB TOTAL ACCESSES:  135771520 HITS:  134021661 MISSES:    1749859
DTLB LOAD ACCESSES:  127726145 HITS:  125989773 MISSES:    1736372
DTLB RFO ACCESSES:    8045375 HITS:    8031888 MISSES:      13487
DTLB PREFETCH ACCESSES:          0 HITS:          0 MISSES:          0
DTLB WRITEBACK ACCESSES:          0 HITS:          0 MISSES:          0
DTLB RQ ACCESS:  165762752
DTLB RQ TO_CACHE:  135771520
DTLB RQ MERGED:   29991232
DTLB RQ FORWARD:          0
DTLB WQ ACCESS:          0
DTLB WQ TO_CACHE:          0
DTLB WQ MERGED:          0
DTLB WQ FORWARD:          0
L1D TOTAL     ACCESS:  156955647  HIT:  139639950  MISS:   17315697
L1D LOAD      ACCESS:   89977145  HIT:   78833406  MISS:   11143739
L1D RFO       ACCESS:    8499285  HIT:    8412116  MISS:      87169
L1D PREFETCH  ACCESS:   58479217  HIT:   52394428  MISS:    6084789
L1D WRITEBACK ACCESS:          0  HIT:          0  MISS:          0
L1D PREFETCH  REQUESTED:   93719244  ISSUED:   92851722  USEFUL:    2003363  USELESS:    4081500
L1D TOTAL MSHR MERGED:   15105265
L1D LOAD MSHR MERGED:    7141718
L1D RFO MSHR MERGED:     125290
L1D PREFETCH MSHR MERGED:    7838257
L1D WRITEBACK MSHR MERGED:          0
L1D TOTAL ACCESSES:  172061075 HITS:  139640112 MISSES:   32420963
L1D LOAD ACCESSES:   93719250 HITS:   78833412 MISSES:   14885838
L1D RFO ACCESSES:    8622718 HITS:    8412116 MISSES:     210602
L1D PREFETCH ACCESSES:   69719107 HITS:   52394584 MISSES:   17324523
L1D WRITEBACK ACCESSES:          0 HITS:          0 MISSES:          0
L1D RQ ACCESS:  157123546
L1D RQ TO_CACHE:   93719244
L1D RQ MERGED:   63404296
L1D RQ FORWARD:          0
L1D WQ ACCESS:    8639208
L1D WQ TO_CACHE:    8622718
L1D WQ MERGED:      16490
L1D WQ FORWARD:        162
L1I TOTAL     ACCESS:  178795804  HIT:  178132128  MISS:     663676
L1I LOAD      ACCESS:  178795804  HIT:  178132128  MISS:     663676
L1I RFO       ACCESS:          0  HIT:          0  MISS:          0
L1I PREFETCH  ACCESS:          0  HIT:          0  MISS:          0
L1I WRITEBACK ACCESS:          0  HIT:          0  MISS:          0
L1I PREFETCH  REQUESTED:          0  ISSUED:          0  USEFUL:          0  USELESS:          0
L1I TOTAL MSHR MERGED:     597450
L1I LOAD MSHR MERGED:     597450
L1I RFO MSHR MERGED:          0
L1I PREFETCH MSHR MERGED:          0
L1I WRITEBACK MSHR MERGED:          0
L1I TOTAL ACCESSES:  179393254 HITS:  178132128 MISSES:    1261126
L1I LOAD ACCESSES:  179393254 HITS:  178132128 MISSES:    1261126
L1I RFO ACCESSES:          0 HITS:          0 MISSES:          0
L1I PREFETCH ACCESSES:          0 HITS:          0 MISSES:          0
L1I WRITEBACK ACCESSES:          0 HITS:          0 MISSES:          0
L1I RQ ACCESS:  499999757
L1I RQ TO_CACHE:  179393254
L1I RQ MERGED:  320606503
L1I RQ FORWARD:          0
L1I WQ ACCESS:          0
L1I WQ TO_CACHE:          0
L1I WQ MERGED:          0
L1I WQ FORWARD:          0
L2C TOTAL     ACCESS:   19276743  HIT:    2057264  MISS:   17219479
L2C LOAD      ACCESS:    8407693  HIT:     951137  MISS:    7456556
L2C RFO       ACCESS:      85289  HIT:      53729  MISS:      31560
L2C PREFETCH  ACCESS:   10498752  HIT:     770199  MISS:    9728553
L2C WRITEBACK ACCESS:     285009  HIT:     282199  MISS:       2810
L2C PREFETCH  REQUESTED:    1016905  ISSUED:    1016905  USEFUL:     274760  USELESS:    9452889
L2C TOTAL MSHR MERGED:       1078
L2C LOAD MSHR MERGED:        228
L2C RFO MSHR MERGED:          1
L2C PREFETCH MSHR MERGED:        849
L2C WRITEBACK MSHR MERGED:          0
L2C TOTAL ACCESSES:   19280026 HITS:    2057454 MISSES:   17222572
L2C LOAD ACCESSES:    8407796 HITS:     951240 MISSES:    7456556
L2C RFO ACCESSES:      85312 HITS:      53752 MISSES:      31560
L2C PREFETCH ACCESSES:   10501909 HITS:     770263 MISSES:    9731646
L2C WRITEBACK ACCESSES:     285009 HITS:     282199 MISSES:       2810
L2C RQ ACCESS:    8493108
L2C RQ TO_CACHE:    8492982
L2C RQ MERGED:          0
L2C RQ FORWARD:          0
L2C WQ ACCESS:     285009
L2C WQ TO_CACHE:     285009
L2C WQ MERGED:          0
L2C WQ FORWARD:        190
LLC TOTAL     ACCESS:   17324743  HIT:    4863418  MISS:   12461325
LLC LOAD      ACCESS:    7456328  HIT:    3995391  MISS:    3460937
LLC RFO       ACCESS:      31559  HIT:      16100  MISS:      15459
LLC PREFETCH  ACCESS:    9730795  HIT:     768988  MISS:    8961807
LLC WRITEBACK ACCESS:     106061  HIT:      82939  MISS:      23122
LLC PREFETCH  REQUESTED:          0  ISSUED:          0  USEFUL:       1946  USELESS:    8959155
LLC TOTAL MSHR MERGED:          1
LLC LOAD MSHR MERGED:          0
LLC RFO MSHR MERGED:          0
LLC PREFETCH MSHR MERGED:          1
LLC WRITEBACK MSHR MERGED:          0
LLC TOTAL ACCESSES:   17324745 HITS:    4863418 MISSES:   12461327
LLC LOAD ACCESSES:    7456328 HITS:    3995391 MISSES:    3460937
LLC RFO ACCESSES:      31559 HITS:      16100 MISSES:      15459
LLC PREFETCH ACCESSES:    9730797 HITS:     768988 MISSES:    8961809
LLC WRITEBACK ACCESSES:     106061 HITS:      82939 MISSES:      23122
LLC 0 RQ ACCESS:    7487887
LLC 0 RQ TO_CACHE:    7487887
LLC 0 RQ MERGED:          0
LLC 0 RQ FORWARD:          0
LLC WQ ACCESS:     106061
LLC WQ TO_CACHE:     106061
LLC WQ MERGED:          0
LLC WQ FORWARD:          0
Major fault: 0 Minor fault: 6432
CPU 0 L1D next line prefetcher final stats
CPU 0 L2C PC-based stride prefetcher final stats
All Misses: 14694349
All Hits: 5850038
SD Algo Stats - Switches: 0 SRR-Repls: 3689010 BRR-Repls: 0

DRAM Statistics
 CHANNEL 0
 RQ ROW_BUFFER_HIT:    9398444  ROW_BUFFER_MISS:    3033947
 DBUS_CONGESTED:    5792316
 WQ ROW_BUFFER_HIT:       1421  ROW_BUFFER_MISS:      44428  FULL:          0

 AVG_CONGESTED_CYCLE: 12
LOADS RETIRED: 157382665
INSTR RETIRED: 500000000
