
*** ChampSim Multicore Out-of-Order Simulator ***

Warmup Instructions: 100000000
Simulation Instructions: 500000000
Number of CPUs: 1
LLC sets: 2048
LLC ways: 16
Clean RRIP Policies: 2313130223131302 Dirty RRIP Policies: 1303130213031302 PSEL Width: 10 Track Set: 4294967295 PSEL Mask: 1 Demote Mask: 1040100010401000DS Algo: 0Window size: 0
Off-chip DRAM Size: 4096 MB Channels: 1 Width: 64-bit Data Rate: 1600 MT/s

CPU 0 runs /mnt/beegfs/iconst01/spec2017/Omnetpp.trace.gz
NOT SORTED
TRACE STRING: /mnt/beegfs/iconst01/spec2017/Omnetpp.trace.gz
SORTED
TRACE STRING: /mnt/beegfs/iconst01/spec2017/Omnetpp.trace.gz
INITIAL
TRACE STRING: /mnt/beegfs/iconst01/spec2017/Omnetpp.trace.gz

champsim_seed used: 739

CPU 0 L1D next line prefetcher
CPU 0 L2C IP-based stride prefetcher
Initialize DRRIP state
Assign rand_sets[0]: 454  LLC: 2048
rand_sets[0]: 454
Assign rand_sets[1]: 1662  LLC: 2048
rand_sets[1]: 1662
Assign rand_sets[2]: 1921  LLC: 2048
rand_sets[2]: 1921
Assign rand_sets[3]: 1131  LLC: 2048
rand_sets[3]: 1131
Assign rand_sets[4]: 331  LLC: 2048
rand_sets[4]: 331
Assign rand_sets[5]: 1531  LLC: 2048
rand_sets[5]: 1531
Assign rand_sets[6]: 482  LLC: 2048
rand_sets[6]: 482
Assign rand_sets[7]: 1275  LLC: 2048
rand_sets[7]: 1275
Assign rand_sets[8]: 1876  LLC: 2048
rand_sets[8]: 1876
Assign rand_sets[9]: 2038  LLC: 2048
rand_sets[9]: 2038
Assign rand_sets[10]: 701  LLC: 2048
rand_sets[10]: 701
Assign rand_sets[11]: 479  LLC: 2048
rand_sets[11]: 479
Assign rand_sets[12]: 892  LLC: 2048
rand_sets[12]: 892
Assign rand_sets[13]: 1820  LLC: 2048
rand_sets[13]: 1820
Assign rand_sets[14]: 1505  LLC: 2048
rand_sets[14]: 1505
Assign rand_sets[15]: 1159  LLC: 2048
rand_sets[15]: 1159
Assign rand_sets[16]: 513  LLC: 2048
rand_sets[16]: 513
Assign rand_sets[17]: 703  LLC: 2048
rand_sets[17]: 703
Assign rand_sets[18]: 561  LLC: 2048
rand_sets[18]: 561
Assign rand_sets[19]: 990  LLC: 2048
rand_sets[19]: 990
Assign rand_sets[20]: 342  LLC: 2048
rand_sets[20]: 342
Assign rand_sets[21]: 882  LLC: 2048
rand_sets[21]: 882
Assign rand_sets[22]: 15  LLC: 2048
rand_sets[22]: 15
Assign rand_sets[23]: 71  LLC: 2048
rand_sets[23]: 71
Assign rand_sets[24]: 1127  LLC: 2048
rand_sets[24]: 1127
Assign rand_sets[25]: 1382  LLC: 2048
rand_sets[25]: 1382
Assign rand_sets[26]: 647  LLC: 2048
rand_sets[26]: 647
Assign rand_sets[27]: 857  LLC: 2048
rand_sets[27]: 857
Assign rand_sets[28]: 1450  LLC: 2048
rand_sets[28]: 1450
Assign rand_sets[29]: 1160  LLC: 2048
rand_sets[29]: 1160
Assign rand_sets[30]: 1852  LLC: 2048
rand_sets[30]: 1852
Assign rand_sets[31]: 1881  LLC: 2048
rand_sets[31]: 1881
Assign rand_sets[32]: 1770  LLC: 2048
rand_sets[32]: 1770
Assign rand_sets[33]: 1622  LLC: 2048
rand_sets[33]: 1622
Assign rand_sets[34]: 275  LLC: 2048
rand_sets[34]: 275
Assign rand_sets[35]: 635  LLC: 2048
rand_sets[35]: 635
Assign rand_sets[36]: 466  LLC: 2048
rand_sets[36]: 466
Assign rand_sets[37]: 1413  LLC: 2048
rand_sets[37]: 1413
Assign rand_sets[38]: 417  LLC: 2048
rand_sets[38]: 417
Assign rand_sets[39]: 472  LLC: 2048
rand_sets[39]: 472
Assign rand_sets[40]: 1340  LLC: 2048
rand_sets[40]: 1340
Assign rand_sets[41]: 852  LLC: 2048
rand_sets[41]: 852
Assign rand_sets[42]: 1365  LLC: 2048
rand_sets[42]: 1365
Assign rand_sets[43]: 47  LLC: 2048
rand_sets[43]: 47
Assign rand_sets[44]: 823  LLC: 2048
rand_sets[44]: 823
Assign rand_sets[45]: 686  LLC: 2048
rand_sets[45]: 686
Assign rand_sets[46]: 1637  LLC: 2048
rand_sets[46]: 1637
Assign rand_sets[47]: 1115  LLC: 2048
rand_sets[47]: 1115
Assign rand_sets[48]: 986  LLC: 2048
rand_sets[48]: 986
Assign rand_sets[49]: 258  LLC: 2048
rand_sets[49]: 258
Assign rand_sets[50]: 633  LLC: 2048
rand_sets[50]: 633
Assign rand_sets[51]: 920  LLC: 2048
rand_sets[51]: 920
Assign rand_sets[52]: 204  LLC: 2048
rand_sets[52]: 204
Assign rand_sets[53]: 227  LLC: 2048
rand_sets[53]: 227
Assign rand_sets[54]: 1818  LLC: 2048
rand_sets[54]: 1818
Assign rand_sets[55]: 886  LLC: 2048
rand_sets[55]: 886
Assign rand_sets[56]: 1422  LLC: 2048
rand_sets[56]: 1422
Assign rand_sets[57]: 607  LLC: 2048
rand_sets[57]: 607
Assign rand_sets[58]: 217  LLC: 2048
rand_sets[58]: 217
Assign rand_sets[59]: 1945  LLC: 2048
rand_sets[59]: 1945
Assign rand_sets[60]: 143  LLC: 2048
rand_sets[60]: 143
Assign rand_sets[61]: 1311  LLC: 2048
rand_sets[61]: 1311
Assign rand_sets[62]: 319  LLC: 2048
rand_sets[62]: 319
Assign rand_sets[63]: 1846  LLC: 2048
rand_sets[63]: 1846
 CLEAN-RRIP-POLICY-1: 2-3-1-3-1-3-0-2- CLEAN-RRIP-POLICY-2: 2-3-1-3-1-3-0-2-
 DIRTY-RRIP-POLICY-1: 1-3-0-3-1-3-0-2- DIRTY-RRIP-POLICY-2: 1-3-0-3-1-3-0-2-
 PSEL width: 10
Heartbeat CPU 0 instructions: 10000000 cycles: 7319382 heartbeat IPC: 1.36624 cumulative IPC: 1.36624 (Simulation time: 0 hr 0 min 19 sec) 
Heartbeat CPU 0 instructions: 20000000 cycles: 14622272 heartbeat IPC: 1.36932 cumulative IPC: 1.36778 (Simulation time: 0 hr 0 min 38 sec) 
Heartbeat CPU 0 instructions: 30000003 cycles: 21922696 heartbeat IPC: 1.36978 cumulative IPC: 1.36844 (Simulation time: 0 hr 0 min 57 sec) 
Heartbeat CPU 0 instructions: 40000000 cycles: 29210040 heartbeat IPC: 1.37224 cumulative IPC: 1.36939 (Simulation time: 0 hr 1 min 17 sec) 
Heartbeat CPU 0 instructions: 50000000 cycles: 36485601 heartbeat IPC: 1.37446 cumulative IPC: 1.3704 (Simulation time: 0 hr 1 min 36 sec) 
Heartbeat CPU 0 instructions: 60000000 cycles: 43764611 heartbeat IPC: 1.37381 cumulative IPC: 1.37097 (Simulation time: 0 hr 1 min 55 sec) 
Heartbeat CPU 0 instructions: 70000001 cycles: 51048995 heartbeat IPC: 1.3728 cumulative IPC: 1.37123 (Simulation time: 0 hr 2 min 15 sec) 
Heartbeat CPU 0 instructions: 80000000 cycles: 58323097 heartbeat IPC: 1.37474 cumulative IPC: 1.37167 (Simulation time: 0 hr 2 min 35 sec) 
Heartbeat CPU 0 instructions: 90000000 cycles: 65628558 heartbeat IPC: 1.36884 cumulative IPC: 1.37135 (Simulation time: 0 hr 2 min 54 sec) 
Heartbeat CPU 0 instructions: 100000000 cycles: 72919867 heartbeat IPC: 1.3715 cumulative IPC: 1.37137 (Simulation time: 0 hr 3 min 13 sec) 

Warmup complete CPU 0 instructions: 100000002 cycles: 72919868 (Simulation time: 0 hr 3 min 13 sec) 

Heartbeat CPU 0 instructions: 110000002 cycles: 113306145 heartbeat IPC: 0.247609 cumulative IPC: 0.247609 (Simulation time: 0 hr 3 min 52 sec) 
Heartbeat CPU 0 instructions: 120000000 cycles: 153437887 heartbeat IPC: 0.249179 cumulative IPC: 0.248392 (Simulation time: 0 hr 4 min 30 sec) 
Heartbeat CPU 0 instructions: 130000002 cycles: 193789908 heartbeat IPC: 0.247819 cumulative IPC: 0.2482 (Simulation time: 0 hr 5 min 8 sec) 
Heartbeat CPU 0 instructions: 140000000 cycles: 234224512 heartbeat IPC: 0.247313 cumulative IPC: 0.247978 (Simulation time: 0 hr 5 min 46 sec) 
Heartbeat CPU 0 instructions: 150000002 cycles: 274275596 heartbeat IPC: 0.249681 cumulative IPC: 0.248317 (Simulation time: 0 hr 6 min 25 sec) 
Heartbeat CPU 0 instructions: 160000000 cycles: 314342877 heartbeat IPC: 0.24958 cumulative IPC: 0.248526 (Simulation time: 0 hr 7 min 3 sec) 
Heartbeat CPU 0 instructions: 170000001 cycles: 353643010 heartbeat IPC: 0.254452 cumulative IPC: 0.249356 (Simulation time: 0 hr 7 min 40 sec) 
Heartbeat CPU 0 instructions: 180000000 cycles: 393678362 heartbeat IPC: 0.249779 cumulative IPC: 0.249409 (Simulation time: 0 hr 8 min 18 sec) 
Heartbeat CPU 0 instructions: 190000002 cycles: 433689772 heartbeat IPC: 0.249929 cumulative IPC: 0.249466 (Simulation time: 0 hr 8 min 56 sec) 
Heartbeat CPU 0 instructions: 200000000 cycles: 474886543 heartbeat IPC: 0.242737 cumulative IPC: 0.248777 (Simulation time: 0 hr 9 min 35 sec) 
Heartbeat CPU 0 instructions: 210000003 cycles: 514966305 heartbeat IPC: 0.249503 cumulative IPC: 0.248843 (Simulation time: 0 hr 10 min 13 sec) 
Heartbeat CPU 0 instructions: 220000000 cycles: 555251683 heartbeat IPC: 0.248229 cumulative IPC: 0.248791 (Simulation time: 0 hr 10 min 51 sec) 
Heartbeat CPU 0 instructions: 230000000 cycles: 595517758 heartbeat IPC: 0.248348 cumulative IPC: 0.248757 (Simulation time: 0 hr 11 min 29 sec) 
Heartbeat CPU 0 instructions: 240000000 cycles: 635468926 heartbeat IPC: 0.250306 cumulative IPC: 0.248867 (Simulation time: 0 hr 12 min 7 sec) 
Heartbeat CPU 0 instructions: 250000000 cycles: 675477419 heartbeat IPC: 0.249947 cumulative IPC: 0.248939 (Simulation time: 0 hr 12 min 44 sec) 
Heartbeat CPU 0 instructions: 260000000 cycles: 715609900 heartbeat IPC: 0.249175 cumulative IPC: 0.248954 (Simulation time: 0 hr 13 min 22 sec) 
Heartbeat CPU 0 instructions: 270000000 cycles: 755829665 heartbeat IPC: 0.248634 cumulative IPC: 0.248935 (Simulation time: 0 hr 14 min 0 sec) 
Heartbeat CPU 0 instructions: 280000000 cycles: 796391376 heartbeat IPC: 0.246538 cumulative IPC: 0.2488 (Simulation time: 0 hr 14 min 37 sec) 
Heartbeat CPU 0 instructions: 290000001 cycles: 836172824 heartbeat IPC: 0.251373 cumulative IPC: 0.248935 (Simulation time: 0 hr 15 min 15 sec) 
Heartbeat CPU 0 instructions: 300000000 cycles: 876609889 heartbeat IPC: 0.247298 cumulative IPC: 0.248852 (Simulation time: 0 hr 15 min 52 sec) 
Heartbeat CPU 0 instructions: 310000000 cycles: 917012332 heartbeat IPC: 0.24751 cumulative IPC: 0.248788 (Simulation time: 0 hr 16 min 29 sec) 
Heartbeat CPU 0 instructions: 320000000 cycles: 957121543 heartbeat IPC: 0.249319 cumulative IPC: 0.248812 (Simulation time: 0 hr 17 min 6 sec) 
Heartbeat CPU 0 instructions: 330000000 cycles: 997214127 heartbeat IPC: 0.249423 cumulative IPC: 0.248838 (Simulation time: 0 hr 17 min 43 sec) 
Heartbeat CPU 0 instructions: 340000000 cycles: 1037902709 heartbeat IPC: 0.245769 cumulative IPC: 0.248709 (Simulation time: 0 hr 18 min 21 sec) 
Heartbeat CPU 0 instructions: 350000001 cycles: 1078051476 heartbeat IPC: 0.249074 cumulative IPC: 0.248724 (Simulation time: 0 hr 18 min 57 sec) 
Heartbeat CPU 0 instructions: 360000000 cycles: 1118518396 heartbeat IPC: 0.247115 cumulative IPC: 0.248661 (Simulation time: 0 hr 19 min 34 sec) 
Heartbeat CPU 0 instructions: 370000000 cycles: 1158040780 heartbeat IPC: 0.253021 cumulative IPC: 0.24882 (Simulation time: 0 hr 20 min 11 sec) 
Heartbeat CPU 0 instructions: 380000000 cycles: 1198512075 heartbeat IPC: 0.247089 cumulative IPC: 0.248758 (Simulation time: 0 hr 20 min 48 sec) 
Heartbeat CPU 0 instructions: 390000001 cycles: 1238493781 heartbeat IPC: 0.250114 cumulative IPC: 0.248804 (Simulation time: 0 hr 21 min 24 sec) 
Heartbeat CPU 0 instructions: 400000000 cycles: 1278600384 heartbeat IPC: 0.249335 cumulative IPC: 0.248822 (Simulation time: 0 hr 22 min 1 sec) 
Heartbeat CPU 0 instructions: 410000000 cycles: 1318504395 heartbeat IPC: 0.250601 cumulative IPC: 0.248879 (Simulation time: 0 hr 22 min 38 sec) 
Heartbeat CPU 0 instructions: 420000000 cycles: 1358460001 heartbeat IPC: 0.250278 cumulative IPC: 0.248923 (Simulation time: 0 hr 23 min 14 sec) 
Heartbeat CPU 0 instructions: 430000000 cycles: 1398488300 heartbeat IPC: 0.249823 cumulative IPC: 0.24895 (Simulation time: 0 hr 23 min 51 sec) 
Heartbeat CPU 0 instructions: 440000000 cycles: 1438523673 heartbeat IPC: 0.249779 cumulative IPC: 0.248974 (Simulation time: 0 hr 24 min 28 sec) 
Heartbeat CPU 0 instructions: 450000002 cycles: 1478445597 heartbeat IPC: 0.250489 cumulative IPC: 0.249017 (Simulation time: 0 hr 25 min 4 sec) 
Heartbeat CPU 0 instructions: 460000000 cycles: 1517821054 heartbeat IPC: 0.253965 cumulative IPC: 0.249152 (Simulation time: 0 hr 25 min 41 sec) 
Heartbeat CPU 0 instructions: 470000000 cycles: 1558032471 heartbeat IPC: 0.248686 cumulative IPC: 0.249139 (Simulation time: 0 hr 26 min 18 sec) 
Heartbeat CPU 0 instructions: 480000000 cycles: 1597913638 heartbeat IPC: 0.250745 cumulative IPC: 0.249181 (Simulation time: 0 hr 26 min 55 sec) 
Heartbeat CPU 0 instructions: 490000001 cycles: 1637946308 heartbeat IPC: 0.249796 cumulative IPC: 0.249197 (Simulation time: 0 hr 27 min 31 sec) 
Heartbeat CPU 0 instructions: 500000000 cycles: 1678177406 heartbeat IPC: 0.248564 cumulative IPC: 0.249181 (Simulation time: 0 hr 28 min 8 sec) 
Heartbeat CPU 0 instructions: 510000000 cycles: 1717874838 heartbeat IPC: 0.251905 cumulative IPC: 0.249247 (Simulation time: 0 hr 28 min 44 sec) 
Heartbeat CPU 0 instructions: 520000000 cycles: 1758337674 heartbeat IPC: 0.24714 cumulative IPC: 0.249196 (Simulation time: 0 hr 29 min 20 sec) 
Heartbeat CPU 0 instructions: 530000000 cycles: 1798248041 heartbeat IPC: 0.250561 cumulative IPC: 0.249228 (Simulation time: 0 hr 29 min 55 sec) 
Heartbeat CPU 0 instructions: 540000000 cycles: 1837935679 heartbeat IPC: 0.251968 cumulative IPC: 0.24929 (Simulation time: 0 hr 30 min 30 sec) 
Heartbeat CPU 0 instructions: 550000001 cycles: 1878323762 heartbeat IPC: 0.247598 cumulative IPC: 0.249252 (Simulation time: 0 hr 31 min 5 sec) 
Heartbeat CPU 0 instructions: 560000000 cycles: 1918803785 heartbeat IPC: 0.247035 cumulative IPC: 0.249203 (Simulation time: 0 hr 31 min 40 sec) 
Heartbeat CPU 0 instructions: 570000003 cycles: 1959267790 heartbeat IPC: 0.247133 cumulative IPC: 0.249159 (Simulation time: 0 hr 32 min 15 sec) 
Heartbeat CPU 0 instructions: 580000000 cycles: 1999551361 heartbeat IPC: 0.24824 cumulative IPC: 0.24914 (Simulation time: 0 hr 32 min 50 sec) 
Heartbeat CPU 0 instructions: 590000001 cycles: 2040241879 heartbeat IPC: 0.245758 cumulative IPC: 0.24907 (Simulation time: 0 hr 33 min 25 sec) 
Heartbeat CPU 0 instructions: 600000000 cycles: 2080662452 heartbeat IPC: 0.247399 cumulative IPC: 0.249036 (Simulation time: 0 hr 33 min 59 sec) 
Finished CPU 0 instructions: 500000000 cycles: 2007742592 cumulative IPC: 0.249036 (Simulation time: 0 hr 33 min 59 sec) 

CPU 0 Branch Prediction Accuracy: 96.2429% MPKI: 5.85335
Number of Branches: 77897976 Number of Mispredictions: 2926674
Number of LOAD Instructions: 193081861
Number of LOAD Instructions (ROI): 193081861
Number of STORE Instructions: 97310749
Number of STORE Instructions (ROI): 97310749
Total Destination Memory Operands: 106368027
Total Destination Memory Operands (ROI): 106368027
Total Source Memory Operands: 193081861
Total Source Memory Operands (ROI): 193081861
Number of DEPENDED LOADS: 6465788
Number of DEPENDED LOADS (ROI): 6465788
Number of SQ_ADDED: 106367982
Number of SQ_ADDED (ROI): 106367982
Number of LQ_ADDED: 427322380
Number of LQ_ADDED (ROI): 427322380
Number of Instructions read from trace: 600000256

ChampSim completed all CPUs

Region of Interest Statistics

CPU 0 cumulative IPC: 0.249036 instructions: 500000000 cycles: 2007742592
ITLB TOTAL     ACCESS:  150837355  HIT:  150821524  MISS:      15831
ITLB LOAD      ACCESS:  150837355  HIT:  150821524  MISS:      15831
ITLB RFO       ACCESS:          0  HIT:          0  MISS:          0
ITLB PREFETCH  ACCESS:          0  HIT:          0  MISS:          0
ITLB WRITEBACK ACCESS:          0  HIT:          0  MISS:          0
ITLB PREFETCH  REQUESTED:          0  ISSUED:          0  USEFUL:          0  USELESS:          0
ITLB TOTAL MSHR MERGED:      17348
ITLB LOAD MSHR MERGED:      17348
ITLB RFO MSHR MERGED:          0
ITLB PREFETCH MSHR MERGED:          0
ITLB WRITEBACK MSHR MERGED:          0
ITLB TOTAL ACCESSES:  150854703 HITS:  150821524 MISSES:      33179
ITLB LOAD ACCESSES:  150854703 HITS:  150821524 MISSES:      33179
ITLB RFO ACCESSES:          0 HITS:          0 MISSES:          0
ITLB PREFETCH ACCESSES:          0 HITS:          0 MISSES:          0
ITLB WRITEBACK ACCESSES:          0 HITS:          0 MISSES:          0
ITLB RQ ACCESS:  500000242
ITLB RQ TO_CACHE:  150854703
ITLB RQ MERGED:  349145539
ITLB RQ FORWARD:          0
ITLB WQ ACCESS:          0
ITLB WQ TO_CACHE:          0
ITLB WQ MERGED:          0
ITLB WQ FORWARD:          0
DTLB TOTAL     ACCESS:  199533397  HIT:  194154669  MISS:    5378728
DTLB LOAD      ACCESS:  123106784  HIT:  118088540  MISS:    5018244
DTLB RFO       ACCESS:   76426613  HIT:   76066129  MISS:     360484
DTLB PREFETCH  ACCESS:          0  HIT:          0  MISS:          0
DTLB WRITEBACK ACCESS:          0  HIT:          0  MISS:          0
DTLB PREFETCH  REQUESTED:          0  ISSUED:          0  USEFUL:          0  USELESS:          0
DTLB TOTAL MSHR MERGED:     917978
DTLB LOAD MSHR MERGED:     807698
DTLB RFO MSHR MERGED:     110280
DTLB PREFETCH MSHR MERGED:          0
DTLB WRITEBACK MSHR MERGED:          0
DTLB TOTAL ACCESSES:  200451375 HITS:  194154669 MISSES:    6296706
DTLB LOAD ACCESSES:  123914482 HITS:  118088540 MISSES:    5825942
DTLB RFO ACCESSES:   76536893 HITS:   76066129 MISSES:     470764
DTLB PREFETCH ACCESSES:          0 HITS:          0 MISSES:          0
DTLB WRITEBACK ACCESSES:          0 HITS:          0 MISSES:          0
DTLB RQ ACCESS:  243859397
DTLB RQ TO_CACHE:  200451375
DTLB RQ MERGED:   43408022
DTLB RQ FORWARD:          0
DTLB WQ ACCESS:          0
DTLB WQ TO_CACHE:          0
DTLB WQ MERGED:          0
DTLB WQ FORWARD:          0
L1D TOTAL     ACCESS:  335458864  HIT:  317362958  MISS:   18095906
L1D LOAD      ACCESS:  127653998  HIT:  118691164  MISS:    8962834
L1D RFO       ACCESS:   87077363  HIT:   86272055  MISS:     805308
L1D PREFETCH  ACCESS:  120727503  HIT:  112399739  MISS:    8327764
L1D WRITEBACK ACCESS:          0  HIT:          0  MISS:          0
L1D PREFETCH  REQUESTED:  128450281  ISSUED:  126852305  USEFUL:    1721833  USELESS:    6605943
L1D TOTAL MSHR MERGED:    3942042
L1D LOAD MSHR MERGED:     980268
L1D RFO MSHR MERGED:    1089727
L1D PREFETCH MSHR MERGED:    1872047
L1D WRITEBACK MSHR MERGED:          0
L1D TOTAL ACCESSES:  339486027 HITS:  317448079 MISSES:   22037948
L1D LOAD ACCESSES:  128450768 HITS:  118691651 MISSES:    9759117
L1D RFO ACCESSES:   88082541 HITS:   86272055 MISSES:    1810486
L1D PREFETCH ACCESSES:  122952718 HITS:  112484373 MISSES:   10468345
L1D WRITEBACK ACCESSES:          0 HITS:          0 MISSES:          0
L1D RQ ACCESS:  155228012
L1D RQ TO_CACHE:  128450281
L1D RQ MERGED:   26777244
L1D RQ FORWARD:          0
L1D WQ ACCESS:   88631385
L1D WQ TO_CACHE:   88082540
L1D WQ MERGED:     548845
L1D WQ FORWARD:      85121
L1I TOTAL     ACCESS:  175170879  HIT:  174904408  MISS:     266471
L1I LOAD      ACCESS:  175170879  HIT:  174904408  MISS:     266471
L1I RFO       ACCESS:          0  HIT:          0  MISS:          0
L1I PREFETCH  ACCESS:          0  HIT:          0  MISS:          0
L1I WRITEBACK ACCESS:          0  HIT:          0  MISS:          0
L1I PREFETCH  REQUESTED:          0  ISSUED:          0  USEFUL:          0  USELESS:          0
L1I TOTAL MSHR MERGED:     212926
L1I LOAD MSHR MERGED:     212926
L1I RFO MSHR MERGED:          0
L1I PREFETCH MSHR MERGED:          0
L1I WRITEBACK MSHR MERGED:          0
L1I TOTAL ACCESSES:  175383805 HITS:  174904408 MISSES:     479397
L1I LOAD ACCESSES:  175383805 HITS:  174904408 MISSES:     479397
L1I RFO ACCESSES:          0 HITS:          0 MISSES:          0
L1I PREFETCH ACCESSES:          0 HITS:          0 MISSES:          0
L1I WRITEBACK ACCESSES:          0 HITS:          0 MISSES:          0
L1I RQ ACCESS:  500000242
L1I RQ TO_CACHE:  175383805
L1I RQ MERGED:  324616437
L1I RQ FORWARD:          0
L1I WQ ACCESS:          0
L1I WQ TO_CACHE:          0
L1I WQ MERGED:          0
L1I WQ FORWARD:          0
L2C TOTAL     ACCESS:   23738427  HIT:   12112614  MISS:   11625813
L2C LOAD      ACCESS:    9044140  HIT:    3564629  MISS:    5479511
L2C RFO       ACCESS:     720700  HIT:     130434  MISS:     590266
L2C PREFETCH  ACCESS:    8613294  HIT:    3085973  MISS:    5527321
L2C WRITEBACK ACCESS:    5360293  HIT:    5331578  MISS:      28715
L2C PREFETCH  REQUESTED:      18042  ISSUED:      18042  USEFUL:     323028  USELESS:    5204467
L2C TOTAL MSHR MERGED:         24
L2C LOAD MSHR MERGED:          3
L2C RFO MSHR MERGED:          0
L2C PREFETCH MSHR MERGED:         21
L2C WRITEBACK MSHR MERGED:          0
L2C TOTAL ACCESSES:   23740253 HITS:   12114410 MISSES:   11625843
L2C LOAD ACCESSES:    9045320 HITS:    3565809 MISSES:    5479511
L2C RFO ACCESSES:     720759 HITS:     130493 MISSES:     590266
L2C PREFETCH ACCESSES:    8613881 HITS:    3086530 MISSES:    5527351
L2C WRITEBACK ACCESSES:    5360293 HITS:    5331578 MISSES:      28715
L2C RQ ACCESS:    9766079
L2C RQ TO_CACHE:    9764840
L2C RQ MERGED:          0
L2C RQ FORWARD:          0
L2C WQ ACCESS:    5360293
L2C WQ TO_CACHE:    5360293
L2C WQ MERGED:          0
L2C WQ FORWARD:       1796
LLC TOTAL     ACCESS:   15448785  HIT:    6063441  MISS:    9385344
LLC LOAD      ACCESS:    5479476  HIT:    2066265  MISS:    3413211
LLC RFO       ACCESS:     590264  HIT:     182267  MISS:     407997
LLC PREFETCH  ACCESS:    5527316  HIT:     922570  MISS:    4604746
LLC WRITEBACK ACCESS:    3851729  HIT:    2892339  MISS:     959390
LLC PREFETCH  REQUESTED:          0  ISSUED:          0  USEFUL:      23813  USELESS:    4581684
LLC TOTAL MSHR MERGED:          0
LLC LOAD MSHR MERGED:          0
LLC RFO MSHR MERGED:          0
LLC PREFETCH MSHR MERGED:          0
LLC WRITEBACK MSHR MERGED:          0
LLC TOTAL ACCESSES:   15448833 HITS:    6063489 MISSES:    9385344
LLC LOAD ACCESSES:    5479508 HITS:    2066297 MISSES:    3413211
LLC RFO ACCESSES:     590266 HITS:     182269 MISSES:     407997
LLC PREFETCH ACCESSES:    5527330 HITS:     922584 MISSES:    4604746
LLC WRITEBACK ACCESSES:    3851729 HITS:    2892339 MISSES:     959390
LLC 0 RQ ACCESS:    6069774
LLC 0 RQ TO_CACHE:    6069740
LLC 0 RQ MERGED:          0
LLC 0 RQ FORWARD:          0
LLC WQ ACCESS:    3851729
LLC WQ TO_CACHE:    3851729
LLC WQ MERGED:          0
LLC WQ FORWARD:         48
Major fault: 0 Minor fault: 44814
CPU 0 L1D next line prefetcher final stats
CPU 0 L2C PC-based stride prefetcher final stats
All Misses: 11383025
All Hits: 7238301
SD Algo Stats - Switches: 0 SRR-Repls: 3892292 BRR-Repls: 0

DRAM Statistics
 CHANNEL 0
 RQ ROW_BUFFER_HIT:    1493085  ROW_BUFFER_MISS:    6930835
 DBUS_CONGESTED:    5751688
 WQ ROW_BUFFER_HIT:     204759  ROW_BUFFER_MISS:    2259093  FULL:          0

 AVG_CONGESTED_CYCLE: 13
LOADS RETIRED: 160808997
INSTR RETIRED: 500000000
