
*** ChampSim Multicore Out-of-Order Simulator ***

Warmup Instructions: 100000000
Simulation Instructions: 500000000
Number of CPUs: 1
LLC sets: 2048
LLC ways: 16
Clean RRIP Policies: 2313130223131302 Dirty RRIP Policies: 1303130213031302 PSEL Width: 10 Track Set: 4294967295 PSEL Mask: 1 Demote Mask: 1040100010401000DS Algo: 0Window size: 0
Off-chip DRAM Size: 4096 MB Channels: 1 Width: 64-bit Data Rate: 1600 MT/s

CPU 0 runs /mnt/beegfs/iconst01/spec2017/Wrf.trace.gz
NOT SORTED
TRACE STRING: /mnt/beegfs/iconst01/spec2017/Wrf.trace.gz
SORTED
TRACE STRING: /mnt/beegfs/iconst01/spec2017/Wrf.trace.gz
INITIAL
TRACE STRING: /mnt/beegfs/iconst01/spec2017/Wrf.trace.gz

champsim_seed used: 303

CPU 0 L1D next line prefetcher
CPU 0 L2C IP-based stride prefetcher
Initialize DRRIP state
Assign rand_sets[0]: 454  LLC: 2048
rand_sets[0]: 454
Assign rand_sets[1]: 1662  LLC: 2048
rand_sets[1]: 1662
Assign rand_sets[2]: 1921  LLC: 2048
rand_sets[2]: 1921
Assign rand_sets[3]: 1131  LLC: 2048
rand_sets[3]: 1131
Assign rand_sets[4]: 331  LLC: 2048
rand_sets[4]: 331
Assign rand_sets[5]: 1531  LLC: 2048
rand_sets[5]: 1531
Assign rand_sets[6]: 482  LLC: 2048
rand_sets[6]: 482
Assign rand_sets[7]: 1275  LLC: 2048
rand_sets[7]: 1275
Assign rand_sets[8]: 1876  LLC: 2048
rand_sets[8]: 1876
Assign rand_sets[9]: 2038  LLC: 2048
rand_sets[9]: 2038
Assign rand_sets[10]: 701  LLC: 2048
rand_sets[10]: 701
Assign rand_sets[11]: 479  LLC: 2048
rand_sets[11]: 479
Assign rand_sets[12]: 892  LLC: 2048
rand_sets[12]: 892
Assign rand_sets[13]: 1820  LLC: 2048
rand_sets[13]: 1820
Assign rand_sets[14]: 1505  LLC: 2048
rand_sets[14]: 1505
Assign rand_sets[15]: 1159  LLC: 2048
rand_sets[15]: 1159
Assign rand_sets[16]: 513  LLC: 2048
rand_sets[16]: 513
Assign rand_sets[17]: 703  LLC: 2048
rand_sets[17]: 703
Assign rand_sets[18]: 561  LLC: 2048
rand_sets[18]: 561
Assign rand_sets[19]: 990  LLC: 2048
rand_sets[19]: 990
Assign rand_sets[20]: 342  LLC: 2048
rand_sets[20]: 342
Assign rand_sets[21]: 882  LLC: 2048
rand_sets[21]: 882
Assign rand_sets[22]: 15  LLC: 2048
rand_sets[22]: 15
Assign rand_sets[23]: 71  LLC: 2048
rand_sets[23]: 71
Assign rand_sets[24]: 1127  LLC: 2048
rand_sets[24]: 1127
Assign rand_sets[25]: 1382  LLC: 2048
rand_sets[25]: 1382
Assign rand_sets[26]: 647  LLC: 2048
rand_sets[26]: 647
Assign rand_sets[27]: 857  LLC: 2048
rand_sets[27]: 857
Assign rand_sets[28]: 1450  LLC: 2048
rand_sets[28]: 1450
Assign rand_sets[29]: 1160  LLC: 2048
rand_sets[29]: 1160
Assign rand_sets[30]: 1852  LLC: 2048
rand_sets[30]: 1852
Assign rand_sets[31]: 1881  LLC: 2048
rand_sets[31]: 1881
Assign rand_sets[32]: 1770  LLC: 2048
rand_sets[32]: 1770
Assign rand_sets[33]: 1622  LLC: 2048
rand_sets[33]: 1622
Assign rand_sets[34]: 275  LLC: 2048
rand_sets[34]: 275
Assign rand_sets[35]: 635  LLC: 2048
rand_sets[35]: 635
Assign rand_sets[36]: 466  LLC: 2048
rand_sets[36]: 466
Assign rand_sets[37]: 1413  LLC: 2048
rand_sets[37]: 1413
Assign rand_sets[38]: 417  LLC: 2048
rand_sets[38]: 417
Assign rand_sets[39]: 472  LLC: 2048
rand_sets[39]: 472
Assign rand_sets[40]: 1340  LLC: 2048
rand_sets[40]: 1340
Assign rand_sets[41]: 852  LLC: 2048
rand_sets[41]: 852
Assign rand_sets[42]: 1365  LLC: 2048
rand_sets[42]: 1365
Assign rand_sets[43]: 47  LLC: 2048
rand_sets[43]: 47
Assign rand_sets[44]: 823  LLC: 2048
rand_sets[44]: 823
Assign rand_sets[45]: 686  LLC: 2048
rand_sets[45]: 686
Assign rand_sets[46]: 1637  LLC: 2048
rand_sets[46]: 1637
Assign rand_sets[47]: 1115  LLC: 2048
rand_sets[47]: 1115
Assign rand_sets[48]: 986  LLC: 2048
rand_sets[48]: 986
Assign rand_sets[49]: 258  LLC: 2048
rand_sets[49]: 258
Assign rand_sets[50]: 633  LLC: 2048
rand_sets[50]: 633
Assign rand_sets[51]: 920  LLC: 2048
rand_sets[51]: 920
Assign rand_sets[52]: 204  LLC: 2048
rand_sets[52]: 204
Assign rand_sets[53]: 227  LLC: 2048
rand_sets[53]: 227
Assign rand_sets[54]: 1818  LLC: 2048
rand_sets[54]: 1818
Assign rand_sets[55]: 886  LLC: 2048
rand_sets[55]: 886
Assign rand_sets[56]: 1422  LLC: 2048
rand_sets[56]: 1422
Assign rand_sets[57]: 607  LLC: 2048
rand_sets[57]: 607
Assign rand_sets[58]: 217  LLC: 2048
rand_sets[58]: 217
Assign rand_sets[59]: 1945  LLC: 2048
rand_sets[59]: 1945
Assign rand_sets[60]: 143  LLC: 2048
rand_sets[60]: 143
Assign rand_sets[61]: 1311  LLC: 2048
rand_sets[61]: 1311
Assign rand_sets[62]: 319  LLC: 2048
rand_sets[62]: 319
Assign rand_sets[63]: 1846  LLC: 2048
rand_sets[63]: 1846
 CLEAN-RRIP-POLICY-1: 2-3-1-3-1-3-0-2- CLEAN-RRIP-POLICY-2: 2-3-1-3-1-3-0-2-
 DIRTY-RRIP-POLICY-1: 1-3-0-3-1-3-0-2- DIRTY-RRIP-POLICY-2: 1-3-0-3-1-3-0-2-
 PSEL width: 10
Heartbeat CPU 0 instructions: 10000002 cycles: 6559548 heartbeat IPC: 1.5245 cumulative IPC: 1.5245 (Simulation time: 0 hr 0 min 23 sec) 
Heartbeat CPU 0 instructions: 20000000 cycles: 12222128 heartbeat IPC: 1.76598 cumulative IPC: 1.63638 (Simulation time: 0 hr 0 min 44 sec) 
Heartbeat CPU 0 instructions: 30000003 cycles: 18203901 heartbeat IPC: 1.67175 cumulative IPC: 1.648 (Simulation time: 0 hr 1 min 5 sec) 
Heartbeat CPU 0 instructions: 40000000 cycles: 24059236 heartbeat IPC: 1.70784 cumulative IPC: 1.66256 (Simulation time: 0 hr 1 min 27 sec) 
Heartbeat CPU 0 instructions: 50000000 cycles: 29527643 heartbeat IPC: 1.82869 cumulative IPC: 1.69333 (Simulation time: 0 hr 1 min 48 sec) 
Heartbeat CPU 0 instructions: 60000000 cycles: 35640339 heartbeat IPC: 1.63594 cumulative IPC: 1.68349 (Simulation time: 0 hr 2 min 11 sec) 
Heartbeat CPU 0 instructions: 70000000 cycles: 41360050 heartbeat IPC: 1.74834 cumulative IPC: 1.69245 (Simulation time: 0 hr 2 min 32 sec) 
Heartbeat CPU 0 instructions: 80000000 cycles: 47230949 heartbeat IPC: 1.70332 cumulative IPC: 1.6938 (Simulation time: 0 hr 2 min 54 sec) 
Heartbeat CPU 0 instructions: 90000000 cycles: 52984491 heartbeat IPC: 1.73806 cumulative IPC: 1.69861 (Simulation time: 0 hr 3 min 16 sec) 
Heartbeat CPU 0 instructions: 100000000 cycles: 58537184 heartbeat IPC: 1.80093 cumulative IPC: 1.70832 (Simulation time: 0 hr 3 min 38 sec) 

Warmup complete CPU 0 instructions: 100000004 cycles: 58537186 (Simulation time: 0 hr 3 min 38 sec) 

Heartbeat CPU 0 instructions: 110000001 cycles: 72805896 heartbeat IPC: 0.700834 cumulative IPC: 0.700834 (Simulation time: 0 hr 4 min 5 sec) 
Heartbeat CPU 0 instructions: 120000000 cycles: 85444659 heartbeat IPC: 0.791217 cumulative IPC: 0.743288 (Simulation time: 0 hr 4 min 32 sec) 
Heartbeat CPU 0 instructions: 130000000 cycles: 95609876 heartbeat IPC: 0.983747 cumulative IPC: 0.809221 (Simulation time: 0 hr 4 min 56 sec) 
Heartbeat CPU 0 instructions: 140000000 cycles: 106557470 heartbeat IPC: 0.913443 cumulative IPC: 0.832981 (Simulation time: 0 hr 5 min 20 sec) 
Heartbeat CPU 0 instructions: 150000002 cycles: 117585835 heartbeat IPC: 0.906753 cumulative IPC: 0.846759 (Simulation time: 0 hr 5 min 46 sec) 
Heartbeat CPU 0 instructions: 160000000 cycles: 126516726 heartbeat IPC: 1.11971 cumulative IPC: 0.882618 (Simulation time: 0 hr 6 min 9 sec) 
Heartbeat CPU 0 instructions: 170000003 cycles: 136787359 heartbeat IPC: 0.97365 cumulative IPC: 0.894567 (Simulation time: 0 hr 6 min 33 sec) 
Heartbeat CPU 0 instructions: 180000000 cycles: 149285054 heartbeat IPC: 0.800147 cumulative IPC: 0.881563 (Simulation time: 0 hr 6 min 59 sec) 
Heartbeat CPU 0 instructions: 190000000 cycles: 164399240 heartbeat IPC: 0.66163 cumulative IPC: 0.850163 (Simulation time: 0 hr 7 min 25 sec) 
Heartbeat CPU 0 instructions: 200000000 cycles: 179510823 heartbeat IPC: 0.661744 cumulative IPC: 0.826626 (Simulation time: 0 hr 7 min 50 sec) 
Heartbeat CPU 0 instructions: 210000000 cycles: 194612229 heartbeat IPC: 0.66219 cumulative IPC: 0.808377 (Simulation time: 0 hr 8 min 16 sec) 
Heartbeat CPU 0 instructions: 220000000 cycles: 210232148 heartbeat IPC: 0.640208 cumulative IPC: 0.791061 (Simulation time: 0 hr 8 min 43 sec) 
Heartbeat CPU 0 instructions: 230000003 cycles: 228688181 heartbeat IPC: 0.541828 cumulative IPC: 0.764027 (Simulation time: 0 hr 9 min 14 sec) 
Heartbeat CPU 0 instructions: 240000000 cycles: 238793609 heartbeat IPC: 0.989567 cumulative IPC: 0.776671 (Simulation time: 0 hr 9 min 37 sec) 
Heartbeat CPU 0 instructions: 250000000 cycles: 248254556 heartbeat IPC: 1.05698 cumulative IPC: 0.79065 (Simulation time: 0 hr 10 min 1 sec) 
Heartbeat CPU 0 instructions: 260000000 cycles: 258272525 heartbeat IPC: 0.998206 cumulative IPC: 0.80106 (Simulation time: 0 hr 10 min 24 sec) 
Heartbeat CPU 0 instructions: 270000000 cycles: 268370696 heartbeat IPC: 0.990278 cumulative IPC: 0.810166 (Simulation time: 0 hr 10 min 49 sec) 
Heartbeat CPU 0 instructions: 280000000 cycles: 278176381 heartbeat IPC: 1.01982 cumulative IPC: 0.819526 (Simulation time: 0 hr 11 min 14 sec) 
Heartbeat CPU 0 instructions: 290000000 cycles: 288345506 heartbeat IPC: 0.983369 cumulative IPC: 0.826776 (Simulation time: 0 hr 11 min 40 sec) 
Heartbeat CPU 0 instructions: 300000000 cycles: 297297142 heartbeat IPC: 1.11711 cumulative IPC: 0.837661 (Simulation time: 0 hr 12 min 4 sec) 
Heartbeat CPU 0 instructions: 310000002 cycles: 311549245 heartbeat IPC: 0.701651 cumulative IPC: 0.83 (Simulation time: 0 hr 12 min 32 sec) 
Heartbeat CPU 0 instructions: 320000000 cycles: 327467946 heartbeat IPC: 0.628192 cumulative IPC: 0.818054 (Simulation time: 0 hr 13 min 2 sec) 
Heartbeat CPU 0 instructions: 330000002 cycles: 338076305 heartbeat IPC: 0.942653 cumulative IPC: 0.822783 (Simulation time: 0 hr 13 min 26 sec) 
Heartbeat CPU 0 instructions: 340000000 cycles: 348783373 heartbeat IPC: 0.933962 cumulative IPC: 0.826884 (Simulation time: 0 hr 13 min 51 sec) 
Heartbeat CPU 0 instructions: 350000002 cycles: 362329622 heartbeat IPC: 0.738212 cumulative IPC: 0.82293 (Simulation time: 0 hr 14 min 19 sec) 
Heartbeat CPU 0 instructions: 360000000 cycles: 373508856 heartbeat IPC: 0.894516 cumulative IPC: 0.825471 (Simulation time: 0 hr 14 min 44 sec) 
Heartbeat CPU 0 instructions: 370000000 cycles: 384215018 heartbeat IPC: 0.934042 cumulative IPC: 0.82904 (Simulation time: 0 hr 15 min 9 sec) 
Heartbeat CPU 0 instructions: 380000000 cycles: 394769547 heartbeat IPC: 0.947461 cumulative IPC: 0.832757 (Simulation time: 0 hr 15 min 34 sec) 
Heartbeat CPU 0 instructions: 390000003 cycles: 411989253 heartbeat IPC: 0.58073 cumulative IPC: 0.820479 (Simulation time: 0 hr 16 min 4 sec) 
Heartbeat CPU 0 instructions: 400000000 cycles: 424998324 heartbeat IPC: 0.768694 cumulative IPC: 0.818641 (Simulation time: 0 hr 16 min 30 sec) 
Heartbeat CPU 0 instructions: 410000002 cycles: 436088460 heartbeat IPC: 0.901702 cumulative IPC: 0.821081 (Simulation time: 0 hr 16 min 53 sec) 
Heartbeat CPU 0 instructions: 420000000 cycles: 446399643 heartbeat IPC: 0.969821 cumulative IPC: 0.825035 (Simulation time: 0 hr 17 min 16 sec) 
Heartbeat CPU 0 instructions: 430000001 cycles: 456477530 heartbeat IPC: 0.992272 cumulative IPC: 0.82927 (Simulation time: 0 hr 17 min 38 sec) 
Heartbeat CPU 0 instructions: 440000000 cycles: 468010802 heartbeat IPC: 0.867057 cumulative IPC: 0.830334 (Simulation time: 0 hr 18 min 1 sec) 
Heartbeat CPU 0 instructions: 450000002 cycles: 483130301 heartbeat IPC: 0.661398 cumulative IPC: 0.824319 (Simulation time: 0 hr 18 min 25 sec) 
Heartbeat CPU 0 instructions: 460000000 cycles: 498231877 heartbeat IPC: 0.662182 cumulative IPC: 0.81875 (Simulation time: 0 hr 18 min 49 sec) 
Heartbeat CPU 0 instructions: 470000003 cycles: 513323921 heartbeat IPC: 0.662601 cumulative IPC: 0.813568 (Simulation time: 0 hr 19 min 13 sec) 
Heartbeat CPU 0 instructions: 480000000 cycles: 528925058 heartbeat IPC: 0.640979 cumulative IPC: 0.807844 (Simulation time: 0 hr 19 min 39 sec) 
Heartbeat CPU 0 instructions: 490000002 cycles: 547472027 heartbeat IPC: 0.539172 cumulative IPC: 0.797652 (Simulation time: 0 hr 20 min 8 sec) 
Heartbeat CPU 0 instructions: 500000000 cycles: 557515322 heartbeat IPC: 0.995689 cumulative IPC: 0.801638 (Simulation time: 0 hr 20 min 30 sec) 
Heartbeat CPU 0 instructions: 510000002 cycles: 567027360 heartbeat IPC: 1.0513 cumulative IPC: 0.806309 (Simulation time: 0 hr 20 min 53 sec) 
Heartbeat CPU 0 instructions: 520000000 cycles: 577015551 heartbeat IPC: 1.00118 cumulative IPC: 0.810063 (Simulation time: 0 hr 21 min 15 sec) 
Heartbeat CPU 0 instructions: 530000002 cycles: 587154816 heartbeat IPC: 0.986265 cumulative IPC: 0.813442 (Simulation time: 0 hr 21 min 38 sec) 
Heartbeat CPU 0 instructions: 540000000 cycles: 596903773 heartbeat IPC: 1.02575 cumulative IPC: 0.817287 (Simulation time: 0 hr 22 min 2 sec) 
Heartbeat CPU 0 instructions: 550000002 cycles: 607096858 heartbeat IPC: 0.981057 cumulative IPC: 0.82033 (Simulation time: 0 hr 22 min 26 sec) 
Heartbeat CPU 0 instructions: 560000000 cycles: 616054439 heartbeat IPC: 1.11637 cumulative IPC: 0.825087 (Simulation time: 0 hr 22 min 49 sec) 
Heartbeat CPU 0 instructions: 570000003 cycles: 630163323 heartbeat IPC: 0.708773 cumulative IPC: 0.822216 (Simulation time: 0 hr 23 min 15 sec) 
Heartbeat CPU 0 instructions: 580000000 cycles: 646229967 heartbeat IPC: 0.622407 cumulative IPC: 0.816753 (Simulation time: 0 hr 23 min 43 sec) 
Heartbeat CPU 0 instructions: 590000002 cycles: 656421093 heartbeat IPC: 0.981246 cumulative IPC: 0.819557 (Simulation time: 0 hr 24 min 7 sec) 
Heartbeat CPU 0 instructions: 600000000 cycles: 667552977 heartbeat IPC: 0.89832 cumulative IPC: 0.820997 (Simulation time: 0 hr 24 min 31 sec) 
Finished CPU 0 instructions: 500000000 cycles: 609015810 cumulative IPC: 0.820997 (Simulation time: 0 hr 24 min 31 sec) 

CPU 0 Branch Prediction Accuracy: 99.5219% MPKI: 0.251582
Number of Branches: 26312578 Number of Mispredictions: 125791
Number of LOAD Instructions: 235643083
Number of LOAD Instructions (ROI): 235643083
Number of STORE Instructions: 37593550
Number of STORE Instructions (ROI): 37593550
Total Destination Memory Operands: 40480968
Total Destination Memory Operands (ROI): 40480968
Total Source Memory Operands: 235643083
Total Source Memory Operands (ROI): 235643083
Number of DEPENDED LOADS: 6699956
Number of DEPENDED LOADS (ROI): 6699956
Number of SQ_ADDED: 40480950
Number of SQ_ADDED (ROI): 40480950
Number of LQ_ADDED: 391780158
Number of LQ_ADDED (ROI): 391780158
Number of Instructions read from trace: 600000259

ChampSim completed all CPUs

Region of Interest Statistics

CPU 0 cumulative IPC: 0.820997 instructions: 500000000 cycles: 609015810
ITLB TOTAL     ACCESS:  109377783  HIT:  109377270  MISS:        513
ITLB LOAD      ACCESS:  109377783  HIT:  109377270  MISS:        513
ITLB RFO       ACCESS:          0  HIT:          0  MISS:          0
ITLB PREFETCH  ACCESS:          0  HIT:          0  MISS:          0
ITLB WRITEBACK ACCESS:          0  HIT:          0  MISS:          0
ITLB PREFETCH  REQUESTED:          0  ISSUED:          0  USEFUL:          0  USELESS:          0
ITLB TOTAL MSHR MERGED:        972
ITLB LOAD MSHR MERGED:        972
ITLB RFO MSHR MERGED:          0
ITLB PREFETCH MSHR MERGED:          0
ITLB WRITEBACK MSHR MERGED:          0
ITLB TOTAL ACCESSES:  109378755 HITS:  109377270 MISSES:       1485
ITLB LOAD ACCESSES:  109378755 HITS:  109377270 MISSES:       1485
ITLB RFO ACCESSES:          0 HITS:          0 MISSES:          0
ITLB PREFETCH ACCESSES:          0 HITS:          0 MISSES:          0
ITLB WRITEBACK ACCESSES:          0 HITS:          0 MISSES:          0
ITLB RQ ACCESS:  500000003
ITLB RQ TO_CACHE:  109378755
ITLB RQ MERGED:  390621248
ITLB RQ FORWARD:          0
ITLB WQ ACCESS:          0
ITLB WQ TO_CACHE:          0
ITLB WQ MERGED:          0
ITLB WQ FORWARD:          0
DTLB TOTAL     ACCESS:  130448208  HIT:  130190605  MISS:     257603
DTLB LOAD      ACCESS:  109086847  HIT:  108866063  MISS:     220784
DTLB RFO       ACCESS:   21361361  HIT:   21324542  MISS:      36819
DTLB PREFETCH  ACCESS:          0  HIT:          0  MISS:          0
DTLB WRITEBACK ACCESS:          0  HIT:          0  MISS:          0
DTLB PREFETCH  REQUESTED:          0  ISSUED:          0  USEFUL:          0  USELESS:          0
DTLB TOTAL MSHR MERGED:     121306
DTLB LOAD MSHR MERGED:      83310
DTLB RFO MSHR MERGED:      37996
DTLB PREFETCH MSHR MERGED:          0
DTLB WRITEBACK MSHR MERGED:          0
DTLB TOTAL ACCESSES:  130569514 HITS:  130190605 MISSES:     378909
DTLB LOAD ACCESSES:  109170157 HITS:  108866063 MISSES:     304094
DTLB RFO ACCESSES:   21399357 HITS:   21324542 MISSES:      74815
DTLB PREFETCH ACCESSES:          0 HITS:          0 MISSES:          0
DTLB WRITEBACK ACCESSES:          0 HITS:          0 MISSES:          0
DTLB RQ ACCESS:  218634451
DTLB RQ TO_CACHE:  130569515
DTLB RQ MERGED:   88064936
DTLB RQ FORWARD:          0
DTLB WQ ACCESS:          0
DTLB WQ TO_CACHE:          0
DTLB WQ MERGED:          0
DTLB WQ FORWARD:          0
L1D TOTAL     ACCESS:  204541485  HIT:  193473855  MISS:   11067630
L1D LOAD      ACCESS:  106217978  HIT:  102994962  MISS:    3223016
L1D RFO       ACCESS:   26950987  HIT:   25200333  MISS:    1750654
L1D PREFETCH  ACCESS:   71372520  HIT:   65278560  MISS:    6093960
L1D WRITEBACK ACCESS:          0  HIT:          0  MISS:          0
L1D PREFETCH  REQUESTED:  108970805  ISSUED:  107301173  USEFUL:    5644540  USELESS:     449414
L1D TOTAL MSHR MERGED:   18533892
L1D LOAD MSHR MERGED:    4814332
L1D RFO MSHR MERGED:    6488291
L1D PREFETCH MSHR MERGED:    7231269
L1D WRITEBACK MSHR MERGED:          0
L1D TOTAL ACCESSES:  223136404 HITS:  193534882 MISSES:   29601522
L1D LOAD ACCESSES:  108995676 HITS:  103019833 MISSES:    5975843
L1D RFO ACCESSES:   33437212 HITS:   25200333 MISSES:    8236879
L1D PREFETCH ACCESSES:   80703516 HITS:   65314716 MISSES:   15388800
L1D WRITEBACK ACCESSES:          0 HITS:          0 MISSES:          0
L1D RQ ACCESS:  184991013
L1D RQ TO_CACHE:  108970805
L1D RQ MERGED:   75995337
L1D RQ FORWARD:          0
L1D WQ ACCESS:   33643426
L1D WQ TO_CACHE:   33437211
L1D WQ MERGED:     206215
L1D WQ FORWARD:      61027
L1I TOTAL     ACCESS:  134063397  HIT:  134038820  MISS:      24577
L1I LOAD      ACCESS:  134063397  HIT:  134038820  MISS:      24577
L1I RFO       ACCESS:          0  HIT:          0  MISS:          0
L1I PREFETCH  ACCESS:          0  HIT:          0  MISS:          0
L1I WRITEBACK ACCESS:          0  HIT:          0  MISS:          0
L1I PREFETCH  REQUESTED:          0  ISSUED:          0  USEFUL:          0  USELESS:          0
L1I TOTAL MSHR MERGED:      30333
L1I LOAD MSHR MERGED:      30333
L1I RFO MSHR MERGED:          0
L1I PREFETCH MSHR MERGED:          0
L1I WRITEBACK MSHR MERGED:          0
L1I TOTAL ACCESSES:  134093730 HITS:  134038820 MISSES:      54910
L1I LOAD ACCESSES:  134093730 HITS:  134038820 MISSES:      54910
L1I RFO ACCESSES:          0 HITS:          0 MISSES:          0
L1I PREFETCH ACCESSES:          0 HITS:          0 MISSES:          0
L1I WRITEBACK ACCESSES:          0 HITS:          0 MISSES:          0
L1I RQ ACCESS:  500000005
L1I RQ TO_CACHE:  134093730
L1I RQ MERGED:  365906275
L1I RQ FORWARD:          0
L1I WQ ACCESS:          0
L1I WQ TO_CACHE:          0
L1I WQ MERGED:          0
L1I WQ FORWARD:          0
L2C TOTAL     ACCESS:   14931225  HIT:    6945961  MISS:    7985264
L2C LOAD      ACCESS:    1185898  HIT:     299704  MISS:     886194
L2C RFO       ACCESS:    1748373  HIT:     369540  MISS:    1378833
L2C PREFETCH  ACCESS:    8314936  HIT:    2603396  MISS:    5711540
L2C WRITEBACK ACCESS:    3682018  HIT:    3673321  MISS:       8697
L2C PREFETCH  REQUESTED:     387650  ISSUED:     387650  USEFUL:     113199  USELESS:    5599174
L2C TOTAL MSHR MERGED:      41606
L2C LOAD MSHR MERGED:       2168
L2C RFO MSHR MERGED:       1407
L2C PREFETCH MSHR MERGED:      38031
L2C WRITEBACK MSHR MERGED:          0
L2C TOTAL ACCESSES:   15098715 HITS:    6946641 MISSES:    8152074
L2C LOAD ACCESSES:    1186088 HITS:     299894 MISSES:     886194
L2C RFO ACCESSES:    1748588 HITS:     369755 MISSES:    1378833
L2C PREFETCH ACCESSES:    8482021 HITS:    2603671 MISSES:    5878350
L2C WRITEBACK ACCESSES:    3682018 HITS:    3673321 MISSES:       8697
L2C RQ ACCESS:    2934676
L2C RQ TO_CACHE:    2934271
L2C RQ MERGED:          0
L2C RQ FORWARD:          0
L2C WQ ACCESS:    3682018
L2C WQ TO_CACHE:    3682018
L2C WQ MERGED:          0
L2C WQ FORWARD:        680
LLC TOTAL     ACCESS:   11174028  HIT:    2566086  MISS:    8607942
LLC LOAD      ACCESS:     884022  HIT:     281695  MISS:     602327
LLC RFO       ACCESS:    1377425  HIT:     196108  MISS:    1181317
LLC PREFETCH  ACCESS:    5809665  HIT:    1001210  MISS:    4808455
LLC WRITEBACK ACCESS:    3102916  HIT:    1087073  MISS:    2015843
LLC PREFETCH  REQUESTED:          0  ISSUED:          0  USEFUL:      42884  USELESS:    4764969
LLC TOTAL MSHR MERGED:      23499
LLC LOAD MSHR MERGED:       7108
LLC RFO MSHR MERGED:        602
LLC PREFETCH MSHR MERGED:      15789
LLC WRITEBACK MSHR MERGED:          0
LLC TOTAL ACCESSES:   11197539 HITS:    2566098 MISSES:    8631441
LLC LOAD ACCESSES:     884026 HITS:     281699 MISSES:     602327
LLC RFO ACCESSES:    1377426 HITS:     196109 MISSES:    1181317
LLC PREFETCH ACCESSES:    5833171 HITS:    1001217 MISSES:    4831954
LLC WRITEBACK ACCESSES:    3102916 HITS:    1087073 MISSES:    2015843
LLC 0 RQ ACCESS:    2261452
LLC 0 RQ TO_CACHE:    2261447
LLC 0 RQ MERGED:          0
LLC 0 RQ FORWARD:          0
LLC WQ ACCESS:    3102916
LLC WQ TO_CACHE:    3102916
LLC WQ MERGED:          0
LLC WQ FORWARD:         12
Major fault: 0 Minor fault: 11519
CPU 0 L1D next line prefetcher final stats
CPU 0 L2C PC-based stride prefetcher final stats
All Misses: 10814984
All Hits: 2970127
SD Algo Stats - Switches: 0 SRR-Repls: 678953 BRR-Repls: 0

DRAM Statistics
 CHANNEL 0
 RQ ROW_BUFFER_HIT:    3924999  ROW_BUFFER_MISS:    2666731
 DBUS_CONGESTED:    4778106
 WQ ROW_BUFFER_HIT:     873480  ROW_BUFFER_MISS:    1561992  FULL:       1348

 AVG_CONGESTED_CYCLE: 13
LOADS RETIRED: 190375692
INSTR RETIRED: 500000000
