
*** ChampSim Multicore Out-of-Order Simulator ***

Warmup Instructions: 100000000
Simulation Instructions: 500000000
Number of CPUs: 1
LLC sets: 2048
LLC ways: 16
Clean RRIP Policies: 2313130223131302 Dirty RRIP Policies: 1303130213031302 PSEL Width: 10 Track Set: 4294967295 PSEL Mask: 1 Demote Mask: 1040100010401000DS Algo: 0Window size: 0
Off-chip DRAM Size: 4096 MB Channels: 1 Width: 64-bit Data Rate: 1600 MT/s

CPU 0 runs /mnt/beegfs/iconst01/spec2017/x264.trace.gz
NOT SORTED
TRACE STRING: /mnt/beegfs/iconst01/spec2017/x264.trace.gz
SORTED
TRACE STRING: /mnt/beegfs/iconst01/spec2017/x264.trace.gz
INITIAL
TRACE STRING: /mnt/beegfs/iconst01/spec2017/x264.trace.gz

champsim_seed used: 276

CPU 0 L1D next line prefetcher
CPU 0 L2C IP-based stride prefetcher
Initialize DRRIP state
Assign rand_sets[0]: 454  LLC: 2048
rand_sets[0]: 454
Assign rand_sets[1]: 1662  LLC: 2048
rand_sets[1]: 1662
Assign rand_sets[2]: 1921  LLC: 2048
rand_sets[2]: 1921
Assign rand_sets[3]: 1131  LLC: 2048
rand_sets[3]: 1131
Assign rand_sets[4]: 331  LLC: 2048
rand_sets[4]: 331
Assign rand_sets[5]: 1531  LLC: 2048
rand_sets[5]: 1531
Assign rand_sets[6]: 482  LLC: 2048
rand_sets[6]: 482
Assign rand_sets[7]: 1275  LLC: 2048
rand_sets[7]: 1275
Assign rand_sets[8]: 1876  LLC: 2048
rand_sets[8]: 1876
Assign rand_sets[9]: 2038  LLC: 2048
rand_sets[9]: 2038
Assign rand_sets[10]: 701  LLC: 2048
rand_sets[10]: 701
Assign rand_sets[11]: 479  LLC: 2048
rand_sets[11]: 479
Assign rand_sets[12]: 892  LLC: 2048
rand_sets[12]: 892
Assign rand_sets[13]: 1820  LLC: 2048
rand_sets[13]: 1820
Assign rand_sets[14]: 1505  LLC: 2048
rand_sets[14]: 1505
Assign rand_sets[15]: 1159  LLC: 2048
rand_sets[15]: 1159
Assign rand_sets[16]: 513  LLC: 2048
rand_sets[16]: 513
Assign rand_sets[17]: 703  LLC: 2048
rand_sets[17]: 703
Assign rand_sets[18]: 561  LLC: 2048
rand_sets[18]: 561
Assign rand_sets[19]: 990  LLC: 2048
rand_sets[19]: 990
Assign rand_sets[20]: 342  LLC: 2048
rand_sets[20]: 342
Assign rand_sets[21]: 882  LLC: 2048
rand_sets[21]: 882
Assign rand_sets[22]: 15  LLC: 2048
rand_sets[22]: 15
Assign rand_sets[23]: 71  LLC: 2048
rand_sets[23]: 71
Assign rand_sets[24]: 1127  LLC: 2048
rand_sets[24]: 1127
Assign rand_sets[25]: 1382  LLC: 2048
rand_sets[25]: 1382
Assign rand_sets[26]: 647  LLC: 2048
rand_sets[26]: 647
Assign rand_sets[27]: 857  LLC: 2048
rand_sets[27]: 857
Assign rand_sets[28]: 1450  LLC: 2048
rand_sets[28]: 1450
Assign rand_sets[29]: 1160  LLC: 2048
rand_sets[29]: 1160
Assign rand_sets[30]: 1852  LLC: 2048
rand_sets[30]: 1852
Assign rand_sets[31]: 1881  LLC: 2048
rand_sets[31]: 1881
Assign rand_sets[32]: 1770  LLC: 2048
rand_sets[32]: 1770
Assign rand_sets[33]: 1622  LLC: 2048
rand_sets[33]: 1622
Assign rand_sets[34]: 275  LLC: 2048
rand_sets[34]: 275
Assign rand_sets[35]: 635  LLC: 2048
rand_sets[35]: 635
Assign rand_sets[36]: 466  LLC: 2048
rand_sets[36]: 466
Assign rand_sets[37]: 1413  LLC: 2048
rand_sets[37]: 1413
Assign rand_sets[38]: 417  LLC: 2048
rand_sets[38]: 417
Assign rand_sets[39]: 472  LLC: 2048
rand_sets[39]: 472
Assign rand_sets[40]: 1340  LLC: 2048
rand_sets[40]: 1340
Assign rand_sets[41]: 852  LLC: 2048
rand_sets[41]: 852
Assign rand_sets[42]: 1365  LLC: 2048
rand_sets[42]: 1365
Assign rand_sets[43]: 47  LLC: 2048
rand_sets[43]: 47
Assign rand_sets[44]: 823  LLC: 2048
rand_sets[44]: 823
Assign rand_sets[45]: 686  LLC: 2048
rand_sets[45]: 686
Assign rand_sets[46]: 1637  LLC: 2048
rand_sets[46]: 1637
Assign rand_sets[47]: 1115  LLC: 2048
rand_sets[47]: 1115
Assign rand_sets[48]: 986  LLC: 2048
rand_sets[48]: 986
Assign rand_sets[49]: 258  LLC: 2048
rand_sets[49]: 258
Assign rand_sets[50]: 633  LLC: 2048
rand_sets[50]: 633
Assign rand_sets[51]: 920  LLC: 2048
rand_sets[51]: 920
Assign rand_sets[52]: 204  LLC: 2048
rand_sets[52]: 204
Assign rand_sets[53]: 227  LLC: 2048
rand_sets[53]: 227
Assign rand_sets[54]: 1818  LLC: 2048
rand_sets[54]: 1818
Assign rand_sets[55]: 886  LLC: 2048
rand_sets[55]: 886
Assign rand_sets[56]: 1422  LLC: 2048
rand_sets[56]: 1422
Assign rand_sets[57]: 607  LLC: 2048
rand_sets[57]: 607
Assign rand_sets[58]: 217  LLC: 2048
rand_sets[58]: 217
Assign rand_sets[59]: 1945  LLC: 2048
rand_sets[59]: 1945
Assign rand_sets[60]: 143  LLC: 2048
rand_sets[60]: 143
Assign rand_sets[61]: 1311  LLC: 2048
rand_sets[61]: 1311
Assign rand_sets[62]: 319  LLC: 2048
rand_sets[62]: 319
Assign rand_sets[63]: 1846  LLC: 2048
rand_sets[63]: 1846
 CLEAN-RRIP-POLICY-1: 2-3-1-3-1-3-0-2- CLEAN-RRIP-POLICY-2: 2-3-1-3-1-3-0-2-
 DIRTY-RRIP-POLICY-1: 1-3-0-3-1-3-0-2- DIRTY-RRIP-POLICY-2: 1-3-0-3-1-3-0-2-
 PSEL width: 10
Heartbeat CPU 0 instructions: 10000000 cycles: 4124762 heartbeat IPC: 2.42438 cumulative IPC: 2.42438 (Simulation time: 0 hr 0 min 14 sec) 
Heartbeat CPU 0 instructions: 20000000 cycles: 8234020 heartbeat IPC: 2.43353 cumulative IPC: 2.42895 (Simulation time: 0 hr 0 min 28 sec) 
Heartbeat CPU 0 instructions: 30000003 cycles: 12464951 heartbeat IPC: 2.36355 cumulative IPC: 2.40675 (Simulation time: 0 hr 0 min 41 sec) 
Heartbeat CPU 0 instructions: 40000000 cycles: 16637038 heartbeat IPC: 2.39688 cumulative IPC: 2.40427 (Simulation time: 0 hr 0 min 55 sec) 
Heartbeat CPU 0 instructions: 50000000 cycles: 20699487 heartbeat IPC: 2.46157 cumulative IPC: 2.41552 (Simulation time: 0 hr 1 min 9 sec) 
Heartbeat CPU 0 instructions: 60000000 cycles: 25022953 heartbeat IPC: 2.31296 cumulative IPC: 2.3978 (Simulation time: 0 hr 1 min 23 sec) 
Heartbeat CPU 0 instructions: 70000000 cycles: 29371233 heartbeat IPC: 2.29976 cumulative IPC: 2.38328 (Simulation time: 0 hr 1 min 36 sec) 
Heartbeat CPU 0 instructions: 80000000 cycles: 33721351 heartbeat IPC: 2.29879 cumulative IPC: 2.37238 (Simulation time: 0 hr 1 min 50 sec) 
Heartbeat CPU 0 instructions: 90000002 cycles: 38032308 heartbeat IPC: 2.31967 cumulative IPC: 2.36641 (Simulation time: 0 hr 2 min 3 sec) 
Heartbeat CPU 0 instructions: 100000000 cycles: 42329213 heartbeat IPC: 2.32726 cumulative IPC: 2.36243 (Simulation time: 0 hr 2 min 17 sec) 

Warmup complete CPU 0 instructions: 100000001 cycles: 42329214 (Simulation time: 0 hr 2 min 17 sec) 

Heartbeat CPU 0 instructions: 110000001 cycles: 49373959 heartbeat IPC: 1.4195 cumulative IPC: 1.4195 (Simulation time: 0 hr 2 min 35 sec) 
Heartbeat CPU 0 instructions: 120000000 cycles: 58847797 heartbeat IPC: 1.05554 cumulative IPC: 1.21076 (Simulation time: 0 hr 2 min 54 sec) 
Heartbeat CPU 0 instructions: 130000000 cycles: 63683386 heartbeat IPC: 2.068 cumulative IPC: 1.40488 (Simulation time: 0 hr 3 min 12 sec) 
Heartbeat CPU 0 instructions: 140000000 cycles: 68641128 heartbeat IPC: 2.01705 cumulative IPC: 1.52022 (Simulation time: 0 hr 3 min 29 sec) 
Heartbeat CPU 0 instructions: 150000002 cycles: 75392494 heartbeat IPC: 1.48118 cumulative IPC: 1.51225 (Simulation time: 0 hr 3 min 47 sec) 
Heartbeat CPU 0 instructions: 160000000 cycles: 83197755 heartbeat IPC: 1.28119 cumulative IPC: 1.46812 (Simulation time: 0 hr 4 min 6 sec) 
Heartbeat CPU 0 instructions: 170000000 cycles: 90583717 heartbeat IPC: 1.35392 cumulative IPC: 1.45064 (Simulation time: 0 hr 4 min 23 sec) 
Heartbeat CPU 0 instructions: 180000000 cycles: 97874251 heartbeat IPC: 1.37164 cumulative IPC: 1.44027 (Simulation time: 0 hr 4 min 41 sec) 
Heartbeat CPU 0 instructions: 190000002 cycles: 105032909 heartbeat IPC: 1.39691 cumulative IPC: 1.43532 (Simulation time: 0 hr 4 min 59 sec) 
Heartbeat CPU 0 instructions: 200000000 cycles: 112253329 heartbeat IPC: 1.38496 cumulative IPC: 1.43012 (Simulation time: 0 hr 5 min 16 sec) 
Heartbeat CPU 0 instructions: 210000000 cycles: 119102875 heartbeat IPC: 1.45995 cumulative IPC: 1.43278 (Simulation time: 0 hr 5 min 34 sec) 
Heartbeat CPU 0 instructions: 220000000 cycles: 125846701 heartbeat IPC: 1.48284 cumulative IPC: 1.43682 (Simulation time: 0 hr 5 min 51 sec) 
Heartbeat CPU 0 instructions: 230000003 cycles: 132550326 heartbeat IPC: 1.49173 cumulative IPC: 1.4409 (Simulation time: 0 hr 6 min 8 sec) 
Heartbeat CPU 0 instructions: 240000000 cycles: 139277909 heartbeat IPC: 1.48642 cumulative IPC: 1.44406 (Simulation time: 0 hr 6 min 25 sec) 
Heartbeat CPU 0 instructions: 250000001 cycles: 145979023 heartbeat IPC: 1.49229 cumulative IPC: 1.44718 (Simulation time: 0 hr 6 min 42 sec) 
Heartbeat CPU 0 instructions: 260000000 cycles: 152662702 heartbeat IPC: 1.49618 cumulative IPC: 1.45015 (Simulation time: 0 hr 6 min 59 sec) 
Heartbeat CPU 0 instructions: 270000001 cycles: 159606104 heartbeat IPC: 1.44022 cumulative IPC: 1.44956 (Simulation time: 0 hr 7 min 16 sec) 
Heartbeat CPU 0 instructions: 280000000 cycles: 167112905 heartbeat IPC: 1.33213 cumulative IPC: 1.4425 (Simulation time: 0 hr 7 min 34 sec) 
Heartbeat CPU 0 instructions: 290000000 cycles: 175017209 heartbeat IPC: 1.26513 cumulative IPC: 1.43193 (Simulation time: 0 hr 7 min 53 sec) 
Heartbeat CPU 0 instructions: 300000000 cycles: 183171971 heartbeat IPC: 1.22628 cumulative IPC: 1.42002 (Simulation time: 0 hr 8 min 11 sec) 
Heartbeat CPU 0 instructions: 310000002 cycles: 191463341 heartbeat IPC: 1.20607 cumulative IPC: 1.40813 (Simulation time: 0 hr 8 min 30 sec) 
Heartbeat CPU 0 instructions: 320000000 cycles: 201575166 heartbeat IPC: 0.988941 cumulative IPC: 1.38151 (Simulation time: 0 hr 8 min 51 sec) 
Heartbeat CPU 0 instructions: 330000002 cycles: 206234438 heartbeat IPC: 2.14626 cumulative IPC: 1.40325 (Simulation time: 0 hr 9 min 8 sec) 
Heartbeat CPU 0 instructions: 340000000 cycles: 211516909 heartbeat IPC: 1.89305 cumulative IPC: 1.41854 (Simulation time: 0 hr 9 min 25 sec) 
Heartbeat CPU 0 instructions: 350000000 cycles: 218653692 heartbeat IPC: 1.40119 cumulative IPC: 1.41784 (Simulation time: 0 hr 9 min 44 sec) 
Heartbeat CPU 0 instructions: 360000000 cycles: 226273678 heartbeat IPC: 1.31234 cumulative IPC: 1.41347 (Simulation time: 0 hr 10 min 2 sec) 
Heartbeat CPU 0 instructions: 370000000 cycles: 233656793 heartbeat IPC: 1.35444 cumulative IPC: 1.41119 (Simulation time: 0 hr 10 min 20 sec) 
Heartbeat CPU 0 instructions: 380000000 cycles: 240901441 heartbeat IPC: 1.38033 cumulative IPC: 1.41007 (Simulation time: 0 hr 10 min 37 sec) 
Heartbeat CPU 0 instructions: 390000000 cycles: 248999644 heartbeat IPC: 1.23484 cumulative IPC: 1.4032 (Simulation time: 0 hr 10 min 56 sec) 
Heartbeat CPU 0 instructions: 400000000 cycles: 257163753 heartbeat IPC: 1.22487 cumulative IPC: 1.39642 (Simulation time: 0 hr 11 min 14 sec) 
Heartbeat CPU 0 instructions: 410000001 cycles: 264952363 heartbeat IPC: 1.28393 cumulative IPC: 1.39249 (Simulation time: 0 hr 11 min 33 sec) 
Heartbeat CPU 0 instructions: 420000000 cycles: 272971648 heartbeat IPC: 1.24699 cumulative IPC: 1.38743 (Simulation time: 0 hr 11 min 51 sec) 
Heartbeat CPU 0 instructions: 430000001 cycles: 281201088 heartbeat IPC: 1.21515 cumulative IPC: 1.38149 (Simulation time: 0 hr 12 min 10 sec) 
Heartbeat CPU 0 instructions: 440000000 cycles: 289215501 heartbeat IPC: 1.24775 cumulative IPC: 1.37715 (Simulation time: 0 hr 12 min 28 sec) 
Heartbeat CPU 0 instructions: 450000001 cycles: 297056321 heartbeat IPC: 1.27538 cumulative IPC: 1.37402 (Simulation time: 0 hr 12 min 47 sec) 
Heartbeat CPU 0 instructions: 460000000 cycles: 307039994 heartbeat IPC: 1.00164 cumulative IPC: 1.35997 (Simulation time: 0 hr 13 min 7 sec) 
Heartbeat CPU 0 instructions: 470000002 cycles: 311688785 heartbeat IPC: 2.1511 cumulative IPC: 1.37363 (Simulation time: 0 hr 13 min 24 sec) 
Heartbeat CPU 0 instructions: 480000000 cycles: 316987547 heartbeat IPC: 1.88723 cumulative IPC: 1.38354 (Simulation time: 0 hr 13 min 41 sec) 
Heartbeat CPU 0 instructions: 490000001 cycles: 324288815 heartbeat IPC: 1.36963 cumulative IPC: 1.38318 (Simulation time: 0 hr 14 min 0 sec) 
Heartbeat CPU 0 instructions: 500000000 cycles: 333017422 heartbeat IPC: 1.14566 cumulative IPC: 1.37604 (Simulation time: 0 hr 14 min 21 sec) 
Heartbeat CPU 0 instructions: 510000002 cycles: 341746283 heartbeat IPC: 1.14563 cumulative IPC: 1.36933 (Simulation time: 0 hr 14 min 41 sec) 
Heartbeat CPU 0 instructions: 520000000 cycles: 350473366 heartbeat IPC: 1.14586 cumulative IPC: 1.363 (Simulation time: 0 hr 15 min 2 sec) 
Heartbeat CPU 0 instructions: 530000000 cycles: 359178602 heartbeat IPC: 1.14873 cumulative IPC: 1.35711 (Simulation time: 0 hr 15 min 22 sec) 
Heartbeat CPU 0 instructions: 540000000 cycles: 367432094 heartbeat IPC: 1.21161 cumulative IPC: 1.35342 (Simulation time: 0 hr 15 min 42 sec) 
Heartbeat CPU 0 instructions: 550000000 cycles: 374465666 heartbeat IPC: 1.42175 cumulative IPC: 1.35486 (Simulation time: 0 hr 16 min 0 sec) 
Heartbeat CPU 0 instructions: 560000000 cycles: 381069932 heartbeat IPC: 1.51417 cumulative IPC: 1.35797 (Simulation time: 0 hr 16 min 18 sec) 
Heartbeat CPU 0 instructions: 570000002 cycles: 387643714 heartbeat IPC: 1.52119 cumulative IPC: 1.36108 (Simulation time: 0 hr 16 min 35 sec) 
Heartbeat CPU 0 instructions: 580000000 cycles: 394275226 heartbeat IPC: 1.50795 cumulative IPC: 1.36385 (Simulation time: 0 hr 16 min 52 sec) 
Heartbeat CPU 0 instructions: 590000002 cycles: 400945935 heartbeat IPC: 1.49909 cumulative IPC: 1.36636 (Simulation time: 0 hr 17 min 9 sec) 
Heartbeat CPU 0 instructions: 600000000 cycles: 407735452 heartbeat IPC: 1.47286 cumulative IPC: 1.36834 (Simulation time: 0 hr 17 min 27 sec) 
Finished CPU 0 instructions: 500000000 cycles: 365406246 cumulative IPC: 1.36834 (Simulation time: 0 hr 17 min 27 sec) 

CPU 0 Branch Prediction Accuracy: 93.4682% MPKI: 2.44079
Number of Branches: 18683822 Number of Mispredictions: 1220394
Number of LOAD Instructions: 142551610
Number of LOAD Instructions (ROI): 142551610
Number of STORE Instructions: 44807454
Number of STORE Instructions (ROI): 44807454
Total Destination Memory Operands: 48357071
Total Destination Memory Operands (ROI): 48357071
Total Source Memory Operands: 142551610
Total Source Memory Operands (ROI): 142551610
Number of DEPENDED LOADS: 7395259
Number of DEPENDED LOADS (ROI): 7395259
Number of SQ_ADDED: 48357051
Number of SQ_ADDED (ROI): 48357051
Number of LQ_ADDED: 157195345
Number of LQ_ADDED (ROI): 157195345
Number of Instructions read from trace: 600000256

ChampSim completed all CPUs

Region of Interest Statistics

CPU 0 cumulative IPC: 1.36834 instructions: 500000000 cycles: 365406246
ITLB TOTAL     ACCESS:   88174396  HIT:   88174327  MISS:         69
ITLB LOAD      ACCESS:   88174396  HIT:   88174327  MISS:         69
ITLB RFO       ACCESS:          0  HIT:          0  MISS:          0
ITLB PREFETCH  ACCESS:          0  HIT:          0  MISS:          0
ITLB WRITEBACK ACCESS:          0  HIT:          0  MISS:          0
ITLB PREFETCH  REQUESTED:          0  ISSUED:          0  USEFUL:          0  USELESS:          0
ITLB TOTAL MSHR MERGED:         86
ITLB LOAD MSHR MERGED:         86
ITLB RFO MSHR MERGED:          0
ITLB PREFETCH MSHR MERGED:          0
ITLB WRITEBACK MSHR MERGED:          0
ITLB TOTAL ACCESSES:   88174482 HITS:   88174327 MISSES:        155
ITLB LOAD ACCESSES:   88174482 HITS:   88174327 MISSES:        155
ITLB RFO ACCESSES:          0 HITS:          0 MISSES:          0
ITLB PREFETCH ACCESSES:          0 HITS:          0 MISSES:          0
ITLB WRITEBACK ACCESSES:          0 HITS:          0 MISSES:          0
ITLB RQ ACCESS:  500000000
ITLB RQ TO_CACHE:   88174482
ITLB RQ MERGED:  411825518
ITLB RQ FORWARD:          0
ITLB WQ ACCESS:          0
ITLB WQ TO_CACHE:          0
ITLB WQ MERGED:          0
ITLB WQ FORWARD:          0
DTLB TOTAL     ACCESS:   88204068  HIT:   88076649  MISS:     127419
DTLB LOAD      ACCESS:   59485749  HIT:   59393300  MISS:      92449
DTLB RFO       ACCESS:   28718319  HIT:   28683349  MISS:      34970
DTLB PREFETCH  ACCESS:          0  HIT:          0  MISS:          0
DTLB WRITEBACK ACCESS:          0  HIT:          0  MISS:          0
DTLB PREFETCH  REQUESTED:          0  ISSUED:          0  USEFUL:          0  USELESS:          0
DTLB TOTAL MSHR MERGED:     140732
DTLB LOAD MSHR MERGED:     107450
DTLB RFO MSHR MERGED:      33282
DTLB PREFETCH MSHR MERGED:          0
DTLB WRITEBACK MSHR MERGED:          0
DTLB TOTAL ACCESSES:   88344800 HITS:   88076649 MISSES:     268151
DTLB LOAD ACCESSES:   59593199 HITS:   59393300 MISSES:     199899
DTLB RFO ACCESSES:   28751601 HITS:   28683349 MISSES:      68252
DTLB PREFETCH ACCESSES:          0 HITS:          0 MISSES:          0
DTLB WRITEBACK ACCESSES:          0 HITS:          0 MISSES:          0
DTLB RQ ACCESS:  154558639
DTLB RQ TO_CACHE:   88344800
DTLB RQ MERGED:   66213839
DTLB RQ FORWARD:          0
DTLB WQ ACCESS:          0
DTLB WQ TO_CACHE:          0
DTLB WQ MERGED:          0
DTLB WQ FORWARD:          0
L1D TOTAL     ACCESS:  127708955  HIT:  124484963  MISS:    3223992
L1D LOAD      ACCESS:   53173567  HIT:   51977854  MISS:    1195713
L1D RFO       ACCESS:   37350088  HIT:   36735745  MISS:     614343
L1D PREFETCH  ACCESS:   37185300  HIT:   35771364  MISS:    1413936
L1D WRITEBACK ACCESS:          0  HIT:          0  MISS:          0
L1D PREFETCH  REQUESTED:   53660642  ISSUED:   52456880  USEFUL:     351757  USELESS:    1062144
L1D TOTAL MSHR MERGED:    3045234
L1D LOAD MSHR MERGED:     526225
L1D RFO MSHR MERGED:    1603810
L1D PREFETCH MSHR MERGED:     915199
L1D WRITEBACK MSHR MERGED:          0
L1D TOTAL ACCESSES:  130788732 HITS:  124519506 MISSES:    6269226
L1D LOAD ACCESSES:   53663184 HITS:   51980396 MISSES:    1682788
L1D RFO ACCESSES:   38952897 HITS:   36735745 MISSES:    2217152
L1D PREFETCH ACCESSES:   38172651 HITS:   35803365 MISSES:    2369286
L1D WRITEBACK ACCESSES:          0 HITS:          0 MISSES:          0
L1D RQ ACCESS:  113713747
L1D RQ TO_CACHE:   53660642
L1D RQ MERGED:   60050563
L1D RQ FORWARD:          0
L1D WQ ACCESS:   40844891
L1D WQ TO_CACHE:   38952897
L1D WQ MERGED:    1891994
L1D WQ FORWARD:      34543
L1I TOTAL     ACCESS:  108367256  HIT:  107808120  MISS:     559136
L1I LOAD      ACCESS:  108367256  HIT:  107808120  MISS:     559136
L1I RFO       ACCESS:          0  HIT:          0  MISS:          0
L1I PREFETCH  ACCESS:          0  HIT:          0  MISS:          0
L1I WRITEBACK ACCESS:          0  HIT:          0  MISS:          0
L1I PREFETCH  REQUESTED:          0  ISSUED:          0  USEFUL:          0  USELESS:          0
L1I TOTAL MSHR MERGED:     525522
L1I LOAD MSHR MERGED:     525522
L1I RFO MSHR MERGED:          0
L1I PREFETCH MSHR MERGED:          0
L1I WRITEBACK MSHR MERGED:          0
L1I TOTAL ACCESSES:  108892778 HITS:  107808120 MISSES:    1084658
L1I LOAD ACCESSES:  108892778 HITS:  107808120 MISSES:    1084658
L1I RFO ACCESSES:          0 HITS:          0 MISSES:          0
L1I PREFETCH ACCESSES:          0 HITS:          0 MISSES:          0
L1I WRITEBACK ACCESSES:          0 HITS:          0 MISSES:          0
L1I RQ ACCESS:  500000002
L1I RQ TO_CACHE:  108892778
L1I RQ MERGED:  391107224
L1I RQ FORWARD:          0
L1I WQ ACCESS:          0
L1I WQ TO_CACHE:          0
L1I WQ MERGED:          0
L1I WQ FORWARD:          0
L2C TOTAL     ACCESS:    4688838  HIT:    3864572  MISS:     824266
L2C LOAD      ACCESS:    1715585  HIT:    1561636  MISS:     153949
L2C RFO       ACCESS:     611908  HIT:     421201  MISS:     190707
L2C PREFETCH  ACCESS:    1658358  HIT:    1180939  MISS:     477419
L2C WRITEBACK ACCESS:     702987  HIT:     700796  MISS:       2191
L2C PREFETCH  REQUESTED:     256404  ISSUED:     256404  USEFUL:     171916  USELESS:     306169
L2C TOTAL MSHR MERGED:      11683
L2C LOAD MSHR MERGED:       3371
L2C RFO MSHR MERGED:          0
L2C PREFETCH MSHR MERGED:       8312
L2C WRITEBACK MSHR MERGED:          0
L2C TOTAL ACCESSES:    4711555 HITS:    3866188 MISSES:     845367
L2C LOAD ACCESSES:    1715699 HITS:    1561750 MISSES:     153949
L2C RFO ACCESSES:     613342 HITS:     422635 MISSES:     190707
L2C PREFETCH ACCESSES:    1679527 HITS:    1181007 MISSES:     498520
L2C WRITEBACK ACCESSES:     702987 HITS:     700796 MISSES:       2191
L2C RQ ACCESS:    2329041
L2C RQ TO_CACHE:    2327493
L2C RQ MERGED:          0
L2C RQ FORWARD:          0
L2C WQ ACCESS:     702987
L2C WQ TO_CACHE:     702987
L2C WQ MERGED:          0
L2C WQ FORWARD:       1616
LLC TOTAL     ACCESS:    1045259  HIT:     199596  MISS:     845663
LLC LOAD      ACCESS:     150574  HIT:      89274  MISS:      61300
LLC RFO       ACCESS:     190699  HIT:       9025  MISS:     181674
LLC PREFETCH  ACCESS:     483107  HIT:      60549  MISS:     422558
LLC WRITEBACK ACCESS:     220879  HIT:      40748  MISS:     180131
LLC PREFETCH  REQUESTED:          0  ISSUED:          0  USEFUL:       2567  USELESS:     418986
LLC TOTAL MSHR MERGED:       5638
LLC LOAD MSHR MERGED:       2735
LLC RFO MSHR MERGED:          0
LLC PREFETCH MSHR MERGED:       2903
LLC WRITEBACK MSHR MERGED:          0
LLC TOTAL ACCESSES:    1050909 HITS:     199608 MISSES:     851301
LLC LOAD ACCESSES:     150578 HITS:      89278 MISSES:      61300
LLC RFO ACCESSES:     190707 HITS:       9033 MISSES:     181674
LLC PREFETCH ACCESSES:     488745 HITS:      60549 MISSES:     428196
LLC WRITEBACK ACCESSES:     220879 HITS:      40748 MISSES:     180131
LLC 0 RQ ACCESS:     341285
LLC 0 RQ TO_CACHE:     341273
LLC 0 RQ MERGED:          0
LLC 0 RQ FORWARD:          0
LLC WQ ACCESS:     220879
LLC WQ TO_CACHE:     220879
LLC WQ MERGED:          0
LLC WQ FORWARD:         12
Major fault: 0 Minor fault: 6811
CPU 0 L1D next line prefetcher final stats
CPU 0 L2C PC-based stride prefetcher final stats
All Misses: 991581
All Hits: 260661
SD Algo Stats - Switches: 0 SRR-Repls: 69064 BRR-Repls: 0

DRAM Statistics
 CHANNEL 0
 RQ ROW_BUFFER_HIT:     376299  ROW_BUFFER_MISS:     288986
 DBUS_CONGESTED:     467602
 WQ ROW_BUFFER_HIT:      64252  ROW_BUFFER_MISS:     142762  FULL:          0

 AVG_CONGESTED_CYCLE: 13
LOADS RETIRED: 119922929
INSTR RETIRED: 500000000
