
*** ChampSim Multicore Out-of-Order Simulator ***

Warmup Instructions: 100000000
Simulation Instructions: 500000000
Number of CPUs: 1
LLC sets: 2048
LLC ways: 16
Clean RRIP Policies: 2213230222132302 Dirty RRIP Policies: 1203130212031302 PSEL Width: 10 Track Set: 4294967295 PSEL Mask: 1 Demote Mask: 1042100010421000DS Algo: 0Window size: 0
Off-chip DRAM Size: 4096 MB Channels: 1 Width: 64-bit Data Rate: 1600 MT/s

CPU 0 runs /mnt/beegfs/iconst01/spec2017/x264.trace.gz
NOT SORTED
TRACE STRING: /mnt/beegfs/iconst01/spec2017/x264.trace.gz
SORTED
TRACE STRING: /mnt/beegfs/iconst01/spec2017/x264.trace.gz
INITIAL
TRACE STRING: /mnt/beegfs/iconst01/spec2017/x264.trace.gz

champsim_seed used: 276

CPU 0 L1D next line prefetcher
CPU 0 L2C IP-based stride prefetcher
Initialize DRRIP state
Assign rand_sets[0]: 454  LLC: 2048
rand_sets[0]: 454
Assign rand_sets[1]: 1662  LLC: 2048
rand_sets[1]: 1662
Assign rand_sets[2]: 1921  LLC: 2048
rand_sets[2]: 1921
Assign rand_sets[3]: 1131  LLC: 2048
rand_sets[3]: 1131
Assign rand_sets[4]: 331  LLC: 2048
rand_sets[4]: 331
Assign rand_sets[5]: 1531  LLC: 2048
rand_sets[5]: 1531
Assign rand_sets[6]: 482  LLC: 2048
rand_sets[6]: 482
Assign rand_sets[7]: 1275  LLC: 2048
rand_sets[7]: 1275
Assign rand_sets[8]: 1876  LLC: 2048
rand_sets[8]: 1876
Assign rand_sets[9]: 2038  LLC: 2048
rand_sets[9]: 2038
Assign rand_sets[10]: 701  LLC: 2048
rand_sets[10]: 701
Assign rand_sets[11]: 479  LLC: 2048
rand_sets[11]: 479
Assign rand_sets[12]: 892  LLC: 2048
rand_sets[12]: 892
Assign rand_sets[13]: 1820  LLC: 2048
rand_sets[13]: 1820
Assign rand_sets[14]: 1505  LLC: 2048
rand_sets[14]: 1505
Assign rand_sets[15]: 1159  LLC: 2048
rand_sets[15]: 1159
Assign rand_sets[16]: 513  LLC: 2048
rand_sets[16]: 513
Assign rand_sets[17]: 703  LLC: 2048
rand_sets[17]: 703
Assign rand_sets[18]: 561  LLC: 2048
rand_sets[18]: 561
Assign rand_sets[19]: 990  LLC: 2048
rand_sets[19]: 990
Assign rand_sets[20]: 342  LLC: 2048
rand_sets[20]: 342
Assign rand_sets[21]: 882  LLC: 2048
rand_sets[21]: 882
Assign rand_sets[22]: 15  LLC: 2048
rand_sets[22]: 15
Assign rand_sets[23]: 71  LLC: 2048
rand_sets[23]: 71
Assign rand_sets[24]: 1127  LLC: 2048
rand_sets[24]: 1127
Assign rand_sets[25]: 1382  LLC: 2048
rand_sets[25]: 1382
Assign rand_sets[26]: 647  LLC: 2048
rand_sets[26]: 647
Assign rand_sets[27]: 857  LLC: 2048
rand_sets[27]: 857
Assign rand_sets[28]: 1450  LLC: 2048
rand_sets[28]: 1450
Assign rand_sets[29]: 1160  LLC: 2048
rand_sets[29]: 1160
Assign rand_sets[30]: 1852  LLC: 2048
rand_sets[30]: 1852
Assign rand_sets[31]: 1881  LLC: 2048
rand_sets[31]: 1881
Assign rand_sets[32]: 1770  LLC: 2048
rand_sets[32]: 1770
Assign rand_sets[33]: 1622  LLC: 2048
rand_sets[33]: 1622
Assign rand_sets[34]: 275  LLC: 2048
rand_sets[34]: 275
Assign rand_sets[35]: 635  LLC: 2048
rand_sets[35]: 635
Assign rand_sets[36]: 466  LLC: 2048
rand_sets[36]: 466
Assign rand_sets[37]: 1413  LLC: 2048
rand_sets[37]: 1413
Assign rand_sets[38]: 417  LLC: 2048
rand_sets[38]: 417
Assign rand_sets[39]: 472  LLC: 2048
rand_sets[39]: 472
Assign rand_sets[40]: 1340  LLC: 2048
rand_sets[40]: 1340
Assign rand_sets[41]: 852  LLC: 2048
rand_sets[41]: 852
Assign rand_sets[42]: 1365  LLC: 2048
rand_sets[42]: 1365
Assign rand_sets[43]: 47  LLC: 2048
rand_sets[43]: 47
Assign rand_sets[44]: 823  LLC: 2048
rand_sets[44]: 823
Assign rand_sets[45]: 686  LLC: 2048
rand_sets[45]: 686
Assign rand_sets[46]: 1637  LLC: 2048
rand_sets[46]: 1637
Assign rand_sets[47]: 1115  LLC: 2048
rand_sets[47]: 1115
Assign rand_sets[48]: 986  LLC: 2048
rand_sets[48]: 986
Assign rand_sets[49]: 258  LLC: 2048
rand_sets[49]: 258
Assign rand_sets[50]: 633  LLC: 2048
rand_sets[50]: 633
Assign rand_sets[51]: 920  LLC: 2048
rand_sets[51]: 920
Assign rand_sets[52]: 204  LLC: 2048
rand_sets[52]: 204
Assign rand_sets[53]: 227  LLC: 2048
rand_sets[53]: 227
Assign rand_sets[54]: 1818  LLC: 2048
rand_sets[54]: 1818
Assign rand_sets[55]: 886  LLC: 2048
rand_sets[55]: 886
Assign rand_sets[56]: 1422  LLC: 2048
rand_sets[56]: 1422
Assign rand_sets[57]: 607  LLC: 2048
rand_sets[57]: 607
Assign rand_sets[58]: 217  LLC: 2048
rand_sets[58]: 217
Assign rand_sets[59]: 1945  LLC: 2048
rand_sets[59]: 1945
Assign rand_sets[60]: 143  LLC: 2048
rand_sets[60]: 143
Assign rand_sets[61]: 1311  LLC: 2048
rand_sets[61]: 1311
Assign rand_sets[62]: 319  LLC: 2048
rand_sets[62]: 319
Assign rand_sets[63]: 1846  LLC: 2048
rand_sets[63]: 1846
 CLEAN-RRIP-POLICY-1: 2-2-1-3-2-3-0-2- CLEAN-RRIP-POLICY-2: 2-2-1-3-2-3-0-2-
 DIRTY-RRIP-POLICY-1: 1-2-0-3-1-3-0-2- DIRTY-RRIP-POLICY-2: 1-2-0-3-1-3-0-2-
 PSEL width: 10
Heartbeat CPU 0 instructions: 10000000 cycles: 4124759 heartbeat IPC: 2.42438 cumulative IPC: 2.42438 (Simulation time: 0 hr 0 min 14 sec) 
Heartbeat CPU 0 instructions: 20000000 cycles: 8233863 heartbeat IPC: 2.43362 cumulative IPC: 2.42899 (Simulation time: 0 hr 0 min 27 sec) 
Heartbeat CPU 0 instructions: 30000003 cycles: 12464696 heartbeat IPC: 2.3636 cumulative IPC: 2.4068 (Simulation time: 0 hr 0 min 40 sec) 
Heartbeat CPU 0 instructions: 40000000 cycles: 16636669 heartbeat IPC: 2.39695 cumulative IPC: 2.40433 (Simulation time: 0 hr 0 min 53 sec) 
Heartbeat CPU 0 instructions: 50000000 cycles: 20699150 heartbeat IPC: 2.46155 cumulative IPC: 2.41556 (Simulation time: 0 hr 1 min 7 sec) 
Heartbeat CPU 0 instructions: 60000000 cycles: 25022635 heartbeat IPC: 2.31295 cumulative IPC: 2.39783 (Simulation time: 0 hr 1 min 20 sec) 
Heartbeat CPU 0 instructions: 70000000 cycles: 29370910 heartbeat IPC: 2.29976 cumulative IPC: 2.38331 (Simulation time: 0 hr 1 min 33 sec) 
Heartbeat CPU 0 instructions: 80000000 cycles: 33721045 heartbeat IPC: 2.29878 cumulative IPC: 2.37241 (Simulation time: 0 hr 1 min 45 sec) 
Heartbeat CPU 0 instructions: 90000002 cycles: 38032030 heartbeat IPC: 2.31966 cumulative IPC: 2.36643 (Simulation time: 0 hr 1 min 59 sec) 
Heartbeat CPU 0 instructions: 100000000 cycles: 42328926 heartbeat IPC: 2.32726 cumulative IPC: 2.36245 (Simulation time: 0 hr 2 min 12 sec) 

Warmup complete CPU 0 instructions: 100000001 cycles: 42328927 (Simulation time: 0 hr 2 min 12 sec) 

Heartbeat CPU 0 instructions: 110000001 cycles: 49386016 heartbeat IPC: 1.41701 cumulative IPC: 1.41701 (Simulation time: 0 hr 2 min 29 sec) 
Heartbeat CPU 0 instructions: 120000000 cycles: 58881760 heartbeat IPC: 1.0531 cumulative IPC: 1.20825 (Simulation time: 0 hr 2 min 48 sec) 
Heartbeat CPU 0 instructions: 130000000 cycles: 63710368 heartbeat IPC: 2.07099 cumulative IPC: 1.40309 (Simulation time: 0 hr 3 min 5 sec) 
Heartbeat CPU 0 instructions: 140000000 cycles: 68651617 heartbeat IPC: 2.02378 cumulative IPC: 1.5196 (Simulation time: 0 hr 3 min 22 sec) 
Heartbeat CPU 0 instructions: 150000002 cycles: 75481154 heartbeat IPC: 1.46423 cumulative IPC: 1.50819 (Simulation time: 0 hr 3 min 39 sec) 
Heartbeat CPU 0 instructions: 160000000 cycles: 83336221 heartbeat IPC: 1.27306 cumulative IPC: 1.46315 (Simulation time: 0 hr 3 min 57 sec) 
Heartbeat CPU 0 instructions: 170000000 cycles: 90749214 heartbeat IPC: 1.34898 cumulative IPC: 1.44568 (Simulation time: 0 hr 4 min 14 sec) 
Heartbeat CPU 0 instructions: 180000000 cycles: 98055045 heartbeat IPC: 1.36877 cumulative IPC: 1.43559 (Simulation time: 0 hr 4 min 31 sec) 
Heartbeat CPU 0 instructions: 190000002 cycles: 105235522 heartbeat IPC: 1.39267 cumulative IPC: 1.43069 (Simulation time: 0 hr 4 min 48 sec) 
Heartbeat CPU 0 instructions: 200000000 cycles: 112474329 heartbeat IPC: 1.38144 cumulative IPC: 1.42561 (Simulation time: 0 hr 5 min 6 sec) 
Heartbeat CPU 0 instructions: 210000000 cycles: 119348789 heartbeat IPC: 1.45466 cumulative IPC: 1.4282 (Simulation time: 0 hr 5 min 22 sec) 
Heartbeat CPU 0 instructions: 220000000 cycles: 126129009 heartbeat IPC: 1.47488 cumulative IPC: 1.43198 (Simulation time: 0 hr 5 min 39 sec) 
Heartbeat CPU 0 instructions: 230000003 cycles: 132854455 heartbeat IPC: 1.48689 cumulative IPC: 1.43606 (Simulation time: 0 hr 5 min 55 sec) 
Heartbeat CPU 0 instructions: 240000000 cycles: 139603119 heartbeat IPC: 1.48177 cumulative IPC: 1.43923 (Simulation time: 0 hr 6 min 12 sec) 
Heartbeat CPU 0 instructions: 250000001 cycles: 146330405 heartbeat IPC: 1.48648 cumulative IPC: 1.44229 (Simulation time: 0 hr 6 min 28 sec) 
Heartbeat CPU 0 instructions: 260000000 cycles: 153035955 heartbeat IPC: 1.4913 cumulative IPC: 1.44526 (Simulation time: 0 hr 6 min 45 sec) 
Heartbeat CPU 0 instructions: 270000001 cycles: 160015872 heartbeat IPC: 1.43268 cumulative IPC: 1.44451 (Simulation time: 0 hr 7 min 2 sec) 
Heartbeat CPU 0 instructions: 280000000 cycles: 167553260 heartbeat IPC: 1.32672 cumulative IPC: 1.43742 (Simulation time: 0 hr 7 min 19 sec) 
Heartbeat CPU 0 instructions: 290000000 cycles: 175474213 heartbeat IPC: 1.26247 cumulative IPC: 1.42701 (Simulation time: 0 hr 7 min 37 sec) 
Heartbeat CPU 0 instructions: 300000000 cycles: 183647436 heartbeat IPC: 1.22351 cumulative IPC: 1.41524 (Simulation time: 0 hr 7 min 55 sec) 
Heartbeat CPU 0 instructions: 310000002 cycles: 191967712 heartbeat IPC: 1.20188 cumulative IPC: 1.40338 (Simulation time: 0 hr 8 min 13 sec) 
Heartbeat CPU 0 instructions: 320000000 cycles: 201974532 heartbeat IPC: 0.999318 cumulative IPC: 1.37805 (Simulation time: 0 hr 8 min 33 sec) 
Heartbeat CPU 0 instructions: 330000002 cycles: 206630592 heartbeat IPC: 2.14774 cumulative IPC: 1.39986 (Simulation time: 0 hr 8 min 49 sec) 
Heartbeat CPU 0 instructions: 340000000 cycles: 211880217 heartbeat IPC: 1.9049 cumulative IPC: 1.4155 (Simulation time: 0 hr 9 min 6 sec) 
Heartbeat CPU 0 instructions: 350000000 cycles: 219108994 heartbeat IPC: 1.38336 cumulative IPC: 1.41419 (Simulation time: 0 hr 9 min 25 sec) 
Heartbeat CPU 0 instructions: 360000000 cycles: 226777964 heartbeat IPC: 1.30396 cumulative IPC: 1.4096 (Simulation time: 0 hr 9 min 42 sec) 
Heartbeat CPU 0 instructions: 370000000 cycles: 234191313 heartbeat IPC: 1.34892 cumulative IPC: 1.40726 (Simulation time: 0 hr 10 min 0 sec) 
Heartbeat CPU 0 instructions: 380000000 cycles: 241468547 heartbeat IPC: 1.37415 cumulative IPC: 1.40605 (Simulation time: 0 hr 10 min 17 sec) 
Heartbeat CPU 0 instructions: 390000000 cycles: 249585474 heartbeat IPC: 1.23199 cumulative IPC: 1.39923 (Simulation time: 0 hr 10 min 35 sec) 
Heartbeat CPU 0 instructions: 400000000 cycles: 257792099 heartbeat IPC: 1.21853 cumulative IPC: 1.39235 (Simulation time: 0 hr 10 min 53 sec) 
Heartbeat CPU 0 instructions: 410000001 cycles: 265617645 heartbeat IPC: 1.27787 cumulative IPC: 1.38834 (Simulation time: 0 hr 11 min 11 sec) 
Heartbeat CPU 0 instructions: 420000000 cycles: 273674988 heartbeat IPC: 1.2411 cumulative IPC: 1.38321 (Simulation time: 0 hr 11 min 28 sec) 
Heartbeat CPU 0 instructions: 430000001 cycles: 281939541 heartbeat IPC: 1.20999 cumulative IPC: 1.37723 (Simulation time: 0 hr 11 min 47 sec) 
Heartbeat CPU 0 instructions: 440000000 cycles: 289982994 heartbeat IPC: 1.24325 cumulative IPC: 1.37288 (Simulation time: 0 hr 12 min 5 sec) 
Heartbeat CPU 0 instructions: 450000001 cycles: 297858671 heartbeat IPC: 1.26973 cumulative IPC: 1.3697 (Simulation time: 0 hr 12 min 22 sec) 
Heartbeat CPU 0 instructions: 460000000 cycles: 307809055 heartbeat IPC: 1.00499 cumulative IPC: 1.35603 (Simulation time: 0 hr 12 min 42 sec) 
Heartbeat CPU 0 instructions: 470000002 cycles: 312455406 heartbeat IPC: 2.15223 cumulative IPC: 1.36973 (Simulation time: 0 hr 12 min 58 sec) 
Heartbeat CPU 0 instructions: 480000000 cycles: 317729349 heartbeat IPC: 1.89611 cumulative IPC: 1.37981 (Simulation time: 0 hr 13 min 15 sec) 
Heartbeat CPU 0 instructions: 490000001 cycles: 325051972 heartbeat IPC: 1.36563 cumulative IPC: 1.37944 (Simulation time: 0 hr 13 min 34 sec) 
Heartbeat CPU 0 instructions: 500000000 cycles: 333782483 heartbeat IPC: 1.14541 cumulative IPC: 1.37243 (Simulation time: 0 hr 13 min 53 sec) 
Heartbeat CPU 0 instructions: 510000002 cycles: 342514852 heartbeat IPC: 1.14516 cumulative IPC: 1.36582 (Simulation time: 0 hr 14 min 13 sec) 
Heartbeat CPU 0 instructions: 520000000 cycles: 351244197 heartbeat IPC: 1.14556 cumulative IPC: 1.3596 (Simulation time: 0 hr 14 min 33 sec) 
Heartbeat CPU 0 instructions: 530000000 cycles: 359950212 heartbeat IPC: 1.14863 cumulative IPC: 1.35381 (Simulation time: 0 hr 14 min 53 sec) 
Heartbeat CPU 0 instructions: 540000000 cycles: 368207899 heartbeat IPC: 1.21099 cumulative IPC: 1.35019 (Simulation time: 0 hr 15 min 12 sec) 
Heartbeat CPU 0 instructions: 550000000 cycles: 375249387 heartbeat IPC: 1.42015 cumulative IPC: 1.35167 (Simulation time: 0 hr 15 min 30 sec) 
Heartbeat CPU 0 instructions: 560000000 cycles: 381861058 heartbeat IPC: 1.51248 cumulative IPC: 1.35481 (Simulation time: 0 hr 15 min 46 sec) 
Heartbeat CPU 0 instructions: 570000002 cycles: 388456685 heartbeat IPC: 1.51616 cumulative IPC: 1.35788 (Simulation time: 0 hr 16 min 3 sec) 
Heartbeat CPU 0 instructions: 580000000 cycles: 395105925 heartbeat IPC: 1.50393 cumulative IPC: 1.36063 (Simulation time: 0 hr 16 min 20 sec) 
Heartbeat CPU 0 instructions: 590000002 cycles: 401793304 heartbeat IPC: 1.49535 cumulative IPC: 1.36314 (Simulation time: 0 hr 16 min 37 sec) 
Heartbeat CPU 0 instructions: 600000000 cycles: 408604227 heartbeat IPC: 1.46823 cumulative IPC: 1.36509 (Simulation time: 0 hr 16 min 54 sec) 
Finished CPU 0 instructions: 500000000 cycles: 366275308 cumulative IPC: 1.36509 (Simulation time: 0 hr 16 min 54 sec) 

CPU 0 Branch Prediction Accuracy: 93.4682% MPKI: 2.44079
Number of Branches: 18683822 Number of Mispredictions: 1220394
Number of LOAD Instructions: 142551610
Number of LOAD Instructions (ROI): 142551610
Number of STORE Instructions: 44807454
Number of STORE Instructions (ROI): 44807454
Total Destination Memory Operands: 48357071
Total Destination Memory Operands (ROI): 48357071
Total Source Memory Operands: 142551610
Total Source Memory Operands (ROI): 142551610
Number of DEPENDED LOADS: 7394978
Number of DEPENDED LOADS (ROI): 7394978
Number of SQ_ADDED: 48357051
Number of SQ_ADDED (ROI): 48357051
Number of LQ_ADDED: 157232665
Number of LQ_ADDED (ROI): 157232665
Number of Instructions read from trace: 600000256

ChampSim completed all CPUs

Region of Interest Statistics

CPU 0 cumulative IPC: 1.36509 instructions: 500000000 cycles: 366275308
ITLB TOTAL     ACCESS:   88178010  HIT:   88177941  MISS:         69
ITLB LOAD      ACCESS:   88178010  HIT:   88177941  MISS:         69
ITLB RFO       ACCESS:          0  HIT:          0  MISS:          0
ITLB PREFETCH  ACCESS:          0  HIT:          0  MISS:          0
ITLB WRITEBACK ACCESS:          0  HIT:          0  MISS:          0
ITLB PREFETCH  REQUESTED:          0  ISSUED:          0  USEFUL:          0  USELESS:          0
ITLB TOTAL MSHR MERGED:         85
ITLB LOAD MSHR MERGED:         85
ITLB RFO MSHR MERGED:          0
ITLB PREFETCH MSHR MERGED:          0
ITLB WRITEBACK MSHR MERGED:          0
ITLB TOTAL ACCESSES:   88178095 HITS:   88177941 MISSES:        154
ITLB LOAD ACCESSES:   88178095 HITS:   88177941 MISSES:        154
ITLB RFO ACCESSES:          0 HITS:          0 MISSES:          0
ITLB PREFETCH ACCESSES:          0 HITS:          0 MISSES:          0
ITLB WRITEBACK ACCESSES:          0 HITS:          0 MISSES:          0
ITLB RQ ACCESS:  500000000
ITLB RQ TO_CACHE:   88178095
ITLB RQ MERGED:  411821905
ITLB RQ FORWARD:          0
ITLB WQ ACCESS:          0
ITLB WQ TO_CACHE:          0
ITLB WQ MERGED:          0
ITLB WQ FORWARD:          0
DTLB TOTAL     ACCESS:   88203560  HIT:   88076143  MISS:     127417
DTLB LOAD      ACCESS:   59485424  HIT:   59392962  MISS:      92462
DTLB RFO       ACCESS:   28718136  HIT:   28683181  MISS:      34955
DTLB PREFETCH  ACCESS:          0  HIT:          0  MISS:          0
DTLB WRITEBACK ACCESS:          0  HIT:          0  MISS:          0
DTLB PREFETCH  REQUESTED:          0  ISSUED:          0  USEFUL:          0  USELESS:          0
DTLB TOTAL MSHR MERGED:     141101
DTLB LOAD MSHR MERGED:     107673
DTLB RFO MSHR MERGED:      33428
DTLB PREFETCH MSHR MERGED:          0
DTLB WRITEBACK MSHR MERGED:          0
DTLB TOTAL ACCESSES:   88344661 HITS:   88076143 MISSES:     268518
DTLB LOAD ACCESSES:   59593097 HITS:   59392962 MISSES:     200135
DTLB RFO ACCESSES:   28751564 HITS:   28683181 MISSES:      68383
DTLB PREFETCH ACCESSES:          0 HITS:          0 MISSES:          0
DTLB WRITEBACK ACCESSES:          0 HITS:          0 MISSES:          0
DTLB RQ ACCESS:  154558913
DTLB RQ TO_CACHE:   88344661
DTLB RQ MERGED:   66214252
DTLB RQ FORWARD:          0
DTLB WQ ACCESS:          0
DTLB WQ TO_CACHE:          0
DTLB WQ MERGED:          0
DTLB WQ FORWARD:          0
L1D TOTAL     ACCESS:  128101719  HIT:  124876133  MISS:    3225586
L1D LOAD      ACCESS:   53171956  HIT:   51976666  MISS:    1195290
L1D RFO       ACCESS:   37378798  HIT:   36764632  MISS:     614166
L1D PREFETCH  ACCESS:   37550965  HIT:   36134835  MISS:    1416130
L1D WRITEBACK ACCESS:          0  HIT:          0  MISS:          0
L1D PREFETCH  REQUESTED:   53657040  ISSUED:   52456999  USEFUL:     352108  USELESS:    1063987
L1D TOTAL MSHR MERGED:    2803759
L1D LOAD MSHR MERGED:     523829
L1D RFO MSHR MERGED:    1575720
L1D PREFETCH MSHR MERGED:     704210
L1D WRITEBACK MSHR MERGED:          0
L1D TOTAL ACCESSES:  130940341 HITS:  124910996 MISSES:    6029345
L1D LOAD ACCESSES:   53659904 HITS:   51979530 MISSES:    1680374
L1D RFO ACCESSES:   38952784 HITS:   36764632 MISSES:    2188152
L1D PREFETCH ACCESSES:   38327653 HITS:   36166834 MISSES:    2160819
L1D WRITEBACK ACCESSES:          0 HITS:          0 MISSES:          0
L1D RQ ACCESS:  113714021
L1D RQ TO_CACHE:   53657040
L1D RQ MERGED:   60054117
L1D RQ FORWARD:          0
L1D WQ ACCESS:   40844891
L1D WQ TO_CACHE:   38952784
L1D WQ MERGED:    1892107
L1D WQ FORWARD:      34863
L1I TOTAL     ACCESS:  108369398  HIT:  107810268  MISS:     559130
L1I LOAD      ACCESS:  108369398  HIT:  107810268  MISS:     559130
L1I RFO       ACCESS:          0  HIT:          0  MISS:          0
L1I PREFETCH  ACCESS:          0  HIT:          0  MISS:          0
L1I WRITEBACK ACCESS:          0  HIT:          0  MISS:          0
L1I PREFETCH  REQUESTED:          0  ISSUED:          0  USEFUL:          0  USELESS:          0
L1I TOTAL MSHR MERGED:     525712
L1I LOAD MSHR MERGED:     525712
L1I RFO MSHR MERGED:          0
L1I PREFETCH MSHR MERGED:          0
L1I WRITEBACK MSHR MERGED:          0
L1I TOTAL ACCESSES:  108895110 HITS:  107810268 MISSES:    1084842
L1I LOAD ACCESSES:  108895110 HITS:  107810268 MISSES:    1084842
L1I RFO ACCESSES:          0 HITS:          0 MISSES:          0
L1I PREFETCH ACCESSES:          0 HITS:          0 MISSES:          0
L1I WRITEBACK ACCESSES:          0 HITS:          0 MISSES:          0
L1I RQ ACCESS:  500000002
L1I RQ TO_CACHE:  108895110
L1I RQ MERGED:  391104892
L1I RQ FORWARD:          0
L1I WQ ACCESS:          0
L1I WQ TO_CACHE:          0
L1I WQ MERGED:          0
L1I WQ FORWARD:          0
L2C TOTAL     ACCESS:    4691919  HIT:    3865821  MISS:     826098
L2C LOAD      ACCESS:    1715560  HIT:    1562649  MISS:     152911
L2C RFO       ACCESS:     610993  HIT:     421174  MISS:     189819
L2C PREFETCH  ACCESS:    1662471  HIT:    1181295  MISS:     481176
L2C WRITEBACK ACCESS:     702895  HIT:     700703  MISS:       2192
L2C PREFETCH  REQUESTED:     256236  ISSUED:     256236  USEFUL:     173077  USELESS:     308765
L2C TOTAL MSHR MERGED:      13283
L2C LOAD MSHR MERGED:       4035
L2C RFO MSHR MERGED:          0
L2C PREFETCH MSHR MERGED:       9248
L2C WRITEBACK MSHR MERGED:          0
L2C TOTAL ACCESSES:    4711957 HITS:    3867442 MISSES:     844515
L2C LOAD ACCESSES:    1715675 HITS:    1562764 MISSES:     152911
L2C RFO ACCESSES:     612432 HITS:     422613 MISSES:     189819
L2C PREFETCH ACCESSES:    1680955 HITS:    1181362 MISSES:     499593
L2C WRITEBACK ACCESSES:     702895 HITS:     700703 MISSES:       2192
L2C RQ ACCESS:    2328107
L2C RQ TO_CACHE:    2326553
L2C RQ MERGED:          0
L2C RQ FORWARD:          0
L2C WQ ACCESS:     702895
L2C WQ TO_CACHE:     702895
L2C WQ MERGED:          0
L2C WQ FORWARD:       1621
LLC TOTAL     ACCESS:    1047548  HIT:     286986  MISS:     760562
LLC LOAD      ACCESS:     148872  HIT:      86820  MISS:      62052
LLC RFO       ACCESS:     189812  HIT:       6246  MISS:     183566
LLC PREFETCH  ACCESS:     487980  HIT:     155257  MISS:     332723
LLC WRITEBACK ACCESS:     220884  HIT:      38663  MISS:     182221
LLC PREFETCH  REQUESTED:          0  ISSUED:          0  USEFUL:       2126  USELESS:     331076
LLC TOTAL MSHR MERGED:       1659
LLC LOAD MSHR MERGED:        583
LLC RFO MSHR MERGED:          0
LLC PREFETCH MSHR MERGED:       1076
LLC WRITEBACK MSHR MERGED:          0
LLC TOTAL ACCESSES:    1049218 HITS:     286997 MISSES:     762221
LLC LOAD ACCESSES:     148876 HITS:      86824 MISSES:      62052
LLC RFO ACCESSES:     189819 HITS:       6253 MISSES:     183566
LLC PREFETCH ACCESSES:     489639 HITS:     155257 MISSES:     334382
LLC WRITEBACK ACCESSES:     220884 HITS:      38663 MISSES:     182221
LLC 0 RQ ACCESS:     338695
LLC 0 RQ TO_CACHE:     338684
LLC 0 RQ MERGED:          0
LLC 0 RQ FORWARD:          0
LLC WQ ACCESS:     220884
LLC WQ TO_CACHE:     220884
LLC WQ MERGED:          0
LLC WQ FORWARD:         11
Major fault: 0 Minor fault: 6811
CPU 0 L1D next line prefetcher final stats
CPU 0 L2C PC-based stride prefetcher final stats
All Misses: 899750
All Hits: 354781
SD Algo Stats - Switches: 0 SRR-Repls: 69533 BRR-Repls: 0

DRAM Statistics
 CHANNEL 0
 RQ ROW_BUFFER_HIT:     289049  ROW_BUFFER_MISS:     289220
 DBUS_CONGESTED:     398870
 WQ ROW_BUFFER_HIT:      23947  ROW_BUFFER_MISS:     191113  FULL:          0

 AVG_CONGESTED_CYCLE: 13
LOADS RETIRED: 119922929
INSTR RETIRED: 500000000
