
*** ChampSim Multicore Out-of-Order Simulator ***

Warmup Instructions: 100000000
Simulation Instructions: 500000000
Number of CPUs: 1
LLC sets: 2048
LLC ways: 16
Clean RRIP Policies: 2213232222132322 Dirty RRIP Policies: 2203130222031302 PSEL Width: 10 Track Set: 4294967295 PSEL Mask: 1 Demote Mask: 3040100030401000DS Algo: 0Window size: 0
Off-chip DRAM Size: 4096 MB Channels: 1 Width: 64-bit Data Rate: 1600 MT/s

CPU 0 runs /mnt/beegfs/iconst01/spec2017/Fotonik3d.trace.gz
NOT SORTED
TRACE STRING: /mnt/beegfs/iconst01/spec2017/Fotonik3d.trace.gz
SORTED
TRACE STRING: /mnt/beegfs/iconst01/spec2017/Fotonik3d.trace.gz
INITIAL
TRACE STRING: /mnt/beegfs/iconst01/spec2017/Fotonik3d.trace.gz

champsim_seed used: 881

CPU 0 L1D next line prefetcher
CPU 0 L2C IP-based stride prefetcher
Initialize DRRIP state
Assign rand_sets[0]: 454  LLC: 2048
rand_sets[0]: 454
Assign rand_sets[1]: 1662  LLC: 2048
rand_sets[1]: 1662
Assign rand_sets[2]: 1921  LLC: 2048
rand_sets[2]: 1921
Assign rand_sets[3]: 1131  LLC: 2048
rand_sets[3]: 1131
Assign rand_sets[4]: 331  LLC: 2048
rand_sets[4]: 331
Assign rand_sets[5]: 1531  LLC: 2048
rand_sets[5]: 1531
Assign rand_sets[6]: 482  LLC: 2048
rand_sets[6]: 482
Assign rand_sets[7]: 1275  LLC: 2048
rand_sets[7]: 1275
Assign rand_sets[8]: 1876  LLC: 2048
rand_sets[8]: 1876
Assign rand_sets[9]: 2038  LLC: 2048
rand_sets[9]: 2038
Assign rand_sets[10]: 701  LLC: 2048
rand_sets[10]: 701
Assign rand_sets[11]: 479  LLC: 2048
rand_sets[11]: 479
Assign rand_sets[12]: 892  LLC: 2048
rand_sets[12]: 892
Assign rand_sets[13]: 1820  LLC: 2048
rand_sets[13]: 1820
Assign rand_sets[14]: 1505  LLC: 2048
rand_sets[14]: 1505
Assign rand_sets[15]: 1159  LLC: 2048
rand_sets[15]: 1159
Assign rand_sets[16]: 513  LLC: 2048
rand_sets[16]: 513
Assign rand_sets[17]: 703  LLC: 2048
rand_sets[17]: 703
Assign rand_sets[18]: 561  LLC: 2048
rand_sets[18]: 561
Assign rand_sets[19]: 990  LLC: 2048
rand_sets[19]: 990
Assign rand_sets[20]: 342  LLC: 2048
rand_sets[20]: 342
Assign rand_sets[21]: 882  LLC: 2048
rand_sets[21]: 882
Assign rand_sets[22]: 15  LLC: 2048
rand_sets[22]: 15
Assign rand_sets[23]: 71  LLC: 2048
rand_sets[23]: 71
Assign rand_sets[24]: 1127  LLC: 2048
rand_sets[24]: 1127
Assign rand_sets[25]: 1382  LLC: 2048
rand_sets[25]: 1382
Assign rand_sets[26]: 647  LLC: 2048
rand_sets[26]: 647
Assign rand_sets[27]: 857  LLC: 2048
rand_sets[27]: 857
Assign rand_sets[28]: 1450  LLC: 2048
rand_sets[28]: 1450
Assign rand_sets[29]: 1160  LLC: 2048
rand_sets[29]: 1160
Assign rand_sets[30]: 1852  LLC: 2048
rand_sets[30]: 1852
Assign rand_sets[31]: 1881  LLC: 2048
rand_sets[31]: 1881
Assign rand_sets[32]: 1770  LLC: 2048
rand_sets[32]: 1770
Assign rand_sets[33]: 1622  LLC: 2048
rand_sets[33]: 1622
Assign rand_sets[34]: 275  LLC: 2048
rand_sets[34]: 275
Assign rand_sets[35]: 635  LLC: 2048
rand_sets[35]: 635
Assign rand_sets[36]: 466  LLC: 2048
rand_sets[36]: 466
Assign rand_sets[37]: 1413  LLC: 2048
rand_sets[37]: 1413
Assign rand_sets[38]: 417  LLC: 2048
rand_sets[38]: 417
Assign rand_sets[39]: 472  LLC: 2048
rand_sets[39]: 472
Assign rand_sets[40]: 1340  LLC: 2048
rand_sets[40]: 1340
Assign rand_sets[41]: 852  LLC: 2048
rand_sets[41]: 852
Assign rand_sets[42]: 1365  LLC: 2048
rand_sets[42]: 1365
Assign rand_sets[43]: 47  LLC: 2048
rand_sets[43]: 47
Assign rand_sets[44]: 823  LLC: 2048
rand_sets[44]: 823
Assign rand_sets[45]: 686  LLC: 2048
rand_sets[45]: 686
Assign rand_sets[46]: 1637  LLC: 2048
rand_sets[46]: 1637
Assign rand_sets[47]: 1115  LLC: 2048
rand_sets[47]: 1115
Assign rand_sets[48]: 986  LLC: 2048
rand_sets[48]: 986
Assign rand_sets[49]: 258  LLC: 2048
rand_sets[49]: 258
Assign rand_sets[50]: 633  LLC: 2048
rand_sets[50]: 633
Assign rand_sets[51]: 920  LLC: 2048
rand_sets[51]: 920
Assign rand_sets[52]: 204  LLC: 2048
rand_sets[52]: 204
Assign rand_sets[53]: 227  LLC: 2048
rand_sets[53]: 227
Assign rand_sets[54]: 1818  LLC: 2048
rand_sets[54]: 1818
Assign rand_sets[55]: 886  LLC: 2048
rand_sets[55]: 886
Assign rand_sets[56]: 1422  LLC: 2048
rand_sets[56]: 1422
Assign rand_sets[57]: 607  LLC: 2048
rand_sets[57]: 607
Assign rand_sets[58]: 217  LLC: 2048
rand_sets[58]: 217
Assign rand_sets[59]: 1945  LLC: 2048
rand_sets[59]: 1945
Assign rand_sets[60]: 143  LLC: 2048
rand_sets[60]: 143
Assign rand_sets[61]: 1311  LLC: 2048
rand_sets[61]: 1311
Assign rand_sets[62]: 319  LLC: 2048
rand_sets[62]: 319
Assign rand_sets[63]: 1846  LLC: 2048
rand_sets[63]: 1846
 CLEAN-RRIP-POLICY-1: 2-2-1-3-2-3-2-2- CLEAN-RRIP-POLICY-2: 2-2-1-3-2-3-2-2-
 DIRTY-RRIP-POLICY-1: 2-2-0-3-1-3-0-2- DIRTY-RRIP-POLICY-2: 2-2-0-3-1-3-0-2-
 PSEL width: 10
Heartbeat CPU 0 instructions: 10000002 cycles: 7306737 heartbeat IPC: 1.3686 cumulative IPC: 1.3686 (Simulation time: 0 hr 0 min 24 sec) 
Heartbeat CPU 0 instructions: 20000000 cycles: 14613565 heartbeat IPC: 1.36858 cumulative IPC: 1.36859 (Simulation time: 0 hr 0 min 48 sec) 
Heartbeat CPU 0 instructions: 30000001 cycles: 21920248 heartbeat IPC: 1.36861 cumulative IPC: 1.3686 (Simulation time: 0 hr 1 min 12 sec) 
Heartbeat CPU 0 instructions: 40000000 cycles: 29226820 heartbeat IPC: 1.36863 cumulative IPC: 1.36861 (Simulation time: 0 hr 1 min 36 sec) 
Heartbeat CPU 0 instructions: 50000001 cycles: 36533392 heartbeat IPC: 1.36863 cumulative IPC: 1.36861 (Simulation time: 0 hr 2 min 1 sec) 
Heartbeat CPU 0 instructions: 60000000 cycles: 43840202 heartbeat IPC: 1.36859 cumulative IPC: 1.36861 (Simulation time: 0 hr 2 min 25 sec) 
Heartbeat CPU 0 instructions: 70000002 cycles: 51146825 heartbeat IPC: 1.36862 cumulative IPC: 1.36861 (Simulation time: 0 hr 2 min 49 sec) 
Heartbeat CPU 0 instructions: 80000000 cycles: 58453424 heartbeat IPC: 1.36863 cumulative IPC: 1.36861 (Simulation time: 0 hr 3 min 14 sec) 
Heartbeat CPU 0 instructions: 90000003 cycles: 65763822 heartbeat IPC: 1.36792 cumulative IPC: 1.36853 (Simulation time: 0 hr 3 min 38 sec) 
Heartbeat CPU 0 instructions: 100000000 cycles: 73074265 heartbeat IPC: 1.36791 cumulative IPC: 1.36847 (Simulation time: 0 hr 4 min 2 sec) 

Warmup complete CPU 0 instructions: 100000002 cycles: 73074277 (Simulation time: 0 hr 4 min 2 sec) 

Heartbeat CPU 0 instructions: 110000001 cycles: 85491387 heartbeat IPC: 0.80534 cumulative IPC: 0.80534 (Simulation time: 0 hr 4 min 31 sec) 
Heartbeat CPU 0 instructions: 120000000 cycles: 97861919 heartbeat IPC: 0.808373 cumulative IPC: 0.806854 (Simulation time: 0 hr 5 min 0 sec) 
Heartbeat CPU 0 instructions: 130000000 cycles: 110284572 heartbeat IPC: 0.804981 cumulative IPC: 0.806228 (Simulation time: 0 hr 5 min 29 sec) 
Heartbeat CPU 0 instructions: 140000000 cycles: 122661461 heartbeat IPC: 0.807957 cumulative IPC: 0.80666 (Simulation time: 0 hr 5 min 58 sec) 
Heartbeat CPU 0 instructions: 150000000 cycles: 134999049 heartbeat IPC: 0.810531 cumulative IPC: 0.807431 (Simulation time: 0 hr 6 min 27 sec) 
Heartbeat CPU 0 instructions: 160000000 cycles: 147376761 heartbeat IPC: 0.807904 cumulative IPC: 0.80751 (Simulation time: 0 hr 6 min 56 sec) 
Heartbeat CPU 0 instructions: 170000001 cycles: 159759319 heartbeat IPC: 0.807588 cumulative IPC: 0.807521 (Simulation time: 0 hr 7 min 25 sec) 
Heartbeat CPU 0 instructions: 180000000 cycles: 172136561 heartbeat IPC: 0.807934 cumulative IPC: 0.807573 (Simulation time: 0 hr 7 min 54 sec) 
Heartbeat CPU 0 instructions: 190000000 cycles: 184551046 heartbeat IPC: 0.805511 cumulative IPC: 0.807343 (Simulation time: 0 hr 8 min 23 sec) 
Heartbeat CPU 0 instructions: 200000000 cycles: 196922620 heartbeat IPC: 0.808305 cumulative IPC: 0.807439 (Simulation time: 0 hr 8 min 51 sec) 
Heartbeat CPU 0 instructions: 210000002 cycles: 209338781 heartbeat IPC: 0.805402 cumulative IPC: 0.807254 (Simulation time: 0 hr 9 min 20 sec) 
Heartbeat CPU 0 instructions: 220000000 cycles: 221755094 heartbeat IPC: 0.805392 cumulative IPC: 0.807098 (Simulation time: 0 hr 9 min 49 sec) 
Heartbeat CPU 0 instructions: 230000002 cycles: 234126577 heartbeat IPC: 0.808311 cumulative IPC: 0.807191 (Simulation time: 0 hr 10 min 18 sec) 
Heartbeat CPU 0 instructions: 240000000 cycles: 247241468 heartbeat IPC: 0.762492 cumulative IPC: 0.803825 (Simulation time: 0 hr 10 min 47 sec) 
Heartbeat CPU 0 instructions: 250000001 cycles: 264428029 heartbeat IPC: 0.58185 cumulative IPC: 0.783888 (Simulation time: 0 hr 11 min 18 sec) 
Heartbeat CPU 0 instructions: 260000000 cycles: 281548972 heartbeat IPC: 0.58408 cumulative IPC: 0.767479 (Simulation time: 0 hr 11 min 50 sec) 
Heartbeat CPU 0 instructions: 270000000 cycles: 298718655 heartbeat IPC: 0.582422 cumulative IPC: 0.753398 (Simulation time: 0 hr 12 min 21 sec) 
Heartbeat CPU 0 instructions: 280000000 cycles: 315892245 heartbeat IPC: 0.582289 cumulative IPC: 0.741296 (Simulation time: 0 hr 12 min 52 sec) 
Heartbeat CPU 0 instructions: 290000001 cycles: 344312884 heartbeat IPC: 0.351857 cumulative IPC: 0.70049 (Simulation time: 0 hr 13 min 30 sec) 
Heartbeat CPU 0 instructions: 300000000 cycles: 381198267 heartbeat IPC: 0.27111 cumulative IPC: 0.649089 (Simulation time: 0 hr 14 min 13 sec) 
Heartbeat CPU 0 instructions: 310000000 cycles: 397727023 heartbeat IPC: 0.605006 cumulative IPC: 0.646845 (Simulation time: 0 hr 14 min 44 sec) 
Heartbeat CPU 0 instructions: 320000000 cycles: 414203538 heartbeat IPC: 0.606924 cumulative IPC: 0.644917 (Simulation time: 0 hr 15 min 14 sec) 
Heartbeat CPU 0 instructions: 330000003 cycles: 430735848 heartbeat IPC: 0.604876 cumulative IPC: 0.643066 (Simulation time: 0 hr 15 min 44 sec) 
Heartbeat CPU 0 instructions: 340000000 cycles: 447227946 heartbeat IPC: 0.606351 cumulative IPC: 0.641448 (Simulation time: 0 hr 16 min 14 sec) 
Heartbeat CPU 0 instructions: 350000001 cycles: 462012988 heartbeat IPC: 0.676359 cumulative IPC: 0.642775 (Simulation time: 0 hr 16 min 42 sec) 
Heartbeat CPU 0 instructions: 360000000 cycles: 473935200 heartbeat IPC: 0.83877 cumulative IPC: 0.648604 (Simulation time: 0 hr 17 min 8 sec) 
Heartbeat CPU 0 instructions: 370000002 cycles: 485646011 heartbeat IPC: 0.853912 cumulative IPC: 0.654432 (Simulation time: 0 hr 17 min 34 sec) 
Heartbeat CPU 0 instructions: 380000000 cycles: 497540897 heartbeat IPC: 0.840697 cumulative IPC: 0.659651 (Simulation time: 0 hr 18 min 1 sec) 
Heartbeat CPU 0 instructions: 390000003 cycles: 510899531 heartbeat IPC: 0.74858 cumulative IPC: 0.662365 (Simulation time: 0 hr 18 min 28 sec) 
Heartbeat CPU 0 instructions: 400000000 cycles: 523172029 heartbeat IPC: 0.81483 cumulative IPC: 0.666522 (Simulation time: 0 hr 18 min 54 sec) 
Heartbeat CPU 0 instructions: 410000003 cycles: 535174264 heartbeat IPC: 0.833178 cumulative IPC: 0.670851 (Simulation time: 0 hr 19 min 21 sec) 
Heartbeat CPU 0 instructions: 420000000 cycles: 548030433 heartbeat IPC: 0.777836 cumulative IPC: 0.673746 (Simulation time: 0 hr 19 min 48 sec) 
Heartbeat CPU 0 instructions: 430000003 cycles: 566452111 heartbeat IPC: 0.542839 cumulative IPC: 0.668859 (Simulation time: 0 hr 20 min 12 sec) 
Heartbeat CPU 0 instructions: 440000000 cycles: 584909842 heartbeat IPC: 0.541778 cumulative IPC: 0.664276 (Simulation time: 0 hr 20 min 36 sec) 
Heartbeat CPU 0 instructions: 450000003 cycles: 603380831 heartbeat IPC: 0.54139 cumulative IPC: 0.659996 (Simulation time: 0 hr 21 min 0 sec) 
Heartbeat CPU 0 instructions: 460000000 cycles: 621830752 heartbeat IPC: 0.542008 cumulative IPC: 0.656029 (Simulation time: 0 hr 21 min 24 sec) 
Heartbeat CPU 0 instructions: 470000003 cycles: 640282629 heartbeat IPC: 0.54195 cumulative IPC: 0.652318 (Simulation time: 0 hr 21 min 48 sec) 
Heartbeat CPU 0 instructions: 480000000 cycles: 658745996 heartbeat IPC: 0.541613 cumulative IPC: 0.648828 (Simulation time: 0 hr 22 min 12 sec) 
Heartbeat CPU 0 instructions: 490000003 cycles: 677229669 heartbeat IPC: 0.541018 cumulative IPC: 0.645529 (Simulation time: 0 hr 22 min 36 sec) 
Heartbeat CPU 0 instructions: 500000000 cycles: 695660586 heartbeat IPC: 0.542566 cumulative IPC: 0.642481 (Simulation time: 0 hr 23 min 0 sec) 
Heartbeat CPU 0 instructions: 510000003 cycles: 714114684 heartbeat IPC: 0.541885 cumulative IPC: 0.639585 (Simulation time: 0 hr 23 min 24 sec) 
Heartbeat CPU 0 instructions: 520000000 cycles: 732549818 heartbeat IPC: 0.542442 cumulative IPC: 0.63687 (Simulation time: 0 hr 23 min 48 sec) 
Heartbeat CPU 0 instructions: 530000001 cycles: 751028475 heartbeat IPC: 0.541165 cumulative IPC: 0.634261 (Simulation time: 0 hr 24 min 12 sec) 
Heartbeat CPU 0 instructions: 540000000 cycles: 769418502 heartbeat IPC: 0.543773 cumulative IPC: 0.631871 (Simulation time: 0 hr 24 min 36 sec) 
Heartbeat CPU 0 instructions: 550000001 cycles: 787819727 heartbeat IPC: 0.543442 cumulative IPC: 0.629595 (Simulation time: 0 hr 25 min 0 sec) 
Heartbeat CPU 0 instructions: 560000000 cycles: 806222372 heartbeat IPC: 0.5434 cumulative IPC: 0.627431 (Simulation time: 0 hr 25 min 25 sec) 
Heartbeat CPU 0 instructions: 570000001 cycles: 824609951 heartbeat IPC: 0.543845 cumulative IPC: 0.625386 (Simulation time: 0 hr 25 min 49 sec) 
Heartbeat CPU 0 instructions: 580000000 cycles: 842951059 heartbeat IPC: 0.545223 cumulative IPC: 0.623476 (Simulation time: 0 hr 26 min 13 sec) 
Heartbeat CPU 0 instructions: 590000001 cycles: 861348302 heartbeat IPC: 0.54356 cumulative IPC: 0.621611 (Simulation time: 0 hr 26 min 37 sec) 
Heartbeat CPU 0 instructions: 600000000 cycles: 879747473 heartbeat IPC: 0.543503 cumulative IPC: 0.61983 (Simulation time: 0 hr 27 min 1 sec) 
Finished CPU 0 instructions: 500000002 cycles: 806673210 cumulative IPC: 0.61983 (Simulation time: 0 hr 27 min 1 sec) 

CPU 0 Branch Prediction Accuracy: 99.5931% MPKI: 0.08288
Number of Branches: 10184133 Number of Mispredictions: 41440
Number of LOAD Instructions: 261155957
Number of LOAD Instructions (ROI): 261155957
Number of STORE Instructions: 57884062
Number of STORE Instructions (ROI): 57884062
Total Destination Memory Operands: 83293336
Total Destination Memory Operands (ROI): 83293336
Total Source Memory Operands: 261155957
Total Source Memory Operands (ROI): 261155957
Number of DEPENDED LOADS: 22255178
Number of DEPENDED LOADS (ROI): 22255178
Number of SQ_ADDED: 83293300
Number of SQ_ADDED (ROI): 83293300
Number of LQ_ADDED: 1765273672
Number of LQ_ADDED (ROI): 1765273672
Number of Instructions read from trace: 600000257

ChampSim completed all CPUs

Region of Interest Statistics

CPU 0 cumulative IPC: 0.61983 instructions: 500000002 cycles: 806673210
ITLB TOTAL     ACCESS:   94640613  HIT:   94640575  MISS:         38
ITLB LOAD      ACCESS:   94640613  HIT:   94640575  MISS:         38
ITLB RFO       ACCESS:          0  HIT:          0  MISS:          0
ITLB PREFETCH  ACCESS:          0  HIT:          0  MISS:          0
ITLB WRITEBACK ACCESS:          0  HIT:          0  MISS:          0
ITLB PREFETCH  REQUESTED:          0  ISSUED:          0  USEFUL:          0  USELESS:          0
ITLB TOTAL MSHR MERGED:         93
ITLB LOAD MSHR MERGED:         93
ITLB RFO MSHR MERGED:          0
ITLB PREFETCH MSHR MERGED:          0
ITLB WRITEBACK MSHR MERGED:          0
ITLB TOTAL ACCESSES:   94640706 HITS:   94640575 MISSES:        131
ITLB LOAD ACCESSES:   94640706 HITS:   94640575 MISSES:        131
ITLB RFO ACCESSES:          0 HITS:          0 MISSES:          0
ITLB PREFETCH ACCESSES:          0 HITS:          0 MISSES:          0
ITLB WRITEBACK ACCESSES:          0 HITS:          0 MISSES:          0
ITLB RQ ACCESS:  500000001
ITLB RQ TO_CACHE:   94640707
ITLB RQ MERGED:  405359294
ITLB RQ FORWARD:          0
ITLB WQ ACCESS:          0
ITLB WQ TO_CACHE:          0
ITLB WQ MERGED:          0
ITLB WQ FORWARD:          0
DTLB TOTAL     ACCESS:  149173886  HIT:  148576925  MISS:     596961
DTLB LOAD      ACCESS:  107300241  HIT:  106703291  MISS:     596950
DTLB RFO       ACCESS:   41873645  HIT:   41873634  MISS:         11
DTLB PREFETCH  ACCESS:          0  HIT:          0  MISS:          0
DTLB WRITEBACK ACCESS:          0  HIT:          0  MISS:          0
DTLB PREFETCH  REQUESTED:          0  ISSUED:          0  USEFUL:          0  USELESS:          0
DTLB TOTAL MSHR MERGED:     134019
DTLB LOAD MSHR MERGED:     134019
DTLB RFO MSHR MERGED:          0
DTLB PREFETCH MSHR MERGED:          0
DTLB WRITEBACK MSHR MERGED:          0
DTLB TOTAL ACCESSES:  149307905 HITS:  148576925 MISSES:     730980
DTLB LOAD ACCESSES:  107434260 HITS:  106703291 MISSES:     730969
DTLB RFO ACCESSES:   41873645 HITS:   41873634 MISSES:         11
DTLB PREFETCH ACCESSES:          0 HITS:          0 MISSES:          0
DTLB WRITEBACK ACCESSES:          0 HITS:          0 MISSES:          0
DTLB RQ ACCESS:  259760716
DTLB RQ TO_CACHE:  149307905
DTLB RQ MERGED:  110452811
DTLB RQ FORWARD:          0
DTLB WQ ACCESS:          0
DTLB WQ TO_CACHE:          0
DTLB WQ MERGED:          0
DTLB WQ FORWARD:          0
L1D TOTAL     ACCESS:  261017754  HIT:  245620548  MISS:   15397206
L1D LOAD      ACCESS:  118069815  HIT:  112564523  MISS:    5505292
L1D RFO       ACCESS:   68946757  HIT:   68932351  MISS:      14406
L1D PREFETCH  ACCESS:   74001182  HIT:   64123674  MISS:    9877508
L1D WRITEBACK ACCESS:          0  HIT:          0  MISS:          0
L1D PREFETCH  REQUESTED:  120657348  ISSUED:  119082040  USEFUL:    8007314  USELESS:    1870216
L1D TOTAL MSHR MERGED:   16525851
L1D LOAD MSHR MERGED:    5002765
L1D RFO MSHR MERGED:      21812
L1D PREFETCH MSHR MERGED:   11501274
L1D WRITEBACK MSHR MERGED:          0
L1D TOTAL ACCESSES:  277653889 HITS:  245730832 MISSES:   31923057
L1D LOAD ACCESSES:  120664869 HITS:  112572044 MISSES:    8092825
L1D RFO ACCESSES:   68968569 HITS:   68932351 MISSES:      36218
L1D PREFETCH ACCESSES:   88020451 HITS:   64226437 MISSES:   23794014
L1D WRITEBACK ACCESSES:          0 HITS:          0 MISSES:          0
L1D RQ ACCESS:  190686400
L1D RQ TO_CACHE:  120657348
L1D RQ MERGED:   70021531
L1D RQ FORWARD:          0
L1D WQ ACCESS:   69074336
L1D WQ TO_CACHE:   68968571
L1D WQ MERGED:     105765
L1D WQ FORWARD:     110284
L1I TOTAL     ACCESS:  121557594  HIT:  121556521  MISS:       1073
L1I LOAD      ACCESS:  121557594  HIT:  121556521  MISS:       1073
L1I RFO       ACCESS:          0  HIT:          0  MISS:          0
L1I PREFETCH  ACCESS:          0  HIT:          0  MISS:          0
L1I WRITEBACK ACCESS:          0  HIT:          0  MISS:          0
L1I PREFETCH  REQUESTED:          0  ISSUED:          0  USEFUL:          0  USELESS:          0
L1I TOTAL MSHR MERGED:       1075
L1I LOAD MSHR MERGED:       1075
L1I RFO MSHR MERGED:          0
L1I PREFETCH MSHR MERGED:          0
L1I WRITEBACK MSHR MERGED:          0
L1I TOTAL ACCESSES:  121558669 HITS:  121556521 MISSES:       2148
L1I LOAD ACCESSES:  121558669 HITS:  121556521 MISSES:       2148
L1I RFO ACCESSES:          0 HITS:          0 MISSES:          0
L1I PREFETCH ACCESSES:          0 HITS:          0 MISSES:          0
L1I WRITEBACK ACCESSES:          0 HITS:          0 MISSES:          0
L1I RQ ACCESS:  500000000
L1I RQ TO_CACHE:  121558669
L1I RQ MERGED:  378441331
L1I RQ FORWARD:          0
L1I WQ ACCESS:          0
L1I WQ TO_CACHE:          0
L1I WQ MERGED:          0
L1I WQ FORWARD:          0
L2C TOTAL     ACCESS:   22470028  HIT:    9151875  MISS:   13318153
L2C LOAD      ACCESS:    3091100  HIT:     417219  MISS:    2673881
L2C RFO       ACCESS:      14406  HIT:      13992  MISS:        414
L2C PREFETCH  ACCESS:   12734574  HIT:    2092506  MISS:   10642068
L2C WRITEBACK ACCESS:    6629948  HIT:    6628158  MISS:       1790
L2C PREFETCH  REQUESTED:     695110  ISSUED:     695110  USEFUL:     186524  USELESS:   10456341
L2C TOTAL MSHR MERGED:      71736
L2C LOAD MSHR MERGED:      22519
L2C RFO MSHR MERGED:          0
L2C PREFETCH MSHR MERGED:      49217
L2C WRITEBACK MSHR MERGED:          0
L2C TOTAL ACCESSES:   22683436 HITS:    9151920 MISSES:   13531516
L2C LOAD ACCESSES:    3091133 HITS:     417252 MISSES:    2673881
L2C RFO ACCESSES:      14406 HITS:      13992 MISSES:        414
L2C PREFETCH ACCESSES:   12947949 HITS:    2092518 MISSES:   10855431
L2C WRITEBACK ACCESSES:    6629948 HITS:    6628158 MISSES:       1790
L2C RQ ACCESS:    3105539
L2C RQ TO_CACHE:    3105506
L2C RQ MERGED:          0
L2C RQ FORWARD:          0
L2C WQ ACCESS:    6629948
L2C WQ TO_CACHE:    6629948
L2C WQ MERGED:          0
L2C WQ FORWARD:         45
LLC TOTAL     ACCESS:   20026065  HIT:    1989799  MISS:   18036266
LLC LOAD      ACCESS:    2651362  HIT:     435374  MISS:    2215988
LLC RFO       ACCESS:        414  HIT:         19  MISS:        395
LLC PREFETCH  ACCESS:   10783062  HIT:     118475  MISS:   10664587
LLC WRITEBACK ACCESS:    6591227  HIT:    1435931  MISS:    5155296
LLC PREFETCH  REQUESTED:          0  ISSUED:          0  USEFUL:      45973  USELESS:   10619771
LLC TOTAL MSHR MERGED:      21744
LLC LOAD MSHR MERGED:      10009
LLC RFO MSHR MERGED:          0
LLC PREFETCH MSHR MERGED:      11735
LLC WRITEBACK MSHR MERGED:          0
LLC TOTAL ACCESSES:   20047812 HITS:    1989801 MISSES:   18058011
LLC LOAD ACCESSES:    2651362 HITS:     435374 MISSES:    2215988
LLC RFO ACCESSES:        414 HITS:         19 MISSES:        395
LLC PREFETCH ACCESSES:   10804809 HITS:     118477 MISSES:   10686332
LLC WRITEBACK ACCESSES:    6591227 HITS:    1435931 MISSES:    5155296
LLC 0 RQ ACCESS:    2651776
LLC 0 RQ TO_CACHE:    2651776
LLC 0 RQ MERGED:          0
LLC 0 RQ FORWARD:          0
LLC WQ ACCESS:    6591228
LLC WQ TO_CACHE:    6591228
LLC WQ MERGED:          0
LLC WQ FORWARD:          2
Major fault: 0 Minor fault: 183991
CPU 0 L1D next line prefetcher final stats
CPU 0 L2C PC-based stride prefetcher final stats
All Misses: 20891562
All Hits: 2065549
SD Algo Stats - Switches: 0 SRR-Repls: 2265773 BRR-Repls: 0

DRAM Statistics
 CHANNEL 0
 RQ ROW_BUFFER_HIT:    7159969  ROW_BUFFER_MISS:    5721002
 DBUS_CONGESTED:   11506104
 WQ ROW_BUFFER_HIT:    1425292  ROW_BUFFER_MISS:    5160738  FULL:          0

 AVG_CONGESTED_CYCLE: 13
LOADS RETIRED: 204440772
INSTR RETIRED: 500000000
