
*** ChampSim Multicore Out-of-Order Simulator ***

Warmup Instructions: 100000000
Simulation Instructions: 500000000
Number of CPUs: 1
LLC sets: 2048
LLC ways: 16
Clean RRIP Policies: 2213230122132301 Dirty RRIP Policies: 2203030122030301 PSEL Width: 10 Track Set: 4294967295 PSEL Mask: 1 Demote Mask: 3040104030401040DS Algo: 0Window size: 0
Off-chip DRAM Size: 4096 MB Channels: 1 Width: 64-bit Data Rate: 1600 MT/s

CPU 0 runs /mnt/beegfs/iconst01/spec2017/cactuBSSN.trace.gz
NOT SORTED
TRACE STRING: /mnt/beegfs/iconst01/spec2017/cactuBSSN.trace.gz
SORTED
TRACE STRING: /mnt/beegfs/iconst01/spec2017/cactuBSSN.trace.gz
INITIAL
TRACE STRING: /mnt/beegfs/iconst01/spec2017/cactuBSSN.trace.gz

champsim_seed used: 838

CPU 0 L1D next line prefetcher
CPU 0 L2C IP-based stride prefetcher
Initialize DRRIP state
Assign rand_sets[0]: 454  LLC: 2048
rand_sets[0]: 454
Assign rand_sets[1]: 1662  LLC: 2048
rand_sets[1]: 1662
Assign rand_sets[2]: 1921  LLC: 2048
rand_sets[2]: 1921
Assign rand_sets[3]: 1131  LLC: 2048
rand_sets[3]: 1131
Assign rand_sets[4]: 331  LLC: 2048
rand_sets[4]: 331
Assign rand_sets[5]: 1531  LLC: 2048
rand_sets[5]: 1531
Assign rand_sets[6]: 482  LLC: 2048
rand_sets[6]: 482
Assign rand_sets[7]: 1275  LLC: 2048
rand_sets[7]: 1275
Assign rand_sets[8]: 1876  LLC: 2048
rand_sets[8]: 1876
Assign rand_sets[9]: 2038  LLC: 2048
rand_sets[9]: 2038
Assign rand_sets[10]: 701  LLC: 2048
rand_sets[10]: 701
Assign rand_sets[11]: 479  LLC: 2048
rand_sets[11]: 479
Assign rand_sets[12]: 892  LLC: 2048
rand_sets[12]: 892
Assign rand_sets[13]: 1820  LLC: 2048
rand_sets[13]: 1820
Assign rand_sets[14]: 1505  LLC: 2048
rand_sets[14]: 1505
Assign rand_sets[15]: 1159  LLC: 2048
rand_sets[15]: 1159
Assign rand_sets[16]: 513  LLC: 2048
rand_sets[16]: 513
Assign rand_sets[17]: 703  LLC: 2048
rand_sets[17]: 703
Assign rand_sets[18]: 561  LLC: 2048
rand_sets[18]: 561
Assign rand_sets[19]: 990  LLC: 2048
rand_sets[19]: 990
Assign rand_sets[20]: 342  LLC: 2048
rand_sets[20]: 342
Assign rand_sets[21]: 882  LLC: 2048
rand_sets[21]: 882
Assign rand_sets[22]: 15  LLC: 2048
rand_sets[22]: 15
Assign rand_sets[23]: 71  LLC: 2048
rand_sets[23]: 71
Assign rand_sets[24]: 1127  LLC: 2048
rand_sets[24]: 1127
Assign rand_sets[25]: 1382  LLC: 2048
rand_sets[25]: 1382
Assign rand_sets[26]: 647  LLC: 2048
rand_sets[26]: 647
Assign rand_sets[27]: 857  LLC: 2048
rand_sets[27]: 857
Assign rand_sets[28]: 1450  LLC: 2048
rand_sets[28]: 1450
Assign rand_sets[29]: 1160  LLC: 2048
rand_sets[29]: 1160
Assign rand_sets[30]: 1852  LLC: 2048
rand_sets[30]: 1852
Assign rand_sets[31]: 1881  LLC: 2048
rand_sets[31]: 1881
Assign rand_sets[32]: 1770  LLC: 2048
rand_sets[32]: 1770
Assign rand_sets[33]: 1622  LLC: 2048
rand_sets[33]: 1622
Assign rand_sets[34]: 275  LLC: 2048
rand_sets[34]: 275
Assign rand_sets[35]: 635  LLC: 2048
rand_sets[35]: 635
Assign rand_sets[36]: 466  LLC: 2048
rand_sets[36]: 466
Assign rand_sets[37]: 1413  LLC: 2048
rand_sets[37]: 1413
Assign rand_sets[38]: 417  LLC: 2048
rand_sets[38]: 417
Assign rand_sets[39]: 472  LLC: 2048
rand_sets[39]: 472
Assign rand_sets[40]: 1340  LLC: 2048
rand_sets[40]: 1340
Assign rand_sets[41]: 852  LLC: 2048
rand_sets[41]: 852
Assign rand_sets[42]: 1365  LLC: 2048
rand_sets[42]: 1365
Assign rand_sets[43]: 47  LLC: 2048
rand_sets[43]: 47
Assign rand_sets[44]: 823  LLC: 2048
rand_sets[44]: 823
Assign rand_sets[45]: 686  LLC: 2048
rand_sets[45]: 686
Assign rand_sets[46]: 1637  LLC: 2048
rand_sets[46]: 1637
Assign rand_sets[47]: 1115  LLC: 2048
rand_sets[47]: 1115
Assign rand_sets[48]: 986  LLC: 2048
rand_sets[48]: 986
Assign rand_sets[49]: 258  LLC: 2048
rand_sets[49]: 258
Assign rand_sets[50]: 633  LLC: 2048
rand_sets[50]: 633
Assign rand_sets[51]: 920  LLC: 2048
rand_sets[51]: 920
Assign rand_sets[52]: 204  LLC: 2048
rand_sets[52]: 204
Assign rand_sets[53]: 227  LLC: 2048
rand_sets[53]: 227
Assign rand_sets[54]: 1818  LLC: 2048
rand_sets[54]: 1818
Assign rand_sets[55]: 886  LLC: 2048
rand_sets[55]: 886
Assign rand_sets[56]: 1422  LLC: 2048
rand_sets[56]: 1422
Assign rand_sets[57]: 607  LLC: 2048
rand_sets[57]: 607
Assign rand_sets[58]: 217  LLC: 2048
rand_sets[58]: 217
Assign rand_sets[59]: 1945  LLC: 2048
rand_sets[59]: 1945
Assign rand_sets[60]: 143  LLC: 2048
rand_sets[60]: 143
Assign rand_sets[61]: 1311  LLC: 2048
rand_sets[61]: 1311
Assign rand_sets[62]: 319  LLC: 2048
rand_sets[62]: 319
Assign rand_sets[63]: 1846  LLC: 2048
rand_sets[63]: 1846
 CLEAN-RRIP-POLICY-1: 2-2-1-3-2-3-0-1- CLEAN-RRIP-POLICY-2: 2-2-1-3-2-3-0-1-
 DIRTY-RRIP-POLICY-1: 2-2-0-3-0-3-0-1- DIRTY-RRIP-POLICY-2: 2-2-0-3-0-3-0-1-
 PSEL width: 10
Heartbeat CPU 0 instructions: 10000000 cycles: 6588002 heartbeat IPC: 1.51791 cumulative IPC: 1.51791 (Simulation time: 0 hr 0 min 25 sec) 
Heartbeat CPU 0 instructions: 20000000 cycles: 13179595 heartbeat IPC: 1.51708 cumulative IPC: 1.5175 (Simulation time: 0 hr 0 min 51 sec) 
Heartbeat CPU 0 instructions: 30000003 cycles: 19772915 heartbeat IPC: 1.51669 cumulative IPC: 1.51723 (Simulation time: 0 hr 1 min 17 sec) 
Heartbeat CPU 0 instructions: 40000000 cycles: 26364658 heartbeat IPC: 1.51705 cumulative IPC: 1.51718 (Simulation time: 0 hr 1 min 42 sec) 
Heartbeat CPU 0 instructions: 50000001 cycles: 32957330 heartbeat IPC: 1.51684 cumulative IPC: 1.51711 (Simulation time: 0 hr 2 min 8 sec) 
Heartbeat CPU 0 instructions: 60000000 cycles: 39556142 heartbeat IPC: 1.51542 cumulative IPC: 1.51683 (Simulation time: 0 hr 2 min 33 sec) 
Heartbeat CPU 0 instructions: 70000003 cycles: 46154508 heartbeat IPC: 1.51553 cumulative IPC: 1.51664 (Simulation time: 0 hr 2 min 59 sec) 
Heartbeat CPU 0 instructions: 80000000 cycles: 52752559 heartbeat IPC: 1.5156 cumulative IPC: 1.51651 (Simulation time: 0 hr 3 min 25 sec) 
Heartbeat CPU 0 instructions: 90000002 cycles: 59348206 heartbeat IPC: 1.51615 cumulative IPC: 1.51647 (Simulation time: 0 hr 3 min 50 sec) 
Heartbeat CPU 0 instructions: 100000000 cycles: 65943249 heartbeat IPC: 1.51629 cumulative IPC: 1.51646 (Simulation time: 0 hr 4 min 16 sec) 

Warmup complete CPU 0 instructions: 100000002 cycles: 65943250 (Simulation time: 0 hr 4 min 16 sec) 

Heartbeat CPU 0 instructions: 110000000 cycles: 79181727 heartbeat IPC: 0.755374 cumulative IPC: 0.755374 (Simulation time: 0 hr 4 min 47 sec) 
Heartbeat CPU 0 instructions: 120000000 cycles: 92376257 heartbeat IPC: 0.75789 cumulative IPC: 0.75663 (Simulation time: 0 hr 5 min 18 sec) 
Heartbeat CPU 0 instructions: 130000001 cycles: 105641483 heartbeat IPC: 0.753851 cumulative IPC: 0.755701 (Simulation time: 0 hr 5 min 50 sec) 
Heartbeat CPU 0 instructions: 140000000 cycles: 118812493 heartbeat IPC: 0.759243 cumulative IPC: 0.756584 (Simulation time: 0 hr 6 min 21 sec) 
Heartbeat CPU 0 instructions: 150000001 cycles: 131999813 heartbeat IPC: 0.758304 cumulative IPC: 0.756927 (Simulation time: 0 hr 6 min 52 sec) 
Heartbeat CPU 0 instructions: 160000000 cycles: 145224644 heartbeat IPC: 0.756153 cumulative IPC: 0.756798 (Simulation time: 0 hr 7 min 23 sec) 
Heartbeat CPU 0 instructions: 170000000 cycles: 158436284 heartbeat IPC: 0.756908 cumulative IPC: 0.756814 (Simulation time: 0 hr 7 min 55 sec) 
Heartbeat CPU 0 instructions: 180000000 cycles: 171630686 heartbeat IPC: 0.757897 cumulative IPC: 0.756949 (Simulation time: 0 hr 8 min 26 sec) 
Heartbeat CPU 0 instructions: 190000000 cycles: 184791124 heartbeat IPC: 0.759853 cumulative IPC: 0.757271 (Simulation time: 0 hr 8 min 57 sec) 
Heartbeat CPU 0 instructions: 200000000 cycles: 198036096 heartbeat IPC: 0.755004 cumulative IPC: 0.757043 (Simulation time: 0 hr 9 min 28 sec) 
Heartbeat CPU 0 instructions: 210000002 cycles: 211251821 heartbeat IPC: 0.756674 cumulative IPC: 0.75701 (Simulation time: 0 hr 10 min 0 sec) 
Heartbeat CPU 0 instructions: 220000000 cycles: 224434568 heartbeat IPC: 0.758567 cumulative IPC: 0.757139 (Simulation time: 0 hr 10 min 31 sec) 
Heartbeat CPU 0 instructions: 230000003 cycles: 237675348 heartbeat IPC: 0.755243 cumulative IPC: 0.756993 (Simulation time: 0 hr 11 min 2 sec) 
Heartbeat CPU 0 instructions: 240000000 cycles: 250857844 heartbeat IPC: 0.758581 cumulative IPC: 0.757106 (Simulation time: 0 hr 11 min 33 sec) 
Heartbeat CPU 0 instructions: 250000001 cycles: 264076422 heartbeat IPC: 0.756511 cumulative IPC: 0.757067 (Simulation time: 0 hr 12 min 4 sec) 
Heartbeat CPU 0 instructions: 260000000 cycles: 277286568 heartbeat IPC: 0.756994 cumulative IPC: 0.757062 (Simulation time: 0 hr 12 min 36 sec) 
Heartbeat CPU 0 instructions: 270000003 cycles: 290525636 heartbeat IPC: 0.75534 cumulative IPC: 0.756961 (Simulation time: 0 hr 13 min 6 sec) 
Heartbeat CPU 0 instructions: 280000000 cycles: 303727313 heartbeat IPC: 0.757479 cumulative IPC: 0.756989 (Simulation time: 0 hr 13 min 37 sec) 
Heartbeat CPU 0 instructions: 290000000 cycles: 316898717 heartbeat IPC: 0.75922 cumulative IPC: 0.757106 (Simulation time: 0 hr 14 min 7 sec) 
Heartbeat CPU 0 instructions: 300000000 cycles: 330155295 heartbeat IPC: 0.754342 cumulative IPC: 0.756968 (Simulation time: 0 hr 14 min 38 sec) 
Heartbeat CPU 0 instructions: 310000001 cycles: 343325831 heartbeat IPC: 0.759271 cumulative IPC: 0.757077 (Simulation time: 0 hr 15 min 9 sec) 
Heartbeat CPU 0 instructions: 320000000 cycles: 356513057 heartbeat IPC: 0.75831 cumulative IPC: 0.757133 (Simulation time: 0 hr 15 min 39 sec) 
Heartbeat CPU 0 instructions: 330000002 cycles: 369701805 heartbeat IPC: 0.758222 cumulative IPC: 0.75718 (Simulation time: 0 hr 16 min 10 sec) 
Heartbeat CPU 0 instructions: 340000000 cycles: 382936108 heartbeat IPC: 0.755612 cumulative IPC: 0.757115 (Simulation time: 0 hr 16 min 40 sec) 
Heartbeat CPU 0 instructions: 350000000 cycles: 396184183 heartbeat IPC: 0.754827 cumulative IPC: 0.757023 (Simulation time: 0 hr 17 min 10 sec) 
Heartbeat CPU 0 instructions: 360000000 cycles: 409400170 heartbeat IPC: 0.756659 cumulative IPC: 0.757009 (Simulation time: 0 hr 17 min 39 sec) 
Heartbeat CPU 0 instructions: 370000002 cycles: 422666097 heartbeat IPC: 0.753811 cumulative IPC: 0.75689 (Simulation time: 0 hr 18 min 8 sec) 
Heartbeat CPU 0 instructions: 380000000 cycles: 435871300 heartbeat IPC: 0.757277 cumulative IPC: 0.756904 (Simulation time: 0 hr 18 min 37 sec) 
Heartbeat CPU 0 instructions: 390000000 cycles: 449042691 heartbeat IPC: 0.759221 cumulative IPC: 0.756984 (Simulation time: 0 hr 19 min 6 sec) 
Heartbeat CPU 0 instructions: 400000000 cycles: 462237969 heartbeat IPC: 0.757847 cumulative IPC: 0.757012 (Simulation time: 0 hr 19 min 35 sec) 
Heartbeat CPU 0 instructions: 410000001 cycles: 475480474 heartbeat IPC: 0.755144 cumulative IPC: 0.756952 (Simulation time: 0 hr 20 min 4 sec) 
Heartbeat CPU 0 instructions: 420000000 cycles: 488661263 heartbeat IPC: 0.75868 cumulative IPC: 0.757006 (Simulation time: 0 hr 20 min 32 sec) 
Heartbeat CPU 0 instructions: 430000001 cycles: 501842725 heartbeat IPC: 0.758641 cumulative IPC: 0.757055 (Simulation time: 0 hr 21 min 1 sec) 
Heartbeat CPU 0 instructions: 440000000 cycles: 515015028 heartbeat IPC: 0.759169 cumulative IPC: 0.757117 (Simulation time: 0 hr 21 min 30 sec) 
Heartbeat CPU 0 instructions: 450000002 cycles: 528314379 heartbeat IPC: 0.751917 cumulative IPC: 0.756968 (Simulation time: 0 hr 21 min 59 sec) 
Heartbeat CPU 0 instructions: 460000000 cycles: 541531725 heartbeat IPC: 0.756581 cumulative IPC: 0.756957 (Simulation time: 0 hr 22 min 28 sec) 
Heartbeat CPU 0 instructions: 470000003 cycles: 554728464 heartbeat IPC: 0.757763 cumulative IPC: 0.756979 (Simulation time: 0 hr 22 min 56 sec) 
Heartbeat CPU 0 instructions: 480000000 cycles: 567963315 heartbeat IPC: 0.755581 cumulative IPC: 0.756942 (Simulation time: 0 hr 23 min 25 sec) 
Heartbeat CPU 0 instructions: 490000000 cycles: 581167974 heartbeat IPC: 0.757308 cumulative IPC: 0.756951 (Simulation time: 0 hr 23 min 54 sec) 
Heartbeat CPU 0 instructions: 500000000 cycles: 594357757 heartbeat IPC: 0.758163 cumulative IPC: 0.756981 (Simulation time: 0 hr 24 min 23 sec) 
Heartbeat CPU 0 instructions: 510000001 cycles: 607534361 heartbeat IPC: 0.758921 cumulative IPC: 0.757029 (Simulation time: 0 hr 24 min 51 sec) 
Heartbeat CPU 0 instructions: 520000000 cycles: 620811506 heartbeat IPC: 0.753174 cumulative IPC: 0.756936 (Simulation time: 0 hr 25 min 20 sec) 
Heartbeat CPU 0 instructions: 530000000 cycles: 634051368 heartbeat IPC: 0.755295 cumulative IPC: 0.756898 (Simulation time: 0 hr 25 min 49 sec) 
Heartbeat CPU 0 instructions: 540000000 cycles: 647284433 heartbeat IPC: 0.755683 cumulative IPC: 0.756871 (Simulation time: 0 hr 26 min 18 sec) 
Heartbeat CPU 0 instructions: 550000002 cycles: 660534527 heartbeat IPC: 0.754712 cumulative IPC: 0.756822 (Simulation time: 0 hr 26 min 47 sec) 
Heartbeat CPU 0 instructions: 560000000 cycles: 673724458 heartbeat IPC: 0.758154 cumulative IPC: 0.756851 (Simulation time: 0 hr 27 min 15 sec) 
Heartbeat CPU 0 instructions: 570000001 cycles: 686929345 heartbeat IPC: 0.757295 cumulative IPC: 0.756861 (Simulation time: 0 hr 27 min 44 sec) 
Heartbeat CPU 0 instructions: 580000000 cycles: 700127968 heartbeat IPC: 0.757655 cumulative IPC: 0.756877 (Simulation time: 0 hr 28 min 13 sec) 
Heartbeat CPU 0 instructions: 590000003 cycles: 713354282 heartbeat IPC: 0.756069 cumulative IPC: 0.756861 (Simulation time: 0 hr 28 min 42 sec) 
Heartbeat CPU 0 instructions: 600000000 cycles: 726600467 heartbeat IPC: 0.754934 cumulative IPC: 0.756822 (Simulation time: 0 hr 29 min 10 sec) 
Finished CPU 0 instructions: 500000000 cycles: 660657227 cumulative IPC: 0.756822 (Simulation time: 0 hr 29 min 10 sec) 

CPU 0 Branch Prediction Accuracy: 99.968% MPKI: 0.002246
Number of Branches: 3513331 Number of Mispredictions: 1123
Number of LOAD Instructions: 287251172
Number of LOAD Instructions (ROI): 287251172
Number of STORE Instructions: 51060820
Number of STORE Instructions (ROI): 51060820
Total Destination Memory Operands: 51166221
Total Destination Memory Operands (ROI): 51166221
Total Source Memory Operands: 287251172
Total Source Memory Operands (ROI): 287251172
Number of DEPENDED LOADS: 9555483
Number of DEPENDED LOADS (ROI): 9555483
Number of SQ_ADDED: 51166208
Number of SQ_ADDED (ROI): 51166208
Number of LQ_ADDED: 290419968
Number of LQ_ADDED (ROI): 290419968
Number of Instructions read from trace: 600000257

ChampSim completed all CPUs

Region of Interest Statistics

CPU 0 cumulative IPC: 0.756822 instructions: 500000000 cycles: 660657227
ITLB TOTAL     ACCESS:  108949835  HIT:  108949835  MISS:          0
ITLB LOAD      ACCESS:  108949835  HIT:  108949835  MISS:          0
ITLB RFO       ACCESS:          0  HIT:          0  MISS:          0
ITLB PREFETCH  ACCESS:          0  HIT:          0  MISS:          0
ITLB WRITEBACK ACCESS:          0  HIT:          0  MISS:          0
ITLB PREFETCH  REQUESTED:          0  ISSUED:          0  USEFUL:          0  USELESS:          0
ITLB TOTAL MSHR MERGED:          0
ITLB LOAD MSHR MERGED:          0
ITLB RFO MSHR MERGED:          0
ITLB PREFETCH MSHR MERGED:          0
ITLB WRITEBACK MSHR MERGED:          0
ITLB TOTAL ACCESSES:  108949835 HITS:  108949835 MISSES:          0
ITLB LOAD ACCESSES:  108949835 HITS:  108949835 MISSES:          0
ITLB RFO ACCESSES:          0 HITS:          0 MISSES:          0
ITLB PREFETCH ACCESSES:          0 HITS:          0 MISSES:          0
ITLB WRITEBACK ACCESSES:          0 HITS:          0 MISSES:          0
ITLB RQ ACCESS:  500000001
ITLB RQ TO_CACHE:  108949835
ITLB RQ MERGED:  391050166
ITLB RQ FORWARD:          0
ITLB WQ ACCESS:          0
ITLB WQ TO_CACHE:          0
ITLB WQ MERGED:          0
ITLB WQ FORWARD:          0
DTLB TOTAL     ACCESS:  171131124  HIT:  161114803  MISS:   10016321
DTLB LOAD      ACCESS:  143472020  HIT:  135595949  MISS:    7876071
DTLB RFO       ACCESS:   27659104  HIT:   25518854  MISS:    2140250
DTLB PREFETCH  ACCESS:          0  HIT:          0  MISS:          0
DTLB WRITEBACK ACCESS:          0  HIT:          0  MISS:          0
DTLB PREFETCH  REQUESTED:          0  ISSUED:          0  USEFUL:          0  USELESS:          0
DTLB TOTAL MSHR MERGED:     360436
DTLB LOAD MSHR MERGED:     360436
DTLB RFO MSHR MERGED:          0
DTLB PREFETCH MSHR MERGED:          0
DTLB WRITEBACK MSHR MERGED:          0
DTLB TOTAL ACCESSES:  171491560 HITS:  161114803 MISSES:   10376757
DTLB LOAD ACCESSES:  143832456 HITS:  135595949 MISSES:    8236507
DTLB RFO ACCESSES:   27659104 HITS:   25518854 MISSES:    2140250
DTLB PREFETCH ACCESSES:          0 HITS:          0 MISSES:          0
DTLB WRITEBACK ACCESSES:          0 HITS:          0 MISSES:          0
DTLB RQ ACCESS:  274072334
DTLB RQ TO_CACHE:  171491560
DTLB RQ MERGED:  102580774
DTLB RQ FORWARD:          0
DTLB WQ ACCESS:          0
DTLB WQ TO_CACHE:          0
DTLB WQ MERGED:          0
DTLB WQ FORWARD:          0
L1D TOTAL     ACCESS:  350960415  HIT:  283761218  MISS:   67199197
L1D LOAD      ACCESS:  175627644  HIT:  142588457  MISS:   33039187
L1D RFO       ACCESS:   42020600  HIT:   39215184  MISS:    2805416
L1D PREFETCH  ACCESS:  133312171  HIT:  101957577  MISS:   31354594
L1D WRITEBACK ACCESS:          0  HIT:          0  MISS:          0
L1D PREFETCH  REQUESTED:  176231685  ISSUED:  175293626  USEFUL:    2180720  USELESS:   29173876
L1D TOTAL MSHR MERGED:    1482360
L1D LOAD MSHR MERGED:     703988
L1D RFO MSHR MERGED:     348590
L1D PREFETCH MSHR MERGED:     429782
L1D WRITEBACK MSHR MERGED:          0
L1D TOTAL ACCESSES:  352554571 HITS:  283873014 MISSES:   68681557
L1D LOAD ACCESSES:  176237624 HITS:  142594396 MISSES:   33643228
L1D RFO ACCESSES:   42368518 HITS:   39215184 MISSES:    3153334
L1D PREFETCH ACCESSES:  133948429 HITS:  102063434 MISSES:   31884995
L1D WRITEBACK ACCESSES:          0 HITS:          0 MISSES:          0
L1D RQ ACCESS:  231433861
L1D RQ TO_CACHE:  176231685
L1D RQ MERGED:   55196237
L1D RQ FORWARD:          0
L1D WQ ACCESS:   42638475
L1D WQ TO_CACHE:   42368518
L1D WQ MERGED:     269957
L1D WQ FORWARD:     111796
L1I TOTAL     ACCESS:  109343155  HIT:   77827451  MISS:   31515704
L1I LOAD      ACCESS:  109343155  HIT:   77827451  MISS:   31515704
L1I RFO       ACCESS:          0  HIT:          0  MISS:          0
L1I PREFETCH  ACCESS:          0  HIT:          0  MISS:          0
L1I WRITEBACK ACCESS:          0  HIT:          0  MISS:          0
L1I PREFETCH  REQUESTED:          0  ISSUED:          0  USEFUL:          0  USELESS:          0
L1I TOTAL MSHR MERGED:   30750686
L1I LOAD MSHR MERGED:   30750686
L1I RFO MSHR MERGED:          0
L1I PREFETCH MSHR MERGED:          0
L1I WRITEBACK MSHR MERGED:          0
L1I TOTAL ACCESSES:  140093843 HITS:   77827451 MISSES:   62266392
L1I LOAD ACCESSES:  140093843 HITS:   77827451 MISSES:   62266392
L1I RFO ACCESSES:          0 HITS:          0 MISSES:          0
L1I PREFETCH ACCESSES:          0 HITS:          0 MISSES:          0
L1I WRITEBACK ACCESSES:          0 HITS:          0 MISSES:          0
L1I RQ ACCESS:  500000003
L1I RQ TO_CACHE:  140093843
L1I RQ MERGED:  359906160
L1I RQ FORWARD:          0
L1I WQ ACCESS:          0
L1I WQ TO_CACHE:          0
L1I WQ MERGED:          0
L1I WQ FORWARD:          0
L2C TOTAL     ACCESS:  113703752  HIT:  110700868  MISS:    3002884
L2C LOAD      ACCESS:   64453076  HIT:   63892351  MISS:     560725
L2C RFO       ACCESS:    2802857  HIT:    2193350  MISS:     609507
L2C PREFETCH  ACCESS:   43286846  HIT:   41460462  MISS:    1826384
L2C WRITEBACK ACCESS:    3160973  HIT:    3154705  MISS:       6268
L2C PREFETCH  REQUESTED:   15134550  ISSUED:   14620022  USEFUL:    1701068  USELESS:     125323
L2C TOTAL MSHR MERGED:      12702
L2C LOAD MSHR MERGED:          0
L2C RFO MSHR MERGED:          0
L2C PREFETCH MSHR MERGED:      12702
L2C WRITEBACK MSHR MERGED:          0
L2C TOTAL ACCESSES:  113903068 HITS:  110706734 MISSES:    3196334
L2C LOAD ACCESSES:   64454945 HITS:   63894219 MISSES:     560726
L2C RFO ACCESSES:    2804744 HITS:    2195237 MISSES:     609507
L2C PREFETCH ACCESSES:   43482406 HITS:   41462573 MISSES:    2019833
L2C WRITEBACK ACCESSES:    3160973 HITS:    3154705 MISSES:       6268
L2C RQ ACCESS:   67259690
L2C RQ TO_CACHE:   67255935
L2C RQ MERGED:          0
L2C RQ FORWARD:          0
L2C WQ ACCESS:    3160973
L2C WQ TO_CACHE:    3160973
L2C WQ MERGED:          0
L2C WQ FORWARD:       5866
LLC TOTAL     ACCESS:    3708908  HIT:    1878615  MISS:    1830293
LLC LOAD      ACCESS:     560695  HIT:     498662  MISS:      62033
LLC RFO       ACCESS:     527393  HIT:     239238  MISS:     288155
LLC PREFETCH  ACCESS:    2002282  HIT:     668676  MISS:    1333606
LLC WRITEBACK ACCESS:     618538  HIT:     472039  MISS:     146499
LLC PREFETCH  REQUESTED:          0  ISSUED:          0  USEFUL:      44120  USELESS:    1281711
LLC TOTAL MSHR MERGED:       4176
LLC LOAD MSHR MERGED:          0
LLC RFO MSHR MERGED:          0
LLC PREFETCH MSHR MERGED:       4176
LLC WRITEBACK MSHR MERGED:          0
LLC TOTAL ACCESSES:    3795311 HITS:    1960842 MISSES:    1834469
LLC LOAD ACCESSES:     560725 HITS:     498692 MISSES:      62033
LLC RFO ACCESSES:     609507 HITS:     321352 MISSES:     288155
LLC PREFETCH ACCESSES:    2006541 HITS:     668759 MISSES:    1337782
LLC WRITEBACK ACCESSES:     618538 HITS:     472039 MISSES:     146499
LLC 0 RQ ACCESS:    1170233
LLC 0 RQ TO_CACHE:    1088089
LLC 0 RQ MERGED:          0
LLC 0 RQ FORWARD:          0
LLC WQ ACCESS:     618538
LLC WQ TO_CACHE:     618538
LLC WQ MERGED:          0
LLC WQ FORWARD:      82227
Major fault: 0 Minor fault: 12800
CPU 0 L1D next line prefetcher final stats
CPU 0 L2C PC-based stride prefetcher final stats
All Misses: 2226212
All Hits: 2333646
SD Algo Stats - Switches: 0 SRR-Repls: 79352 BRR-Repls: 0

DRAM Statistics
 CHANNEL 0
 RQ ROW_BUFFER_HIT:     828127  ROW_BUFFER_MISS:     855613
 DBUS_CONGESTED:     890007
 WQ ROW_BUFFER_HIT:      32762  ROW_BUFFER_MISS:     259447  FULL:          0

 AVG_CONGESTED_CYCLE: 13
LOADS RETIRED: 239375970
INSTR RETIRED: 500000000
