
*** ChampSim Multicore Out-of-Order Simulator ***

Warmup Instructions: 100000000
Simulation Instructions: 500000000
Number of CPUs: 1
LLC sets: 2048
LLC ways: 16
Clean RRIP Policies: 2213230122132301 Dirty RRIP Policies: 2203030122030301 PSEL Width: 10 Track Set: 4294967295 PSEL Mask: 1 Demote Mask: 3040104030401040DS Algo: 0Window size: 0
Off-chip DRAM Size: 4096 MB Channels: 1 Width: 64-bit Data Rate: 1600 MT/s

CPU 0 runs /mnt/beegfs/iconst01/spec2017/Parest.trace.gz
NOT SORTED
TRACE STRING: /mnt/beegfs/iconst01/spec2017/Parest.trace.gz
SORTED
TRACE STRING: /mnt/beegfs/iconst01/spec2017/Parest.trace.gz
INITIAL
TRACE STRING: /mnt/beegfs/iconst01/spec2017/Parest.trace.gz

champsim_seed used: 623

CPU 0 L1D next line prefetcher
CPU 0 L2C IP-based stride prefetcher
Initialize DRRIP state
Assign rand_sets[0]: 454  LLC: 2048
rand_sets[0]: 454
Assign rand_sets[1]: 1662  LLC: 2048
rand_sets[1]: 1662
Assign rand_sets[2]: 1921  LLC: 2048
rand_sets[2]: 1921
Assign rand_sets[3]: 1131  LLC: 2048
rand_sets[3]: 1131
Assign rand_sets[4]: 331  LLC: 2048
rand_sets[4]: 331
Assign rand_sets[5]: 1531  LLC: 2048
rand_sets[5]: 1531
Assign rand_sets[6]: 482  LLC: 2048
rand_sets[6]: 482
Assign rand_sets[7]: 1275  LLC: 2048
rand_sets[7]: 1275
Assign rand_sets[8]: 1876  LLC: 2048
rand_sets[8]: 1876
Assign rand_sets[9]: 2038  LLC: 2048
rand_sets[9]: 2038
Assign rand_sets[10]: 701  LLC: 2048
rand_sets[10]: 701
Assign rand_sets[11]: 479  LLC: 2048
rand_sets[11]: 479
Assign rand_sets[12]: 892  LLC: 2048
rand_sets[12]: 892
Assign rand_sets[13]: 1820  LLC: 2048
rand_sets[13]: 1820
Assign rand_sets[14]: 1505  LLC: 2048
rand_sets[14]: 1505
Assign rand_sets[15]: 1159  LLC: 2048
rand_sets[15]: 1159
Assign rand_sets[16]: 513  LLC: 2048
rand_sets[16]: 513
Assign rand_sets[17]: 703  LLC: 2048
rand_sets[17]: 703
Assign rand_sets[18]: 561  LLC: 2048
rand_sets[18]: 561
Assign rand_sets[19]: 990  LLC: 2048
rand_sets[19]: 990
Assign rand_sets[20]: 342  LLC: 2048
rand_sets[20]: 342
Assign rand_sets[21]: 882  LLC: 2048
rand_sets[21]: 882
Assign rand_sets[22]: 15  LLC: 2048
rand_sets[22]: 15
Assign rand_sets[23]: 71  LLC: 2048
rand_sets[23]: 71
Assign rand_sets[24]: 1127  LLC: 2048
rand_sets[24]: 1127
Assign rand_sets[25]: 1382  LLC: 2048
rand_sets[25]: 1382
Assign rand_sets[26]: 647  LLC: 2048
rand_sets[26]: 647
Assign rand_sets[27]: 857  LLC: 2048
rand_sets[27]: 857
Assign rand_sets[28]: 1450  LLC: 2048
rand_sets[28]: 1450
Assign rand_sets[29]: 1160  LLC: 2048
rand_sets[29]: 1160
Assign rand_sets[30]: 1852  LLC: 2048
rand_sets[30]: 1852
Assign rand_sets[31]: 1881  LLC: 2048
rand_sets[31]: 1881
Assign rand_sets[32]: 1770  LLC: 2048
rand_sets[32]: 1770
Assign rand_sets[33]: 1622  LLC: 2048
rand_sets[33]: 1622
Assign rand_sets[34]: 275  LLC: 2048
rand_sets[34]: 275
Assign rand_sets[35]: 635  LLC: 2048
rand_sets[35]: 635
Assign rand_sets[36]: 466  LLC: 2048
rand_sets[36]: 466
Assign rand_sets[37]: 1413  LLC: 2048
rand_sets[37]: 1413
Assign rand_sets[38]: 417  LLC: 2048
rand_sets[38]: 417
Assign rand_sets[39]: 472  LLC: 2048
rand_sets[39]: 472
Assign rand_sets[40]: 1340  LLC: 2048
rand_sets[40]: 1340
Assign rand_sets[41]: 852  LLC: 2048
rand_sets[41]: 852
Assign rand_sets[42]: 1365  LLC: 2048
rand_sets[42]: 1365
Assign rand_sets[43]: 47  LLC: 2048
rand_sets[43]: 47
Assign rand_sets[44]: 823  LLC: 2048
rand_sets[44]: 823
Assign rand_sets[45]: 686  LLC: 2048
rand_sets[45]: 686
Assign rand_sets[46]: 1637  LLC: 2048
rand_sets[46]: 1637
Assign rand_sets[47]: 1115  LLC: 2048
rand_sets[47]: 1115
Assign rand_sets[48]: 986  LLC: 2048
rand_sets[48]: 986
Assign rand_sets[49]: 258  LLC: 2048
rand_sets[49]: 258
Assign rand_sets[50]: 633  LLC: 2048
rand_sets[50]: 633
Assign rand_sets[51]: 920  LLC: 2048
rand_sets[51]: 920
Assign rand_sets[52]: 204  LLC: 2048
rand_sets[52]: 204
Assign rand_sets[53]: 227  LLC: 2048
rand_sets[53]: 227
Assign rand_sets[54]: 1818  LLC: 2048
rand_sets[54]: 1818
Assign rand_sets[55]: 886  LLC: 2048
rand_sets[55]: 886
Assign rand_sets[56]: 1422  LLC: 2048
rand_sets[56]: 1422
Assign rand_sets[57]: 607  LLC: 2048
rand_sets[57]: 607
Assign rand_sets[58]: 217  LLC: 2048
rand_sets[58]: 217
Assign rand_sets[59]: 1945  LLC: 2048
rand_sets[59]: 1945
Assign rand_sets[60]: 143  LLC: 2048
rand_sets[60]: 143
Assign rand_sets[61]: 1311  LLC: 2048
rand_sets[61]: 1311
Assign rand_sets[62]: 319  LLC: 2048
rand_sets[62]: 319
Assign rand_sets[63]: 1846  LLC: 2048
rand_sets[63]: 1846
 CLEAN-RRIP-POLICY-1: 2-2-1-3-2-3-0-1- CLEAN-RRIP-POLICY-2: 2-2-1-3-2-3-0-1-
 DIRTY-RRIP-POLICY-1: 2-2-0-3-0-3-0-1- DIRTY-RRIP-POLICY-2: 2-2-0-3-0-3-0-1-
 PSEL width: 10
Heartbeat CPU 0 instructions: 10000001 cycles: 4387120 heartbeat IPC: 2.2794 cumulative IPC: 2.2794 (Simulation time: 0 hr 0 min 14 sec) 
Heartbeat CPU 0 instructions: 20000000 cycles: 8781247 heartbeat IPC: 2.27576 cumulative IPC: 2.27758 (Simulation time: 0 hr 0 min 29 sec) 
Heartbeat CPU 0 instructions: 30000003 cycles: 13213194 heartbeat IPC: 2.25635 cumulative IPC: 2.27046 (Simulation time: 0 hr 0 min 44 sec) 
Heartbeat CPU 0 instructions: 40000000 cycles: 17643808 heartbeat IPC: 2.25702 cumulative IPC: 2.26708 (Simulation time: 0 hr 0 min 59 sec) 
Heartbeat CPU 0 instructions: 50000000 cycles: 22052007 heartbeat IPC: 2.2685 cumulative IPC: 2.26737 (Simulation time: 0 hr 1 min 13 sec) 
Heartbeat CPU 0 instructions: 60000000 cycles: 26457695 heartbeat IPC: 2.26979 cumulative IPC: 2.26777 (Simulation time: 0 hr 1 min 28 sec) 
Heartbeat CPU 0 instructions: 70000000 cycles: 30858516 heartbeat IPC: 2.2723 cumulative IPC: 2.26842 (Simulation time: 0 hr 1 min 43 sec) 
Heartbeat CPU 0 instructions: 80000000 cycles: 35254074 heartbeat IPC: 2.27502 cumulative IPC: 2.26924 (Simulation time: 0 hr 1 min 57 sec) 
Heartbeat CPU 0 instructions: 90000000 cycles: 39648342 heartbeat IPC: 2.27569 cumulative IPC: 2.26996 (Simulation time: 0 hr 2 min 12 sec) 
Heartbeat CPU 0 instructions: 100000000 cycles: 44045644 heartbeat IPC: 2.27412 cumulative IPC: 2.27037 (Simulation time: 0 hr 2 min 27 sec) 

Warmup complete CPU 0 instructions: 100000002 cycles: 44045654 (Simulation time: 0 hr 2 min 27 sec) 

Heartbeat CPU 0 instructions: 110000000 cycles: 54073912 heartbeat IPC: 0.997181 cumulative IPC: 0.997182 (Simulation time: 0 hr 2 min 46 sec) 
Heartbeat CPU 0 instructions: 120000000 cycles: 63275207 heartbeat IPC: 1.0868 cumulative IPC: 1.04007 (Simulation time: 0 hr 3 min 5 sec) 
Heartbeat CPU 0 instructions: 130000001 cycles: 72536760 heartbeat IPC: 1.07973 cumulative IPC: 1.05296 (Simulation time: 0 hr 3 min 23 sec) 
Heartbeat CPU 0 instructions: 140000000 cycles: 81991615 heartbeat IPC: 1.05766 cumulative IPC: 1.05413 (Simulation time: 0 hr 3 min 42 sec) 
Heartbeat CPU 0 instructions: 150000000 cycles: 93103380 heartbeat IPC: 0.899947 cumulative IPC: 1.01921 (Simulation time: 0 hr 4 min 2 sec) 
Heartbeat CPU 0 instructions: 160000000 cycles: 103171547 heartbeat IPC: 0.993229 cumulative IPC: 1.01478 (Simulation time: 0 hr 4 min 20 sec) 
Heartbeat CPU 0 instructions: 170000003 cycles: 113075578 heartbeat IPC: 1.00969 cumulative IPC: 1.01405 (Simulation time: 0 hr 4 min 39 sec) 
Heartbeat CPU 0 instructions: 180000000 cycles: 122884323 heartbeat IPC: 1.0195 cumulative IPC: 1.01473 (Simulation time: 0 hr 4 min 58 sec) 
Heartbeat CPU 0 instructions: 190000002 cycles: 132818393 heartbeat IPC: 1.00664 cumulative IPC: 1.01382 (Simulation time: 0 hr 5 min 17 sec) 
Heartbeat CPU 0 instructions: 200000000 cycles: 142241969 heartbeat IPC: 1.06117 cumulative IPC: 1.01837 (Simulation time: 0 hr 5 min 35 sec) 
Heartbeat CPU 0 instructions: 210000000 cycles: 152100118 heartbeat IPC: 1.01439 cumulative IPC: 1.01801 (Simulation time: 0 hr 5 min 54 sec) 
Heartbeat CPU 0 instructions: 220000000 cycles: 161311741 heartbeat IPC: 1.08558 cumulative IPC: 1.02331 (Simulation time: 0 hr 6 min 13 sec) 
Heartbeat CPU 0 instructions: 230000001 cycles: 173547107 heartbeat IPC: 0.817303 cumulative IPC: 1.00385 (Simulation time: 0 hr 6 min 34 sec) 
Heartbeat CPU 0 instructions: 240000000 cycles: 183994757 heartbeat IPC: 0.957153 cumulative IPC: 1.00036 (Simulation time: 0 hr 6 min 53 sec) 
Heartbeat CPU 0 instructions: 250000002 cycles: 193902909 heartbeat IPC: 1.00927 cumulative IPC: 1.00095 (Simulation time: 0 hr 7 min 11 sec) 
Heartbeat CPU 0 instructions: 260000000 cycles: 203591414 heartbeat IPC: 1.03215 cumulative IPC: 1.00285 (Simulation time: 0 hr 7 min 30 sec) 
Heartbeat CPU 0 instructions: 270000001 cycles: 213125623 heartbeat IPC: 1.04885 cumulative IPC: 1.00544 (Simulation time: 0 hr 7 min 48 sec) 
Heartbeat CPU 0 instructions: 280000000 cycles: 223003318 heartbeat IPC: 1.01238 cumulative IPC: 1.00582 (Simulation time: 0 hr 8 min 7 sec) 
Heartbeat CPU 0 instructions: 290000002 cycles: 232290459 heartbeat IPC: 1.07676 cumulative IPC: 1.00932 (Simulation time: 0 hr 8 min 26 sec) 
Heartbeat CPU 0 instructions: 300000000 cycles: 242039435 heartbeat IPC: 1.02575 cumulative IPC: 1.01013 (Simulation time: 0 hr 8 min 45 sec) 
Heartbeat CPU 0 instructions: 310000000 cycles: 251285664 heartbeat IPC: 1.08152 cumulative IPC: 1.01332 (Simulation time: 0 hr 9 min 3 sec) 
Heartbeat CPU 0 instructions: 320000000 cycles: 260615356 heartbeat IPC: 1.07185 cumulative IPC: 1.01584 (Simulation time: 0 hr 9 min 22 sec) 
Heartbeat CPU 0 instructions: 330000002 cycles: 270087984 heartbeat IPC: 1.05567 cumulative IPC: 1.01751 (Simulation time: 0 hr 9 min 41 sec) 
Heartbeat CPU 0 instructions: 340000000 cycles: 280157419 heartbeat IPC: 0.993104 cumulative IPC: 1.01647 (Simulation time: 0 hr 10 min 0 sec) 
Heartbeat CPU 0 instructions: 350000000 cycles: 290466844 heartbeat IPC: 0.969986 cumulative IPC: 1.01452 (Simulation time: 0 hr 10 min 19 sec) 
Heartbeat CPU 0 instructions: 360000000 cycles: 300278578 heartbeat IPC: 1.01919 cumulative IPC: 1.0147 (Simulation time: 0 hr 10 min 37 sec) 
Heartbeat CPU 0 instructions: 370000000 cycles: 309885692 heartbeat IPC: 1.0409 cumulative IPC: 1.01565 (Simulation time: 0 hr 10 min 56 sec) 
Heartbeat CPU 0 instructions: 380000000 cycles: 319366484 heartbeat IPC: 1.05476 cumulative IPC: 1.017 (Simulation time: 0 hr 11 min 14 sec) 
Heartbeat CPU 0 instructions: 390000002 cycles: 328639649 heartbeat IPC: 1.07838 cumulative IPC: 1.019 (Simulation time: 0 hr 11 min 33 sec) 
Heartbeat CPU 0 instructions: 400000000 cycles: 338333252 heartbeat IPC: 1.03161 cumulative IPC: 1.01941 (Simulation time: 0 hr 11 min 52 sec) 
Heartbeat CPU 0 instructions: 410000000 cycles: 347474660 heartbeat IPC: 1.09392 cumulative IPC: 1.02166 (Simulation time: 0 hr 12 min 10 sec) 
Heartbeat CPU 0 instructions: 420000000 cycles: 358425594 heartbeat IPC: 0.913164 cumulative IPC: 1.01788 (Simulation time: 0 hr 12 min 30 sec) 
Heartbeat CPU 0 instructions: 430000000 cycles: 369254749 heartbeat IPC: 0.923433 cumulative IPC: 1.01473 (Simulation time: 0 hr 12 min 49 sec) 
Heartbeat CPU 0 instructions: 440000000 cycles: 379240557 heartbeat IPC: 1.00142 cumulative IPC: 1.01434 (Simulation time: 0 hr 13 min 7 sec) 
Heartbeat CPU 0 instructions: 450000000 cycles: 389150597 heartbeat IPC: 1.00908 cumulative IPC: 1.01418 (Simulation time: 0 hr 13 min 26 sec) 
Heartbeat CPU 0 instructions: 460000000 cycles: 399009299 heartbeat IPC: 1.01433 cumulative IPC: 1.01419 (Simulation time: 0 hr 13 min 44 sec) 
Heartbeat CPU 0 instructions: 470000001 cycles: 408947630 heartbeat IPC: 1.00621 cumulative IPC: 1.01397 (Simulation time: 0 hr 14 min 3 sec) 
Heartbeat CPU 0 instructions: 480000000 cycles: 418356452 heartbeat IPC: 1.06283 cumulative IPC: 1.0152 (Simulation time: 0 hr 14 min 21 sec) 
Heartbeat CPU 0 instructions: 490000000 cycles: 428243722 heartbeat IPC: 1.0114 cumulative IPC: 1.0151 (Simulation time: 0 hr 14 min 40 sec) 
Heartbeat CPU 0 instructions: 500000000 cycles: 437764885 heartbeat IPC: 1.05029 cumulative IPC: 1.01595 (Simulation time: 0 hr 14 min 58 sec) 
Heartbeat CPU 0 instructions: 510000000 cycles: 447088330 heartbeat IPC: 1.07256 cumulative IPC: 1.01726 (Simulation time: 0 hr 15 min 17 sec) 
Heartbeat CPU 0 instructions: 520000000 cycles: 456658416 heartbeat IPC: 1.04492 cumulative IPC: 1.0179 (Simulation time: 0 hr 15 min 35 sec) 
Heartbeat CPU 0 instructions: 530000001 cycles: 466965796 heartbeat IPC: 0.970179 cumulative IPC: 1.01674 (Simulation time: 0 hr 15 min 54 sec) 
Heartbeat CPU 0 instructions: 540000000 cycles: 477442035 heartbeat IPC: 0.954541 cumulative IPC: 1.01524 (Simulation time: 0 hr 16 min 13 sec) 
Heartbeat CPU 0 instructions: 550000003 cycles: 487467469 heartbeat IPC: 0.997463 cumulative IPC: 1.01484 (Simulation time: 0 hr 16 min 31 sec) 
Heartbeat CPU 0 instructions: 560000000 cycles: 497262104 heartbeat IPC: 1.02097 cumulative IPC: 1.01497 (Simulation time: 0 hr 16 min 50 sec) 
Heartbeat CPU 0 instructions: 570000002 cycles: 506900101 heartbeat IPC: 1.03756 cumulative IPC: 1.01544 (Simulation time: 0 hr 17 min 8 sec) 
Heartbeat CPU 0 instructions: 580000000 cycles: 516375233 heartbeat IPC: 1.05539 cumulative IPC: 1.01624 (Simulation time: 0 hr 17 min 26 sec) 
Heartbeat CPU 0 instructions: 590000001 cycles: 526192333 heartbeat IPC: 1.01863 cumulative IPC: 1.01629 (Simulation time: 0 hr 17 min 43 sec) 
Heartbeat CPU 0 instructions: 600000000 cycles: 535618657 heartbeat IPC: 1.06086 cumulative IPC: 1.01714 (Simulation time: 0 hr 18 min 1 sec) 
Finished CPU 0 instructions: 500000000 cycles: 491573017 cumulative IPC: 1.01714 (Simulation time: 0 hr 18 min 1 sec) 

CPU 0 Branch Prediction Accuracy: 97.8526% MPKI: 2.66709
Number of Branches: 62099103 Number of Mispredictions: 1333545
Number of LOAD Instructions: 210576465
Number of LOAD Instructions (ROI): 210576465
Number of STORE Instructions: 16915507
Number of STORE Instructions (ROI): 16915507
Total Destination Memory Operands: 16918869
Total Destination Memory Operands (ROI): 16918869
Total Source Memory Operands: 210576465
Total Source Memory Operands (ROI): 210576465
Number of DEPENDED LOADS: 344966
Number of DEPENDED LOADS (ROI): 344966
Number of SQ_ADDED: 16918826
Number of SQ_ADDED (ROI): 16918826
Number of LQ_ADDED: 210609092
Number of LQ_ADDED (ROI): 210609092
Number of Instructions read from trace: 600000257

ChampSim completed all CPUs

Region of Interest Statistics

CPU 0 cumulative IPC: 1.01714 instructions: 500000000 cycles: 491573017
ITLB TOTAL     ACCESS:   76326499  HIT:   76326461  MISS:         38
ITLB LOAD      ACCESS:   76326499  HIT:   76326461  MISS:         38
ITLB RFO       ACCESS:          0  HIT:          0  MISS:          0
ITLB PREFETCH  ACCESS:          0  HIT:          0  MISS:          0
ITLB WRITEBACK ACCESS:          0  HIT:          0  MISS:          0
ITLB PREFETCH  REQUESTED:          0  ISSUED:          0  USEFUL:          0  USELESS:          0
ITLB TOTAL MSHR MERGED:         37
ITLB LOAD MSHR MERGED:         37
ITLB RFO MSHR MERGED:          0
ITLB PREFETCH MSHR MERGED:          0
ITLB WRITEBACK MSHR MERGED:          0
ITLB TOTAL ACCESSES:   76326536 HITS:   76326461 MISSES:         75
ITLB LOAD ACCESSES:   76326536 HITS:   76326461 MISSES:         75
ITLB RFO ACCESSES:          0 HITS:          0 MISSES:          0
ITLB PREFETCH ACCESSES:          0 HITS:          0 MISSES:          0
ITLB WRITEBACK ACCESSES:          0 HITS:          0 MISSES:          0
ITLB RQ ACCESS:  500000188
ITLB RQ TO_CACHE:   76326537
ITLB RQ MERGED:  423673651
ITLB RQ FORWARD:          0
ITLB WQ ACCESS:          0
ITLB WQ TO_CACHE:          0
ITLB WQ MERGED:          0
ITLB WQ FORWARD:          0
DTLB TOTAL     ACCESS:  136758828  HIT:  136556033  MISS:     202795
DTLB LOAD      ACCESS:  128696514  HIT:  128496440  MISS:     200074
DTLB RFO       ACCESS:    8062314  HIT:    8059593  MISS:       2721
DTLB PREFETCH  ACCESS:          0  HIT:          0  MISS:          0
DTLB WRITEBACK ACCESS:          0  HIT:          0  MISS:          0
DTLB PREFETCH  REQUESTED:          0  ISSUED:          0  USEFUL:          0  USELESS:          0
DTLB TOTAL MSHR MERGED:     447600
DTLB LOAD MSHR MERGED:     443935
DTLB RFO MSHR MERGED:       3665
DTLB PREFETCH MSHR MERGED:          0
DTLB WRITEBACK MSHR MERGED:          0
DTLB TOTAL ACCESSES:  137206428 HITS:  136556033 MISSES:     650395
DTLB LOAD ACCESSES:  129140449 HITS:  128496440 MISSES:     644009
DTLB RFO ACCESSES:    8065979 HITS:    8059593 MISSES:       6386
DTLB PREFETCH ACCESSES:          0 HITS:          0 MISSES:          0
DTLB WRITEBACK ACCESSES:          0 HITS:          0 MISSES:          0
DTLB RQ ACCESS:  189419594
DTLB RQ TO_CACHE:  137206428
DTLB RQ MERGED:   52213166
DTLB RQ FORWARD:          0
DTLB WQ ACCESS:          0
DTLB WQ TO_CACHE:          0
DTLB WQ MERGED:          0
DTLB WQ FORWARD:          0
L1D TOTAL     ACCESS:  125322891  HIT:  107765959  MISS:   17556932
L1D LOAD      ACCESS:   72311586  HIT:   62045465  MISS:   10266121
L1D RFO       ACCESS:   14014338  HIT:   13861501  MISS:     152837
L1D PREFETCH  ACCESS:   38996967  HIT:   31858993  MISS:    7137974
L1D WRITEBACK ACCESS:          0  HIT:          0  MISS:          0
L1D PREFETCH  REQUESTED:   85505654  ISSUED:   84184336  USEFUL:    5878620  USELESS:    1259365
L1D TOTAL MSHR MERGED:   31556648
L1D LOAD MSHR MERGED:   18349946
L1D RFO MSHR MERGED:     266505
L1D PREFETCH MSHR MERGED:   12940197
L1D WRITEBACK MSHR MERGED:          0
L1D TOTAL ACCESSES:  156880049 HITS:  107766470 MISSES:   49113579
L1D LOAD ACCESSES:   85505674 HITS:   62045485 MISSES:   23460189
L1D RFO ACCESSES:   14280817 HITS:   13861501 MISSES:     419316
L1D PREFETCH ACCESSES:   57093558 HITS:   31859484 MISSES:   25234074
L1D WRITEBACK ACCESSES:          0 HITS:          0 MISSES:          0
L1D RQ ACCESS:  175130572
L1D RQ TO_CACHE:   85505654
L1D RQ MERGED:   89624898
L1D RQ FORWARD:          0
L1D WQ ACCESS:   14289037
L1D WQ TO_CACHE:   14280817
L1D WQ MERGED:       8220
L1D WQ FORWARD:        511
L1I TOTAL     ACCESS:   93353585  HIT:   93351789  MISS:       1796
L1I LOAD      ACCESS:   93353585  HIT:   93351789  MISS:       1796
L1I RFO       ACCESS:          0  HIT:          0  MISS:          0
L1I PREFETCH  ACCESS:          0  HIT:          0  MISS:          0
L1I WRITEBACK ACCESS:          0  HIT:          0  MISS:          0
L1I PREFETCH  REQUESTED:          0  ISSUED:          0  USEFUL:          0  USELESS:          0
L1I TOTAL MSHR MERGED:       2309
L1I LOAD MSHR MERGED:       2309
L1I RFO MSHR MERGED:          0
L1I PREFETCH MSHR MERGED:          0
L1I WRITEBACK MSHR MERGED:          0
L1I TOTAL ACCESSES:   93355894 HITS:   93351789 MISSES:       4105
L1I LOAD ACCESSES:   93355894 HITS:   93351789 MISSES:       4105
L1I RFO ACCESSES:          0 HITS:          0 MISSES:          0
L1I PREFETCH ACCESSES:          0 HITS:          0 MISSES:          0
L1I WRITEBACK ACCESSES:          0 HITS:          0 MISSES:          0
L1I RQ ACCESS:  500000187
L1I RQ TO_CACHE:   93355894
L1I RQ MERGED:  406644293
L1I RQ FORWARD:          0
L1I WQ ACCESS:          0
L1I WQ TO_CACHE:          0
L1I WQ MERGED:          0
L1I WQ FORWARD:          0
L2C TOTAL     ACCESS:   20900134  HIT:    8670939  MISS:   12229195
L2C LOAD      ACCESS:    5112018  HIT:    2145248  MISS:    2966770
L2C RFO       ACCESS:     152811  HIT:       6517  MISS:     146294
L2C PREFETCH  ACCESS:   13862552  HIT:    4746530  MISS:    9116022
L2C WRITEBACK ACCESS:    1772753  HIT:    1772644  MISS:        109
L2C PREFETCH  REQUESTED:    1807136  ISSUED:    1807136  USEFUL:    1065936  USELESS:    8051734
L2C TOTAL MSHR MERGED:      96319
L2C LOAD MSHR MERGED:      22277
L2C RFO MSHR MERGED:          0
L2C PREFETCH MSHR MERGED:      74042
L2C WRITEBACK MSHR MERGED:          0
L2C TOTAL ACCESSES:   21020891 HITS:    8670980 MISSES:   12349911
L2C LOAD ACCESSES:    5112039 HITS:    2145269 MISSES:    2966770
L2C RFO ACCESSES:     152811 HITS:       6517 MISSES:     146294
L2C PREFETCH ACCESSES:   13983288 HITS:    4746550 MISSES:    9236738
L2C WRITEBACK ACCESSES:    1772753 HITS:    1772644 MISSES:        109
L2C RQ ACCESS:    5264850
L2C RQ TO_CACHE:    5264829
L2C RQ MERGED:          0
L2C RQ FORWARD:          0
L2C WQ ACCESS:    1772753
L2C WQ TO_CACHE:    1772753
L2C WQ MERGED:          0
L2C WQ FORWARD:         41
LLC TOTAL     ACCESS:   12533555  HIT:    6695103  MISS:    5838452
LLC LOAD      ACCESS:    2944472  HIT:    2439160  MISS:     505312
LLC RFO       ACCESS:     146294  HIT:      68476  MISS:      77818
LLC PREFETCH  ACCESS:    9156803  HIT:    3962471  MISS:    5194332
LLC WRITEBACK ACCESS:     285986  HIT:     224996  MISS:      60990
LLC PREFETCH  REQUESTED:          0  ISSUED:          0  USEFUL:      10294  USELESS:    5183942
LLC TOTAL MSHR MERGED:       1655
LLC LOAD MSHR MERGED:        363
LLC RFO MSHR MERGED:          0
LLC PREFETCH MSHR MERGED:       1292
LLC WRITEBACK MSHR MERGED:          0
LLC TOTAL ACCESSES:   12535242 HITS:    6695135 MISSES:    5840107
LLC LOAD ACCESSES:    2944493 HITS:    2439181 MISSES:     505312
LLC RFO ACCESSES:     146294 HITS:      68476 MISSES:      77818
LLC PREFETCH ACCESSES:    9158469 HITS:    3962482 MISSES:    5195987
LLC WRITEBACK ACCESSES:     285986 HITS:     224996 MISSES:      60990
LLC 0 RQ ACCESS:    3090787
LLC 0 RQ TO_CACHE:    3090766
LLC 0 RQ MERGED:          0
LLC 0 RQ FORWARD:          0
LLC WQ ACCESS:     285986
LLC WQ TO_CACHE:     285986
LLC WQ MERGED:          0
LLC WQ FORWARD:         32
Major fault: 0 Minor fault: 6524
CPU 0 L1D next line prefetcher final stats
CPU 0 L2C PC-based stride prefetcher final stats
All Misses: 7640550
All Hits: 7418018
SD Algo Stats - Switches: 0 SRR-Repls: 537865 BRR-Repls: 0

DRAM Statistics
 CHANNEL 0
 RQ ROW_BUFFER_HIT:    4935339  ROW_BUFFER_MISS:     831807
 DBUS_CONGESTED:    2077442
 WQ ROW_BUFFER_HIT:      16697  ROW_BUFFER_MISS:      85261  FULL:          0

 AVG_CONGESTED_CYCLE: 12
LOADS RETIRED: 175418235
INSTR RETIRED: 500000000
