
*** ChampSim Multicore Out-of-Order Simulator ***

Warmup Instructions: 100000000
Simulation Instructions: 500000000
Number of CPUs: 1
LLC sets: 2048
LLC ways: 16
Clean RRIP Policies: 2213230222132302 Dirty RRIP Policies: 2203130222031302 PSEL Width: 10 Track Set: 4294967295 PSEL Mask: 1 Demote Mask: 3140100031401000DS Algo: 0Window size: 0
Off-chip DRAM Size: 4096 MB Channels: 1 Width: 64-bit Data Rate: 1600 MT/s

CPU 0 runs /mnt/beegfs/iconst01/spec2017/Fotonik3d.trace.gz
NOT SORTED
TRACE STRING: /mnt/beegfs/iconst01/spec2017/Fotonik3d.trace.gz
SORTED
TRACE STRING: /mnt/beegfs/iconst01/spec2017/Fotonik3d.trace.gz
INITIAL
TRACE STRING: /mnt/beegfs/iconst01/spec2017/Fotonik3d.trace.gz

champsim_seed used: 881

CPU 0 L1D next line prefetcher
CPU 0 L2C IP-based stride prefetcher
Initialize DRRIP state
Assign rand_sets[0]: 454  LLC: 2048
rand_sets[0]: 454
Assign rand_sets[1]: 1662  LLC: 2048
rand_sets[1]: 1662
Assign rand_sets[2]: 1921  LLC: 2048
rand_sets[2]: 1921
Assign rand_sets[3]: 1131  LLC: 2048
rand_sets[3]: 1131
Assign rand_sets[4]: 331  LLC: 2048
rand_sets[4]: 331
Assign rand_sets[5]: 1531  LLC: 2048
rand_sets[5]: 1531
Assign rand_sets[6]: 482  LLC: 2048
rand_sets[6]: 482
Assign rand_sets[7]: 1275  LLC: 2048
rand_sets[7]: 1275
Assign rand_sets[8]: 1876  LLC: 2048
rand_sets[8]: 1876
Assign rand_sets[9]: 2038  LLC: 2048
rand_sets[9]: 2038
Assign rand_sets[10]: 701  LLC: 2048
rand_sets[10]: 701
Assign rand_sets[11]: 479  LLC: 2048
rand_sets[11]: 479
Assign rand_sets[12]: 892  LLC: 2048
rand_sets[12]: 892
Assign rand_sets[13]: 1820  LLC: 2048
rand_sets[13]: 1820
Assign rand_sets[14]: 1505  LLC: 2048
rand_sets[14]: 1505
Assign rand_sets[15]: 1159  LLC: 2048
rand_sets[15]: 1159
Assign rand_sets[16]: 513  LLC: 2048
rand_sets[16]: 513
Assign rand_sets[17]: 703  LLC: 2048
rand_sets[17]: 703
Assign rand_sets[18]: 561  LLC: 2048
rand_sets[18]: 561
Assign rand_sets[19]: 990  LLC: 2048
rand_sets[19]: 990
Assign rand_sets[20]: 342  LLC: 2048
rand_sets[20]: 342
Assign rand_sets[21]: 882  LLC: 2048
rand_sets[21]: 882
Assign rand_sets[22]: 15  LLC: 2048
rand_sets[22]: 15
Assign rand_sets[23]: 71  LLC: 2048
rand_sets[23]: 71
Assign rand_sets[24]: 1127  LLC: 2048
rand_sets[24]: 1127
Assign rand_sets[25]: 1382  LLC: 2048
rand_sets[25]: 1382
Assign rand_sets[26]: 647  LLC: 2048
rand_sets[26]: 647
Assign rand_sets[27]: 857  LLC: 2048
rand_sets[27]: 857
Assign rand_sets[28]: 1450  LLC: 2048
rand_sets[28]: 1450
Assign rand_sets[29]: 1160  LLC: 2048
rand_sets[29]: 1160
Assign rand_sets[30]: 1852  LLC: 2048
rand_sets[30]: 1852
Assign rand_sets[31]: 1881  LLC: 2048
rand_sets[31]: 1881
Assign rand_sets[32]: 1770  LLC: 2048
rand_sets[32]: 1770
Assign rand_sets[33]: 1622  LLC: 2048
rand_sets[33]: 1622
Assign rand_sets[34]: 275  LLC: 2048
rand_sets[34]: 275
Assign rand_sets[35]: 635  LLC: 2048
rand_sets[35]: 635
Assign rand_sets[36]: 466  LLC: 2048
rand_sets[36]: 466
Assign rand_sets[37]: 1413  LLC: 2048
rand_sets[37]: 1413
Assign rand_sets[38]: 417  LLC: 2048
rand_sets[38]: 417
Assign rand_sets[39]: 472  LLC: 2048
rand_sets[39]: 472
Assign rand_sets[40]: 1340  LLC: 2048
rand_sets[40]: 1340
Assign rand_sets[41]: 852  LLC: 2048
rand_sets[41]: 852
Assign rand_sets[42]: 1365  LLC: 2048
rand_sets[42]: 1365
Assign rand_sets[43]: 47  LLC: 2048
rand_sets[43]: 47
Assign rand_sets[44]: 823  LLC: 2048
rand_sets[44]: 823
Assign rand_sets[45]: 686  LLC: 2048
rand_sets[45]: 686
Assign rand_sets[46]: 1637  LLC: 2048
rand_sets[46]: 1637
Assign rand_sets[47]: 1115  LLC: 2048
rand_sets[47]: 1115
Assign rand_sets[48]: 986  LLC: 2048
rand_sets[48]: 986
Assign rand_sets[49]: 258  LLC: 2048
rand_sets[49]: 258
Assign rand_sets[50]: 633  LLC: 2048
rand_sets[50]: 633
Assign rand_sets[51]: 920  LLC: 2048
rand_sets[51]: 920
Assign rand_sets[52]: 204  LLC: 2048
rand_sets[52]: 204
Assign rand_sets[53]: 227  LLC: 2048
rand_sets[53]: 227
Assign rand_sets[54]: 1818  LLC: 2048
rand_sets[54]: 1818
Assign rand_sets[55]: 886  LLC: 2048
rand_sets[55]: 886
Assign rand_sets[56]: 1422  LLC: 2048
rand_sets[56]: 1422
Assign rand_sets[57]: 607  LLC: 2048
rand_sets[57]: 607
Assign rand_sets[58]: 217  LLC: 2048
rand_sets[58]: 217
Assign rand_sets[59]: 1945  LLC: 2048
rand_sets[59]: 1945
Assign rand_sets[60]: 143  LLC: 2048
rand_sets[60]: 143
Assign rand_sets[61]: 1311  LLC: 2048
rand_sets[61]: 1311
Assign rand_sets[62]: 319  LLC: 2048
rand_sets[62]: 319
Assign rand_sets[63]: 1846  LLC: 2048
rand_sets[63]: 1846
 CLEAN-RRIP-POLICY-1: 2-2-1-3-2-3-0-2- CLEAN-RRIP-POLICY-2: 2-2-1-3-2-3-0-2-
 DIRTY-RRIP-POLICY-1: 2-2-0-3-1-3-0-2- DIRTY-RRIP-POLICY-2: 2-2-0-3-1-3-0-2-
 PSEL width: 10
Heartbeat CPU 0 instructions: 10000002 cycles: 7306837 heartbeat IPC: 1.36858 cumulative IPC: 1.36858 (Simulation time: 0 hr 0 min 25 sec) 
Heartbeat CPU 0 instructions: 20000000 cycles: 14613816 heartbeat IPC: 1.36855 cumulative IPC: 1.36857 (Simulation time: 0 hr 0 min 50 sec) 
Heartbeat CPU 0 instructions: 30000001 cycles: 21920657 heartbeat IPC: 1.36858 cumulative IPC: 1.36857 (Simulation time: 0 hr 1 min 15 sec) 
Heartbeat CPU 0 instructions: 40000000 cycles: 29227414 heartbeat IPC: 1.3686 cumulative IPC: 1.36858 (Simulation time: 0 hr 1 min 40 sec) 
Heartbeat CPU 0 instructions: 50000001 cycles: 36534144 heartbeat IPC: 1.3686 cumulative IPC: 1.36858 (Simulation time: 0 hr 2 min 5 sec) 
Heartbeat CPU 0 instructions: 60000000 cycles: 43841103 heartbeat IPC: 1.36856 cumulative IPC: 1.36858 (Simulation time: 0 hr 2 min 31 sec) 
Heartbeat CPU 0 instructions: 70000002 cycles: 51147864 heartbeat IPC: 1.3686 cumulative IPC: 1.36858 (Simulation time: 0 hr 2 min 56 sec) 
Heartbeat CPU 0 instructions: 80000000 cycles: 58454599 heartbeat IPC: 1.3686 cumulative IPC: 1.36858 (Simulation time: 0 hr 3 min 21 sec) 
Heartbeat CPU 0 instructions: 90000003 cycles: 65765129 heartbeat IPC: 1.36789 cumulative IPC: 1.36851 (Simulation time: 0 hr 3 min 47 sec) 
Heartbeat CPU 0 instructions: 100000000 cycles: 73075773 heartbeat IPC: 1.36787 cumulative IPC: 1.36844 (Simulation time: 0 hr 4 min 12 sec) 

Warmup complete CPU 0 instructions: 100000002 cycles: 73075785 (Simulation time: 0 hr 4 min 12 sec) 

Heartbeat CPU 0 instructions: 110000001 cycles: 85549077 heartbeat IPC: 0.801712 cumulative IPC: 0.801713 (Simulation time: 0 hr 4 min 42 sec) 
Heartbeat CPU 0 instructions: 120000000 cycles: 97970277 heartbeat IPC: 0.805075 cumulative IPC: 0.803391 (Simulation time: 0 hr 5 min 13 sec) 
Heartbeat CPU 0 instructions: 130000000 cycles: 110467062 heartbeat IPC: 0.800206 cumulative IPC: 0.802326 (Simulation time: 0 hr 5 min 43 sec) 
Heartbeat CPU 0 instructions: 140000000 cycles: 122917241 heartbeat IPC: 0.803201 cumulative IPC: 0.802545 (Simulation time: 0 hr 6 min 13 sec) 
Heartbeat CPU 0 instructions: 150000000 cycles: 135326819 heartbeat IPC: 0.805829 cumulative IPC: 0.803199 (Simulation time: 0 hr 6 min 43 sec) 
Heartbeat CPU 0 instructions: 160000000 cycles: 147786575 heartbeat IPC: 0.802584 cumulative IPC: 0.803097 (Simulation time: 0 hr 7 min 14 sec) 
Heartbeat CPU 0 instructions: 170000001 cycles: 160266933 heartbeat IPC: 0.801259 cumulative IPC: 0.802834 (Simulation time: 0 hr 7 min 44 sec) 
Heartbeat CPU 0 instructions: 180000000 cycles: 172728780 heartbeat IPC: 0.802449 cumulative IPC: 0.802786 (Simulation time: 0 hr 8 min 14 sec) 
Heartbeat CPU 0 instructions: 190000000 cycles: 185215343 heartbeat IPC: 0.800861 cumulative IPC: 0.802571 (Simulation time: 0 hr 8 min 44 sec) 
Heartbeat CPU 0 instructions: 200000000 cycles: 197656988 heartbeat IPC: 0.803752 cumulative IPC: 0.802689 (Simulation time: 0 hr 9 min 15 sec) 
Heartbeat CPU 0 instructions: 210000002 cycles: 210148837 heartbeat IPC: 0.800522 cumulative IPC: 0.802492 (Simulation time: 0 hr 9 min 45 sec) 
Heartbeat CPU 0 instructions: 220000000 cycles: 222654228 heartbeat IPC: 0.799655 cumulative IPC: 0.802255 (Simulation time: 0 hr 10 min 15 sec) 
Heartbeat CPU 0 instructions: 230000002 cycles: 235105141 heartbeat IPC: 0.803154 cumulative IPC: 0.802324 (Simulation time: 0 hr 10 min 45 sec) 
Heartbeat CPU 0 instructions: 240000000 cycles: 248295744 heartbeat IPC: 0.758115 cumulative IPC: 0.798996 (Simulation time: 0 hr 11 min 16 sec) 
Heartbeat CPU 0 instructions: 250000001 cycles: 265705780 heartbeat IPC: 0.574381 cumulative IPC: 0.778695 (Simulation time: 0 hr 11 min 49 sec) 
Heartbeat CPU 0 instructions: 260000000 cycles: 283054248 heartbeat IPC: 0.57642 cumulative IPC: 0.761983 (Simulation time: 0 hr 12 min 22 sec) 
Heartbeat CPU 0 instructions: 270000000 cycles: 300469753 heartbeat IPC: 0.574201 cumulative IPC: 0.747601 (Simulation time: 0 hr 12 min 55 sec) 
Heartbeat CPU 0 instructions: 280000000 cycles: 317849784 heartbeat IPC: 0.575373 cumulative IPC: 0.735372 (Simulation time: 0 hr 13 min 28 sec) 
Heartbeat CPU 0 instructions: 290000001 cycles: 346519428 heartbeat IPC: 0.348801 cumulative IPC: 0.694842 (Simulation time: 0 hr 14 min 9 sec) 
Heartbeat CPU 0 instructions: 300000000 cycles: 383584952 heartbeat IPC: 0.269792 cumulative IPC: 0.644103 (Simulation time: 0 hr 14 min 55 sec) 
Heartbeat CPU 0 instructions: 310000000 cycles: 400325250 heartbeat IPC: 0.597361 cumulative IPC: 0.641712 (Simulation time: 0 hr 15 min 27 sec) 
Heartbeat CPU 0 instructions: 320000000 cycles: 417072693 heartbeat IPC: 0.597106 cumulative IPC: 0.639541 (Simulation time: 0 hr 15 min 59 sec) 
Heartbeat CPU 0 instructions: 330000003 cycles: 433888425 heartbeat IPC: 0.594681 cumulative IPC: 0.63745 (Simulation time: 0 hr 16 min 30 sec) 
Heartbeat CPU 0 instructions: 340000000 cycles: 450650744 heartbeat IPC: 0.596576 cumulative IPC: 0.635635 (Simulation time: 0 hr 17 min 2 sec) 
Heartbeat CPU 0 instructions: 350000001 cycles: 465575770 heartbeat IPC: 0.670016 cumulative IPC: 0.636943 (Simulation time: 0 hr 17 min 31 sec) 
Heartbeat CPU 0 instructions: 360000000 cycles: 477481810 heartbeat IPC: 0.83991 cumulative IPC: 0.642918 (Simulation time: 0 hr 17 min 58 sec) 
Heartbeat CPU 0 instructions: 370000002 cycles: 489127061 heartbeat IPC: 0.858719 cumulative IPC: 0.648958 (Simulation time: 0 hr 18 min 26 sec) 
Heartbeat CPU 0 instructions: 380000000 cycles: 501008901 heartbeat IPC: 0.84162 cumulative IPC: 0.654308 (Simulation time: 0 hr 18 min 53 sec) 
Heartbeat CPU 0 instructions: 390000003 cycles: 514341829 heartbeat IPC: 0.750023 cumulative IPC: 0.6572 (Simulation time: 0 hr 19 min 21 sec) 
Heartbeat CPU 0 instructions: 400000000 cycles: 526609693 heartbeat IPC: 0.815138 cumulative IPC: 0.661472 (Simulation time: 0 hr 19 min 49 sec) 
Heartbeat CPU 0 instructions: 410000003 cycles: 538595407 heartbeat IPC: 0.834327 cumulative IPC: 0.665923 (Simulation time: 0 hr 20 min 17 sec) 
Heartbeat CPU 0 instructions: 420000000 cycles: 551448287 heartbeat IPC: 0.778036 cumulative IPC: 0.668935 (Simulation time: 0 hr 20 min 44 sec) 
Heartbeat CPU 0 instructions: 430000003 cycles: 570059490 heartbeat IPC: 0.537311 cumulative IPC: 0.664006 (Simulation time: 0 hr 21 min 10 sec) 
Heartbeat CPU 0 instructions: 440000000 cycles: 588662578 heartbeat IPC: 0.537545 cumulative IPC: 0.659443 (Simulation time: 0 hr 21 min 35 sec) 
Heartbeat CPU 0 instructions: 450000003 cycles: 607297166 heartbeat IPC: 0.536637 cumulative IPC: 0.655159 (Simulation time: 0 hr 22 min 0 sec) 
Heartbeat CPU 0 instructions: 460000000 cycles: 625909812 heartbeat IPC: 0.537269 cumulative IPC: 0.65119 (Simulation time: 0 hr 22 min 25 sec) 
Heartbeat CPU 0 instructions: 470000003 cycles: 644527328 heartbeat IPC: 0.537129 cumulative IPC: 0.647474 (Simulation time: 0 hr 22 min 50 sec) 
Heartbeat CPU 0 instructions: 480000000 cycles: 663159895 heartbeat IPC: 0.536695 cumulative IPC: 0.643976 (Simulation time: 0 hr 23 min 16 sec) 
Heartbeat CPU 0 instructions: 490000003 cycles: 681790915 heartbeat IPC: 0.536739 cumulative IPC: 0.640694 (Simulation time: 0 hr 23 min 41 sec) 
Heartbeat CPU 0 instructions: 500000000 cycles: 700384312 heartbeat IPC: 0.537825 cumulative IPC: 0.637645 (Simulation time: 0 hr 24 min 6 sec) 
Heartbeat CPU 0 instructions: 510000003 cycles: 719014559 heartbeat IPC: 0.536762 cumulative IPC: 0.634735 (Simulation time: 0 hr 24 min 31 sec) 
Heartbeat CPU 0 instructions: 520000000 cycles: 737613171 heartbeat IPC: 0.537674 cumulative IPC: 0.632019 (Simulation time: 0 hr 24 min 57 sec) 
Heartbeat CPU 0 instructions: 530000001 cycles: 756240229 heartbeat IPC: 0.536853 cumulative IPC: 0.629424 (Simulation time: 0 hr 25 min 22 sec) 
Heartbeat CPU 0 instructions: 540000000 cycles: 774800486 heartbeat IPC: 0.538786 cumulative IPC: 0.627026 (Simulation time: 0 hr 25 min 47 sec) 
Heartbeat CPU 0 instructions: 550000001 cycles: 793367713 heartbeat IPC: 0.538583 cumulative IPC: 0.624747 (Simulation time: 0 hr 26 min 12 sec) 
Heartbeat CPU 0 instructions: 560000000 cycles: 811944077 heartbeat IPC: 0.538318 cumulative IPC: 0.622574 (Simulation time: 0 hr 26 min 38 sec) 
Heartbeat CPU 0 instructions: 570000001 cycles: 830491465 heartbeat IPC: 0.53916 cumulative IPC: 0.620531 (Simulation time: 0 hr 27 min 3 sec) 
Heartbeat CPU 0 instructions: 580000000 cycles: 848981261 heartbeat IPC: 0.540839 cumulative IPC: 0.618632 (Simulation time: 0 hr 27 min 28 sec) 
Heartbeat CPU 0 instructions: 590000001 cycles: 867540059 heartbeat IPC: 0.538828 cumulative IPC: 0.616768 (Simulation time: 0 hr 27 min 53 sec) 
Heartbeat CPU 0 instructions: 600000000 cycles: 886138126 heartbeat IPC: 0.53769 cumulative IPC: 0.614959 (Simulation time: 0 hr 28 min 18 sec) 
Finished CPU 0 instructions: 500000002 cycles: 813062355 cumulative IPC: 0.614959 (Simulation time: 0 hr 28 min 18 sec) 

CPU 0 Branch Prediction Accuracy: 99.5931% MPKI: 0.08288
Number of Branches: 10184133 Number of Mispredictions: 41440
Number of LOAD Instructions: 261155957
Number of LOAD Instructions (ROI): 261155957
Number of STORE Instructions: 57884062
Number of STORE Instructions (ROI): 57884062
Total Destination Memory Operands: 83293336
Total Destination Memory Operands (ROI): 83293336
Total Source Memory Operands: 261155957
Total Source Memory Operands (ROI): 261155957
Number of DEPENDED LOADS: 22256425
Number of DEPENDED LOADS (ROI): 22256425
Number of SQ_ADDED: 83293300
Number of SQ_ADDED (ROI): 83293300
Number of LQ_ADDED: 1773043892
Number of LQ_ADDED (ROI): 1773043892
Number of Instructions read from trace: 600000257

ChampSim completed all CPUs

Region of Interest Statistics

CPU 0 cumulative IPC: 0.614959 instructions: 500000002 cycles: 813062355
ITLB TOTAL     ACCESS:   94700879  HIT:   94700841  MISS:         38
ITLB LOAD      ACCESS:   94700879  HIT:   94700841  MISS:         38
ITLB RFO       ACCESS:          0  HIT:          0  MISS:          0
ITLB PREFETCH  ACCESS:          0  HIT:          0  MISS:          0
ITLB WRITEBACK ACCESS:          0  HIT:          0  MISS:          0
ITLB PREFETCH  REQUESTED:          0  ISSUED:          0  USEFUL:          0  USELESS:          0
ITLB TOTAL MSHR MERGED:         93
ITLB LOAD MSHR MERGED:         93
ITLB RFO MSHR MERGED:          0
ITLB PREFETCH MSHR MERGED:          0
ITLB WRITEBACK MSHR MERGED:          0
ITLB TOTAL ACCESSES:   94700972 HITS:   94700841 MISSES:        131
ITLB LOAD ACCESSES:   94700972 HITS:   94700841 MISSES:        131
ITLB RFO ACCESSES:          0 HITS:          0 MISSES:          0
ITLB PREFETCH ACCESSES:          0 HITS:          0 MISSES:          0
ITLB WRITEBACK ACCESSES:          0 HITS:          0 MISSES:          0
ITLB RQ ACCESS:  500000001
ITLB RQ TO_CACHE:   94700973
ITLB RQ MERGED:  405299028
ITLB RQ FORWARD:          0
ITLB WQ ACCESS:          0
ITLB WQ TO_CACHE:          0
ITLB WQ MERGED:          0
ITLB WQ FORWARD:          0
DTLB TOTAL     ACCESS:  149186661  HIT:  148589701  MISS:     596960
DTLB LOAD      ACCESS:  107314258  HIT:  106717309  MISS:     596949
DTLB RFO       ACCESS:   41872403  HIT:   41872392  MISS:         11
DTLB PREFETCH  ACCESS:          0  HIT:          0  MISS:          0
DTLB WRITEBACK ACCESS:          0  HIT:          0  MISS:          0
DTLB PREFETCH  REQUESTED:          0  ISSUED:          0  USEFUL:          0  USELESS:          0
DTLB TOTAL MSHR MERGED:     134284
DTLB LOAD MSHR MERGED:     134284
DTLB RFO MSHR MERGED:          0
DTLB PREFETCH MSHR MERGED:          0
DTLB WRITEBACK MSHR MERGED:          0
DTLB TOTAL ACCESSES:  149320945 HITS:  148589701 MISSES:     731244
DTLB LOAD ACCESSES:  107448542 HITS:  106717309 MISSES:     731233
DTLB RFO ACCESSES:   41872403 HITS:   41872392 MISSES:         11
DTLB PREFETCH ACCESSES:          0 HITS:          0 MISSES:          0
DTLB WRITEBACK ACCESSES:          0 HITS:          0 MISSES:          0
DTLB RQ ACCESS:  259759469
DTLB RQ TO_CACHE:  149320945
DTLB RQ MERGED:  110438524
DTLB RQ FORWARD:          0
DTLB WQ ACCESS:          0
DTLB WQ TO_CACHE:          0
DTLB WQ MERGED:          0
DTLB WQ FORWARD:          0
L1D TOTAL     ACCESS:  261069876  HIT:  245669499  MISS:   15400377
L1D LOAD      ACCESS:  118066084  HIT:  112566576  MISS:    5499508
L1D RFO       ACCESS:   68946749  HIT:   68932345  MISS:      14404
L1D PREFETCH  ACCESS:   74057043  HIT:   64170578  MISS:    9886465
L1D WRITEBACK ACCESS:          0  HIT:          0  MISS:          0
L1D PREFETCH  REQUESTED:  120652997  ISSUED:  119092299  USEFUL:    8013072  USELESS:    1873415
L1D TOTAL MSHR MERGED:   16503814
L1D LOAD MSHR MERGED:    4997068
L1D RFO MSHR MERGED:      21831
L1D PREFETCH MSHR MERGED:   11484915
L1D WRITEBACK MSHR MERGED:          0
L1D TOTAL ACCESSES:  277683846 HITS:  245779655 MISSES:   31904191
L1D LOAD ACCESSES:  120660524 HITS:  112574103 MISSES:    8086421
L1D RFO ACCESSES:   68968580 HITS:   68932345 MISSES:      36235
L1D PREFETCH ACCESSES:   88054742 HITS:   64273207 MISSES:   23781535
L1D WRITEBACK ACCESSES:          0 HITS:          0 MISSES:          0
L1D RQ ACCESS:  190685153
L1D RQ TO_CACHE:  120652997
L1D RQ MERGED:   70024629
L1D RQ FORWARD:          0
L1D WQ ACCESS:   69074336
L1D WQ TO_CACHE:   68968582
L1D WQ MERGED:     105754
L1D WQ FORWARD:     110156
L1I TOTAL     ACCESS:  121606765  HIT:  121605692  MISS:       1073
L1I LOAD      ACCESS:  121606765  HIT:  121605692  MISS:       1073
L1I RFO       ACCESS:          0  HIT:          0  MISS:          0
L1I PREFETCH  ACCESS:          0  HIT:          0  MISS:          0
L1I WRITEBACK ACCESS:          0  HIT:          0  MISS:          0
L1I PREFETCH  REQUESTED:          0  ISSUED:          0  USEFUL:          0  USELESS:          0
L1I TOTAL MSHR MERGED:       1091
L1I LOAD MSHR MERGED:       1091
L1I RFO MSHR MERGED:          0
L1I PREFETCH MSHR MERGED:          0
L1I WRITEBACK MSHR MERGED:          0
L1I TOTAL ACCESSES:  121607856 HITS:  121605692 MISSES:       2164
L1I LOAD ACCESSES:  121607856 HITS:  121605692 MISSES:       2164
L1I RFO ACCESSES:          0 HITS:          0 MISSES:          0
L1I PREFETCH ACCESSES:          0 HITS:          0 MISSES:          0
L1I WRITEBACK ACCESSES:          0 HITS:          0 MISSES:          0
L1I RQ ACCESS:  500000000
L1I RQ TO_CACHE:  121607856
L1I RQ MERGED:  378392144
L1I RQ FORWARD:          0
L1I WQ ACCESS:          0
L1I WQ TO_CACHE:          0
L1I WQ MERGED:          0
L1I WQ FORWARD:          0
L2C TOTAL     ACCESS:   22471930  HIT:    9150367  MISS:   13321563
L2C LOAD      ACCESS:    3090400  HIT:     416159  MISS:    2674241
L2C RFO       ACCESS:      14404  HIT:      13988  MISS:        416
L2C PREFETCH  ACCESS:   12737191  HIT:    2092077  MISS:   10645114
L2C WRITEBACK ACCESS:    6629935  HIT:    6628143  MISS:       1792
L2C PREFETCH  REQUESTED:     693579  ISSUED:     693579  USEFUL:     185866  USELESS:   10460044
L2C TOTAL MSHR MERGED:      71651
L2C LOAD MSHR MERGED:      22529
L2C RFO MSHR MERGED:          0
L2C PREFETCH MSHR MERGED:      49122
L2C WRITEBACK MSHR MERGED:          0
L2C TOTAL ACCESSES:   22685016 HITS:    9150404 MISSES:   13534612
L2C LOAD ACCESSES:    3090426 HITS:     416185 MISSES:    2674241
L2C RFO ACCESSES:      14404 HITS:      13988 MISSES:        416
L2C PREFETCH ACCESSES:   12950251 HITS:    2092088 MISSES:   10858163
L2C WRITEBACK ACCESSES:    6629935 HITS:    6628143 MISSES:       1792
L2C RQ ACCESS:    3104830
L2C RQ TO_CACHE:    3104804
L2C RQ MERGED:          0
L2C RQ FORWARD:          0
L2C WQ ACCESS:    6629935
L2C WQ TO_CACHE:    6629935
L2C WQ MERGED:          0
L2C WQ FORWARD:         37
LLC TOTAL     ACCESS:   20029654  HIT:    1812799  MISS:   18216855
LLC LOAD      ACCESS:    2651712  HIT:     363933  MISS:    2287779
LLC RFO       ACCESS:        416  HIT:         19  MISS:        397
LLC PREFETCH  ACCESS:   10786293  HIT:     103041  MISS:   10683252
LLC WRITEBACK ACCESS:    6591233  HIT:    1345806  MISS:    5245427
LLC PREFETCH  REQUESTED:          0  ISSUED:          0  USEFUL:      46797  USELESS:   10637473
LLC TOTAL MSHR MERGED:      21266
LLC LOAD MSHR MERGED:       9892
LLC RFO MSHR MERGED:          0
LLC PREFETCH MSHR MERGED:      11374
LLC WRITEBACK MSHR MERGED:          0
LLC TOTAL ACCESSES:   20050922 HITS:    1812801 MISSES:   18238121
LLC LOAD ACCESSES:    2651712 HITS:     363933 MISSES:    2287779
LLC RFO ACCESSES:        416 HITS:         19 MISSES:        397
LLC PREFETCH ACCESSES:   10807561 HITS:     103043 MISSES:   10704518
LLC WRITEBACK ACCESSES:    6591233 HITS:    1345806 MISSES:    5245427
LLC 0 RQ ACCESS:    2652128
LLC 0 RQ TO_CACHE:    2652128
LLC 0 RQ MERGED:          0
LLC 0 RQ FORWARD:          0
LLC WQ ACCESS:    6591233
LLC WQ TO_CACHE:    6591233
LLC WQ MERGED:          0
LLC WQ FORWARD:          2
Major fault: 0 Minor fault: 183991
CPU 0 L1D next line prefetcher final stats
CPU 0 L2C PC-based stride prefetcher final stats
All Misses: 21099299
All Hits: 1861401
SD Algo Stats - Switches: 0 SRR-Repls: 2347672 BRR-Repls: 0

DRAM Statistics
 CHANNEL 0
 RQ ROW_BUFFER_HIT:    7202666  ROW_BUFFER_MISS:    5768762
 DBUS_CONGESTED:   11316725
 WQ ROW_BUFFER_HIT:    1007444  ROW_BUFFER_MISS:    5580069  FULL:          0

 AVG_CONGESTED_CYCLE: 13
LOADS RETIRED: 204440772
INSTR RETIRED: 500000000
