
*** ChampSim Multicore Out-of-Order Simulator ***

Warmup Instructions: 100000000
Simulation Instructions: 500000000
Number of CPUs: 1
LLC sets: 2048
LLC ways: 16
Clean RRIP Policies: 2213230222132302 Dirty RRIP Policies: 2203130222031302 PSEL Width: 10 Track Set: 4294967295 PSEL Mask: 1 Demote Mask: 3140100031401000DS Algo: 0Window size: 0
Off-chip DRAM Size: 4096 MB Channels: 1 Width: 64-bit Data Rate: 1600 MT/s

CPU 0 runs /mnt/beegfs/iconst01/spec2017/Omnetpp.trace.gz
NOT SORTED
TRACE STRING: /mnt/beegfs/iconst01/spec2017/Omnetpp.trace.gz
SORTED
TRACE STRING: /mnt/beegfs/iconst01/spec2017/Omnetpp.trace.gz
INITIAL
TRACE STRING: /mnt/beegfs/iconst01/spec2017/Omnetpp.trace.gz

champsim_seed used: 739

CPU 0 L1D next line prefetcher
CPU 0 L2C IP-based stride prefetcher
Initialize DRRIP state
Assign rand_sets[0]: 454  LLC: 2048
rand_sets[0]: 454
Assign rand_sets[1]: 1662  LLC: 2048
rand_sets[1]: 1662
Assign rand_sets[2]: 1921  LLC: 2048
rand_sets[2]: 1921
Assign rand_sets[3]: 1131  LLC: 2048
rand_sets[3]: 1131
Assign rand_sets[4]: 331  LLC: 2048
rand_sets[4]: 331
Assign rand_sets[5]: 1531  LLC: 2048
rand_sets[5]: 1531
Assign rand_sets[6]: 482  LLC: 2048
rand_sets[6]: 482
Assign rand_sets[7]: 1275  LLC: 2048
rand_sets[7]: 1275
Assign rand_sets[8]: 1876  LLC: 2048
rand_sets[8]: 1876
Assign rand_sets[9]: 2038  LLC: 2048
rand_sets[9]: 2038
Assign rand_sets[10]: 701  LLC: 2048
rand_sets[10]: 701
Assign rand_sets[11]: 479  LLC: 2048
rand_sets[11]: 479
Assign rand_sets[12]: 892  LLC: 2048
rand_sets[12]: 892
Assign rand_sets[13]: 1820  LLC: 2048
rand_sets[13]: 1820
Assign rand_sets[14]: 1505  LLC: 2048
rand_sets[14]: 1505
Assign rand_sets[15]: 1159  LLC: 2048
rand_sets[15]: 1159
Assign rand_sets[16]: 513  LLC: 2048
rand_sets[16]: 513
Assign rand_sets[17]: 703  LLC: 2048
rand_sets[17]: 703
Assign rand_sets[18]: 561  LLC: 2048
rand_sets[18]: 561
Assign rand_sets[19]: 990  LLC: 2048
rand_sets[19]: 990
Assign rand_sets[20]: 342  LLC: 2048
rand_sets[20]: 342
Assign rand_sets[21]: 882  LLC: 2048
rand_sets[21]: 882
Assign rand_sets[22]: 15  LLC: 2048
rand_sets[22]: 15
Assign rand_sets[23]: 71  LLC: 2048
rand_sets[23]: 71
Assign rand_sets[24]: 1127  LLC: 2048
rand_sets[24]: 1127
Assign rand_sets[25]: 1382  LLC: 2048
rand_sets[25]: 1382
Assign rand_sets[26]: 647  LLC: 2048
rand_sets[26]: 647
Assign rand_sets[27]: 857  LLC: 2048
rand_sets[27]: 857
Assign rand_sets[28]: 1450  LLC: 2048
rand_sets[28]: 1450
Assign rand_sets[29]: 1160  LLC: 2048
rand_sets[29]: 1160
Assign rand_sets[30]: 1852  LLC: 2048
rand_sets[30]: 1852
Assign rand_sets[31]: 1881  LLC: 2048
rand_sets[31]: 1881
Assign rand_sets[32]: 1770  LLC: 2048
rand_sets[32]: 1770
Assign rand_sets[33]: 1622  LLC: 2048
rand_sets[33]: 1622
Assign rand_sets[34]: 275  LLC: 2048
rand_sets[34]: 275
Assign rand_sets[35]: 635  LLC: 2048
rand_sets[35]: 635
Assign rand_sets[36]: 466  LLC: 2048
rand_sets[36]: 466
Assign rand_sets[37]: 1413  LLC: 2048
rand_sets[37]: 1413
Assign rand_sets[38]: 417  LLC: 2048
rand_sets[38]: 417
Assign rand_sets[39]: 472  LLC: 2048
rand_sets[39]: 472
Assign rand_sets[40]: 1340  LLC: 2048
rand_sets[40]: 1340
Assign rand_sets[41]: 852  LLC: 2048
rand_sets[41]: 852
Assign rand_sets[42]: 1365  LLC: 2048
rand_sets[42]: 1365
Assign rand_sets[43]: 47  LLC: 2048
rand_sets[43]: 47
Assign rand_sets[44]: 823  LLC: 2048
rand_sets[44]: 823
Assign rand_sets[45]: 686  LLC: 2048
rand_sets[45]: 686
Assign rand_sets[46]: 1637  LLC: 2048
rand_sets[46]: 1637
Assign rand_sets[47]: 1115  LLC: 2048
rand_sets[47]: 1115
Assign rand_sets[48]: 986  LLC: 2048
rand_sets[48]: 986
Assign rand_sets[49]: 258  LLC: 2048
rand_sets[49]: 258
Assign rand_sets[50]: 633  LLC: 2048
rand_sets[50]: 633
Assign rand_sets[51]: 920  LLC: 2048
rand_sets[51]: 920
Assign rand_sets[52]: 204  LLC: 2048
rand_sets[52]: 204
Assign rand_sets[53]: 227  LLC: 2048
rand_sets[53]: 227
Assign rand_sets[54]: 1818  LLC: 2048
rand_sets[54]: 1818
Assign rand_sets[55]: 886  LLC: 2048
rand_sets[55]: 886
Assign rand_sets[56]: 1422  LLC: 2048
rand_sets[56]: 1422
Assign rand_sets[57]: 607  LLC: 2048
rand_sets[57]: 607
Assign rand_sets[58]: 217  LLC: 2048
rand_sets[58]: 217
Assign rand_sets[59]: 1945  LLC: 2048
rand_sets[59]: 1945
Assign rand_sets[60]: 143  LLC: 2048
rand_sets[60]: 143
Assign rand_sets[61]: 1311  LLC: 2048
rand_sets[61]: 1311
Assign rand_sets[62]: 319  LLC: 2048
rand_sets[62]: 319
Assign rand_sets[63]: 1846  LLC: 2048
rand_sets[63]: 1846
 CLEAN-RRIP-POLICY-1: 2-2-1-3-2-3-0-2- CLEAN-RRIP-POLICY-2: 2-2-1-3-2-3-0-2-
 DIRTY-RRIP-POLICY-1: 2-2-0-3-1-3-0-2- DIRTY-RRIP-POLICY-2: 2-2-0-3-1-3-0-2-
 PSEL width: 10
Heartbeat CPU 0 instructions: 10000000 cycles: 7319976 heartbeat IPC: 1.36612 cumulative IPC: 1.36612 (Simulation time: 0 hr 0 min 20 sec) 
Heartbeat CPU 0 instructions: 20000000 cycles: 14623650 heartbeat IPC: 1.36917 cumulative IPC: 1.36765 (Simulation time: 0 hr 0 min 40 sec) 
Heartbeat CPU 0 instructions: 30000003 cycles: 21925046 heartbeat IPC: 1.3696 cumulative IPC: 1.3683 (Simulation time: 0 hr 1 min 1 sec) 
Heartbeat CPU 0 instructions: 40000000 cycles: 29213168 heartbeat IPC: 1.3721 cumulative IPC: 1.36925 (Simulation time: 0 hr 1 min 21 sec) 
Heartbeat CPU 0 instructions: 50000000 cycles: 36489425 heartbeat IPC: 1.37433 cumulative IPC: 1.37026 (Simulation time: 0 hr 1 min 42 sec) 
Heartbeat CPU 0 instructions: 60000000 cycles: 43769359 heartbeat IPC: 1.37364 cumulative IPC: 1.37082 (Simulation time: 0 hr 2 min 2 sec) 
Heartbeat CPU 0 instructions: 70000001 cycles: 51054590 heartbeat IPC: 1.37264 cumulative IPC: 1.37108 (Simulation time: 0 hr 2 min 22 sec) 
Heartbeat CPU 0 instructions: 80000000 cycles: 58329493 heartbeat IPC: 1.37459 cumulative IPC: 1.37152 (Simulation time: 0 hr 2 min 43 sec) 
Heartbeat CPU 0 instructions: 90000000 cycles: 65635720 heartbeat IPC: 1.3687 cumulative IPC: 1.3712 (Simulation time: 0 hr 3 min 4 sec) 
Heartbeat CPU 0 instructions: 100000000 cycles: 72927614 heartbeat IPC: 1.37139 cumulative IPC: 1.37122 (Simulation time: 0 hr 3 min 24 sec) 

Warmup complete CPU 0 instructions: 100000002 cycles: 72927615 (Simulation time: 0 hr 3 min 24 sec) 

Heartbeat CPU 0 instructions: 110000002 cycles: 113450374 heartbeat IPC: 0.246775 cumulative IPC: 0.246775 (Simulation time: 0 hr 4 min 5 sec) 
Heartbeat CPU 0 instructions: 120000000 cycles: 153650368 heartbeat IPC: 0.248756 cumulative IPC: 0.247762 (Simulation time: 0 hr 4 min 46 sec) 
Heartbeat CPU 0 instructions: 130000002 cycles: 194093288 heartbeat IPC: 0.247262 cumulative IPC: 0.247595 (Simulation time: 0 hr 5 min 27 sec) 
Heartbeat CPU 0 instructions: 140000000 cycles: 234653762 heartbeat IPC: 0.246545 cumulative IPC: 0.247332 (Simulation time: 0 hr 6 min 8 sec) 
Heartbeat CPU 0 instructions: 150000002 cycles: 274764995 heartbeat IPC: 0.249307 cumulative IPC: 0.247724 (Simulation time: 0 hr 6 min 49 sec) 
Heartbeat CPU 0 instructions: 160000000 cycles: 314899514 heartbeat IPC: 0.249162 cumulative IPC: 0.247963 (Simulation time: 0 hr 7 min 30 sec) 
Heartbeat CPU 0 instructions: 170000001 cycles: 354311736 heartbeat IPC: 0.253728 cumulative IPC: 0.24877 (Simulation time: 0 hr 8 min 10 sec) 
Heartbeat CPU 0 instructions: 180000000 cycles: 394445753 heartbeat IPC: 0.249165 cumulative IPC: 0.24882 (Simulation time: 0 hr 8 min 51 sec) 
Heartbeat CPU 0 instructions: 190000002 cycles: 434556718 heartbeat IPC: 0.249308 cumulative IPC: 0.248874 (Simulation time: 0 hr 9 min 31 sec) 
Heartbeat CPU 0 instructions: 200000000 cycles: 475921340 heartbeat IPC: 0.241752 cumulative IPC: 0.248143 (Simulation time: 0 hr 10 min 13 sec) 
Heartbeat CPU 0 instructions: 210000003 cycles: 516112966 heartbeat IPC: 0.248808 cumulative IPC: 0.248203 (Simulation time: 0 hr 10 min 54 sec) 
Heartbeat CPU 0 instructions: 220000000 cycles: 556515476 heartbeat IPC: 0.247509 cumulative IPC: 0.248145 (Simulation time: 0 hr 11 min 35 sec) 
Heartbeat CPU 0 instructions: 230000000 cycles: 596843745 heartbeat IPC: 0.247965 cumulative IPC: 0.248131 (Simulation time: 0 hr 12 min 15 sec) 
Heartbeat CPU 0 instructions: 240000000 cycles: 636922236 heartbeat IPC: 0.24951 cumulative IPC: 0.248229 (Simulation time: 0 hr 12 min 56 sec) 
Heartbeat CPU 0 instructions: 250000000 cycles: 677030229 heartbeat IPC: 0.249327 cumulative IPC: 0.248302 (Simulation time: 0 hr 13 min 36 sec) 
Heartbeat CPU 0 instructions: 260000000 cycles: 717255546 heartbeat IPC: 0.2486 cumulative IPC: 0.248321 (Simulation time: 0 hr 14 min 16 sec) 
Heartbeat CPU 0 instructions: 270000000 cycles: 757569212 heartbeat IPC: 0.248055 cumulative IPC: 0.248305 (Simulation time: 0 hr 14 min 56 sec) 
Heartbeat CPU 0 instructions: 280000000 cycles: 798223494 heartbeat IPC: 0.245977 cumulative IPC: 0.248175 (Simulation time: 0 hr 15 min 37 sec) 
Heartbeat CPU 0 instructions: 290000001 cycles: 838097472 heartbeat IPC: 0.25079 cumulative IPC: 0.248311 (Simulation time: 0 hr 16 min 16 sec) 
Heartbeat CPU 0 instructions: 300000000 cycles: 878635924 heartbeat IPC: 0.246679 cumulative IPC: 0.248229 (Simulation time: 0 hr 16 min 56 sec) 
Heartbeat CPU 0 instructions: 310000000 cycles: 919118463 heartbeat IPC: 0.24702 cumulative IPC: 0.248171 (Simulation time: 0 hr 17 min 35 sec) 
Heartbeat CPU 0 instructions: 320000000 cycles: 959337906 heartbeat IPC: 0.248636 cumulative IPC: 0.248192 (Simulation time: 0 hr 18 min 15 sec) 
Heartbeat CPU 0 instructions: 330000000 cycles: 999535854 heartbeat IPC: 0.248769 cumulative IPC: 0.248217 (Simulation time: 0 hr 18 min 54 sec) 
Heartbeat CPU 0 instructions: 340000000 cycles: 1040322708 heartbeat IPC: 0.245177 cumulative IPC: 0.248089 (Simulation time: 0 hr 19 min 33 sec) 
Heartbeat CPU 0 instructions: 350000001 cycles: 1080597900 heartbeat IPC: 0.248292 cumulative IPC: 0.248097 (Simulation time: 0 hr 20 min 12 sec) 
Heartbeat CPU 0 instructions: 360000000 cycles: 1121155799 heartbeat IPC: 0.246561 cumulative IPC: 0.248038 (Simulation time: 0 hr 20 min 51 sec) 
Heartbeat CPU 0 instructions: 370000000 cycles: 1160778852 heartbeat IPC: 0.252378 cumulative IPC: 0.248196 (Simulation time: 0 hr 21 min 30 sec) 
Heartbeat CPU 0 instructions: 380000000 cycles: 1201345332 heartbeat IPC: 0.246509 cumulative IPC: 0.248135 (Simulation time: 0 hr 22 min 9 sec) 
Heartbeat CPU 0 instructions: 390000001 cycles: 1241414738 heartbeat IPC: 0.249567 cumulative IPC: 0.248184 (Simulation time: 0 hr 22 min 48 sec) 
Heartbeat CPU 0 instructions: 400000000 cycles: 1281589217 heartbeat IPC: 0.248914 cumulative IPC: 0.248208 (Simulation time: 0 hr 23 min 27 sec) 
Heartbeat CPU 0 instructions: 410000000 cycles: 1321601414 heartbeat IPC: 0.249924 cumulative IPC: 0.248263 (Simulation time: 0 hr 24 min 5 sec) 
Heartbeat CPU 0 instructions: 420000000 cycles: 1361661610 heartbeat IPC: 0.249624 cumulative IPC: 0.248306 (Simulation time: 0 hr 24 min 44 sec) 
Heartbeat CPU 0 instructions: 430000000 cycles: 1401783413 heartbeat IPC: 0.249241 cumulative IPC: 0.248334 (Simulation time: 0 hr 25 min 23 sec) 
Heartbeat CPU 0 instructions: 440000000 cycles: 1441949742 heartbeat IPC: 0.248965 cumulative IPC: 0.248352 (Simulation time: 0 hr 26 min 2 sec) 
Heartbeat CPU 0 instructions: 450000002 cycles: 1481965988 heartbeat IPC: 0.249899 cumulative IPC: 0.248396 (Simulation time: 0 hr 26 min 40 sec) 
Heartbeat CPU 0 instructions: 460000000 cycles: 1521426122 heartbeat IPC: 0.25342 cumulative IPC: 0.248533 (Simulation time: 0 hr 27 min 19 sec) 
Heartbeat CPU 0 instructions: 470000000 cycles: 1561758046 heartbeat IPC: 0.247943 cumulative IPC: 0.248517 (Simulation time: 0 hr 27 min 58 sec) 
Heartbeat CPU 0 instructions: 480000000 cycles: 1601734920 heartbeat IPC: 0.250145 cumulative IPC: 0.24856 (Simulation time: 0 hr 28 min 37 sec) 
Heartbeat CPU 0 instructions: 490000001 cycles: 1641865859 heartbeat IPC: 0.249184 cumulative IPC: 0.248576 (Simulation time: 0 hr 29 min 16 sec) 
Heartbeat CPU 0 instructions: 500000000 cycles: 1682172557 heartbeat IPC: 0.248098 cumulative IPC: 0.248564 (Simulation time: 0 hr 29 min 55 sec) 
Heartbeat CPU 0 instructions: 510000000 cycles: 1721962404 heartbeat IPC: 0.25132 cumulative IPC: 0.24863 (Simulation time: 0 hr 30 min 34 sec) 
Heartbeat CPU 0 instructions: 520000000 cycles: 1762507136 heartbeat IPC: 0.246641 cumulative IPC: 0.248583 (Simulation time: 0 hr 31 min 13 sec) 
Heartbeat CPU 0 instructions: 530000000 cycles: 1802509819 heartbeat IPC: 0.249983 cumulative IPC: 0.248615 (Simulation time: 0 hr 31 min 52 sec) 
Heartbeat CPU 0 instructions: 540000000 cycles: 1842268001 heartbeat IPC: 0.251521 cumulative IPC: 0.24868 (Simulation time: 0 hr 32 min 30 sec) 
Heartbeat CPU 0 instructions: 550000001 cycles: 1882754438 heartbeat IPC: 0.246996 cumulative IPC: 0.248643 (Simulation time: 0 hr 33 min 9 sec) 
Heartbeat CPU 0 instructions: 560000000 cycles: 1923307284 heartbeat IPC: 0.246592 cumulative IPC: 0.248598 (Simulation time: 0 hr 33 min 49 sec) 
Heartbeat CPU 0 instructions: 570000003 cycles: 1963813331 heartbeat IPC: 0.246877 cumulative IPC: 0.248561 (Simulation time: 0 hr 34 min 28 sec) 
Heartbeat CPU 0 instructions: 580000000 cycles: 2004160920 heartbeat IPC: 0.247846 cumulative IPC: 0.248546 (Simulation time: 0 hr 35 min 7 sec) 
Heartbeat CPU 0 instructions: 590000001 cycles: 2044947013 heartbeat IPC: 0.245182 cumulative IPC: 0.248476 (Simulation time: 0 hr 35 min 46 sec) 
Heartbeat CPU 0 instructions: 600000000 cycles: 2085478262 heartbeat IPC: 0.246723 cumulative IPC: 0.248441 (Simulation time: 0 hr 36 min 25 sec) 
Finished CPU 0 instructions: 500000000 cycles: 2012550655 cumulative IPC: 0.248441 (Simulation time: 0 hr 36 min 25 sec) 

CPU 0 Branch Prediction Accuracy: 96.2429% MPKI: 5.85335
Number of Branches: 77897976 Number of Mispredictions: 2926674
Number of LOAD Instructions: 193081861
Number of LOAD Instructions (ROI): 193081861
Number of STORE Instructions: 97310749
Number of STORE Instructions (ROI): 97310749
Total Destination Memory Operands: 106368027
Total Destination Memory Operands (ROI): 106368027
Total Source Memory Operands: 193081861
Total Source Memory Operands (ROI): 193081861
Number of DEPENDED LOADS: 6436878
Number of DEPENDED LOADS (ROI): 6436878
Number of SQ_ADDED: 106367982
Number of SQ_ADDED (ROI): 106367982
Number of LQ_ADDED: 428426135
Number of LQ_ADDED (ROI): 428426135
Number of Instructions read from trace: 600000256

ChampSim completed all CPUs

Region of Interest Statistics

CPU 0 cumulative IPC: 0.248441 instructions: 500000000 cycles: 2012550655
ITLB TOTAL     ACCESS:  151277037  HIT:  151261206  MISS:      15831
ITLB LOAD      ACCESS:  151277037  HIT:  151261206  MISS:      15831
ITLB RFO       ACCESS:          0  HIT:          0  MISS:          0
ITLB PREFETCH  ACCESS:          0  HIT:          0  MISS:          0
ITLB WRITEBACK ACCESS:          0  HIT:          0  MISS:          0
ITLB PREFETCH  REQUESTED:          0  ISSUED:          0  USEFUL:          0  USELESS:          0
ITLB TOTAL MSHR MERGED:      17491
ITLB LOAD MSHR MERGED:      17491
ITLB RFO MSHR MERGED:          0
ITLB PREFETCH MSHR MERGED:          0
ITLB WRITEBACK MSHR MERGED:          0
ITLB TOTAL ACCESSES:  151294528 HITS:  151261206 MISSES:      33322
ITLB LOAD ACCESSES:  151294528 HITS:  151261206 MISSES:      33322
ITLB RFO ACCESSES:          0 HITS:          0 MISSES:          0
ITLB PREFETCH ACCESSES:          0 HITS:          0 MISSES:          0
ITLB WRITEBACK ACCESSES:          0 HITS:          0 MISSES:          0
ITLB RQ ACCESS:  500000242
ITLB RQ TO_CACHE:  151294528
ITLB RQ MERGED:  348705714
ITLB RQ FORWARD:          0
ITLB WQ ACCESS:          0
ITLB WQ TO_CACHE:          0
ITLB WQ MERGED:          0
ITLB WQ FORWARD:          0
DTLB TOTAL     ACCESS:  199567639  HIT:  194188610  MISS:    5379029
DTLB LOAD      ACCESS:  123141791  HIT:  118123250  MISS:    5018541
DTLB RFO       ACCESS:   76425848  HIT:   76065360  MISS:     360488
DTLB PREFETCH  ACCESS:          0  HIT:          0  MISS:          0
DTLB WRITEBACK ACCESS:          0  HIT:          0  MISS:          0
DTLB PREFETCH  REQUESTED:          0  ISSUED:          0  USEFUL:          0  USELESS:          0
DTLB TOTAL MSHR MERGED:     917443
DTLB LOAD MSHR MERGED:     807486
DTLB RFO MSHR MERGED:     109957
DTLB PREFETCH MSHR MERGED:          0
DTLB WRITEBACK MSHR MERGED:          0
DTLB TOTAL ACCESSES:  200485082 HITS:  194188610 MISSES:    6296472
DTLB LOAD ACCESSES:  123949277 HITS:  118123250 MISSES:    5826027
DTLB RFO ACCESSES:   76535805 HITS:   76065360 MISSES:     470445
DTLB PREFETCH ACCESSES:          0 HITS:          0 MISSES:          0
DTLB WRITEBACK ACCESSES:          0 HITS:          0 MISSES:          0
DTLB RQ ACCESS:  243888991
DTLB RQ TO_CACHE:  200485082
DTLB RQ MERGED:   43403909
DTLB RQ FORWARD:          0
DTLB WQ ACCESS:          0
DTLB WQ TO_CACHE:          0
DTLB WQ MERGED:          0
DTLB WQ FORWARD:          0
L1D TOTAL     ACCESS:  335629517  HIT:  317533390  MISS:   18096127
L1D LOAD      ACCESS:  127703196  HIT:  118759517  MISS:    8943679
L1D RFO       ACCESS:   87081993  HIT:   86301615  MISS:     780378
L1D PREFETCH  ACCESS:  120844328  HIT:  112472258  MISS:    8372070
L1D WRITEBACK ACCESS:          0  HIT:          0  MISS:          0
L1D PREFETCH  REQUESTED:  128482618  ISSUED:  126884625  USEFUL:    1742231  USELESS:    6629851
L1D TOTAL MSHR MERGED:    3837525
L1D LOAD MSHR MERGED:     943840
L1D RFO MSHR MERGED:    1062665
L1D PREFETCH MSHR MERGED:    1831020
L1D WRITEBACK MSHR MERGED:          0
L1D TOTAL ACCESSES:  339554249 HITS:  317620597 MISSES:   21933652
L1D LOAD ACCESSES:  128483058 HITS:  118759957 MISSES:    9723101
L1D RFO ACCESSES:   88084610 HITS:   86301615 MISSES:    1782995
L1D PREFETCH ACCESSES:  122986581 HITS:  112559025 MISSES:   10427556
L1D WRITEBACK ACCESSES:          0 HITS:          0 MISSES:          0
L1D RQ ACCESS:  155257606
L1D RQ TO_CACHE:  128482618
L1D RQ MERGED:   26774548
L1D RQ FORWARD:          0
L1D WQ ACCESS:   88631385
L1D WQ TO_CACHE:   88084609
L1D WQ MERGED:     546776
L1D WQ FORWARD:      87207
L1I TOTAL     ACCESS:  175578273  HIT:  175311819  MISS:     266454
L1I LOAD      ACCESS:  175578273  HIT:  175311819  MISS:     266454
L1I RFO       ACCESS:          0  HIT:          0  MISS:          0
L1I PREFETCH  ACCESS:          0  HIT:          0  MISS:          0
L1I WRITEBACK ACCESS:          0  HIT:          0  MISS:          0
L1I PREFETCH  REQUESTED:          0  ISSUED:          0  USEFUL:          0  USELESS:          0
L1I TOTAL MSHR MERGED:     213471
L1I LOAD MSHR MERGED:     213471
L1I RFO MSHR MERGED:          0
L1I PREFETCH MSHR MERGED:          0
L1I WRITEBACK MSHR MERGED:          0
L1I TOTAL ACCESSES:  175791744 HITS:  175311819 MISSES:     479925
L1I LOAD ACCESSES:  175791744 HITS:  175311819 MISSES:     479925
L1I RFO ACCESSES:          0 HITS:          0 MISSES:          0
L1I PREFETCH ACCESSES:          0 HITS:          0 MISSES:          0
L1I WRITEBACK ACCESSES:          0 HITS:          0 MISSES:          0
L1I RQ ACCESS:  500000242
L1I RQ TO_CACHE:  175791744
L1I RQ MERGED:  324208498
L1I RQ FORWARD:          0
L1I WQ ACCESS:          0
L1I WQ TO_CACHE:          0
L1I WQ MERGED:          0
L1I WQ FORWARD:          0
L2C TOTAL     ACCESS:   23738685  HIT:   12112893  MISS:   11625792
L2C LOAD      ACCESS:    9044539  HIT:    3565010  MISS:    5479529
L2C RFO       ACCESS:     720273  HIT:     130099  MISS:     590174
L2C PREFETCH  ACCESS:    8613529  HIT:    3086149  MISS:    5527380
L2C WRITEBACK ACCESS:    5360344  HIT:    5331635  MISS:      28709
L2C PREFETCH  REQUESTED:      18041  ISSUED:      18041  USEFUL:     323002  USELESS:    5204553
L2C TOTAL MSHR MERGED:         26
L2C LOAD MSHR MERGED:          2
L2C RFO MSHR MERGED:          0
L2C PREFETCH MSHR MERGED:         24
L2C WRITEBACK MSHR MERGED:          0
L2C TOTAL ACCESSES:   23740510 HITS:   12114684 MISSES:   11625826
L2C LOAD ACCESSES:    9045715 HITS:    3566186 MISSES:    5479529
L2C RFO ACCESSES:     720330 HITS:     130156 MISSES:     590174
L2C PREFETCH ACCESSES:    8614121 HITS:    3086707 MISSES:    5527414
L2C WRITEBACK ACCESSES:    5360344 HITS:    5331635 MISSES:      28709
L2C RQ ACCESS:    9766045
L2C RQ TO_CACHE:    9764812
L2C RQ MERGED:          0
L2C RQ FORWARD:          0
L2C WQ ACCESS:    5360344
L2C WQ TO_CACHE:    5360344
L2C WQ MERGED:          0
L2C WQ FORWARD:       1791
LLC TOTAL     ACCESS:   15448726  HIT:    6461312  MISS:    8987414
LLC LOAD      ACCESS:    5479498  HIT:    2030470  MISS:    3449028
LLC RFO       ACCESS:     590172  HIT:     280353  MISS:     309819
LLC PREFETCH  ACCESS:    5527375  HIT:    1075496  MISS:    4451879
LLC WRITEBACK ACCESS:    3851681  HIT:    3074993  MISS:     776688
LLC PREFETCH  REQUESTED:          0  ISSUED:          0  USEFUL:      23494  USELESS:    4428948
LLC TOTAL MSHR MERGED:          0
LLC LOAD MSHR MERGED:          0
LLC RFO MSHR MERGED:          0
LLC PREFETCH MSHR MERGED:          0
LLC WRITEBACK MSHR MERGED:          0
LLC TOTAL ACCESSES:   15448772 HITS:    6461358 MISSES:    8987414
LLC LOAD ACCESSES:    5479527 HITS:    2030499 MISSES:    3449028
LLC RFO ACCESSES:     590174 HITS:     280355 MISSES:     309819
LLC PREFETCH ACCESSES:    5527390 HITS:    1075511 MISSES:    4451879
LLC WRITEBACK ACCESSES:    3851681 HITS:    3074993 MISSES:     776688
LLC 0 RQ ACCESS:    6069701
LLC 0 RQ TO_CACHE:    6069670
LLC 0 RQ MERGED:          0
LLC 0 RQ FORWARD:          0
LLC WQ ACCESS:    3851681
LLC WQ TO_CACHE:    3851681
LLC WQ MERGED:          0
LLC WQ FORWARD:         46
Major fault: 0 Minor fault: 44814
CPU 0 L1D next line prefetcher final stats
CPU 0 L2C PC-based stride prefetcher final stats
All Misses: 10886615
All Hits: 7734614
SD Algo Stats - Switches: 0 SRR-Repls: 3939244 BRR-Repls: 0

DRAM Statistics
 CHANNEL 0
 RQ ROW_BUFFER_HIT:    1454075  ROW_BUFFER_MISS:    6755363
 DBUS_CONGESTED:    5449206
 WQ ROW_BUFFER_HIT:     166069  ROW_BUFFER_MISS:    2049585  FULL:          0

 AVG_CONGESTED_CYCLE: 13
LOADS RETIRED: 160808997
INSTR RETIRED: 500000000
