
*** ChampSim Multicore Out-of-Order Simulator ***

Warmup Instructions: 100000000
Simulation Instructions: 500000000
Number of CPUs: 1
LLC sets: 2048
LLC ways: 16
Clean RRIP Policies: 2213230222132302 Dirty RRIP Policies: 2203130222031302 PSEL Width: 10 Track Set: 4294967295 PSEL Mask: 1 Demote Mask: 3140100031401000DS Algo: 0Window size: 0
Off-chip DRAM Size: 4096 MB Channels: 1 Width: 64-bit Data Rate: 1600 MT/s

CPU 0 runs /mnt/beegfs/iconst01/spec2017/Roms.trace.gz
NOT SORTED
TRACE STRING: /mnt/beegfs/iconst01/spec2017/Roms.trace.gz
SORTED
TRACE STRING: /mnt/beegfs/iconst01/spec2017/Roms.trace.gz
INITIAL
TRACE STRING: /mnt/beegfs/iconst01/spec2017/Roms.trace.gz

champsim_seed used: 417

CPU 0 L1D next line prefetcher
CPU 0 L2C IP-based stride prefetcher
Initialize DRRIP state
Assign rand_sets[0]: 454  LLC: 2048
rand_sets[0]: 454
Assign rand_sets[1]: 1662  LLC: 2048
rand_sets[1]: 1662
Assign rand_sets[2]: 1921  LLC: 2048
rand_sets[2]: 1921
Assign rand_sets[3]: 1131  LLC: 2048
rand_sets[3]: 1131
Assign rand_sets[4]: 331  LLC: 2048
rand_sets[4]: 331
Assign rand_sets[5]: 1531  LLC: 2048
rand_sets[5]: 1531
Assign rand_sets[6]: 482  LLC: 2048
rand_sets[6]: 482
Assign rand_sets[7]: 1275  LLC: 2048
rand_sets[7]: 1275
Assign rand_sets[8]: 1876  LLC: 2048
rand_sets[8]: 1876
Assign rand_sets[9]: 2038  LLC: 2048
rand_sets[9]: 2038
Assign rand_sets[10]: 701  LLC: 2048
rand_sets[10]: 701
Assign rand_sets[11]: 479  LLC: 2048
rand_sets[11]: 479
Assign rand_sets[12]: 892  LLC: 2048
rand_sets[12]: 892
Assign rand_sets[13]: 1820  LLC: 2048
rand_sets[13]: 1820
Assign rand_sets[14]: 1505  LLC: 2048
rand_sets[14]: 1505
Assign rand_sets[15]: 1159  LLC: 2048
rand_sets[15]: 1159
Assign rand_sets[16]: 513  LLC: 2048
rand_sets[16]: 513
Assign rand_sets[17]: 703  LLC: 2048
rand_sets[17]: 703
Assign rand_sets[18]: 561  LLC: 2048
rand_sets[18]: 561
Assign rand_sets[19]: 990  LLC: 2048
rand_sets[19]: 990
Assign rand_sets[20]: 342  LLC: 2048
rand_sets[20]: 342
Assign rand_sets[21]: 882  LLC: 2048
rand_sets[21]: 882
Assign rand_sets[22]: 15  LLC: 2048
rand_sets[22]: 15
Assign rand_sets[23]: 71  LLC: 2048
rand_sets[23]: 71
Assign rand_sets[24]: 1127  LLC: 2048
rand_sets[24]: 1127
Assign rand_sets[25]: 1382  LLC: 2048
rand_sets[25]: 1382
Assign rand_sets[26]: 647  LLC: 2048
rand_sets[26]: 647
Assign rand_sets[27]: 857  LLC: 2048
rand_sets[27]: 857
Assign rand_sets[28]: 1450  LLC: 2048
rand_sets[28]: 1450
Assign rand_sets[29]: 1160  LLC: 2048
rand_sets[29]: 1160
Assign rand_sets[30]: 1852  LLC: 2048
rand_sets[30]: 1852
Assign rand_sets[31]: 1881  LLC: 2048
rand_sets[31]: 1881
Assign rand_sets[32]: 1770  LLC: 2048
rand_sets[32]: 1770
Assign rand_sets[33]: 1622  LLC: 2048
rand_sets[33]: 1622
Assign rand_sets[34]: 275  LLC: 2048
rand_sets[34]: 275
Assign rand_sets[35]: 635  LLC: 2048
rand_sets[35]: 635
Assign rand_sets[36]: 466  LLC: 2048
rand_sets[36]: 466
Assign rand_sets[37]: 1413  LLC: 2048
rand_sets[37]: 1413
Assign rand_sets[38]: 417  LLC: 2048
rand_sets[38]: 417
Assign rand_sets[39]: 472  LLC: 2048
rand_sets[39]: 472
Assign rand_sets[40]: 1340  LLC: 2048
rand_sets[40]: 1340
Assign rand_sets[41]: 852  LLC: 2048
rand_sets[41]: 852
Assign rand_sets[42]: 1365  LLC: 2048
rand_sets[42]: 1365
Assign rand_sets[43]: 47  LLC: 2048
rand_sets[43]: 47
Assign rand_sets[44]: 823  LLC: 2048
rand_sets[44]: 823
Assign rand_sets[45]: 686  LLC: 2048
rand_sets[45]: 686
Assign rand_sets[46]: 1637  LLC: 2048
rand_sets[46]: 1637
Assign rand_sets[47]: 1115  LLC: 2048
rand_sets[47]: 1115
Assign rand_sets[48]: 986  LLC: 2048
rand_sets[48]: 986
Assign rand_sets[49]: 258  LLC: 2048
rand_sets[49]: 258
Assign rand_sets[50]: 633  LLC: 2048
rand_sets[50]: 633
Assign rand_sets[51]: 920  LLC: 2048
rand_sets[51]: 920
Assign rand_sets[52]: 204  LLC: 2048
rand_sets[52]: 204
Assign rand_sets[53]: 227  LLC: 2048
rand_sets[53]: 227
Assign rand_sets[54]: 1818  LLC: 2048
rand_sets[54]: 1818
Assign rand_sets[55]: 886  LLC: 2048
rand_sets[55]: 886
Assign rand_sets[56]: 1422  LLC: 2048
rand_sets[56]: 1422
Assign rand_sets[57]: 607  LLC: 2048
rand_sets[57]: 607
Assign rand_sets[58]: 217  LLC: 2048
rand_sets[58]: 217
Assign rand_sets[59]: 1945  LLC: 2048
rand_sets[59]: 1945
Assign rand_sets[60]: 143  LLC: 2048
rand_sets[60]: 143
Assign rand_sets[61]: 1311  LLC: 2048
rand_sets[61]: 1311
Assign rand_sets[62]: 319  LLC: 2048
rand_sets[62]: 319
Assign rand_sets[63]: 1846  LLC: 2048
rand_sets[63]: 1846
 CLEAN-RRIP-POLICY-1: 2-2-1-3-2-3-0-2- CLEAN-RRIP-POLICY-2: 2-2-1-3-2-3-0-2-
 DIRTY-RRIP-POLICY-1: 2-2-0-3-1-3-0-2- DIRTY-RRIP-POLICY-2: 2-2-0-3-1-3-0-2-
 PSEL width: 10
Heartbeat CPU 0 instructions: 10000000 cycles: 4688066 heartbeat IPC: 2.13308 cumulative IPC: 2.13308 (Simulation time: 0 hr 0 min 17 sec) 
Heartbeat CPU 0 instructions: 20000000 cycles: 9325334 heartbeat IPC: 2.15644 cumulative IPC: 2.1447 (Simulation time: 0 hr 0 min 35 sec) 
Heartbeat CPU 0 instructions: 30000003 cycles: 14019725 heartbeat IPC: 2.1302 cumulative IPC: 2.13984 (Simulation time: 0 hr 0 min 52 sec) 
Heartbeat CPU 0 instructions: 40000000 cycles: 18670140 heartbeat IPC: 2.15035 cumulative IPC: 2.14246 (Simulation time: 0 hr 1 min 9 sec) 
Heartbeat CPU 0 instructions: 50000003 cycles: 23323498 heartbeat IPC: 2.14899 cumulative IPC: 2.14376 (Simulation time: 0 hr 1 min 26 sec) 
Heartbeat CPU 0 instructions: 60000000 cycles: 27976124 heartbeat IPC: 2.14932 cumulative IPC: 2.14469 (Simulation time: 0 hr 1 min 44 sec) 
Heartbeat CPU 0 instructions: 70000002 cycles: 32367471 heartbeat IPC: 2.27721 cumulative IPC: 2.16267 (Simulation time: 0 hr 1 min 59 sec) 
Heartbeat CPU 0 instructions: 80000000 cycles: 36304419 heartbeat IPC: 2.54004 cumulative IPC: 2.20359 (Simulation time: 0 hr 2 min 11 sec) 
Heartbeat CPU 0 instructions: 90000000 cycles: 40249721 heartbeat IPC: 2.53466 cumulative IPC: 2.23604 (Simulation time: 0 hr 2 min 23 sec) 
Heartbeat CPU 0 instructions: 100000000 cycles: 44212213 heartbeat IPC: 2.52366 cumulative IPC: 2.26182 (Simulation time: 0 hr 2 min 36 sec) 

Warmup complete CPU 0 instructions: 100000002 cycles: 44212214 (Simulation time: 0 hr 2 min 36 sec) 

Heartbeat CPU 0 instructions: 110000001 cycles: 53145896 heartbeat IPC: 1.11936 cumulative IPC: 1.11936 (Simulation time: 0 hr 2 min 55 sec) 
Heartbeat CPU 0 instructions: 120000000 cycles: 62016111 heartbeat IPC: 1.12737 cumulative IPC: 1.12335 (Simulation time: 0 hr 3 min 14 sec) 
Heartbeat CPU 0 instructions: 130000002 cycles: 70901396 heartbeat IPC: 1.12546 cumulative IPC: 1.12405 (Simulation time: 0 hr 3 min 34 sec) 
Heartbeat CPU 0 instructions: 140000000 cycles: 79630966 heartbeat IPC: 1.14553 cumulative IPC: 1.12935 (Simulation time: 0 hr 3 min 53 sec) 
Heartbeat CPU 0 instructions: 150000003 cycles: 88520013 heartbeat IPC: 1.12498 cumulative IPC: 1.12847 (Simulation time: 0 hr 4 min 13 sec) 
Heartbeat CPU 0 instructions: 160000000 cycles: 99011258 heartbeat IPC: 0.953175 cumulative IPC: 1.09491 (Simulation time: 0 hr 4 min 34 sec) 
Heartbeat CPU 0 instructions: 170000000 cycles: 111547775 heartbeat IPC: 0.79767 cumulative IPC: 1.03957 (Simulation time: 0 hr 4 min 59 sec) 
Heartbeat CPU 0 instructions: 180000000 cycles: 124077778 heartbeat IPC: 0.798084 cumulative IPC: 1.00168 (Simulation time: 0 hr 5 min 23 sec) 
Heartbeat CPU 0 instructions: 190000000 cycles: 136867795 heartbeat IPC: 0.78186 cumulative IPC: 0.971339 (Simulation time: 0 hr 5 min 47 sec) 
Heartbeat CPU 0 instructions: 200000000 cycles: 150772775 heartbeat IPC: 0.719167 cumulative IPC: 0.938433 (Simulation time: 0 hr 6 min 12 sec) 
Heartbeat CPU 0 instructions: 210000001 cycles: 164695083 heartbeat IPC: 0.718272 cumulative IPC: 0.912993 (Simulation time: 0 hr 6 min 37 sec) 
Heartbeat CPU 0 instructions: 220000000 cycles: 178510337 heartbeat IPC: 0.723837 cumulative IPC: 0.893534 (Simulation time: 0 hr 7 min 1 sec) 
Heartbeat CPU 0 instructions: 230000000 cycles: 192136464 heartbeat IPC: 0.733884 cumulative IPC: 0.878828 (Simulation time: 0 hr 7 min 27 sec) 
Heartbeat CPU 0 instructions: 240000000 cycles: 205879447 heartbeat IPC: 0.727644 cumulative IPC: 0.865976 (Simulation time: 0 hr 7 min 53 sec) 
Heartbeat CPU 0 instructions: 250000003 cycles: 217067175 heartbeat IPC: 0.893837 cumulative IPC: 0.86778 (Simulation time: 0 hr 8 min 16 sec) 
Heartbeat CPU 0 instructions: 260000000 cycles: 224992074 heartbeat IPC: 1.26185 cumulative IPC: 0.885054 (Simulation time: 0 hr 8 min 36 sec) 
Heartbeat CPU 0 instructions: 270000003 cycles: 233543995 heartbeat IPC: 1.16933 cumulative IPC: 0.897895 (Simulation time: 0 hr 8 min 57 sec) 
Heartbeat CPU 0 instructions: 280000000 cycles: 243243243 heartbeat IPC: 1.03101 cumulative IPC: 0.904382 (Simulation time: 0 hr 9 min 19 sec) 
Heartbeat CPU 0 instructions: 290000000 cycles: 252647161 heartbeat IPC: 1.06339 cumulative IPC: 0.911555 (Simulation time: 0 hr 9 min 41 sec) 
Heartbeat CPU 0 instructions: 300000000 cycles: 261889488 heartbeat IPC: 1.08198 cumulative IPC: 0.918791 (Simulation time: 0 hr 10 min 2 sec) 
Heartbeat CPU 0 instructions: 310000003 cycles: 271159567 heartbeat IPC: 1.07874 cumulative IPC: 0.925325 (Simulation time: 0 hr 10 min 25 sec) 
Heartbeat CPU 0 instructions: 320000000 cycles: 280352283 heartbeat IPC: 1.08782 cumulative IPC: 0.93165 (Simulation time: 0 hr 10 min 47 sec) 
Heartbeat CPU 0 instructions: 330000002 cycles: 289473895 heartbeat IPC: 1.0963 cumulative IPC: 0.937774 (Simulation time: 0 hr 11 min 10 sec) 
Heartbeat CPU 0 instructions: 340000000 cycles: 299903417 heartbeat IPC: 0.958817 cumulative IPC: 0.938632 (Simulation time: 0 hr 11 min 34 sec) 
Heartbeat CPU 0 instructions: 350000001 cycles: 308891141 heartbeat IPC: 1.11263 cumulative IPC: 0.944541 (Simulation time: 0 hr 11 min 55 sec) 
Heartbeat CPU 0 instructions: 360000000 cycles: 317807049 heartbeat IPC: 1.12159 cumulative IPC: 0.95031 (Simulation time: 0 hr 12 min 17 sec) 
Heartbeat CPU 0 instructions: 370000001 cycles: 326680642 heartbeat IPC: 1.12694 cumulative IPC: 0.955859 (Simulation time: 0 hr 12 min 38 sec) 
Heartbeat CPU 0 instructions: 380000000 cycles: 335429742 heartbeat IPC: 1.14297 cumulative IPC: 0.961481 (Simulation time: 0 hr 12 min 59 sec) 
Heartbeat CPU 0 instructions: 390000001 cycles: 343966712 heartbeat IPC: 1.17138 cumulative IPC: 0.967458 (Simulation time: 0 hr 13 min 20 sec) 
Heartbeat CPU 0 instructions: 400000000 cycles: 352546042 heartbeat IPC: 1.16559 cumulative IPC: 0.972971 (Simulation time: 0 hr 13 min 41 sec) 
Heartbeat CPU 0 instructions: 410000003 cycles: 360996576 heartbeat IPC: 1.18336 cumulative IPC: 0.978584 (Simulation time: 0 hr 14 min 2 sec) 
Heartbeat CPU 0 instructions: 420000000 cycles: 369526775 heartbeat IPC: 1.17231 cumulative IPC: 0.983663 (Simulation time: 0 hr 14 min 23 sec) 
Heartbeat CPU 0 instructions: 430000001 cycles: 377944431 heartbeat IPC: 1.18798 cumulative IPC: 0.988817 (Simulation time: 0 hr 14 min 43 sec) 
Heartbeat CPU 0 instructions: 440000000 cycles: 386305181 heartbeat IPC: 1.19606 cumulative IPC: 0.993882 (Simulation time: 0 hr 15 min 4 sec) 
Heartbeat CPU 0 instructions: 450000001 cycles: 395944347 heartbeat IPC: 1.03743 cumulative IPC: 0.995075 (Simulation time: 0 hr 15 min 27 sec) 
Heartbeat CPU 0 instructions: 460000000 cycles: 404317663 heartbeat IPC: 1.19427 cumulative IPC: 0.999707 (Simulation time: 0 hr 15 min 47 sec) 
Heartbeat CPU 0 instructions: 470000003 cycles: 412547564 heartbeat IPC: 1.21508 cumulative IPC: 1.00452 (Simulation time: 0 hr 16 min 8 sec) 
Heartbeat CPU 0 instructions: 480000000 cycles: 420806128 heartbeat IPC: 1.21086 cumulative IPC: 1.00904 (Simulation time: 0 hr 16 min 28 sec) 
Heartbeat CPU 0 instructions: 490000000 cycles: 429032870 heartbeat IPC: 1.21555 cumulative IPC: 1.01346 (Simulation time: 0 hr 16 min 48 sec) 
Heartbeat CPU 0 instructions: 500000000 cycles: 437253334 heartbeat IPC: 1.21648 cumulative IPC: 1.01771 (Simulation time: 0 hr 17 min 9 sec) 
Heartbeat CPU 0 instructions: 510000001 cycles: 445422985 heartbeat IPC: 1.22404 cumulative IPC: 1.02191 (Simulation time: 0 hr 17 min 29 sec) 
Heartbeat CPU 0 instructions: 520000000 cycles: 453626284 heartbeat IPC: 1.21902 cumulative IPC: 1.02586 (Simulation time: 0 hr 17 min 49 sec) 
Heartbeat CPU 0 instructions: 530000001 cycles: 461831707 heartbeat IPC: 1.21871 cumulative IPC: 1.02965 (Simulation time: 0 hr 18 min 9 sec) 
Heartbeat CPU 0 instructions: 540000000 cycles: 470208075 heartbeat IPC: 1.19383 cumulative IPC: 1.03287 (Simulation time: 0 hr 18 min 29 sec) 
Heartbeat CPU 0 instructions: 550000000 cycles: 478626052 heartbeat IPC: 1.18793 cumulative IPC: 1.03588 (Simulation time: 0 hr 18 min 50 sec) 
Heartbeat CPU 0 instructions: 560000000 cycles: 486807647 heartbeat IPC: 1.22226 cumulative IPC: 1.03932 (Simulation time: 0 hr 19 min 10 sec) 
Heartbeat CPU 0 instructions: 570000001 cycles: 498134280 heartbeat IPC: 0.882875 cumulative IPC: 1.03542 (Simulation time: 0 hr 19 min 32 sec) 
Heartbeat CPU 0 instructions: 580000000 cycles: 509153391 heartbeat IPC: 0.907514 cumulative IPC: 1.03239 (Simulation time: 0 hr 19 min 54 sec) 
Heartbeat CPU 0 instructions: 590000001 cycles: 520380254 heartbeat IPC: 0.890721 cumulative IPC: 1.02905 (Simulation time: 0 hr 20 min 16 sec) 
Heartbeat CPU 0 instructions: 600000000 cycles: 531257605 heartbeat IPC: 0.919341 cumulative IPC: 1.0266 (Simulation time: 0 hr 20 min 38 sec) 
Finished CPU 0 instructions: 500000001 cycles: 487045404 cumulative IPC: 1.0266 (Simulation time: 0 hr 20 min 38 sec) 

CPU 0 Branch Prediction Accuracy: 99.7422% MPKI: 0.173296
Number of Branches: 33608403 Number of Mispredictions: 86648
Number of LOAD Instructions: 180215231
Number of LOAD Instructions (ROI): 180215231
Number of STORE Instructions: 36067263
Number of STORE Instructions (ROI): 36067263
Total Destination Memory Operands: 38428915
Total Destination Memory Operands (ROI): 38428915
Total Source Memory Operands: 180215231
Total Source Memory Operands (ROI): 180215231
Number of DEPENDED LOADS: 3041475
Number of DEPENDED LOADS (ROI): 3041475
Number of SQ_ADDED: 38428892
Number of SQ_ADDED (ROI): 38428892
Number of LQ_ADDED: 207886970
Number of LQ_ADDED (ROI): 207886970
Number of Instructions read from trace: 600000257

ChampSim completed all CPUs

Region of Interest Statistics

CPU 0 cumulative IPC: 1.0266 instructions: 500000001 cycles: 487045404
ITLB TOTAL     ACCESS:   91963596  HIT:   91963577  MISS:         19
ITLB LOAD      ACCESS:   91963596  HIT:   91963577  MISS:         19
ITLB RFO       ACCESS:          0  HIT:          0  MISS:          0
ITLB PREFETCH  ACCESS:          0  HIT:          0  MISS:          0
ITLB WRITEBACK ACCESS:          0  HIT:          0  MISS:          0
ITLB PREFETCH  REQUESTED:          0  ISSUED:          0  USEFUL:          0  USELESS:          0
ITLB TOTAL MSHR MERGED:         40
ITLB LOAD MSHR MERGED:         40
ITLB RFO MSHR MERGED:          0
ITLB PREFETCH MSHR MERGED:          0
ITLB WRITEBACK MSHR MERGED:          0
ITLB TOTAL ACCESSES:   91963636 HITS:   91963577 MISSES:         59
ITLB LOAD ACCESSES:   91963636 HITS:   91963577 MISSES:         59
ITLB RFO ACCESSES:          0 HITS:          0 MISSES:          0
ITLB PREFETCH ACCESSES:          0 HITS:          0 MISSES:          0
ITLB WRITEBACK ACCESSES:          0 HITS:          0 MISSES:          0
ITLB RQ ACCESS:  500000003
ITLB RQ TO_CACHE:   91963636
ITLB RQ MERGED:  408036367
ITLB RQ FORWARD:          0
ITLB WQ ACCESS:          0
ITLB WQ TO_CACHE:          0
ITLB WQ MERGED:          0
ITLB WQ FORWARD:          0
DTLB TOTAL     ACCESS:  142012361  HIT:  141645899  MISS:     366462
DTLB LOAD      ACCESS:  119378571  HIT:  119064985  MISS:     313586
DTLB RFO       ACCESS:   22633790  HIT:   22580914  MISS:      52876
DTLB PREFETCH  ACCESS:          0  HIT:          0  MISS:          0
DTLB WRITEBACK ACCESS:          0  HIT:          0  MISS:          0
DTLB PREFETCH  REQUESTED:          0  ISSUED:          0  USEFUL:          0  USELESS:          0
DTLB TOTAL MSHR MERGED:     285503
DTLB LOAD MSHR MERGED:     237727
DTLB RFO MSHR MERGED:      47776
DTLB PREFETCH MSHR MERGED:          0
DTLB WRITEBACK MSHR MERGED:          0
DTLB TOTAL ACCESSES:  142297864 HITS:  141645899 MISSES:     651965
DTLB LOAD ACCESSES:  119616298 HITS:  119064985 MISSES:     551313
DTLB RFO ACCESSES:   22681566 HITS:   22580914 MISSES:     100652
DTLB PREFETCH ACCESSES:          0 HITS:          0 MISSES:          0
DTLB WRITEBACK ACCESSES:          0 HITS:          0 MISSES:          0
DTLB RQ ACCESS:  184791502
DTLB RQ TO_CACHE:  142297864
DTLB RQ MERGED:   42493638
DTLB RQ FORWARD:          0
DTLB WQ ACCESS:          0
DTLB WQ TO_CACHE:          0
DTLB WQ MERGED:          0
DTLB WQ FORWARD:          0
L1D TOTAL     ACCESS:  188823773  HIT:  175376083  MISS:   13447690
L1D LOAD      ACCESS:  111765869  HIT:  108385559  MISS:    3380310
L1D RFO       ACCESS:   18540168  HIT:   15758445  MISS:    2781723
L1D PREFETCH  ACCESS:   58517736  HIT:   51232079  MISS:    7285657
L1D WRITEBACK ACCESS:          0  HIT:          0  MISS:          0
L1D PREFETCH  REQUESTED:  116489670  ISSUED:  115129424  USEFUL:    7076227  USELESS:     209430
L1D TOTAL MSHR MERGED:   32954342
L1D LOAD MSHR MERGED:    7547624
L1D RFO MSHR MERGED:    9712582
L1D PREFETCH MSHR MERGED:   15694136
L1D WRITEBACK MSHR MERGED:          0
L1D TOTAL ACCESSES:  221778529 HITS:  175376496 MISSES:   46402033
L1D LOAD ACCESSES:  116489717 HITS:  108385606 MISSES:    8104111
L1D RFO ACCESSES:   28252697 HITS:   15758445 MISSES:   12494252
L1D PREFETCH ACCESSES:   77036115 HITS:   51232445 MISSES:   25803670
L1D WRITEBACK ACCESSES:          0 HITS:          0 MISSES:          0
L1D RQ ACCESS:  156535436
L1D RQ TO_CACHE:  116489673
L1D RQ MERGED:   40045716
L1D RQ FORWARD:          0
L1D WQ ACCESS:   28256066
L1D WQ TO_CACHE:   28252697
L1D WQ MERGED:       3369
L1D WQ FORWARD:        413
L1I TOTAL     ACCESS:  115948108  HIT:  115947160  MISS:        948
L1I LOAD      ACCESS:  115948108  HIT:  115947160  MISS:        948
L1I RFO       ACCESS:          0  HIT:          0  MISS:          0
L1I PREFETCH  ACCESS:          0  HIT:          0  MISS:          0
L1I WRITEBACK ACCESS:          0  HIT:          0  MISS:          0
L1I PREFETCH  REQUESTED:          0  ISSUED:          0  USEFUL:          0  USELESS:          0
L1I TOTAL MSHR MERGED:       1578
L1I LOAD MSHR MERGED:       1578
L1I RFO MSHR MERGED:          0
L1I PREFETCH MSHR MERGED:          0
L1I WRITEBACK MSHR MERGED:          0
L1I TOTAL ACCESSES:  115949686 HITS:  115947160 MISSES:       2526
L1I LOAD ACCESSES:  115949686 HITS:  115947160 MISSES:       2526
L1I RFO ACCESSES:          0 HITS:          0 MISSES:          0
L1I PREFETCH ACCESSES:          0 HITS:          0 MISSES:          0
L1I WRITEBACK ACCESSES:          0 HITS:          0 MISSES:          0
L1I RQ ACCESS:  500000007
L1I RQ TO_CACHE:  115949686
L1I RQ MERGED:  384050321
L1I RQ FORWARD:          0
L1I WQ ACCESS:          0
L1I WQ TO_CACHE:          0
L1I WQ MERGED:          0
L1I WQ FORWARD:          0
L2C TOTAL     ACCESS:   16693349  HIT:    4848980  MISS:   11844369
L2C LOAD      ACCESS:     557404  HIT:      95229  MISS:     462175
L2C RFO       ACCESS:    2781670  HIT:     266636  MISS:    2515034
L2C PREFETCH  ACCESS:   10133642  HIT:    1268760  MISS:    8864882
L2C WRITEBACK ACCESS:    3220633  HIT:    3218355  MISS:       2278
L2C PREFETCH  REQUESTED:      26056  ISSUED:      26056  USEFUL:      92896  USELESS:    8770066
L2C TOTAL MSHR MERGED:        479
L2C LOAD MSHR MERGED:          6
L2C RFO MSHR MERGED:          0
L2C PREFETCH MSHR MERGED:        473
L2C WRITEBACK MSHR MERGED:          0
L2C TOTAL ACCESSES:   16693957 HITS:    4849030 MISSES:   11844927
L2C LOAD ACCESSES:     557435 HITS:      95260 MISSES:     462175
L2C RFO ACCESSES:    2781670 HITS:     266636 MISSES:    2515034
L2C PREFETCH ACCESSES:   10134219 HITS:    1268779 MISSES:    8865440
L2C WRITEBACK ACCESSES:    3220633 HITS:    3218355 MISSES:       2278
L2C RQ ACCESS:    3339105
L2C RQ TO_CACHE:    3339074
L2C RQ MERGED:          0
L2C RQ FORWARD:          0
L2C WQ ACCESS:    3220633
L2C WQ TO_CACHE:    3220633
L2C WQ MERGED:          0
L2C WQ FORWARD:         50
LLC TOTAL     ACCESS:   14742506  HIT:    6867255  MISS:    7875251
LLC LOAD      ACCESS:     462167  HIT:     187366  MISS:     274801
LLC RFO       ACCESS:    2515013  HIT:    1735709  MISS:     779304
LLC PREFETCH  ACCESS:    8864912  HIT:    2888404  MISS:    5976508
LLC WRITEBACK ACCESS:    2900414  HIT:    2055776  MISS:     844638
LLC PREFETCH  REQUESTED:          0  ISSUED:          0  USEFUL:       3914  USELESS:    5971620
LLC TOTAL MSHR MERGED:          3
LLC LOAD MSHR MERGED:          0
LLC RFO MSHR MERGED:          0
LLC PREFETCH MSHR MERGED:          3
LLC WRITEBACK MSHR MERGED:          0
LLC TOTAL ACCESSES:   14742577 HITS:    6867322 MISSES:    7875255
LLC LOAD ACCESSES:     462169 HITS:     187368 MISSES:     274801
LLC RFO ACCESSES:    2515034 HITS:    1735730 MISSES:     779304
LLC PREFETCH ACCESSES:    8864960 HITS:    2888448 MISSES:    5976512
LLC WRITEBACK ACCESSES:    2900414 HITS:    2055776 MISSES:     844638
LLC 0 RQ ACCESS:    2977203
LLC 0 RQ TO_CACHE:    2977180
LLC 0 RQ MERGED:          0
LLC 0 RQ FORWARD:          0
LLC WQ ACCESS:    2900414
LLC WQ TO_CACHE:    2900414
LLC WQ MERGED:          0
LLC WQ FORWARD:         67
Major fault: 0 Minor fault: 57518
CPU 0 L1D next line prefetcher final stats
CPU 0 L2C PC-based stride prefetcher final stats
All Misses: 8545397
All Hits: 7693290
SD Algo Stats - Switches: 0 SRR-Repls: 281854 BRR-Repls: 0

DRAM Statistics
 CHANNEL 0
 RQ ROW_BUFFER_HIT:    3819046  ROW_BUFFER_MISS:    3207342
 DBUS_CONGESTED:    3322779
 WQ ROW_BUFFER_HIT:     147945  ROW_BUFFER_MISS:     907308  FULL:          0

 AVG_CONGESTED_CYCLE: 12
LOADS RETIRED: 157818985
INSTR RETIRED: 500000000
