
*** ChampSim Multicore Out-of-Order Simulator ***

Warmup Instructions: 100000000
Simulation Instructions: 500000000
Number of CPUs: 1
LLC sets: 2048
LLC ways: 16
Clean RRIP Policies: 2213230222132302 Dirty RRIP Policies: 1203030212030302 PSEL Width: 10 Track Set: 4294967295 PSEL Mask: 1 Demote Mask: 3040100030401000DS Algo: 0Window size: 0
Off-chip DRAM Size: 4096 MB Channels: 1 Width: 64-bit Data Rate: 1600 MT/s

CPU 0 runs /mnt/beegfs/iconst01/spec2017/Cam4.trace.gz
NOT SORTED
TRACE STRING: /mnt/beegfs/iconst01/spec2017/Cam4.trace.gz
SORTED
TRACE STRING: /mnt/beegfs/iconst01/spec2017/Cam4.trace.gz
INITIAL
TRACE STRING: /mnt/beegfs/iconst01/spec2017/Cam4.trace.gz

champsim_seed used: 325

CPU 0 L1D next line prefetcher
CPU 0 L2C IP-based stride prefetcher
Initialize DRRIP state
Assign rand_sets[0]: 454  LLC: 2048
rand_sets[0]: 454
Assign rand_sets[1]: 1662  LLC: 2048
rand_sets[1]: 1662
Assign rand_sets[2]: 1921  LLC: 2048
rand_sets[2]: 1921
Assign rand_sets[3]: 1131  LLC: 2048
rand_sets[3]: 1131
Assign rand_sets[4]: 331  LLC: 2048
rand_sets[4]: 331
Assign rand_sets[5]: 1531  LLC: 2048
rand_sets[5]: 1531
Assign rand_sets[6]: 482  LLC: 2048
rand_sets[6]: 482
Assign rand_sets[7]: 1275  LLC: 2048
rand_sets[7]: 1275
Assign rand_sets[8]: 1876  LLC: 2048
rand_sets[8]: 1876
Assign rand_sets[9]: 2038  LLC: 2048
rand_sets[9]: 2038
Assign rand_sets[10]: 701  LLC: 2048
rand_sets[10]: 701
Assign rand_sets[11]: 479  LLC: 2048
rand_sets[11]: 479
Assign rand_sets[12]: 892  LLC: 2048
rand_sets[12]: 892
Assign rand_sets[13]: 1820  LLC: 2048
rand_sets[13]: 1820
Assign rand_sets[14]: 1505  LLC: 2048
rand_sets[14]: 1505
Assign rand_sets[15]: 1159  LLC: 2048
rand_sets[15]: 1159
Assign rand_sets[16]: 513  LLC: 2048
rand_sets[16]: 513
Assign rand_sets[17]: 703  LLC: 2048
rand_sets[17]: 703
Assign rand_sets[18]: 561  LLC: 2048
rand_sets[18]: 561
Assign rand_sets[19]: 990  LLC: 2048
rand_sets[19]: 990
Assign rand_sets[20]: 342  LLC: 2048
rand_sets[20]: 342
Assign rand_sets[21]: 882  LLC: 2048
rand_sets[21]: 882
Assign rand_sets[22]: 15  LLC: 2048
rand_sets[22]: 15
Assign rand_sets[23]: 71  LLC: 2048
rand_sets[23]: 71
Assign rand_sets[24]: 1127  LLC: 2048
rand_sets[24]: 1127
Assign rand_sets[25]: 1382  LLC: 2048
rand_sets[25]: 1382
Assign rand_sets[26]: 647  LLC: 2048
rand_sets[26]: 647
Assign rand_sets[27]: 857  LLC: 2048
rand_sets[27]: 857
Assign rand_sets[28]: 1450  LLC: 2048
rand_sets[28]: 1450
Assign rand_sets[29]: 1160  LLC: 2048
rand_sets[29]: 1160
Assign rand_sets[30]: 1852  LLC: 2048
rand_sets[30]: 1852
Assign rand_sets[31]: 1881  LLC: 2048
rand_sets[31]: 1881
Assign rand_sets[32]: 1770  LLC: 2048
rand_sets[32]: 1770
Assign rand_sets[33]: 1622  LLC: 2048
rand_sets[33]: 1622
Assign rand_sets[34]: 275  LLC: 2048
rand_sets[34]: 275
Assign rand_sets[35]: 635  LLC: 2048
rand_sets[35]: 635
Assign rand_sets[36]: 466  LLC: 2048
rand_sets[36]: 466
Assign rand_sets[37]: 1413  LLC: 2048
rand_sets[37]: 1413
Assign rand_sets[38]: 417  LLC: 2048
rand_sets[38]: 417
Assign rand_sets[39]: 472  LLC: 2048
rand_sets[39]: 472
Assign rand_sets[40]: 1340  LLC: 2048
rand_sets[40]: 1340
Assign rand_sets[41]: 852  LLC: 2048
rand_sets[41]: 852
Assign rand_sets[42]: 1365  LLC: 2048
rand_sets[42]: 1365
Assign rand_sets[43]: 47  LLC: 2048
rand_sets[43]: 47
Assign rand_sets[44]: 823  LLC: 2048
rand_sets[44]: 823
Assign rand_sets[45]: 686  LLC: 2048
rand_sets[45]: 686
Assign rand_sets[46]: 1637  LLC: 2048
rand_sets[46]: 1637
Assign rand_sets[47]: 1115  LLC: 2048
rand_sets[47]: 1115
Assign rand_sets[48]: 986  LLC: 2048
rand_sets[48]: 986
Assign rand_sets[49]: 258  LLC: 2048
rand_sets[49]: 258
Assign rand_sets[50]: 633  LLC: 2048
rand_sets[50]: 633
Assign rand_sets[51]: 920  LLC: 2048
rand_sets[51]: 920
Assign rand_sets[52]: 204  LLC: 2048
rand_sets[52]: 204
Assign rand_sets[53]: 227  LLC: 2048
rand_sets[53]: 227
Assign rand_sets[54]: 1818  LLC: 2048
rand_sets[54]: 1818
Assign rand_sets[55]: 886  LLC: 2048
rand_sets[55]: 886
Assign rand_sets[56]: 1422  LLC: 2048
rand_sets[56]: 1422
Assign rand_sets[57]: 607  LLC: 2048
rand_sets[57]: 607
Assign rand_sets[58]: 217  LLC: 2048
rand_sets[58]: 217
Assign rand_sets[59]: 1945  LLC: 2048
rand_sets[59]: 1945
Assign rand_sets[60]: 143  LLC: 2048
rand_sets[60]: 143
Assign rand_sets[61]: 1311  LLC: 2048
rand_sets[61]: 1311
Assign rand_sets[62]: 319  LLC: 2048
rand_sets[62]: 319
Assign rand_sets[63]: 1846  LLC: 2048
rand_sets[63]: 1846
 CLEAN-RRIP-POLICY-1: 2-2-1-3-2-3-0-2- CLEAN-RRIP-POLICY-2: 2-2-1-3-2-3-0-2-
 DIRTY-RRIP-POLICY-1: 1-2-0-3-0-3-0-2- DIRTY-RRIP-POLICY-2: 1-2-0-3-0-3-0-2-
 PSEL width: 10
Heartbeat CPU 0 instructions: 10000000 cycles: 4859184 heartbeat IPC: 2.05796 cumulative IPC: 2.05796 (Simulation time: 0 hr 0 min 17 sec) 
Heartbeat CPU 0 instructions: 20000000 cycles: 9790786 heartbeat IPC: 2.02774 cumulative IPC: 2.04274 (Simulation time: 0 hr 0 min 34 sec) 
Heartbeat CPU 0 instructions: 30000001 cycles: 14562951 heartbeat IPC: 2.09549 cumulative IPC: 2.06002 (Simulation time: 0 hr 0 min 49 sec) 
Heartbeat CPU 0 instructions: 40000000 cycles: 19399947 heartbeat IPC: 2.0674 cumulative IPC: 2.06186 (Simulation time: 0 hr 1 min 7 sec) 
Heartbeat CPU 0 instructions: 50000000 cycles: 24256465 heartbeat IPC: 2.05909 cumulative IPC: 2.06131 (Simulation time: 0 hr 1 min 24 sec) 
Heartbeat CPU 0 instructions: 60000000 cycles: 29181881 heartbeat IPC: 2.03029 cumulative IPC: 2.05607 (Simulation time: 0 hr 1 min 41 sec) 
Heartbeat CPU 0 instructions: 70000001 cycles: 33956937 heartbeat IPC: 2.09422 cumulative IPC: 2.06143 (Simulation time: 0 hr 1 min 56 sec) 
Heartbeat CPU 0 instructions: 80000000 cycles: 38793192 heartbeat IPC: 2.06772 cumulative IPC: 2.06222 (Simulation time: 0 hr 2 min 14 sec) 
Heartbeat CPU 0 instructions: 90000002 cycles: 43647219 heartbeat IPC: 2.06015 cumulative IPC: 2.06199 (Simulation time: 0 hr 2 min 31 sec) 
Heartbeat CPU 0 instructions: 100000000 cycles: 48565985 heartbeat IPC: 2.03303 cumulative IPC: 2.05905 (Simulation time: 0 hr 2 min 48 sec) 

Warmup complete CPU 0 instructions: 100000001 cycles: 48565986 (Simulation time: 0 hr 2 min 48 sec) 

Heartbeat CPU 0 instructions: 110000000 cycles: 61653526 heartbeat IPC: 0.764085 cumulative IPC: 0.764085 (Simulation time: 0 hr 3 min 11 sec) 
Heartbeat CPU 0 instructions: 120000000 cycles: 75401531 heartbeat IPC: 0.727378 cumulative IPC: 0.74528 (Simulation time: 0 hr 3 min 37 sec) 
Heartbeat CPU 0 instructions: 130000000 cycles: 89144274 heartbeat IPC: 0.727657 cumulative IPC: 0.739312 (Simulation time: 0 hr 4 min 3 sec) 
Heartbeat CPU 0 instructions: 140000000 cycles: 103399736 heartbeat IPC: 0.701486 cumulative IPC: 0.729478 (Simulation time: 0 hr 4 min 29 sec) 
Heartbeat CPU 0 instructions: 150000003 cycles: 116565269 heartbeat IPC: 0.759559 cumulative IPC: 0.735302 (Simulation time: 0 hr 4 min 52 sec) 
Heartbeat CPU 0 instructions: 160000000 cycles: 130308905 heartbeat IPC: 0.727609 cumulative IPC: 0.734008 (Simulation time: 0 hr 5 min 18 sec) 
Heartbeat CPU 0 instructions: 170000001 cycles: 144086237 heartbeat IPC: 0.72583 cumulative IPC: 0.732829 (Simulation time: 0 hr 5 min 44 sec) 
Heartbeat CPU 0 instructions: 180000000 cycles: 158323748 heartbeat IPC: 0.70237 cumulative IPC: 0.728878 (Simulation time: 0 hr 6 min 10 sec) 
Heartbeat CPU 0 instructions: 190000003 cycles: 171463877 heartbeat IPC: 0.761028 cumulative IPC: 0.732315 (Simulation time: 0 hr 6 min 33 sec) 
Heartbeat CPU 0 instructions: 200000000 cycles: 185204115 heartbeat IPC: 0.727789 cumulative IPC: 0.73186 (Simulation time: 0 hr 6 min 59 sec) 
Heartbeat CPU 0 instructions: 210000002 cycles: 198982969 heartbeat IPC: 0.72575 cumulative IPC: 0.7313 (Simulation time: 0 hr 7 min 25 sec) 
Heartbeat CPU 0 instructions: 220000000 cycles: 213224012 heartbeat IPC: 0.702196 cumulative IPC: 0.728783 (Simulation time: 0 hr 7 min 51 sec) 
Heartbeat CPU 0 instructions: 230000001 cycles: 226301297 heartbeat IPC: 0.764685 cumulative IPC: 0.731425 (Simulation time: 0 hr 8 min 14 sec) 
Heartbeat CPU 0 instructions: 240000000 cycles: 240032160 heartbeat IPC: 0.728286 cumulative IPC: 0.7312 (Simulation time: 0 hr 8 min 40 sec) 
Heartbeat CPU 0 instructions: 250000001 cycles: 253760985 heartbeat IPC: 0.728395 cumulative IPC: 0.731012 (Simulation time: 0 hr 9 min 6 sec) 
Heartbeat CPU 0 instructions: 260000000 cycles: 267901128 heartbeat IPC: 0.707206 cumulative IPC: 0.729477 (Simulation time: 0 hr 9 min 32 sec) 
Heartbeat CPU 0 instructions: 270000003 cycles: 281094701 heartbeat IPC: 0.757945 cumulative IPC: 0.731093 (Simulation time: 0 hr 9 min 55 sec) 
Heartbeat CPU 0 instructions: 280000000 cycles: 294842273 heartbeat IPC: 0.727401 cumulative IPC: 0.730886 (Simulation time: 0 hr 10 min 21 sec) 
Heartbeat CPU 0 instructions: 290000001 cycles: 308612801 heartbeat IPC: 0.726189 cumulative IPC: 0.730638 (Simulation time: 0 hr 10 min 47 sec) 
Heartbeat CPU 0 instructions: 300000000 cycles: 322696504 heartbeat IPC: 0.71004 cumulative IPC: 0.729579 (Simulation time: 0 hr 11 min 13 sec) 
Heartbeat CPU 0 instructions: 310000000 cycles: 335901652 heartbeat IPC: 0.75728 cumulative IPC: 0.730853 (Simulation time: 0 hr 11 min 36 sec) 
Heartbeat CPU 0 instructions: 320000000 cycles: 349690438 heartbeat IPC: 0.725227 cumulative IPC: 0.730595 (Simulation time: 0 hr 12 min 2 sec) 
Heartbeat CPU 0 instructions: 330000000 cycles: 363478487 heartbeat IPC: 0.725266 cumulative IPC: 0.730362 (Simulation time: 0 hr 12 min 27 sec) 
Heartbeat CPU 0 instructions: 340000000 cycles: 377533940 heartbeat IPC: 0.711468 cumulative IPC: 0.729554 (Simulation time: 0 hr 12 min 53 sec) 
Heartbeat CPU 0 instructions: 350000000 cycles: 390778293 heartbeat IPC: 0.755039 cumulative IPC: 0.730541 (Simulation time: 0 hr 13 min 16 sec) 
Heartbeat CPU 0 instructions: 360000000 cycles: 404594941 heartbeat IPC: 0.723765 cumulative IPC: 0.730278 (Simulation time: 0 hr 13 min 41 sec) 
Heartbeat CPU 0 instructions: 370000003 cycles: 418386921 heartbeat IPC: 0.725059 cumulative IPC: 0.730083 (Simulation time: 0 hr 14 min 7 sec) 
Heartbeat CPU 0 instructions: 380000000 cycles: 432409283 heartbeat IPC: 0.713146 cumulative IPC: 0.729464 (Simulation time: 0 hr 14 min 32 sec) 
Heartbeat CPU 0 instructions: 390000003 cycles: 445659400 heartbeat IPC: 0.754711 cumulative IPC: 0.730307 (Simulation time: 0 hr 14 min 55 sec) 
Heartbeat CPU 0 instructions: 400000000 cycles: 459471989 heartbeat IPC: 0.723977 cumulative IPC: 0.730094 (Simulation time: 0 hr 15 min 20 sec) 
Heartbeat CPU 0 instructions: 410000000 cycles: 473231893 heartbeat IPC: 0.726749 cumulative IPC: 0.729986 (Simulation time: 0 hr 15 min 46 sec) 
Heartbeat CPU 0 instructions: 420000000 cycles: 487242958 heartbeat IPC: 0.713722 cumulative IPC: 0.729466 (Simulation time: 0 hr 16 min 11 sec) 
Heartbeat CPU 0 instructions: 430000003 cycles: 500518073 heartbeat IPC: 0.753289 cumulative IPC: 0.730166 (Simulation time: 0 hr 16 min 34 sec) 
Heartbeat CPU 0 instructions: 440000000 cycles: 514330743 heartbeat IPC: 0.723973 cumulative IPC: 0.729982 (Simulation time: 0 hr 16 min 59 sec) 
Heartbeat CPU 0 instructions: 450000000 cycles: 528109742 heartbeat IPC: 0.725742 cumulative IPC: 0.72986 (Simulation time: 0 hr 17 min 24 sec) 
Heartbeat CPU 0 instructions: 460000000 cycles: 542103536 heartbeat IPC: 0.714602 cumulative IPC: 0.729428 (Simulation time: 0 hr 17 min 49 sec) 
Heartbeat CPU 0 instructions: 470000001 cycles: 555356777 heartbeat IPC: 0.754533 cumulative IPC: 0.730084 (Simulation time: 0 hr 18 min 11 sec) 
Heartbeat CPU 0 instructions: 480000000 cycles: 569139452 heartbeat IPC: 0.725549 cumulative IPC: 0.729964 (Simulation time: 0 hr 18 min 36 sec) 
Heartbeat CPU 0 instructions: 490000002 cycles: 582890230 heartbeat IPC: 0.727232 cumulative IPC: 0.729894 (Simulation time: 0 hr 19 min 1 sec) 
Heartbeat CPU 0 instructions: 500000000 cycles: 596881876 heartbeat IPC: 0.714712 cumulative IPC: 0.729506 (Simulation time: 0 hr 19 min 26 sec) 
Heartbeat CPU 0 instructions: 510000002 cycles: 610179536 heartbeat IPC: 0.752012 cumulative IPC: 0.730039 (Simulation time: 0 hr 19 min 49 sec) 
Heartbeat CPU 0 instructions: 520000000 cycles: 623946166 heartbeat IPC: 0.726394 cumulative IPC: 0.729952 (Simulation time: 0 hr 20 min 14 sec) 
Heartbeat CPU 0 instructions: 530000003 cycles: 637680805 heartbeat IPC: 0.728086 cumulative IPC: 0.729909 (Simulation time: 0 hr 20 min 39 sec) 
Heartbeat CPU 0 instructions: 540000000 cycles: 651690813 heartbeat IPC: 0.713775 cumulative IPC: 0.729534 (Simulation time: 0 hr 21 min 4 sec) 
Heartbeat CPU 0 instructions: 550000003 cycles: 664986498 heartbeat IPC: 0.752124 cumulative IPC: 0.730021 (Simulation time: 0 hr 21 min 27 sec) 
Heartbeat CPU 0 instructions: 560000000 cycles: 678736705 heartbeat IPC: 0.727262 cumulative IPC: 0.729961 (Simulation time: 0 hr 21 min 51 sec) 
Heartbeat CPU 0 instructions: 570000001 cycles: 692499574 heartbeat IPC: 0.726593 cumulative IPC: 0.729889 (Simulation time: 0 hr 22 min 16 sec) 
Heartbeat CPU 0 instructions: 580000000 cycles: 706535658 heartbeat IPC: 0.712449 cumulative IPC: 0.729517 (Simulation time: 0 hr 22 min 42 sec) 
Heartbeat CPU 0 instructions: 590000000 cycles: 719772826 heartbeat IPC: 0.755449 cumulative IPC: 0.730028 (Simulation time: 0 hr 23 min 4 sec) 
Heartbeat CPU 0 instructions: 600000000 cycles: 733527076 heartbeat IPC: 0.727048 cumulative IPC: 0.729968 (Simulation time: 0 hr 23 min 29 sec) 
Finished CPU 0 instructions: 500000001 cycles: 684961098 cumulative IPC: 0.729968 (Simulation time: 0 hr 23 min 29 sec) 

CPU 0 Branch Prediction Accuracy: 97.5275% MPKI: 2.1997
Number of Branches: 44482865 Number of Mispredictions: 1099852
Number of LOAD Instructions: 144955155
Number of LOAD Instructions (ROI): 144955155
Number of STORE Instructions: 55921098
Number of STORE Instructions (ROI): 55921098
Total Destination Memory Operands: 57111147
Total Destination Memory Operands (ROI): 57111147
Total Source Memory Operands: 144955155
Total Source Memory Operands (ROI): 144955155
Number of DEPENDED LOADS: 13454805
Number of DEPENDED LOADS (ROI): 13454805
Number of SQ_ADDED: 57111126
Number of SQ_ADDED (ROI): 57111126
Number of LQ_ADDED: 174241698
Number of LQ_ADDED (ROI): 174241698
Number of Instructions read from trace: 600000256

ChampSim completed all CPUs

Region of Interest Statistics

CPU 0 cumulative IPC: 0.729968 instructions: 500000001 cycles: 684961098
ITLB TOTAL     ACCESS:  136064953  HIT:  136062400  MISS:       2553
ITLB LOAD      ACCESS:  136064953  HIT:  136062400  MISS:       2553
ITLB RFO       ACCESS:          0  HIT:          0  MISS:          0
ITLB PREFETCH  ACCESS:          0  HIT:          0  MISS:          0
ITLB WRITEBACK ACCESS:          0  HIT:          0  MISS:          0
ITLB PREFETCH  REQUESTED:          0  ISSUED:          0  USEFUL:          0  USELESS:          0
ITLB TOTAL MSHR MERGED:       4366
ITLB LOAD MSHR MERGED:       4366
ITLB RFO MSHR MERGED:          0
ITLB PREFETCH MSHR MERGED:          0
ITLB WRITEBACK MSHR MERGED:          0
ITLB TOTAL ACCESSES:  136069319 HITS:  136062400 MISSES:       6919
ITLB LOAD ACCESSES:  136069319 HITS:  136062400 MISSES:       6919
ITLB RFO ACCESSES:          0 HITS:          0 MISSES:          0
ITLB PREFETCH ACCESSES:          0 HITS:          0 MISSES:          0
ITLB WRITEBACK ACCESSES:          0 HITS:          0 MISSES:          0
ITLB RQ ACCESS:  500000202
ITLB RQ TO_CACHE:  136069319
ITLB RQ MERGED:  363930883
ITLB RQ FORWARD:          0
ITLB WQ ACCESS:          0
ITLB WQ TO_CACHE:          0
ITLB WQ MERGED:          0
ITLB WQ FORWARD:          0
DTLB TOTAL     ACCESS:  111549204  HIT:  111413010  MISS:     136194
DTLB LOAD      ACCESS:   78950586  HIT:   78824960  MISS:     125626
DTLB RFO       ACCESS:   32598618  HIT:   32588050  MISS:      10568
DTLB PREFETCH  ACCESS:          0  HIT:          0  MISS:          0
DTLB WRITEBACK ACCESS:          0  HIT:          0  MISS:          0
DTLB PREFETCH  REQUESTED:          0  ISSUED:          0  USEFUL:          0  USELESS:          0
DTLB TOTAL MSHR MERGED:      63627
DTLB LOAD MSHR MERGED:      50930
DTLB RFO MSHR MERGED:      12697
DTLB PREFETCH MSHR MERGED:          0
DTLB WRITEBACK MSHR MERGED:          0
DTLB TOTAL ACCESSES:  111612831 HITS:  111413010 MISSES:     199821
DTLB LOAD ACCESSES:   79001516 HITS:   78824960 MISSES:     176556
DTLB RFO ACCESSES:   32611315 HITS:   32588050 MISSES:      23265
DTLB PREFETCH ACCESSES:          0 HITS:          0 MISSES:          0
DTLB WRITEBACK ACCESSES:          0 HITS:          0 MISSES:          0
DTLB RQ ACCESS:  157180634
DTLB RQ TO_CACHE:  111612831
DTLB RQ MERGED:   45567803
DTLB RQ FORWARD:          0
DTLB WQ ACCESS:          0
DTLB WQ TO_CACHE:          0
DTLB WQ MERGED:          0
DTLB WQ FORWARD:          0
L1D TOTAL     ACCESS:  198243871  HIT:  188402804  MISS:    9841067
L1D LOAD      ACCESS:   79950999  HIT:   75689029  MISS:    4261970
L1D RFO       ACCESS:   44537986  HIT:   43637619  MISS:     900367
L1D PREFETCH  ACCESS:   73754886  HIT:   69076156  MISS:    4678730
L1D WRITEBACK ACCESS:          0  HIT:          0  MISS:          0
L1D PREFETCH  REQUESTED:   80346240  ISSUED:   79890626  USEFUL:    1820464  USELESS:    2858175
L1D TOTAL MSHR MERGED:    2485533
L1D LOAD MSHR MERGED:     518683
L1D RFO MSHR MERGED:    1414715
L1D PREFETCH MSHR MERGED:     552135
L1D WRITEBACK MSHR MERGED:          0
L1D TOTAL ACCESSES:  200750704 HITS:  188424104 MISSES:   12326600
L1D LOAD ACCESSES:   80358911 HITS:   75701700 MISSES:    4657211
L1D RFO ACCESSES:   45949703 HITS:   43637619 MISSES:    2312084
L1D PREFETCH ACCESSES:   74442090 HITS:   69084785 MISSES:    5357305
L1D WRITEBACK ACCESSES:          0 HITS:          0 MISSES:          0
L1D RQ ACCESS:  109538664
L1D RQ TO_CACHE:   80346240
L1D RQ MERGED:   29179753
L1D RQ FORWARD:          0
L1D WQ ACCESS:   47641970
L1D WQ TO_CACHE:   45949703
L1D WQ MERGED:    1692267
L1D WQ FORWARD:      21300
L1I TOTAL     ACCESS:  161535328  HIT:  161271353  MISS:     263975
L1I LOAD      ACCESS:  161535328  HIT:  161271353  MISS:     263975
L1I RFO       ACCESS:          0  HIT:          0  MISS:          0
L1I PREFETCH  ACCESS:          0  HIT:          0  MISS:          0
L1I WRITEBACK ACCESS:          0  HIT:          0  MISS:          0
L1I PREFETCH  REQUESTED:          0  ISSUED:          0  USEFUL:          0  USELESS:          0
L1I TOTAL MSHR MERGED:     261184
L1I LOAD MSHR MERGED:     261184
L1I RFO MSHR MERGED:          0
L1I PREFETCH MSHR MERGED:          0
L1I WRITEBACK MSHR MERGED:          0
L1I TOTAL ACCESSES:  161796512 HITS:  161271353 MISSES:     525159
L1I LOAD ACCESSES:  161796512 HITS:  161271353 MISSES:     525159
L1I RFO ACCESSES:          0 HITS:          0 MISSES:          0
L1I PREFETCH ACCESSES:          0 HITS:          0 MISSES:          0
L1I WRITEBACK ACCESSES:          0 HITS:          0 MISSES:          0
L1I RQ ACCESS:  500000202
L1I RQ TO_CACHE:  161796512
L1I RQ MERGED:  338203690
L1I RQ FORWARD:          0
L1I WQ ACCESS:          0
L1I WQ TO_CACHE:          0
L1I WQ MERGED:          0
L1I WQ FORWARD:          0
L2C TOTAL     ACCESS:   11771773  HIT:   10382437  MISS:    1389336
L2C LOAD      ACCESS:    4402437  HIT:    3905775  MISS:     496662
L2C RFO       ACCESS:     897304  HIT:     536268  MISS:     361036
L2C PREFETCH  ACCESS:    5284492  HIT:    4755798  MISS:     528694
L2C WRITEBACK ACCESS:    1187540  HIT:    1184596  MISS:       2944
L2C PREFETCH  REQUESTED:     504684  ISSUED:     504684  USEFUL:     114929  USELESS:     413957
L2C TOTAL MSHR MERGED:       2046
L2C LOAD MSHR MERGED:        416
L2C RFO MSHR MERGED:          0
L2C PREFETCH MSHR MERGED:       1630
L2C WRITEBACK MSHR MERGED:          0
L2C TOTAL ACCESSES:   11776542 HITS:   10382655 MISSES:    1393887
L2C LOAD ACCESSES:    4402503 HITS:    3905841 MISSES:     496662
L2C RFO ACCESSES:     897369 HITS:     536333 MISSES:     361036
L2C PREFETCH ACCESSES:    5289130 HITS:    4755885 MISSES:     533245
L2C WRITEBACK ACCESSES:    1187540 HITS:    1184596 MISSES:       2944
L2C RQ ACCESS:    5299872
L2C RQ TO_CACHE:    5299741
L2C RQ MERGED:          0
L2C RQ FORWARD:          0
L2C WQ ACCESS:    1187540
L2C WQ TO_CACHE:    1187540
L2C WQ MERGED:          0
L2C WQ FORWARD:        218
LLC TOTAL     ACCESS:    1849535  HIT:    1152718  MISS:     696817
LLC LOAD      ACCESS:     496244  HIT:     236415  MISS:     259829
LLC RFO       ACCESS:     361030  HIT:     239602  MISS:     121428
LLC PREFETCH  ACCESS:     531517  HIT:     318034  MISS:     213483
LLC WRITEBACK ACCESS:     460744  HIT:     358667  MISS:     102077
LLC PREFETCH  REQUESTED:          0  ISSUED:          0  USEFUL:       2733  USELESS:     210870
LLC TOTAL MSHR MERGED:         65
LLC LOAD MSHR MERGED:         28
LLC RFO MSHR MERGED:          0
LLC PREFETCH MSHR MERGED:         37
LLC WRITEBACK MSHR MERGED:          0
LLC TOTAL ACCESSES:    1849629 HITS:    1152747 MISSES:     696882
LLC LOAD ACCESSES:     496246 HITS:     236417 MISSES:     259829
LLC RFO ACCESSES:     361036 HITS:     239608 MISSES:     121428
LLC PREFETCH ACCESSES:     531603 HITS:     318055 MISSES:     213548
LLC WRITEBACK ACCESSES:     460744 HITS:     358667 MISSES:     102077
LLC 0 RQ ACCESS:     857282
LLC 0 RQ TO_CACHE:     857274
LLC 0 RQ MERGED:          0
LLC 0 RQ FORWARD:          0
LLC WQ ACCESS:     460744
LLC WQ TO_CACHE:     460744
LLC WQ MERGED:          0
LLC WQ FORWARD:         29
Major fault: 0 Minor fault: 3073
CPU 0 L1D next line prefetcher final stats
CPU 0 L2C PC-based stride prefetcher final stats
All Misses: 850294
All Hits: 1325932
SD Algo Stats - Switches: 0 SRR-Repls: 298236 BRR-Repls: 0

DRAM Statistics
 CHANNEL 0
 RQ ROW_BUFFER_HIT:     407831  ROW_BUFFER_MISS:     186657
 DBUS_CONGESTED:     433431
 WQ ROW_BUFFER_HIT:      15805  ROW_BUFFER_MISS:     112181  FULL:          0

 AVG_CONGESTED_CYCLE: 13
LOADS RETIRED: 120673965
INSTR RETIRED: 500000000
