
*** ChampSim Multicore Out-of-Order Simulator ***

Warmup Instructions: 100000000
Simulation Instructions: 500000000
Number of CPUs: 1
LLC sets: 2048
LLC ways: 16
Clean RRIP Policies: 323230103232301 Dirty RRIP Policies: 313231103132311 PSEL Width: 10 Track Set: 4294967295 PSEL Mask: 1 Demote Mask: 21142200211422DS Algo: 0Window size: 0
Off-chip DRAM Size: 4096 MB Channels: 1 Width: 64-bit Data Rate: 1600 MT/s

CPU 0 runs /mnt/beegfs/iconst01/spec2017/Roms.trace.gz
NOT SORTED
TRACE STRING: /mnt/beegfs/iconst01/spec2017/Roms.trace.gz
SORTED
TRACE STRING: /mnt/beegfs/iconst01/spec2017/Roms.trace.gz
INITIAL
TRACE STRING: /mnt/beegfs/iconst01/spec2017/Roms.trace.gz

champsim_seed used: 417

CPU 0 L1D next line prefetcher
CPU 0 L2C IP-based stride prefetcher
Initialize DRRIP state
Assign rand_sets[0]: 454  LLC: 2048
rand_sets[0]: 454
Assign rand_sets[1]: 1662  LLC: 2048
rand_sets[1]: 1662
Assign rand_sets[2]: 1921  LLC: 2048
rand_sets[2]: 1921
Assign rand_sets[3]: 1131  LLC: 2048
rand_sets[3]: 1131
Assign rand_sets[4]: 331  LLC: 2048
rand_sets[4]: 331
Assign rand_sets[5]: 1531  LLC: 2048
rand_sets[5]: 1531
Assign rand_sets[6]: 482  LLC: 2048
rand_sets[6]: 482
Assign rand_sets[7]: 1275  LLC: 2048
rand_sets[7]: 1275
Assign rand_sets[8]: 1876  LLC: 2048
rand_sets[8]: 1876
Assign rand_sets[9]: 2038  LLC: 2048
rand_sets[9]: 2038
Assign rand_sets[10]: 701  LLC: 2048
rand_sets[10]: 701
Assign rand_sets[11]: 479  LLC: 2048
rand_sets[11]: 479
Assign rand_sets[12]: 892  LLC: 2048
rand_sets[12]: 892
Assign rand_sets[13]: 1820  LLC: 2048
rand_sets[13]: 1820
Assign rand_sets[14]: 1505  LLC: 2048
rand_sets[14]: 1505
Assign rand_sets[15]: 1159  LLC: 2048
rand_sets[15]: 1159
Assign rand_sets[16]: 513  LLC: 2048
rand_sets[16]: 513
Assign rand_sets[17]: 703  LLC: 2048
rand_sets[17]: 703
Assign rand_sets[18]: 561  LLC: 2048
rand_sets[18]: 561
Assign rand_sets[19]: 990  LLC: 2048
rand_sets[19]: 990
Assign rand_sets[20]: 342  LLC: 2048
rand_sets[20]: 342
Assign rand_sets[21]: 882  LLC: 2048
rand_sets[21]: 882
Assign rand_sets[22]: 15  LLC: 2048
rand_sets[22]: 15
Assign rand_sets[23]: 71  LLC: 2048
rand_sets[23]: 71
Assign rand_sets[24]: 1127  LLC: 2048
rand_sets[24]: 1127
Assign rand_sets[25]: 1382  LLC: 2048
rand_sets[25]: 1382
Assign rand_sets[26]: 647  LLC: 2048
rand_sets[26]: 647
Assign rand_sets[27]: 857  LLC: 2048
rand_sets[27]: 857
Assign rand_sets[28]: 1450  LLC: 2048
rand_sets[28]: 1450
Assign rand_sets[29]: 1160  LLC: 2048
rand_sets[29]: 1160
Assign rand_sets[30]: 1852  LLC: 2048
rand_sets[30]: 1852
Assign rand_sets[31]: 1881  LLC: 2048
rand_sets[31]: 1881
Assign rand_sets[32]: 1770  LLC: 2048
rand_sets[32]: 1770
Assign rand_sets[33]: 1622  LLC: 2048
rand_sets[33]: 1622
Assign rand_sets[34]: 275  LLC: 2048
rand_sets[34]: 275
Assign rand_sets[35]: 635  LLC: 2048
rand_sets[35]: 635
Assign rand_sets[36]: 466  LLC: 2048
rand_sets[36]: 466
Assign rand_sets[37]: 1413  LLC: 2048
rand_sets[37]: 1413
Assign rand_sets[38]: 417  LLC: 2048
rand_sets[38]: 417
Assign rand_sets[39]: 472  LLC: 2048
rand_sets[39]: 472
Assign rand_sets[40]: 1340  LLC: 2048
rand_sets[40]: 1340
Assign rand_sets[41]: 852  LLC: 2048
rand_sets[41]: 852
Assign rand_sets[42]: 1365  LLC: 2048
rand_sets[42]: 1365
Assign rand_sets[43]: 47  LLC: 2048
rand_sets[43]: 47
Assign rand_sets[44]: 823  LLC: 2048
rand_sets[44]: 823
Assign rand_sets[45]: 686  LLC: 2048
rand_sets[45]: 686
Assign rand_sets[46]: 1637  LLC: 2048
rand_sets[46]: 1637
Assign rand_sets[47]: 1115  LLC: 2048
rand_sets[47]: 1115
Assign rand_sets[48]: 986  LLC: 2048
rand_sets[48]: 986
Assign rand_sets[49]: 258  LLC: 2048
rand_sets[49]: 258
Assign rand_sets[50]: 633  LLC: 2048
rand_sets[50]: 633
Assign rand_sets[51]: 920  LLC: 2048
rand_sets[51]: 920
Assign rand_sets[52]: 204  LLC: 2048
rand_sets[52]: 204
Assign rand_sets[53]: 227  LLC: 2048
rand_sets[53]: 227
Assign rand_sets[54]: 1818  LLC: 2048
rand_sets[54]: 1818
Assign rand_sets[55]: 886  LLC: 2048
rand_sets[55]: 886
Assign rand_sets[56]: 1422  LLC: 2048
rand_sets[56]: 1422
Assign rand_sets[57]: 607  LLC: 2048
rand_sets[57]: 607
Assign rand_sets[58]: 217  LLC: 2048
rand_sets[58]: 217
Assign rand_sets[59]: 1945  LLC: 2048
rand_sets[59]: 1945
Assign rand_sets[60]: 143  LLC: 2048
rand_sets[60]: 143
Assign rand_sets[61]: 1311  LLC: 2048
rand_sets[61]: 1311
Assign rand_sets[62]: 319  LLC: 2048
rand_sets[62]: 319
Assign rand_sets[63]: 1846  LLC: 2048
rand_sets[63]: 1846
 CLEAN-RRIP-POLICY-1: 0-3-2-3-2-3-0-1- CLEAN-RRIP-POLICY-2: 0-3-2-3-2-3-0-1-
 DIRTY-RRIP-POLICY-1: 0-3-1-3-2-3-1-1- DIRTY-RRIP-POLICY-2: 0-3-1-3-2-3-1-1-
 PSEL width: 10
Heartbeat CPU 0 instructions: 10000000 cycles: 4687915 heartbeat IPC: 2.13314 cumulative IPC: 2.13314 (Simulation time: 0 hr 0 min 17 sec) 
Heartbeat CPU 0 instructions: 20000000 cycles: 9325071 heartbeat IPC: 2.15649 cumulative IPC: 2.14476 (Simulation time: 0 hr 0 min 34 sec) 
Heartbeat CPU 0 instructions: 30000003 cycles: 14019365 heartbeat IPC: 2.13025 cumulative IPC: 2.1399 (Simulation time: 0 hr 0 min 51 sec) 
Heartbeat CPU 0 instructions: 40000000 cycles: 18669729 heartbeat IPC: 2.15037 cumulative IPC: 2.14251 (Simulation time: 0 hr 1 min 9 sec) 
Heartbeat CPU 0 instructions: 50000003 cycles: 23323025 heartbeat IPC: 2.14901 cumulative IPC: 2.1438 (Simulation time: 0 hr 1 min 26 sec) 
Heartbeat CPU 0 instructions: 60000000 cycles: 27975562 heartbeat IPC: 2.14936 cumulative IPC: 2.14473 (Simulation time: 0 hr 1 min 43 sec) 
Heartbeat CPU 0 instructions: 70000002 cycles: 32366753 heartbeat IPC: 2.27729 cumulative IPC: 2.16271 (Simulation time: 0 hr 1 min 58 sec) 
Heartbeat CPU 0 instructions: 80000000 cycles: 36303587 heartbeat IPC: 2.54011 cumulative IPC: 2.20364 (Simulation time: 0 hr 2 min 10 sec) 
Heartbeat CPU 0 instructions: 90000000 cycles: 40248891 heartbeat IPC: 2.53466 cumulative IPC: 2.23609 (Simulation time: 0 hr 2 min 22 sec) 
Heartbeat CPU 0 instructions: 100000000 cycles: 44211193 heartbeat IPC: 2.52379 cumulative IPC: 2.26187 (Simulation time: 0 hr 2 min 34 sec) 

Warmup complete CPU 0 instructions: 100000002 cycles: 44211194 (Simulation time: 0 hr 2 min 34 sec) 

Heartbeat CPU 0 instructions: 110000000 cycles: 53230992 heartbeat IPC: 1.10867 cumulative IPC: 1.10867 (Simulation time: 0 hr 2 min 54 sec) 
Heartbeat CPU 0 instructions: 120000000 cycles: 62226108 heartbeat IPC: 1.11171 cumulative IPC: 1.11019 (Simulation time: 0 hr 3 min 13 sec) 
Heartbeat CPU 0 instructions: 130000002 cycles: 71273257 heartbeat IPC: 1.10532 cumulative IPC: 1.10856 (Simulation time: 0 hr 3 min 32 sec) 
Heartbeat CPU 0 instructions: 140000000 cycles: 80169203 heartbeat IPC: 1.12411 cumulative IPC: 1.11241 (Simulation time: 0 hr 3 min 51 sec) 
Heartbeat CPU 0 instructions: 150000003 cycles: 89277549 heartbeat IPC: 1.09789 cumulative IPC: 1.10948 (Simulation time: 0 hr 4 min 11 sec) 
Heartbeat CPU 0 instructions: 160000000 cycles: 99979582 heartbeat IPC: 0.934402 cumulative IPC: 1.07588 (Simulation time: 0 hr 4 min 33 sec) 
Heartbeat CPU 0 instructions: 170000000 cycles: 112533573 heartbeat IPC: 0.796559 cumulative IPC: 1.02455 (Simulation time: 0 hr 4 min 57 sec) 
Heartbeat CPU 0 instructions: 180000000 cycles: 125064231 heartbeat IPC: 0.798043 cumulative IPC: 0.98945 (Simulation time: 0 hr 5 min 21 sec) 
Heartbeat CPU 0 instructions: 190000000 cycles: 137884821 heartbeat IPC: 0.779995 cumulative IPC: 0.960783 (Simulation time: 0 hr 5 min 45 sec) 
Heartbeat CPU 0 instructions: 200000000 cycles: 151717756 heartbeat IPC: 0.722912 cumulative IPC: 0.930176 (Simulation time: 0 hr 6 min 9 sec) 
Heartbeat CPU 0 instructions: 210000001 cycles: 165596969 heartbeat IPC: 0.720502 cumulative IPC: 0.906202 (Simulation time: 0 hr 6 min 34 sec) 
Heartbeat CPU 0 instructions: 220000000 cycles: 179384302 heartbeat IPC: 0.725303 cumulative IPC: 0.887751 (Simulation time: 0 hr 6 min 58 sec) 
Heartbeat CPU 0 instructions: 230000000 cycles: 192965349 heartbeat IPC: 0.73632 cumulative IPC: 0.873925 (Simulation time: 0 hr 7 min 24 sec) 
Heartbeat CPU 0 instructions: 240000000 cycles: 206629573 heartbeat IPC: 0.731838 cumulative IPC: 0.861971 (Simulation time: 0 hr 7 min 49 sec) 
Heartbeat CPU 0 instructions: 250000003 cycles: 217774311 heartbeat IPC: 0.897285 cumulative IPC: 0.864239 (Simulation time: 0 hr 8 min 12 sec) 
Heartbeat CPU 0 instructions: 260000000 cycles: 225644972 heartbeat IPC: 1.27054 cumulative IPC: 0.881864 (Simulation time: 0 hr 8 min 32 sec) 
Heartbeat CPU 0 instructions: 270000003 cycles: 234257989 heartbeat IPC: 1.16103 cumulative IPC: 0.894517 (Simulation time: 0 hr 8 min 52 sec) 
Heartbeat CPU 0 instructions: 280000000 cycles: 244734754 heartbeat IPC: 0.954493 cumulative IPC: 0.89765 (Simulation time: 0 hr 9 min 15 sec) 
Heartbeat CPU 0 instructions: 290000000 cycles: 254907052 heartbeat IPC: 0.983062 cumulative IPC: 0.901774 (Simulation time: 0 hr 9 min 37 sec) 
Heartbeat CPU 0 instructions: 300000000 cycles: 264987694 heartbeat IPC: 0.992 cumulative IPC: 0.905894 (Simulation time: 0 hr 9 min 59 sec) 
Heartbeat CPU 0 instructions: 310000000 cycles: 275194509 heartbeat IPC: 0.979738 cumulative IPC: 0.909157 (Simulation time: 0 hr 10 min 22 sec) 
Heartbeat CPU 0 instructions: 320000000 cycles: 285276522 heartbeat IPC: 0.991865 cumulative IPC: 0.912616 (Simulation time: 0 hr 10 min 45 sec) 
Heartbeat CPU 0 instructions: 330000002 cycles: 295333857 heartbeat IPC: 0.994299 cumulative IPC: 0.915887 (Simulation time: 0 hr 11 min 8 sec) 
Heartbeat CPU 0 instructions: 340000000 cycles: 306287073 heartbeat IPC: 0.912974 cumulative IPC: 0.915765 (Simulation time: 0 hr 11 min 32 sec) 
Heartbeat CPU 0 instructions: 350000001 cycles: 315587928 heartbeat IPC: 1.07517 cumulative IPC: 0.921229 (Simulation time: 0 hr 11 min 54 sec) 
Heartbeat CPU 0 instructions: 360000000 cycles: 324883087 heartbeat IPC: 1.07583 cumulative IPC: 0.926349 (Simulation time: 0 hr 12 min 16 sec) 
Heartbeat CPU 0 instructions: 370000001 cycles: 334160080 heartbeat IPC: 1.07794 cumulative IPC: 0.931199 (Simulation time: 0 hr 12 min 37 sec) 
Heartbeat CPU 0 instructions: 380000000 cycles: 343340749 heartbeat IPC: 1.08925 cumulative IPC: 0.936049 (Simulation time: 0 hr 12 min 58 sec) 
Heartbeat CPU 0 instructions: 390000001 cycles: 352340716 heartbeat IPC: 1.11112 cumulative IPC: 0.941163 (Simulation time: 0 hr 13 min 20 sec) 
Heartbeat CPU 0 instructions: 400000000 cycles: 361432347 heartbeat IPC: 1.09991 cumulative IPC: 0.945712 (Simulation time: 0 hr 13 min 41 sec) 
Heartbeat CPU 0 instructions: 410000003 cycles: 370444545 heartbeat IPC: 1.10961 cumulative IPC: 0.95024 (Simulation time: 0 hr 14 min 2 sec) 
Heartbeat CPU 0 instructions: 420000000 cycles: 379532721 heartbeat IPC: 1.10033 cumulative IPC: 0.954308 (Simulation time: 0 hr 14 min 23 sec) 
Heartbeat CPU 0 instructions: 430000001 cycles: 388496857 heartbeat IPC: 1.11556 cumulative IPC: 0.958506 (Simulation time: 0 hr 14 min 44 sec) 
Heartbeat CPU 0 instructions: 440000000 cycles: 397444935 heartbeat IPC: 1.11756 cumulative IPC: 0.962535 (Simulation time: 0 hr 15 min 5 sec) 
Heartbeat CPU 0 instructions: 450000001 cycles: 408001030 heartbeat IPC: 0.94732 cumulative IPC: 0.962094 (Simulation time: 0 hr 15 min 28 sec) 
Heartbeat CPU 0 instructions: 460000000 cycles: 416978213 heartbeat IPC: 1.11394 cumulative IPC: 0.965751 (Simulation time: 0 hr 15 min 49 sec) 
Heartbeat CPU 0 instructions: 470000003 cycles: 425790653 heartbeat IPC: 1.13476 cumulative IPC: 0.969654 (Simulation time: 0 hr 16 min 10 sec) 
Heartbeat CPU 0 instructions: 480000000 cycles: 434636851 heartbeat IPC: 1.13043 cumulative IPC: 0.973297 (Simulation time: 0 hr 16 min 31 sec) 
Heartbeat CPU 0 instructions: 490000000 cycles: 443456886 heartbeat IPC: 1.13378 cumulative IPC: 0.976842 (Simulation time: 0 hr 16 min 52 sec) 
Heartbeat CPU 0 instructions: 500000000 cycles: 452284742 heartbeat IPC: 1.13278 cumulative IPC: 0.980215 (Simulation time: 0 hr 17 min 13 sec) 
Heartbeat CPU 0 instructions: 510000001 cycles: 461057685 heartbeat IPC: 1.13987 cumulative IPC: 0.983576 (Simulation time: 0 hr 17 min 34 sec) 
Heartbeat CPU 0 instructions: 520000000 cycles: 469863705 heartbeat IPC: 1.13559 cumulative IPC: 0.98672 (Simulation time: 0 hr 17 min 55 sec) 
Heartbeat CPU 0 instructions: 530000001 cycles: 478680043 heartbeat IPC: 1.13426 cumulative IPC: 0.989714 (Simulation time: 0 hr 18 min 15 sec) 
Heartbeat CPU 0 instructions: 540000000 cycles: 487708216 heartbeat IPC: 1.10764 cumulative IPC: 0.992115 (Simulation time: 0 hr 18 min 37 sec) 
Heartbeat CPU 0 instructions: 550000000 cycles: 496761340 heartbeat IPC: 1.10459 cumulative IPC: 0.994365 (Simulation time: 0 hr 18 min 58 sec) 
Heartbeat CPU 0 instructions: 560000000 cycles: 505658360 heartbeat IPC: 1.12397 cumulative IPC: 0.996864 (Simulation time: 0 hr 19 min 19 sec) 
Heartbeat CPU 0 instructions: 570000001 cycles: 518674297 heartbeat IPC: 0.768289 cumulative IPC: 0.990593 (Simulation time: 0 hr 19 min 42 sec) 
Heartbeat CPU 0 instructions: 580000000 cycles: 531497928 heartbeat IPC: 0.77981 cumulative IPC: 0.985046 (Simulation time: 0 hr 20 min 6 sec) 
Heartbeat CPU 0 instructions: 590000001 cycles: 544473234 heartbeat IPC: 0.770695 cumulative IPC: 0.979487 (Simulation time: 0 hr 20 min 29 sec) 
Heartbeat CPU 0 instructions: 600000000 cycles: 557233271 heartbeat IPC: 0.783697 cumulative IPC: 0.974617 (Simulation time: 0 hr 20 min 53 sec) 
Finished CPU 0 instructions: 500000001 cycles: 513022090 cumulative IPC: 0.974617 (Simulation time: 0 hr 20 min 53 sec) 

CPU 0 Branch Prediction Accuracy: 99.7422% MPKI: 0.173296
Number of Branches: 33608403 Number of Mispredictions: 86648
Number of LOAD Instructions: 180215231
Number of LOAD Instructions (ROI): 180215231
Number of STORE Instructions: 36067263
Number of STORE Instructions (ROI): 36067263
Total Destination Memory Operands: 38428915
Total Destination Memory Operands (ROI): 38428915
Total Source Memory Operands: 180215231
Total Source Memory Operands (ROI): 180215231
Number of DEPENDED LOADS: 3042306
Number of DEPENDED LOADS (ROI): 3042306
Number of SQ_ADDED: 38428892
Number of SQ_ADDED (ROI): 38428892
Number of LQ_ADDED: 208144718
Number of LQ_ADDED (ROI): 208144718
Number of Instructions read from trace: 600000257

ChampSim completed all CPUs

Region of Interest Statistics

CPU 0 cumulative IPC: 0.974617 instructions: 500000001 cycles: 513022090
ITLB TOTAL     ACCESS:   92277274  HIT:   92277255  MISS:         19
ITLB LOAD      ACCESS:   92277274  HIT:   92277255  MISS:         19
ITLB RFO       ACCESS:          0  HIT:          0  MISS:          0
ITLB PREFETCH  ACCESS:          0  HIT:          0  MISS:          0
ITLB WRITEBACK ACCESS:          0  HIT:          0  MISS:          0
ITLB PREFETCH  REQUESTED:          0  ISSUED:          0  USEFUL:          0  USELESS:          0
ITLB TOTAL MSHR MERGED:         40
ITLB LOAD MSHR MERGED:         40
ITLB RFO MSHR MERGED:          0
ITLB PREFETCH MSHR MERGED:          0
ITLB WRITEBACK MSHR MERGED:          0
ITLB TOTAL ACCESSES:   92277314 HITS:   92277255 MISSES:         59
ITLB LOAD ACCESSES:   92277314 HITS:   92277255 MISSES:         59
ITLB RFO ACCESSES:          0 HITS:          0 MISSES:          0
ITLB PREFETCH ACCESSES:          0 HITS:          0 MISSES:          0
ITLB WRITEBACK ACCESSES:          0 HITS:          0 MISSES:          0
ITLB RQ ACCESS:  500000003
ITLB RQ TO_CACHE:   92277314
ITLB RQ MERGED:  407722689
ITLB RQ FORWARD:          0
ITLB WQ ACCESS:          0
ITLB WQ TO_CACHE:          0
ITLB WQ MERGED:          0
ITLB WQ FORWARD:          0
DTLB TOTAL     ACCESS:  141877649  HIT:  141511187  MISS:     366462
DTLB LOAD      ACCESS:  119281149  HIT:  118967563  MISS:     313586
DTLB RFO       ACCESS:   22596500  HIT:   22543624  MISS:      52876
DTLB PREFETCH  ACCESS:          0  HIT:          0  MISS:          0
DTLB WRITEBACK ACCESS:          0  HIT:          0  MISS:          0
DTLB PREFETCH  REQUESTED:          0  ISSUED:          0  USEFUL:          0  USELESS:          0
DTLB TOTAL MSHR MERGED:     289818
DTLB LOAD MSHR MERGED:     240805
DTLB RFO MSHR MERGED:      49013
DTLB PREFETCH MSHR MERGED:          0
DTLB WRITEBACK MSHR MERGED:          0
DTLB TOTAL ACCESSES:  142167467 HITS:  141511187 MISSES:     656280
DTLB LOAD ACCESSES:  119521954 HITS:  118967563 MISSES:     554391
DTLB RFO ACCESSES:   22645513 HITS:   22543624 MISSES:     101889
DTLB PREFETCH ACCESSES:          0 HITS:          0 MISSES:          0
DTLB WRITEBACK ACCESSES:          0 HITS:          0 MISSES:          0
DTLB RQ ACCESS:  184790670
DTLB RQ TO_CACHE:  142167467
DTLB RQ MERGED:   42623203
DTLB RQ FORWARD:          0
DTLB WQ ACCESS:          0
DTLB WQ TO_CACHE:          0
DTLB WQ MERGED:          0
DTLB WQ FORWARD:          0
L1D TOTAL     ACCESS:  183922656  HIT:  170485183  MISS:   13437473
L1D LOAD      ACCESS:  111300819  HIT:  107583811  MISS:    3717008
L1D RFO       ACCESS:   16560528  HIT:   13778785  MISS:    2781743
L1D PREFETCH  ACCESS:   56061309  HIT:   49122587  MISS:    6938722
L1D WRITEBACK ACCESS:          0  HIT:          0  MISS:          0
L1D PREFETCH  REQUESTED:  116431840  ISSUED:  115075137  USEFUL:    6729711  USELESS:     209010
L1D TOTAL MSHR MERGED:   38087716
L1D LOAD MSHR MERGED:    8291185
L1D RFO MSHR MERGED:   11691933
L1D PREFETCH MSHR MERGED:   18104598
L1D WRITEBACK MSHR MERGED:          0
L1D TOTAL ACCESSES:  222012539 HITS:  170487350 MISSES:   51525189
L1D LOAD ACCESSES:  116433626 HITS:  107585597 MISSES:    8848029
L1D RFO ACCESSES:   28252413 HITS:   13778785 MISSES:   14473628
L1D PREFETCH ACCESSES:   77326500 HITS:   49122968 MISSES:   28203532
L1D WRITEBACK ACCESSES:          0 HITS:          0 MISSES:          0
L1D RQ ACCESS:  156534604
L1D RQ TO_CACHE:  116431843
L1D RQ MERGED:   40100975
L1D RQ FORWARD:          0
L1D WQ ACCESS:   28256066
L1D WQ TO_CACHE:   28252413
L1D WQ MERGED:       3653
L1D WQ FORWARD:       2167
L1I TOTAL     ACCESS:  116263986  HIT:  116263038  MISS:        948
L1I LOAD      ACCESS:  116263986  HIT:  116263038  MISS:        948
L1I RFO       ACCESS:          0  HIT:          0  MISS:          0
L1I PREFETCH  ACCESS:          0  HIT:          0  MISS:          0
L1I WRITEBACK ACCESS:          0  HIT:          0  MISS:          0
L1I PREFETCH  REQUESTED:          0  ISSUED:          0  USEFUL:          0  USELESS:          0
L1I TOTAL MSHR MERGED:       1590
L1I LOAD MSHR MERGED:       1590
L1I RFO MSHR MERGED:          0
L1I PREFETCH MSHR MERGED:          0
L1I WRITEBACK MSHR MERGED:          0
L1I TOTAL ACCESSES:  116265576 HITS:  116263038 MISSES:       2538
L1I LOAD ACCESSES:  116265576 HITS:  116263038 MISSES:       2538
L1I RFO ACCESSES:          0 HITS:          0 MISSES:          0
L1I PREFETCH ACCESSES:          0 HITS:          0 MISSES:          0
L1I WRITEBACK ACCESSES:          0 HITS:          0 MISSES:          0
L1I RQ ACCESS:  500000007
L1I RQ TO_CACHE:  116265576
L1I RQ MERGED:  383734431
L1I RQ FORWARD:          0
L1I WQ ACCESS:          0
L1I WQ TO_CACHE:          0
L1I WQ MERGED:          0
L1I WQ FORWARD:          0
L2C TOTAL     ACCESS:   16682628  HIT:    4838241  MISS:   11844387
L2C LOAD      ACCESS:     557765  HIT:      95209  MISS:     462556
L2C RFO       ACCESS:    2781695  HIT:     266720  MISS:    2514975
L2C PREFETCH  ACCESS:   10122583  HIT:    1257992  MISS:    8864591
L2C WRITEBACK ACCESS:    3220585  HIT:    3218320  MISS:       2265
L2C PREFETCH  REQUESTED:      25953  ISSUED:      25953  USEFUL:      92455  USELESS:    8770196
L2C TOTAL MSHR MERGED:        535
L2C LOAD MSHR MERGED:          5
L2C RFO MSHR MERGED:          0
L2C PREFETCH MSHR MERGED:        530
L2C WRITEBACK MSHR MERGED:          0
L2C TOTAL ACCESSES:   16683582 HITS:    4838292 MISSES:   11845290
L2C LOAD ACCESSES:     557792 HITS:      95236 MISSES:     462556
L2C RFO ACCESSES:    2781695 HITS:     266720 MISSES:    2514975
L2C PREFETCH ACCESSES:   10123510 HITS:    1258016 MISSES:    8865494
L2C WRITEBACK ACCESSES:    3220585 HITS:    3218320 MISSES:       2265
L2C RQ ACCESS:    3339487
L2C RQ TO_CACHE:    3339460
L2C RQ MERGED:          0
L2C RQ FORWARD:          0
L2C WQ ACCESS:    3220586
L2C WQ TO_CACHE:    3220586
L2C WQ MERGED:          0
L2C WQ FORWARD:         51
LLC TOTAL     ACCESS:   14742743  HIT:    4354921  MISS:   10387822
LLC LOAD      ACCESS:     462548  HIT:     243362  MISS:     219186
LLC RFO       ACCESS:    2514951  HIT:    1075925  MISS:    1439026
LLC PREFETCH  ACCESS:    8864904  HIT:    1728192  MISS:    7136712
LLC WRITEBACK ACCESS:    2900340  HIT:    1307442  MISS:    1592898
LLC PREFETCH  REQUESTED:          0  ISSUED:          0  USEFUL:       3517  USELESS:    7136447
LLC TOTAL MSHR MERGED:          8
LLC LOAD MSHR MERGED:          0
LLC RFO MSHR MERGED:          0
LLC PREFETCH MSHR MERGED:          8
LLC WRITEBACK MSHR MERGED:          0
LLC TOTAL ACCESSES:   14742824 HITS:    4354994 MISSES:   10387830
LLC LOAD ACCESSES:     462551 HITS:     243365 MISSES:     219186
LLC RFO ACCESSES:    2514975 HITS:    1075949 MISSES:    1439026
LLC PREFETCH ACCESSES:    8864958 HITS:    1728238 MISSES:    7136720
LLC WRITEBACK ACCESSES:    2900340 HITS:    1307442 MISSES:    1592898
LLC 0 RQ ACCESS:    2977526
LLC 0 RQ TO_CACHE:    2977499
LLC 0 RQ MERGED:          0
LLC 0 RQ FORWARD:          0
LLC WQ ACCESS:    2900340
LLC WQ TO_CACHE:    2900340
LLC WQ MERGED:          0
LLC WQ FORWARD:         73
Major fault: 0 Minor fault: 57518
CPU 0 L1D next line prefetcher final stats
CPU 0 L2C PC-based stride prefetcher final stats
All Misses: 11074557
All Hits: 5164346
SD Algo Stats - Switches: 0 SRR-Repls: 229256 BRR-Repls: 0

DRAM Statistics
 CHANNEL 0
 RQ ROW_BUFFER_HIT:    4295614  ROW_BUFFER_MISS:    4495053
 DBUS_CONGESTED:    4815011
 WQ ROW_BUFFER_HIT:     380331  ROW_BUFFER_MISS:    1388389  FULL:          0

 AVG_CONGESTED_CYCLE: 12
LOADS RETIRED: 157818985
INSTR RETIRED: 500000000
