
*** ChampSim Multicore Out-of-Order Simulator ***

Warmup Instructions: 100000000
Simulation Instructions: 500000000
Number of CPUs: 1
LLC sets: 2048
LLC ways: 16
Clean RRIP Policies: 323230103232301 Dirty RRIP Policies: 313231103132311 PSEL Width: 10 Track Set: 4294967295 PSEL Mask: 1 Demote Mask: 21142200211422DS Algo: 0Window size: 0
Off-chip DRAM Size: 4096 MB Channels: 1 Width: 64-bit Data Rate: 1600 MT/s

CPU 0 runs /mnt/beegfs/iconst01/spec2017/x264.trace.gz
NOT SORTED
TRACE STRING: /mnt/beegfs/iconst01/spec2017/x264.trace.gz
SORTED
TRACE STRING: /mnt/beegfs/iconst01/spec2017/x264.trace.gz
INITIAL
TRACE STRING: /mnt/beegfs/iconst01/spec2017/x264.trace.gz

champsim_seed used: 276

CPU 0 L1D next line prefetcher
CPU 0 L2C IP-based stride prefetcher
Initialize DRRIP state
Assign rand_sets[0]: 454  LLC: 2048
rand_sets[0]: 454
Assign rand_sets[1]: 1662  LLC: 2048
rand_sets[1]: 1662
Assign rand_sets[2]: 1921  LLC: 2048
rand_sets[2]: 1921
Assign rand_sets[3]: 1131  LLC: 2048
rand_sets[3]: 1131
Assign rand_sets[4]: 331  LLC: 2048
rand_sets[4]: 331
Assign rand_sets[5]: 1531  LLC: 2048
rand_sets[5]: 1531
Assign rand_sets[6]: 482  LLC: 2048
rand_sets[6]: 482
Assign rand_sets[7]: 1275  LLC: 2048
rand_sets[7]: 1275
Assign rand_sets[8]: 1876  LLC: 2048
rand_sets[8]: 1876
Assign rand_sets[9]: 2038  LLC: 2048
rand_sets[9]: 2038
Assign rand_sets[10]: 701  LLC: 2048
rand_sets[10]: 701
Assign rand_sets[11]: 479  LLC: 2048
rand_sets[11]: 479
Assign rand_sets[12]: 892  LLC: 2048
rand_sets[12]: 892
Assign rand_sets[13]: 1820  LLC: 2048
rand_sets[13]: 1820
Assign rand_sets[14]: 1505  LLC: 2048
rand_sets[14]: 1505
Assign rand_sets[15]: 1159  LLC: 2048
rand_sets[15]: 1159
Assign rand_sets[16]: 513  LLC: 2048
rand_sets[16]: 513
Assign rand_sets[17]: 703  LLC: 2048
rand_sets[17]: 703
Assign rand_sets[18]: 561  LLC: 2048
rand_sets[18]: 561
Assign rand_sets[19]: 990  LLC: 2048
rand_sets[19]: 990
Assign rand_sets[20]: 342  LLC: 2048
rand_sets[20]: 342
Assign rand_sets[21]: 882  LLC: 2048
rand_sets[21]: 882
Assign rand_sets[22]: 15  LLC: 2048
rand_sets[22]: 15
Assign rand_sets[23]: 71  LLC: 2048
rand_sets[23]: 71
Assign rand_sets[24]: 1127  LLC: 2048
rand_sets[24]: 1127
Assign rand_sets[25]: 1382  LLC: 2048
rand_sets[25]: 1382
Assign rand_sets[26]: 647  LLC: 2048
rand_sets[26]: 647
Assign rand_sets[27]: 857  LLC: 2048
rand_sets[27]: 857
Assign rand_sets[28]: 1450  LLC: 2048
rand_sets[28]: 1450
Assign rand_sets[29]: 1160  LLC: 2048
rand_sets[29]: 1160
Assign rand_sets[30]: 1852  LLC: 2048
rand_sets[30]: 1852
Assign rand_sets[31]: 1881  LLC: 2048
rand_sets[31]: 1881
Assign rand_sets[32]: 1770  LLC: 2048
rand_sets[32]: 1770
Assign rand_sets[33]: 1622  LLC: 2048
rand_sets[33]: 1622
Assign rand_sets[34]: 275  LLC: 2048
rand_sets[34]: 275
Assign rand_sets[35]: 635  LLC: 2048
rand_sets[35]: 635
Assign rand_sets[36]: 466  LLC: 2048
rand_sets[36]: 466
Assign rand_sets[37]: 1413  LLC: 2048
rand_sets[37]: 1413
Assign rand_sets[38]: 417  LLC: 2048
rand_sets[38]: 417
Assign rand_sets[39]: 472  LLC: 2048
rand_sets[39]: 472
Assign rand_sets[40]: 1340  LLC: 2048
rand_sets[40]: 1340
Assign rand_sets[41]: 852  LLC: 2048
rand_sets[41]: 852
Assign rand_sets[42]: 1365  LLC: 2048
rand_sets[42]: 1365
Assign rand_sets[43]: 47  LLC: 2048
rand_sets[43]: 47
Assign rand_sets[44]: 823  LLC: 2048
rand_sets[44]: 823
Assign rand_sets[45]: 686  LLC: 2048
rand_sets[45]: 686
Assign rand_sets[46]: 1637  LLC: 2048
rand_sets[46]: 1637
Assign rand_sets[47]: 1115  LLC: 2048
rand_sets[47]: 1115
Assign rand_sets[48]: 986  LLC: 2048
rand_sets[48]: 986
Assign rand_sets[49]: 258  LLC: 2048
rand_sets[49]: 258
Assign rand_sets[50]: 633  LLC: 2048
rand_sets[50]: 633
Assign rand_sets[51]: 920  LLC: 2048
rand_sets[51]: 920
Assign rand_sets[52]: 204  LLC: 2048
rand_sets[52]: 204
Assign rand_sets[53]: 227  LLC: 2048
rand_sets[53]: 227
Assign rand_sets[54]: 1818  LLC: 2048
rand_sets[54]: 1818
Assign rand_sets[55]: 886  LLC: 2048
rand_sets[55]: 886
Assign rand_sets[56]: 1422  LLC: 2048
rand_sets[56]: 1422
Assign rand_sets[57]: 607  LLC: 2048
rand_sets[57]: 607
Assign rand_sets[58]: 217  LLC: 2048
rand_sets[58]: 217
Assign rand_sets[59]: 1945  LLC: 2048
rand_sets[59]: 1945
Assign rand_sets[60]: 143  LLC: 2048
rand_sets[60]: 143
Assign rand_sets[61]: 1311  LLC: 2048
rand_sets[61]: 1311
Assign rand_sets[62]: 319  LLC: 2048
rand_sets[62]: 319
Assign rand_sets[63]: 1846  LLC: 2048
rand_sets[63]: 1846
 CLEAN-RRIP-POLICY-1: 0-3-2-3-2-3-0-1- CLEAN-RRIP-POLICY-2: 0-3-2-3-2-3-0-1-
 DIRTY-RRIP-POLICY-1: 0-3-1-3-2-3-1-1- DIRTY-RRIP-POLICY-2: 0-3-1-3-2-3-1-1-
 PSEL width: 10
Heartbeat CPU 0 instructions: 10000000 cycles: 4124762 heartbeat IPC: 2.42438 cumulative IPC: 2.42438 (Simulation time: 0 hr 0 min 14 sec) 
Heartbeat CPU 0 instructions: 20000000 cycles: 8234020 heartbeat IPC: 2.43353 cumulative IPC: 2.42895 (Simulation time: 0 hr 0 min 27 sec) 
Heartbeat CPU 0 instructions: 30000003 cycles: 12464951 heartbeat IPC: 2.36355 cumulative IPC: 2.40675 (Simulation time: 0 hr 0 min 40 sec) 
Heartbeat CPU 0 instructions: 40000000 cycles: 16637038 heartbeat IPC: 2.39688 cumulative IPC: 2.40427 (Simulation time: 0 hr 0 min 54 sec) 
Heartbeat CPU 0 instructions: 50000000 cycles: 20699487 heartbeat IPC: 2.46157 cumulative IPC: 2.41552 (Simulation time: 0 hr 1 min 7 sec) 
Heartbeat CPU 0 instructions: 60000000 cycles: 25022954 heartbeat IPC: 2.31296 cumulative IPC: 2.3978 (Simulation time: 0 hr 1 min 20 sec) 
Heartbeat CPU 0 instructions: 70000000 cycles: 29371235 heartbeat IPC: 2.29976 cumulative IPC: 2.38328 (Simulation time: 0 hr 1 min 33 sec) 
Heartbeat CPU 0 instructions: 80000000 cycles: 33721350 heartbeat IPC: 2.29879 cumulative IPC: 2.37238 (Simulation time: 0 hr 1 min 46 sec) 
Heartbeat CPU 0 instructions: 90000002 cycles: 38032317 heartbeat IPC: 2.31967 cumulative IPC: 2.36641 (Simulation time: 0 hr 1 min 59 sec) 
Heartbeat CPU 0 instructions: 100000000 cycles: 42329229 heartbeat IPC: 2.32725 cumulative IPC: 2.36243 (Simulation time: 0 hr 2 min 13 sec) 

Warmup complete CPU 0 instructions: 100000001 cycles: 42329230 (Simulation time: 0 hr 2 min 13 sec) 

Heartbeat CPU 0 instructions: 110000001 cycles: 49373373 heartbeat IPC: 1.41962 cumulative IPC: 1.41962 (Simulation time: 0 hr 2 min 30 sec) 
Heartbeat CPU 0 instructions: 120000000 cycles: 58852809 heartbeat IPC: 1.05491 cumulative IPC: 1.21039 (Simulation time: 0 hr 2 min 49 sec) 
Heartbeat CPU 0 instructions: 130000000 cycles: 63687023 heartbeat IPC: 2.06859 cumulative IPC: 1.40464 (Simulation time: 0 hr 3 min 5 sec) 
Heartbeat CPU 0 instructions: 140000000 cycles: 68666361 heartbeat IPC: 2.0083 cumulative IPC: 1.51877 (Simulation time: 0 hr 3 min 22 sec) 
Heartbeat CPU 0 instructions: 150000002 cycles: 75434377 heartbeat IPC: 1.47754 cumulative IPC: 1.51034 (Simulation time: 0 hr 3 min 40 sec) 
Heartbeat CPU 0 instructions: 160000000 cycles: 83249876 heartbeat IPC: 1.27951 cumulative IPC: 1.46625 (Simulation time: 0 hr 3 min 57 sec) 
Heartbeat CPU 0 instructions: 170000000 cycles: 90645786 heartbeat IPC: 1.3521 cumulative IPC: 1.44878 (Simulation time: 0 hr 4 min 15 sec) 
Heartbeat CPU 0 instructions: 180000000 cycles: 97943126 heartbeat IPC: 1.37036 cumulative IPC: 1.43849 (Simulation time: 0 hr 4 min 32 sec) 
Heartbeat CPU 0 instructions: 190000002 cycles: 105117433 heartbeat IPC: 1.39386 cumulative IPC: 1.43339 (Simulation time: 0 hr 4 min 49 sec) 
Heartbeat CPU 0 instructions: 200000000 cycles: 112351012 heartbeat IPC: 1.38244 cumulative IPC: 1.42813 (Simulation time: 0 hr 5 min 6 sec) 
Heartbeat CPU 0 instructions: 210000000 cycles: 119209082 heartbeat IPC: 1.45814 cumulative IPC: 1.4308 (Simulation time: 0 hr 5 min 22 sec) 
Heartbeat CPU 0 instructions: 220000000 cycles: 125972019 heartbeat IPC: 1.47865 cumulative IPC: 1.43467 (Simulation time: 0 hr 5 min 39 sec) 
Heartbeat CPU 0 instructions: 230000003 cycles: 132688285 heartbeat IPC: 1.48892 cumulative IPC: 1.4387 (Simulation time: 0 hr 5 min 55 sec) 
Heartbeat CPU 0 instructions: 240000000 cycles: 139427158 heartbeat IPC: 1.48393 cumulative IPC: 1.44184 (Simulation time: 0 hr 6 min 12 sec) 
Heartbeat CPU 0 instructions: 250000001 cycles: 146144737 heartbeat IPC: 1.48863 cumulative IPC: 1.44487 (Simulation time: 0 hr 6 min 28 sec) 
Heartbeat CPU 0 instructions: 260000000 cycles: 152826088 heartbeat IPC: 1.4967 cumulative IPC: 1.448 (Simulation time: 0 hr 6 min 45 sec) 
Heartbeat CPU 0 instructions: 270000001 cycles: 159772368 heartbeat IPC: 1.43962 cumulative IPC: 1.44751 (Simulation time: 0 hr 7 min 2 sec) 
Heartbeat CPU 0 instructions: 280000000 cycles: 167284889 heartbeat IPC: 1.33111 cumulative IPC: 1.44051 (Simulation time: 0 hr 7 min 19 sec) 
Heartbeat CPU 0 instructions: 290000000 cycles: 175197549 heartbeat IPC: 1.2638 cumulative IPC: 1.42999 (Simulation time: 0 hr 7 min 36 sec) 
Heartbeat CPU 0 instructions: 300000000 cycles: 183360534 heartbeat IPC: 1.22504 cumulative IPC: 1.41812 (Simulation time: 0 hr 7 min 54 sec) 
Heartbeat CPU 0 instructions: 310000002 cycles: 191652629 heartbeat IPC: 1.20597 cumulative IPC: 1.40634 (Simulation time: 0 hr 8 min 12 sec) 
Heartbeat CPU 0 instructions: 320000000 cycles: 201701134 heartbeat IPC: 0.995173 cumulative IPC: 1.38042 (Simulation time: 0 hr 8 min 32 sec) 
Heartbeat CPU 0 instructions: 330000002 cycles: 206363431 heartbeat IPC: 2.14487 cumulative IPC: 1.40215 (Simulation time: 0 hr 8 min 49 sec) 
Heartbeat CPU 0 instructions: 340000000 cycles: 211672111 heartbeat IPC: 1.88371 cumulative IPC: 1.41724 (Simulation time: 0 hr 9 min 6 sec) 
Heartbeat CPU 0 instructions: 350000000 cycles: 218825779 heartbeat IPC: 1.39788 cumulative IPC: 1.41646 (Simulation time: 0 hr 9 min 24 sec) 
Heartbeat CPU 0 instructions: 360000000 cycles: 226445655 heartbeat IPC: 1.31236 cumulative IPC: 1.41215 (Simulation time: 0 hr 9 min 41 sec) 
Heartbeat CPU 0 instructions: 370000000 cycles: 233839943 heartbeat IPC: 1.3524 cumulative IPC: 1.40984 (Simulation time: 0 hr 9 min 58 sec) 
Heartbeat CPU 0 instructions: 380000000 cycles: 241086001 heartbeat IPC: 1.38006 cumulative IPC: 1.40876 (Simulation time: 0 hr 10 min 15 sec) 
Heartbeat CPU 0 instructions: 390000000 cycles: 249187139 heartbeat IPC: 1.23439 cumulative IPC: 1.40193 (Simulation time: 0 hr 10 min 33 sec) 
Heartbeat CPU 0 instructions: 400000000 cycles: 257357397 heartbeat IPC: 1.22395 cumulative IPC: 1.39517 (Simulation time: 0 hr 10 min 51 sec) 
Heartbeat CPU 0 instructions: 410000001 cycles: 265155891 heartbeat IPC: 1.2823 cumulative IPC: 1.39122 (Simulation time: 0 hr 11 min 9 sec) 
Heartbeat CPU 0 instructions: 420000000 cycles: 273179897 heartbeat IPC: 1.24626 cumulative IPC: 1.38618 (Simulation time: 0 hr 11 min 27 sec) 
Heartbeat CPU 0 instructions: 430000001 cycles: 281405082 heartbeat IPC: 1.21578 cumulative IPC: 1.38032 (Simulation time: 0 hr 11 min 45 sec) 
Heartbeat CPU 0 instructions: 440000000 cycles: 289416998 heartbeat IPC: 1.24814 cumulative IPC: 1.37603 (Simulation time: 0 hr 12 min 3 sec) 
Heartbeat CPU 0 instructions: 450000001 cycles: 297252123 heartbeat IPC: 1.2763 cumulative IPC: 1.37296 (Simulation time: 0 hr 12 min 20 sec) 
Heartbeat CPU 0 instructions: 460000000 cycles: 307141507 heartbeat IPC: 1.01119 cumulative IPC: 1.35945 (Simulation time: 0 hr 12 min 40 sec) 
Heartbeat CPU 0 instructions: 470000002 cycles: 311799679 heartbeat IPC: 2.14677 cumulative IPC: 1.37306 (Simulation time: 0 hr 12 min 56 sec) 
Heartbeat CPU 0 instructions: 480000000 cycles: 317125178 heartbeat IPC: 1.87776 cumulative IPC: 1.38284 (Simulation time: 0 hr 13 min 13 sec) 
Heartbeat CPU 0 instructions: 490000001 cycles: 324442014 heartbeat IPC: 1.36671 cumulative IPC: 1.38243 (Simulation time: 0 hr 13 min 31 sec) 
Heartbeat CPU 0 instructions: 500000000 cycles: 333170813 heartbeat IPC: 1.14563 cumulative IPC: 1.37532 (Simulation time: 0 hr 13 min 51 sec) 
Heartbeat CPU 0 instructions: 510000002 cycles: 341900495 heartbeat IPC: 1.14552 cumulative IPC: 1.36862 (Simulation time: 0 hr 14 min 11 sec) 
Heartbeat CPU 0 instructions: 520000000 cycles: 350628562 heartbeat IPC: 1.14573 cumulative IPC: 1.36231 (Simulation time: 0 hr 14 min 31 sec) 
Heartbeat CPU 0 instructions: 530000000 cycles: 359334613 heartbeat IPC: 1.14863 cumulative IPC: 1.35644 (Simulation time: 0 hr 14 min 51 sec) 
Heartbeat CPU 0 instructions: 540000000 cycles: 367589820 heartbeat IPC: 1.21136 cumulative IPC: 1.35276 (Simulation time: 0 hr 15 min 10 sec) 
Heartbeat CPU 0 instructions: 550000000 cycles: 374625553 heartbeat IPC: 1.42132 cumulative IPC: 1.35421 (Simulation time: 0 hr 15 min 27 sec) 
Heartbeat CPU 0 instructions: 560000000 cycles: 381231471 heartbeat IPC: 1.51379 cumulative IPC: 1.35732 (Simulation time: 0 hr 15 min 44 sec) 
Heartbeat CPU 0 instructions: 570000002 cycles: 387808061 heartbeat IPC: 1.52055 cumulative IPC: 1.36043 (Simulation time: 0 hr 16 min 1 sec) 
Heartbeat CPU 0 instructions: 580000000 cycles: 394436635 heartbeat IPC: 1.50862 cumulative IPC: 1.36322 (Simulation time: 0 hr 16 min 18 sec) 
Heartbeat CPU 0 instructions: 590000002 cycles: 401105999 heartbeat IPC: 1.49939 cumulative IPC: 1.36575 (Simulation time: 0 hr 16 min 35 sec) 
Heartbeat CPU 0 instructions: 600000000 cycles: 407894093 heartbeat IPC: 1.47317 cumulative IPC: 1.36775 (Simulation time: 0 hr 16 min 52 sec) 
Finished CPU 0 instructions: 500000000 cycles: 365564871 cumulative IPC: 1.36775 (Simulation time: 0 hr 16 min 52 sec) 

CPU 0 Branch Prediction Accuracy: 93.4682% MPKI: 2.44079
Number of Branches: 18683822 Number of Mispredictions: 1220394
Number of LOAD Instructions: 142551610
Number of LOAD Instructions (ROI): 142551610
Number of STORE Instructions: 44807454
Number of STORE Instructions (ROI): 44807454
Total Destination Memory Operands: 48357071
Total Destination Memory Operands (ROI): 48357071
Total Source Memory Operands: 142551610
Total Source Memory Operands (ROI): 142551610
Number of DEPENDED LOADS: 7395185
Number of DEPENDED LOADS (ROI): 7395185
Number of SQ_ADDED: 48357051
Number of SQ_ADDED (ROI): 48357051
Number of LQ_ADDED: 157215515
Number of LQ_ADDED (ROI): 157215515
Number of Instructions read from trace: 600000256

ChampSim completed all CPUs

Region of Interest Statistics

CPU 0 cumulative IPC: 1.36775 instructions: 500000000 cycles: 365564871
ITLB TOTAL     ACCESS:   88173380  HIT:   88173311  MISS:         69
ITLB LOAD      ACCESS:   88173380  HIT:   88173311  MISS:         69
ITLB RFO       ACCESS:          0  HIT:          0  MISS:          0
ITLB PREFETCH  ACCESS:          0  HIT:          0  MISS:          0
ITLB WRITEBACK ACCESS:          0  HIT:          0  MISS:          0
ITLB PREFETCH  REQUESTED:          0  ISSUED:          0  USEFUL:          0  USELESS:          0
ITLB TOTAL MSHR MERGED:         83
ITLB LOAD MSHR MERGED:         83
ITLB RFO MSHR MERGED:          0
ITLB PREFETCH MSHR MERGED:          0
ITLB WRITEBACK MSHR MERGED:          0
ITLB TOTAL ACCESSES:   88173463 HITS:   88173311 MISSES:        152
ITLB LOAD ACCESSES:   88173463 HITS:   88173311 MISSES:        152
ITLB RFO ACCESSES:          0 HITS:          0 MISSES:          0
ITLB PREFETCH ACCESSES:          0 HITS:          0 MISSES:          0
ITLB WRITEBACK ACCESSES:          0 HITS:          0 MISSES:          0
ITLB RQ ACCESS:  500000000
ITLB RQ TO_CACHE:   88173463
ITLB RQ MERGED:  411826537
ITLB RQ FORWARD:          0
ITLB WQ ACCESS:          0
ITLB WQ TO_CACHE:          0
ITLB WQ MERGED:          0
ITLB WQ FORWARD:          0
DTLB TOTAL     ACCESS:   88204209  HIT:   88076791  MISS:     127418
DTLB LOAD      ACCESS:   59485809  HIT:   59393350  MISS:      92459
DTLB RFO       ACCESS:   28718400  HIT:   28683441  MISS:      34959
DTLB PREFETCH  ACCESS:          0  HIT:          0  MISS:          0
DTLB WRITEBACK ACCESS:          0  HIT:          0  MISS:          0
DTLB PREFETCH  REQUESTED:          0  ISSUED:          0  USEFUL:          0  USELESS:          0
DTLB TOTAL MSHR MERGED:     140722
DTLB LOAD MSHR MERGED:     107406
DTLB RFO MSHR MERGED:      33316
DTLB PREFETCH MSHR MERGED:          0
DTLB WRITEBACK MSHR MERGED:          0
DTLB TOTAL ACCESSES:   88344931 HITS:   88076791 MISSES:     268140
DTLB LOAD ACCESSES:   59593215 HITS:   59393350 MISSES:     199865
DTLB RFO ACCESSES:   28751716 HITS:   28683441 MISSES:      68275
DTLB PREFETCH ACCESSES:          0 HITS:          0 MISSES:          0
DTLB WRITEBACK ACCESSES:          0 HITS:          0 MISSES:          0
DTLB RQ ACCESS:  154558712
DTLB RQ TO_CACHE:   88344931
DTLB RQ MERGED:   66213781
DTLB RQ FORWARD:          0
DTLB WQ ACCESS:          0
DTLB WQ TO_CACHE:          0
DTLB WQ MERGED:          0
DTLB WQ FORWARD:          0
L1D TOTAL     ACCESS:  127706384  HIT:  124482679  MISS:    3223705
L1D LOAD      ACCESS:   53172537  HIT:   51977301  MISS:    1195236
L1D RFO       ACCESS:   37352704  HIT:   36738416  MISS:     614288
L1D PREFETCH  ACCESS:   37181143  HIT:   35766962  MISS:    1414181
L1D WRITEBACK ACCESS:          0  HIT:          0  MISS:          0
L1D PREFETCH  REQUESTED:   53657167  ISSUED:   52453461  USEFUL:     352135  USELESS:    1062011
L1D TOTAL MSHR MERGED:    3035064
L1D LOAD MSHR MERGED:     522576
L1D RFO MSHR MERGED:    1601169
L1D PREFETCH MSHR MERGED:     911319
L1D WRITEBACK MSHR MERGED:          0
L1D TOTAL ACCESSES:  130776234 HITS:  124517465 MISSES:    6258769
L1D LOAD ACCESSES:   53659946 HITS:   51980080 MISSES:    1679866
L1D RFO ACCESSES:   38952851 HITS:   36738416 MISSES:    2214435
L1D PREFETCH ACCESSES:   38163437 HITS:   35798969 MISSES:    2364468
L1D WRITEBACK ACCESSES:          0 HITS:          0 MISSES:          0
L1D RQ ACCESS:  113713820
L1D RQ TO_CACHE:   53657167
L1D RQ MERGED:   60053874
L1D RQ FORWARD:          0
L1D WQ ACCESS:   40844891
L1D WQ TO_CACHE:   38952851
L1D WQ MERGED:    1892040
L1D WQ FORWARD:      34786
L1I TOTAL     ACCESS:  108367229  HIT:  107808091  MISS:     559138
L1I LOAD      ACCESS:  108367229  HIT:  107808091  MISS:     559138
L1I RFO       ACCESS:          0  HIT:          0  MISS:          0
L1I PREFETCH  ACCESS:          0  HIT:          0  MISS:          0
L1I WRITEBACK ACCESS:          0  HIT:          0  MISS:          0
L1I PREFETCH  REQUESTED:          0  ISSUED:          0  USEFUL:          0  USELESS:          0
L1I TOTAL MSHR MERGED:     525795
L1I LOAD MSHR MERGED:     525795
L1I RFO MSHR MERGED:          0
L1I PREFETCH MSHR MERGED:          0
L1I WRITEBACK MSHR MERGED:          0
L1I TOTAL ACCESSES:  108893024 HITS:  107808091 MISSES:    1084933
L1I LOAD ACCESSES:  108893024 HITS:  107808091 MISSES:    1084933
L1I RFO ACCESSES:          0 HITS:          0 MISSES:          0
L1I PREFETCH ACCESSES:          0 HITS:          0 MISSES:          0
L1I WRITEBACK ACCESSES:          0 HITS:          0 MISSES:          0
L1I RQ ACCESS:  500000002
L1I RQ TO_CACHE:  108893024
L1I RQ MERGED:  391106978
L1I RQ FORWARD:          0
L1I WQ ACCESS:          0
L1I WQ TO_CACHE:          0
L1I WQ MERGED:          0
L1I WQ FORWARD:          0
L2C TOTAL     ACCESS:    4688105  HIT:    3863872  MISS:     824233
L2C LOAD      ACCESS:    1716314  HIT:    1561383  MISS:     154931
L2C RFO       ACCESS:     611858  HIT:     421158  MISS:     190700
L2C PREFETCH  ACCESS:    1657001  HIT:    1180585  MISS:     476416
L2C WRITEBACK ACCESS:     702932  HIT:     700746  MISS:       2186
L2C PREFETCH  REQUESTED:     257774  ISSUED:     257774  USEFUL:     171722  USELESS:     305360
L2C TOTAL MSHR MERGED:      12339
L2C LOAD MSHR MERGED:       3922
L2C RFO MSHR MERGED:          0
L2C PREFETCH MSHR MERGED:       8417
L2C WRITEBACK MSHR MERGED:          0
L2C TOTAL ACCESSES:    4712230 HITS:    3865465 MISSES:     846765
L2C LOAD ACCESSES:    1716428 HITS:    1561497 MISSES:     154931
L2C RFO ACCESSES:     613266 HITS:     422566 MISSES:     190700
L2C PREFETCH ACCESSES:    1679604 HITS:    1180656 MISSES:     498948
L2C WRITEBACK ACCESSES:     702932 HITS:     700746 MISSES:       2186
L2C RQ ACCESS:    2329694
L2C RQ TO_CACHE:    2328172
L2C RQ MERGED:          0
L2C RQ FORWARD:          0
L2C WQ ACCESS:     702932
L2C WQ TO_CACHE:     702932
L2C WQ MERGED:          0
L2C WQ FORWARD:       1593
LLC TOTAL     ACCESS:    1045656  HIT:     187328  MISS:     858328
LLC LOAD      ACCESS:     151005  HIT:      91731  MISS:      59274
LLC RFO       ACCESS:     190693  HIT:       8114  MISS:     182579
LLC PREFETCH  ACCESS:     483083  HIT:      52816  MISS:     430267
LLC WRITEBACK ACCESS:     220875  HIT:      34667  MISS:     186208
LLC PREFETCH  REQUESTED:          0  ISSUED:          0  USEFUL:       2349  USELESS:     428070
LLC TOTAL MSHR MERGED:       5805
LLC LOAD MSHR MERGED:       2770
LLC RFO MSHR MERGED:          0
LLC PREFETCH MSHR MERGED:       3035
LLC WRITEBACK MSHR MERGED:          0
LLC TOTAL ACCESSES:    1051472 HITS:     187339 MISSES:     864133
LLC LOAD ACCESSES:     151009 HITS:      91735 MISSES:      59274
LLC RFO ACCESSES:     190700 HITS:       8121 MISSES:     182579
LLC PREFETCH ACCESSES:     488888 HITS:      52816 MISSES:     436072
LLC WRITEBACK ACCESSES:     220875 HITS:      34667 MISSES:     186208
LLC 0 RQ ACCESS:     341709
LLC 0 RQ TO_CACHE:     341698
LLC 0 RQ MERGED:          0
LLC 0 RQ FORWARD:          0
LLC WQ ACCESS:     220875
LLC WQ TO_CACHE:     220875
LLC WQ MERGED:          0
LLC WQ FORWARD:         11
Major fault: 0 Minor fault: 6811
CPU 0 L1D next line prefetcher final stats
CPU 0 L2C PC-based stride prefetcher final stats
All Misses: 1004430
All Hits: 248209
SD Algo Stats - Switches: 0 SRR-Repls: 67155 BRR-Repls: 0

DRAM Statistics
 CHANNEL 0
 RQ ROW_BUFFER_HIT:     371276  ROW_BUFFER_MISS:     300555
 DBUS_CONGESTED:     485086
 WQ ROW_BUFFER_HIT:      65939  ROW_BUFFER_MISS:     158937  FULL:          0

 AVG_CONGESTED_CYCLE: 13
LOADS RETIRED: 119922929
INSTR RETIRED: 500000000
