
*** ChampSim Multicore Out-of-Order Simulator ***

Warmup Instructions: 100000000
Simulation Instructions: 500000000
Number of CPUs: 1
LLC sets: 2048
LLC ways: 16
Clean RRIP Policies: 1123130111231301 Dirty RRIP Policies: 1103130111031301 PSEL Width: 10 Track Set: 4294967295 PSEL Mask: 1 Demote Mask: 4004144440041444DS Algo: 0Window size: 0
Off-chip DRAM Size: 4096 MB Channels: 1 Width: 64-bit Data Rate: 1600 MT/s

CPU 0 runs /mnt/beegfs/iconst01/spec2017/Gcc.trace.gz
NOT SORTED
TRACE STRING: /mnt/beegfs/iconst01/spec2017/Gcc.trace.gz
SORTED
TRACE STRING: /mnt/beegfs/iconst01/spec2017/Gcc.trace.gz
INITIAL
TRACE STRING: /mnt/beegfs/iconst01/spec2017/Gcc.trace.gz

champsim_seed used: 269

CPU 0 L1D next line prefetcher
CPU 0 L2C IP-based stride prefetcher
Initialize DRRIP state
Assign rand_sets[0]: 454  LLC: 2048
rand_sets[0]: 454
Assign rand_sets[1]: 1662  LLC: 2048
rand_sets[1]: 1662
Assign rand_sets[2]: 1921  LLC: 2048
rand_sets[2]: 1921
Assign rand_sets[3]: 1131  LLC: 2048
rand_sets[3]: 1131
Assign rand_sets[4]: 331  LLC: 2048
rand_sets[4]: 331
Assign rand_sets[5]: 1531  LLC: 2048
rand_sets[5]: 1531
Assign rand_sets[6]: 482  LLC: 2048
rand_sets[6]: 482
Assign rand_sets[7]: 1275  LLC: 2048
rand_sets[7]: 1275
Assign rand_sets[8]: 1876  LLC: 2048
rand_sets[8]: 1876
Assign rand_sets[9]: 2038  LLC: 2048
rand_sets[9]: 2038
Assign rand_sets[10]: 701  LLC: 2048
rand_sets[10]: 701
Assign rand_sets[11]: 479  LLC: 2048
rand_sets[11]: 479
Assign rand_sets[12]: 892  LLC: 2048
rand_sets[12]: 892
Assign rand_sets[13]: 1820  LLC: 2048
rand_sets[13]: 1820
Assign rand_sets[14]: 1505  LLC: 2048
rand_sets[14]: 1505
Assign rand_sets[15]: 1159  LLC: 2048
rand_sets[15]: 1159
Assign rand_sets[16]: 513  LLC: 2048
rand_sets[16]: 513
Assign rand_sets[17]: 703  LLC: 2048
rand_sets[17]: 703
Assign rand_sets[18]: 561  LLC: 2048
rand_sets[18]: 561
Assign rand_sets[19]: 990  LLC: 2048
rand_sets[19]: 990
Assign rand_sets[20]: 342  LLC: 2048
rand_sets[20]: 342
Assign rand_sets[21]: 882  LLC: 2048
rand_sets[21]: 882
Assign rand_sets[22]: 15  LLC: 2048
rand_sets[22]: 15
Assign rand_sets[23]: 71  LLC: 2048
rand_sets[23]: 71
Assign rand_sets[24]: 1127  LLC: 2048
rand_sets[24]: 1127
Assign rand_sets[25]: 1382  LLC: 2048
rand_sets[25]: 1382
Assign rand_sets[26]: 647  LLC: 2048
rand_sets[26]: 647
Assign rand_sets[27]: 857  LLC: 2048
rand_sets[27]: 857
Assign rand_sets[28]: 1450  LLC: 2048
rand_sets[28]: 1450
Assign rand_sets[29]: 1160  LLC: 2048
rand_sets[29]: 1160
Assign rand_sets[30]: 1852  LLC: 2048
rand_sets[30]: 1852
Assign rand_sets[31]: 1881  LLC: 2048
rand_sets[31]: 1881
Assign rand_sets[32]: 1770  LLC: 2048
rand_sets[32]: 1770
Assign rand_sets[33]: 1622  LLC: 2048
rand_sets[33]: 1622
Assign rand_sets[34]: 275  LLC: 2048
rand_sets[34]: 275
Assign rand_sets[35]: 635  LLC: 2048
rand_sets[35]: 635
Assign rand_sets[36]: 466  LLC: 2048
rand_sets[36]: 466
Assign rand_sets[37]: 1413  LLC: 2048
rand_sets[37]: 1413
Assign rand_sets[38]: 417  LLC: 2048
rand_sets[38]: 417
Assign rand_sets[39]: 472  LLC: 2048
rand_sets[39]: 472
Assign rand_sets[40]: 1340  LLC: 2048
rand_sets[40]: 1340
Assign rand_sets[41]: 852  LLC: 2048
rand_sets[41]: 852
Assign rand_sets[42]: 1365  LLC: 2048
rand_sets[42]: 1365
Assign rand_sets[43]: 47  LLC: 2048
rand_sets[43]: 47
Assign rand_sets[44]: 823  LLC: 2048
rand_sets[44]: 823
Assign rand_sets[45]: 686  LLC: 2048
rand_sets[45]: 686
Assign rand_sets[46]: 1637  LLC: 2048
rand_sets[46]: 1637
Assign rand_sets[47]: 1115  LLC: 2048
rand_sets[47]: 1115
Assign rand_sets[48]: 986  LLC: 2048
rand_sets[48]: 986
Assign rand_sets[49]: 258  LLC: 2048
rand_sets[49]: 258
Assign rand_sets[50]: 633  LLC: 2048
rand_sets[50]: 633
Assign rand_sets[51]: 920  LLC: 2048
rand_sets[51]: 920
Assign rand_sets[52]: 204  LLC: 2048
rand_sets[52]: 204
Assign rand_sets[53]: 227  LLC: 2048
rand_sets[53]: 227
Assign rand_sets[54]: 1818  LLC: 2048
rand_sets[54]: 1818
Assign rand_sets[55]: 886  LLC: 2048
rand_sets[55]: 886
Assign rand_sets[56]: 1422  LLC: 2048
rand_sets[56]: 1422
Assign rand_sets[57]: 607  LLC: 2048
rand_sets[57]: 607
Assign rand_sets[58]: 217  LLC: 2048
rand_sets[58]: 217
Assign rand_sets[59]: 1945  LLC: 2048
rand_sets[59]: 1945
Assign rand_sets[60]: 143  LLC: 2048
rand_sets[60]: 143
Assign rand_sets[61]: 1311  LLC: 2048
rand_sets[61]: 1311
Assign rand_sets[62]: 319  LLC: 2048
rand_sets[62]: 319
Assign rand_sets[63]: 1846  LLC: 2048
rand_sets[63]: 1846
 CLEAN-RRIP-POLICY-1: 1-1-2-3-1-3-0-1- CLEAN-RRIP-POLICY-2: 1-1-2-3-1-3-0-1-
 DIRTY-RRIP-POLICY-1: 1-1-0-3-1-3-0-1- DIRTY-RRIP-POLICY-2: 1-1-0-3-1-3-0-1-
 PSEL width: 10
Heartbeat CPU 0 instructions: 10000001 cycles: 7315981 heartbeat IPC: 1.36687 cumulative IPC: 1.36687 (Simulation time: 0 hr 0 min 15 sec) 
Heartbeat CPU 0 instructions: 20000000 cycles: 14307471 heartbeat IPC: 1.43031 cumulative IPC: 1.39787 (Simulation time: 0 hr 0 min 30 sec) 
Heartbeat CPU 0 instructions: 30000001 cycles: 21020230 heartbeat IPC: 1.4897 cumulative IPC: 1.4272 (Simulation time: 0 hr 0 min 47 sec) 
Heartbeat CPU 0 instructions: 40000000 cycles: 27480948 heartbeat IPC: 1.54782 cumulative IPC: 1.45555 (Simulation time: 0 hr 1 min 3 sec) 
Heartbeat CPU 0 instructions: 50000001 cycles: 33582489 heartbeat IPC: 1.63893 cumulative IPC: 1.48887 (Simulation time: 0 hr 1 min 19 sec) 
Heartbeat CPU 0 instructions: 60000000 cycles: 40063521 heartbeat IPC: 1.54296 cumulative IPC: 1.49762 (Simulation time: 0 hr 1 min 35 sec) 
Heartbeat CPU 0 instructions: 70000000 cycles: 47100804 heartbeat IPC: 1.421 cumulative IPC: 1.48617 (Simulation time: 0 hr 1 min 50 sec) 
Heartbeat CPU 0 instructions: 80000000 cycles: 54190128 heartbeat IPC: 1.41057 cumulative IPC: 1.47628 (Simulation time: 0 hr 2 min 5 sec) 
Heartbeat CPU 0 instructions: 90000003 cycles: 61194287 heartbeat IPC: 1.42772 cumulative IPC: 1.47073 (Simulation time: 0 hr 2 min 20 sec) 
Heartbeat CPU 0 instructions: 100000000 cycles: 68361218 heartbeat IPC: 1.3953 cumulative IPC: 1.46282 (Simulation time: 0 hr 2 min 35 sec) 

Warmup complete CPU 0 instructions: 100000004 cycles: 68361219 (Simulation time: 0 hr 2 min 35 sec) 

Heartbeat CPU 0 instructions: 110000003 cycles: 95935989 heartbeat IPC: 0.36265 cumulative IPC: 0.36265 (Simulation time: 0 hr 3 min 4 sec) 
Heartbeat CPU 0 instructions: 120000000 cycles: 123360554 heartbeat IPC: 0.364636 cumulative IPC: 0.363641 (Simulation time: 0 hr 3 min 34 sec) 
Heartbeat CPU 0 instructions: 130000000 cycles: 148293925 heartbeat IPC: 0.401069 cumulative IPC: 0.375316 (Simulation time: 0 hr 4 min 3 sec) 
Heartbeat CPU 0 instructions: 140000000 cycles: 177617622 heartbeat IPC: 0.341021 cumulative IPC: 0.366111 (Simulation time: 0 hr 4 min 32 sec) 
Heartbeat CPU 0 instructions: 150000000 cycles: 207392430 heartbeat IPC: 0.335854 cumulative IPC: 0.359631 (Simulation time: 0 hr 5 min 2 sec) 
Heartbeat CPU 0 instructions: 160000000 cycles: 234760192 heartbeat IPC: 0.365393 cumulative IPC: 0.360579 (Simulation time: 0 hr 5 min 30 sec) 
Heartbeat CPU 0 instructions: 170000001 cycles: 262703978 heartbeat IPC: 0.357861 cumulative IPC: 0.360188 (Simulation time: 0 hr 6 min 1 sec) 
Heartbeat CPU 0 instructions: 180000000 cycles: 291072779 heartbeat IPC: 0.3525 cumulative IPC: 0.359209 (Simulation time: 0 hr 6 min 31 sec) 
Heartbeat CPU 0 instructions: 190000002 cycles: 318971544 heartbeat IPC: 0.358439 cumulative IPC: 0.359123 (Simulation time: 0 hr 7 min 0 sec) 
Heartbeat CPU 0 instructions: 200000000 cycles: 347258370 heartbeat IPC: 0.353521 cumulative IPC: 0.358555 (Simulation time: 0 hr 7 min 30 sec) 
Heartbeat CPU 0 instructions: 210000002 cycles: 375013595 heartbeat IPC: 0.360293 cumulative IPC: 0.358712 (Simulation time: 0 hr 7 min 59 sec) 
Heartbeat CPU 0 instructions: 220000000 cycles: 404001246 heartbeat IPC: 0.344974 cumulative IPC: 0.357526 (Simulation time: 0 hr 8 min 28 sec) 
Heartbeat CPU 0 instructions: 230000000 cycles: 431460877 heartbeat IPC: 0.364171 cumulative IPC: 0.358028 (Simulation time: 0 hr 8 min 56 sec) 
Heartbeat CPU 0 instructions: 240000000 cycles: 457365984 heartbeat IPC: 0.386024 cumulative IPC: 0.359893 (Simulation time: 0 hr 9 min 24 sec) 
Heartbeat CPU 0 instructions: 250000000 cycles: 487442176 heartbeat IPC: 0.332489 cumulative IPC: 0.357926 (Simulation time: 0 hr 9 min 55 sec) 
Heartbeat CPU 0 instructions: 260000000 cycles: 514479055 heartbeat IPC: 0.369865 cumulative IPC: 0.35865 (Simulation time: 0 hr 10 min 24 sec) 
Heartbeat CPU 0 instructions: 270000003 cycles: 542792166 heartbeat IPC: 0.353193 cumulative IPC: 0.358324 (Simulation time: 0 hr 10 min 54 sec) 
Heartbeat CPU 0 instructions: 280000000 cycles: 570850811 heartbeat IPC: 0.356396 cumulative IPC: 0.358216 (Simulation time: 0 hr 11 min 25 sec) 
Heartbeat CPU 0 instructions: 290000000 cycles: 599651430 heartbeat IPC: 0.347215 cumulative IPC: 0.35762 (Simulation time: 0 hr 11 min 55 sec) 
Heartbeat CPU 0 instructions: 300000000 cycles: 629345157 heartbeat IPC: 0.336771 cumulative IPC: 0.356516 (Simulation time: 0 hr 12 min 24 sec) 
Heartbeat CPU 0 instructions: 310000001 cycles: 658641988 heartbeat IPC: 0.341334 cumulative IPC: 0.355763 (Simulation time: 0 hr 12 min 53 sec) 
Heartbeat CPU 0 instructions: 320000000 cycles: 686722264 heartbeat IPC: 0.356122 cumulative IPC: 0.355779 (Simulation time: 0 hr 13 min 22 sec) 
Heartbeat CPU 0 instructions: 330000000 cycles: 715267369 heartbeat IPC: 0.350323 cumulative IPC: 0.355538 (Simulation time: 0 hr 13 min 51 sec) 
Heartbeat CPU 0 instructions: 340000000 cycles: 744472295 heartbeat IPC: 0.342408 cumulative IPC: 0.354971 (Simulation time: 0 hr 14 min 21 sec) 
Heartbeat CPU 0 instructions: 350000003 cycles: 771423395 heartbeat IPC: 0.371042 cumulative IPC: 0.355587 (Simulation time: 0 hr 14 min 49 sec) 
Heartbeat CPU 0 instructions: 360000000 cycles: 799478471 heartbeat IPC: 0.356442 cumulative IPC: 0.35562 (Simulation time: 0 hr 15 min 18 sec) 
Heartbeat CPU 0 instructions: 370000000 cycles: 827672888 heartbeat IPC: 0.35468 cumulative IPC: 0.355585 (Simulation time: 0 hr 15 min 46 sec) 
Heartbeat CPU 0 instructions: 380000000 cycles: 856190748 heartbeat IPC: 0.350657 cumulative IPC: 0.355407 (Simulation time: 0 hr 16 min 14 sec) 
Heartbeat CPU 0 instructions: 390000001 cycles: 883814598 heartbeat IPC: 0.362006 cumulative IPC: 0.35563 (Simulation time: 0 hr 16 min 42 sec) 
Heartbeat CPU 0 instructions: 400000000 cycles: 912466125 heartbeat IPC: 0.349021 cumulative IPC: 0.355406 (Simulation time: 0 hr 17 min 10 sec) 
Heartbeat CPU 0 instructions: 410000001 cycles: 939802640 heartbeat IPC: 0.365811 cumulative IPC: 0.355732 (Simulation time: 0 hr 17 min 38 sec) 
Heartbeat CPU 0 instructions: 420000000 cycles: 967144354 heartbeat IPC: 0.365741 cumulative IPC: 0.356037 (Simulation time: 0 hr 18 min 6 sec) 
Heartbeat CPU 0 instructions: 430000002 cycles: 994837846 heartbeat IPC: 0.361096 cumulative IPC: 0.356188 (Simulation time: 0 hr 18 min 34 sec) 
Heartbeat CPU 0 instructions: 440000000 cycles: 1024297178 heartbeat IPC: 0.339451 cumulative IPC: 0.355672 (Simulation time: 0 hr 19 min 2 sec) 
Heartbeat CPU 0 instructions: 450000002 cycles: 1053525318 heartbeat IPC: 0.342136 cumulative IPC: 0.355271 (Simulation time: 0 hr 19 min 30 sec) 
Heartbeat CPU 0 instructions: 460000000 cycles: 1081240395 heartbeat IPC: 0.360814 cumulative IPC: 0.355422 (Simulation time: 0 hr 19 min 58 sec) 
Heartbeat CPU 0 instructions: 470000000 cycles: 1108900194 heartbeat IPC: 0.361536 cumulative IPC: 0.355585 (Simulation time: 0 hr 20 min 26 sec) 
Heartbeat CPU 0 instructions: 480000000 cycles: 1136811573 heartbeat IPC: 0.358277 cumulative IPC: 0.355655 (Simulation time: 0 hr 20 min 54 sec) 
Heartbeat CPU 0 instructions: 490000000 cycles: 1164436344 heartbeat IPC: 0.361994 cumulative IPC: 0.355815 (Simulation time: 0 hr 21 min 21 sec) 
Heartbeat CPU 0 instructions: 500000000 cycles: 1192701219 heartbeat IPC: 0.353796 cumulative IPC: 0.355764 (Simulation time: 0 hr 21 min 50 sec) 
Heartbeat CPU 0 instructions: 510000000 cycles: 1227686543 heartbeat IPC: 0.285834 cumulative IPC: 0.353654 (Simulation time: 0 hr 22 min 21 sec) 
Heartbeat CPU 0 instructions: 520000000 cycles: 1255620948 heartbeat IPC: 0.357982 cumulative IPC: 0.353756 (Simulation time: 0 hr 22 min 50 sec) 
Heartbeat CPU 0 instructions: 530000001 cycles: 1284819148 heartbeat IPC: 0.342487 cumulative IPC: 0.353485 (Simulation time: 0 hr 23 min 19 sec) 
Heartbeat CPU 0 instructions: 540000000 cycles: 1312780363 heartbeat IPC: 0.357638 cumulative IPC: 0.353579 (Simulation time: 0 hr 23 min 48 sec) 
Heartbeat CPU 0 instructions: 550000001 cycles: 1341944288 heartbeat IPC: 0.342889 cumulative IPC: 0.353334 (Simulation time: 0 hr 24 min 18 sec) 
Heartbeat CPU 0 instructions: 560000000 cycles: 1367263354 heartbeat IPC: 0.394959 cumulative IPC: 0.354145 (Simulation time: 0 hr 24 min 47 sec) 
Heartbeat CPU 0 instructions: 570000000 cycles: 1396576503 heartbeat IPC: 0.341144 cumulative IPC: 0.353858 (Simulation time: 0 hr 25 min 16 sec) 
Heartbeat CPU 0 instructions: 580000000 cycles: 1424472315 heartbeat IPC: 0.358477 cumulative IPC: 0.353953 (Simulation time: 0 hr 25 min 45 sec) 
Heartbeat CPU 0 instructions: 590000001 cycles: 1449229568 heartbeat IPC: 0.403922 cumulative IPC: 0.354849 (Simulation time: 0 hr 26 min 12 sec) 
Heartbeat CPU 0 instructions: 600000000 cycles: 1475371345 heartbeat IPC: 0.382529 cumulative IPC: 0.355363 (Simulation time: 0 hr 26 min 41 sec) 
Finished CPU 0 instructions: 500000000 cycles: 1407010148 cumulative IPC: 0.355363 (Simulation time: 0 hr 26 min 41 sec) 

CPU 0 Branch Prediction Accuracy: 86.4311% MPKI: 26.2662
Number of Branches: 96788573 Number of Mispredictions: 13133102
Number of LOAD Instructions: 164682285
Number of LOAD Instructions (ROI): 164682285
Number of STORE Instructions: 78194750
Number of STORE Instructions (ROI): 78194750
Total Destination Memory Operands: 83268534
Total Destination Memory Operands (ROI): 83268534
Total Source Memory Operands: 164712438
Total Source Memory Operands (ROI): 164712438
Number of DEPENDED LOADS: 7061869
Number of DEPENDED LOADS (ROI): 7061869
Number of SQ_ADDED: 83268522
Number of SQ_ADDED (ROI): 83268522
Number of LQ_ADDED: 236691789
Number of LQ_ADDED (ROI): 236691789
Number of Instructions read from trace: 600000066

ChampSim completed all CPUs

Region of Interest Statistics

CPU 0 cumulative IPC: 0.355363 instructions: 500000000 cycles: 1407010148
ITLB TOTAL     ACCESS:  100509476  HIT:  100305030  MISS:     204446
ITLB LOAD      ACCESS:  100509476  HIT:  100305030  MISS:     204446
ITLB RFO       ACCESS:          0  HIT:          0  MISS:          0
ITLB PREFETCH  ACCESS:          0  HIT:          0  MISS:          0
ITLB WRITEBACK ACCESS:          0  HIT:          0  MISS:          0
ITLB PREFETCH  REQUESTED:          0  ISSUED:          0  USEFUL:          0  USELESS:          0
ITLB TOTAL MSHR MERGED:     172422
ITLB LOAD MSHR MERGED:     172422
ITLB RFO MSHR MERGED:          0
ITLB PREFETCH MSHR MERGED:          0
ITLB WRITEBACK MSHR MERGED:          0
ITLB TOTAL ACCESSES:  100681898 HITS:  100305030 MISSES:     376868
ITLB LOAD ACCESSES:  100681898 HITS:  100305030 MISSES:     376868
ITLB RFO ACCESSES:          0 HITS:          0 MISSES:          0
ITLB PREFETCH ACCESSES:          0 HITS:          0 MISSES:          0
ITLB WRITEBACK ACCESSES:          0 HITS:          0 MISSES:          0
ITLB RQ ACCESS:  500000057
ITLB RQ TO_CACHE:  100681898
ITLB RQ MERGED:  399318159
ITLB RQ FORWARD:          0
ITLB WQ ACCESS:          0
ITLB WQ TO_CACHE:          0
ITLB WQ MERGED:          0
ITLB WQ FORWARD:          0
DTLB TOTAL     ACCESS:  165333647  HIT:  164699297  MISS:     634350
DTLB LOAD      ACCESS:  106289889  HIT:  105719929  MISS:     569960
DTLB RFO       ACCESS:   59043758  HIT:   58979368  MISS:      64390
DTLB PREFETCH  ACCESS:          0  HIT:          0  MISS:          0
DTLB WRITEBACK ACCESS:          0  HIT:          0  MISS:          0
DTLB PREFETCH  REQUESTED:          0  ISSUED:          0  USEFUL:          0  USELESS:          0
DTLB TOTAL MSHR MERGED:      99993
DTLB LOAD MSHR MERGED:      59453
DTLB RFO MSHR MERGED:      40540
DTLB PREFETCH MSHR MERGED:          0
DTLB WRITEBACK MSHR MERGED:          0
DTLB TOTAL ACCESSES:  165433640 HITS:  164699297 MISSES:     734343
DTLB LOAD ACCESSES:  106349342 HITS:  105719929 MISSES:     629413
DTLB RFO ACCESSES:   59084298 HITS:   58979368 MISSES:     104930
DTLB PREFETCH ACCESSES:          0 HITS:          0 MISSES:          0
DTLB WRITEBACK ACCESSES:          0 HITS:          0 MISSES:          0
DTLB RQ ACCESS:  200309033
DTLB RQ TO_CACHE:  165433640
DTLB RQ MERGED:   34875393
DTLB RQ FORWARD:          0
DTLB WQ ACCESS:          0
DTLB WQ TO_CACHE:          0
DTLB WQ MERGED:          0
DTLB WQ FORWARD:          0
L1D TOTAL     ACCESS:  281788128  HIT:  273878894  MISS:    7909234
L1D LOAD      ACCESS:  110408152  HIT:  107126609  MISS:    3281543
L1D RFO       ACCESS:   67110878  HIT:   66220064  MISS:     890814
L1D PREFETCH  ACCESS:  104269098  HIT:  100532221  MISS:    3736877
L1D WRITEBACK ACCESS:          0  HIT:          0  MISS:          0
L1D PREFETCH  REQUESTED:  110814960  ISSUED:  109115699  USEFUL:    1657670  USELESS:    2079171
L1D TOTAL MSHR MERGED:    2911415
L1D LOAD MSHR MERGED:     507784
L1D RFO MSHR MERGED:    1875241
L1D PREFETCH MSHR MERGED:     528390
L1D WRITEBACK MSHR MERGED:          0
L1D TOTAL ACCESSES:  284727022 HITS:  273906373 MISSES:   10820649
L1D LOAD ACCESSES:  110816444 HITS:  107128093 MISSES:    3688351
L1D RFO ACCESSES:   68974091 HITS:   66220064 MISSES:    2754027
L1D PREFETCH ACCESSES:  104936487 HITS:  100558216 MISSES:    4378271
L1D WRITEBACK ACCESSES:          0 HITS:          0 MISSES:          0
L1D RQ ACCESS:  130756430
L1D RQ TO_CACHE:  110814963
L1D RQ MERGED:   19939983
L1D RQ FORWARD:          0
L1D WQ ACCESS:   69552603
L1D WQ TO_CACHE:   68974092
L1D WQ MERGED:     578511
L1D WQ FORWARD:      27479
L1I TOTAL     ACCESS:  126557358  HIT:  122318805  MISS:    4238553
L1I LOAD      ACCESS:  126557358  HIT:  122318805  MISS:    4238553
L1I RFO       ACCESS:          0  HIT:          0  MISS:          0
L1I PREFETCH  ACCESS:          0  HIT:          0  MISS:          0
L1I WRITEBACK ACCESS:          0  HIT:          0  MISS:          0
L1I PREFETCH  REQUESTED:          0  ISSUED:          0  USEFUL:          0  USELESS:          0
L1I TOTAL MSHR MERGED:    1834366
L1I LOAD MSHR MERGED:    1834366
L1I RFO MSHR MERGED:          0
L1I PREFETCH MSHR MERGED:          0
L1I WRITEBACK MSHR MERGED:          0
L1I TOTAL ACCESSES:  128391727 HITS:  122318805 MISSES:    6072922
L1I LOAD ACCESSES:  128391727 HITS:  122318805 MISSES:    6072922
L1I RFO ACCESSES:          0 HITS:          0 MISSES:          0
L1I PREFETCH ACCESSES:          0 HITS:          0 MISSES:          0
L1I WRITEBACK ACCESSES:          0 HITS:          0 MISSES:          0
L1I RQ ACCESS:  500000057
L1I RQ TO_CACHE:  128391727
L1I RQ MERGED:  371608330
L1I RQ FORWARD:          0
L1I WQ ACCESS:          0
L1I WQ TO_CACHE:          0
L1I WQ MERGED:          0
L1I WQ FORWARD:          0
L2C TOTAL     ACCESS:   14904546  HIT:   11158188  MISS:    3746358
L2C LOAD      ACCESS:    7418912  HIT:    5098833  MISS:    2320079
L2C RFO       ACCESS:     878688  HIT:     409916  MISS:     468772
L2C PREFETCH  ACCESS:    4567723  HIT:    3627475  MISS:     940248
L2C WRITEBACK ACCESS:    2039223  HIT:    2021964  MISS:      17259
L2C PREFETCH  REQUESTED:     842804  ISSUED:     842804  USEFUL:     203285  USELESS:     736669
L2C TOTAL MSHR MERGED:       7603
L2C LOAD MSHR MERGED:        868
L2C RFO MSHR MERGED:          0
L2C PREFETCH MSHR MERGED:       6735
L2C WRITEBACK MSHR MERGED:          0
L2C TOTAL ACCESSES:   14913082 HITS:   11158635 MISSES:    3754447
L2C LOAD ACCESSES:    7419120 HITS:    5099041 MISSES:    2320079
L2C RFO ACCESSES:     878786 HITS:     410014 MISSES:     468772
L2C PREFETCH ACCESSES:    4575953 HITS:    3627616 MISSES:     948337
L2C WRITEBACK ACCESSES:    2039223 HITS:    2021964 MISSES:      17259
L2C RQ ACCESS:    8297909
L2C RQ TO_CACHE:    8297603
L2C RQ MERGED:          0
L2C RQ FORWARD:          0
L2C WQ ACCESS:    2039223
L2C WQ TO_CACHE:    2039223
L2C WQ MERGED:          0
L2C WQ FORWARD:        447
LLC TOTAL     ACCESS:    4609666  HIT:    3889550  MISS:     720116
LLC LOAD      ACCESS:    2319200  HIT:    2105103  MISS:     214097
LLC RFO       ACCESS:     468761  HIT:     394292  MISS:      74469
LLC PREFETCH  ACCESS:     941462  HIT:     576795  MISS:     364667
LLC WRITEBACK ACCESS:     880243  HIT:     813360  MISS:      66883
LLC PREFETCH  REQUESTED:          0  ISSUED:          0  USEFUL:      14790  USELESS:     350714
LLC TOTAL MSHR MERGED:        123
LLC LOAD MSHR MERGED:         44
LLC RFO MSHR MERGED:          0
LLC PREFETCH MSHR MERGED:         79
LLC WRITEBACK MSHR MERGED:          0
LLC TOTAL ACCESSES:    4609822 HITS:    3889583 MISSES:     720239
LLC LOAD ACCESSES:    2319211 HITS:    2105114 MISSES:     214097
LLC RFO ACCESSES:     468772 HITS:     394303 MISSES:      74469
LLC PREFETCH ACCESSES:     941596 HITS:     576806 MISSES:     364790
LLC WRITEBACK ACCESSES:     880243 HITS:     813360 MISSES:      66883
LLC 0 RQ ACCESS:    2787983
LLC 0 RQ TO_CACHE:    2787961
LLC 0 RQ MERGED:          0
LLC 0 RQ FORWARD:          0
LLC WQ ACCESS:     880243
LLC WQ TO_CACHE:     880243
LLC WQ MERGED:          0
LLC WQ FORWARD:         33
Major fault: 0 Minor fault: 12862
CPU 0 L1D next line prefetcher final stats
CPU 0 L2C PC-based stride prefetcher final stats
All Misses: 844629
All Hits: 4582043
SD Algo Stats - Switches: 0 SRR-Repls: 250460 BRR-Repls: 0

DRAM Statistics
 CHANNEL 0
 RQ ROW_BUFFER_HIT:     123159  ROW_BUFFER_MISS:     529124
 DBUS_CONGESTED:     377409
 WQ ROW_BUFFER_HIT:      16319  ROW_BUFFER_MISS:     189609  FULL:          0

 AVG_CONGESTED_CYCLE: 13
LOADS RETIRED: 136549171
INSTR RETIRED: 500000000
