
*** ChampSim Multicore Out-of-Order Simulator ***

Warmup Instructions: 100000000
Simulation Instructions: 500000000
Number of CPUs: 1
LLC sets: 2048
LLC ways: 16
Clean RRIP Policies: 1213030112130301 Dirty RRIP Policies: 2213130122131301 PSEL Width: 10 Track Set: 4294967295 PSEL Mask: 1 Demote Mask: 3340201233402012DS Algo: 0Window size: 0
Off-chip DRAM Size: 4096 MB Channels: 1 Width: 64-bit Data Rate: 1600 MT/s

CPU 0 runs /mnt/beegfs/iconst01/spec2017/Lbm.trace.gz
NOT SORTED
TRACE STRING: /mnt/beegfs/iconst01/spec2017/Lbm.trace.gz
SORTED
TRACE STRING: /mnt/beegfs/iconst01/spec2017/Lbm.trace.gz
INITIAL
TRACE STRING: /mnt/beegfs/iconst01/spec2017/Lbm.trace.gz

champsim_seed used: 283

CPU 0 L1D next line prefetcher
CPU 0 L2C IP-based stride prefetcher
Initialize DRRIP state
Assign rand_sets[0]: 454  LLC: 2048
rand_sets[0]: 454
Assign rand_sets[1]: 1662  LLC: 2048
rand_sets[1]: 1662
Assign rand_sets[2]: 1921  LLC: 2048
rand_sets[2]: 1921
Assign rand_sets[3]: 1131  LLC: 2048
rand_sets[3]: 1131
Assign rand_sets[4]: 331  LLC: 2048
rand_sets[4]: 331
Assign rand_sets[5]: 1531  LLC: 2048
rand_sets[5]: 1531
Assign rand_sets[6]: 482  LLC: 2048
rand_sets[6]: 482
Assign rand_sets[7]: 1275  LLC: 2048
rand_sets[7]: 1275
Assign rand_sets[8]: 1876  LLC: 2048
rand_sets[8]: 1876
Assign rand_sets[9]: 2038  LLC: 2048
rand_sets[9]: 2038
Assign rand_sets[10]: 701  LLC: 2048
rand_sets[10]: 701
Assign rand_sets[11]: 479  LLC: 2048
rand_sets[11]: 479
Assign rand_sets[12]: 892  LLC: 2048
rand_sets[12]: 892
Assign rand_sets[13]: 1820  LLC: 2048
rand_sets[13]: 1820
Assign rand_sets[14]: 1505  LLC: 2048
rand_sets[14]: 1505
Assign rand_sets[15]: 1159  LLC: 2048
rand_sets[15]: 1159
Assign rand_sets[16]: 513  LLC: 2048
rand_sets[16]: 513
Assign rand_sets[17]: 703  LLC: 2048
rand_sets[17]: 703
Assign rand_sets[18]: 561  LLC: 2048
rand_sets[18]: 561
Assign rand_sets[19]: 990  LLC: 2048
rand_sets[19]: 990
Assign rand_sets[20]: 342  LLC: 2048
rand_sets[20]: 342
Assign rand_sets[21]: 882  LLC: 2048
rand_sets[21]: 882
Assign rand_sets[22]: 15  LLC: 2048
rand_sets[22]: 15
Assign rand_sets[23]: 71  LLC: 2048
rand_sets[23]: 71
Assign rand_sets[24]: 1127  LLC: 2048
rand_sets[24]: 1127
Assign rand_sets[25]: 1382  LLC: 2048
rand_sets[25]: 1382
Assign rand_sets[26]: 647  LLC: 2048
rand_sets[26]: 647
Assign rand_sets[27]: 857  LLC: 2048
rand_sets[27]: 857
Assign rand_sets[28]: 1450  LLC: 2048
rand_sets[28]: 1450
Assign rand_sets[29]: 1160  LLC: 2048
rand_sets[29]: 1160
Assign rand_sets[30]: 1852  LLC: 2048
rand_sets[30]: 1852
Assign rand_sets[31]: 1881  LLC: 2048
rand_sets[31]: 1881
Assign rand_sets[32]: 1770  LLC: 2048
rand_sets[32]: 1770
Assign rand_sets[33]: 1622  LLC: 2048
rand_sets[33]: 1622
Assign rand_sets[34]: 275  LLC: 2048
rand_sets[34]: 275
Assign rand_sets[35]: 635  LLC: 2048
rand_sets[35]: 635
Assign rand_sets[36]: 466  LLC: 2048
rand_sets[36]: 466
Assign rand_sets[37]: 1413  LLC: 2048
rand_sets[37]: 1413
Assign rand_sets[38]: 417  LLC: 2048
rand_sets[38]: 417
Assign rand_sets[39]: 472  LLC: 2048
rand_sets[39]: 472
Assign rand_sets[40]: 1340  LLC: 2048
rand_sets[40]: 1340
Assign rand_sets[41]: 852  LLC: 2048
rand_sets[41]: 852
Assign rand_sets[42]: 1365  LLC: 2048
rand_sets[42]: 1365
Assign rand_sets[43]: 47  LLC: 2048
rand_sets[43]: 47
Assign rand_sets[44]: 823  LLC: 2048
rand_sets[44]: 823
Assign rand_sets[45]: 686  LLC: 2048
rand_sets[45]: 686
Assign rand_sets[46]: 1637  LLC: 2048
rand_sets[46]: 1637
Assign rand_sets[47]: 1115  LLC: 2048
rand_sets[47]: 1115
Assign rand_sets[48]: 986  LLC: 2048
rand_sets[48]: 986
Assign rand_sets[49]: 258  LLC: 2048
rand_sets[49]: 258
Assign rand_sets[50]: 633  LLC: 2048
rand_sets[50]: 633
Assign rand_sets[51]: 920  LLC: 2048
rand_sets[51]: 920
Assign rand_sets[52]: 204  LLC: 2048
rand_sets[52]: 204
Assign rand_sets[53]: 227  LLC: 2048
rand_sets[53]: 227
Assign rand_sets[54]: 1818  LLC: 2048
rand_sets[54]: 1818
Assign rand_sets[55]: 886  LLC: 2048
rand_sets[55]: 886
Assign rand_sets[56]: 1422  LLC: 2048
rand_sets[56]: 1422
Assign rand_sets[57]: 607  LLC: 2048
rand_sets[57]: 607
Assign rand_sets[58]: 217  LLC: 2048
rand_sets[58]: 217
Assign rand_sets[59]: 1945  LLC: 2048
rand_sets[59]: 1945
Assign rand_sets[60]: 143  LLC: 2048
rand_sets[60]: 143
Assign rand_sets[61]: 1311  LLC: 2048
rand_sets[61]: 1311
Assign rand_sets[62]: 319  LLC: 2048
rand_sets[62]: 319
Assign rand_sets[63]: 1846  LLC: 2048
rand_sets[63]: 1846
 CLEAN-RRIP-POLICY-1: 1-2-1-3-0-3-0-1- CLEAN-RRIP-POLICY-2: 1-2-1-3-0-3-0-1-
 DIRTY-RRIP-POLICY-1: 2-2-1-3-1-3-0-1- DIRTY-RRIP-POLICY-2: 2-2-1-3-1-3-0-1-
 PSEL width: 10
Heartbeat CPU 0 instructions: 10000000 cycles: 4321560 heartbeat IPC: 2.31398 cumulative IPC: 2.31398 (Simulation time: 0 hr 0 min 18 sec) 
Heartbeat CPU 0 instructions: 20000000 cycles: 8643610 heartbeat IPC: 2.31372 cumulative IPC: 2.31385 (Simulation time: 0 hr 0 min 36 sec) 
Heartbeat CPU 0 instructions: 30000000 cycles: 12965408 heartbeat IPC: 2.31385 cumulative IPC: 2.31385 (Simulation time: 0 hr 0 min 54 sec) 
Heartbeat CPU 0 instructions: 40000000 cycles: 17291321 heartbeat IPC: 2.31165 cumulative IPC: 2.3133 (Simulation time: 0 hr 1 min 12 sec) 
Heartbeat CPU 0 instructions: 50000000 cycles: 21613170 heartbeat IPC: 2.31382 cumulative IPC: 2.3134 (Simulation time: 0 hr 1 min 30 sec) 
Heartbeat CPU 0 instructions: 60000000 cycles: 25935052 heartbeat IPC: 2.31381 cumulative IPC: 2.31347 (Simulation time: 0 hr 1 min 48 sec) 
Heartbeat CPU 0 instructions: 70000000 cycles: 30256516 heartbeat IPC: 2.31403 cumulative IPC: 2.31355 (Simulation time: 0 hr 2 min 7 sec) 
Heartbeat CPU 0 instructions: 80000000 cycles: 34582688 heartbeat IPC: 2.31151 cumulative IPC: 2.3133 (Simulation time: 0 hr 2 min 25 sec) 
Heartbeat CPU 0 instructions: 90000003 cycles: 38904770 heartbeat IPC: 2.3137 cumulative IPC: 2.31334 (Simulation time: 0 hr 2 min 43 sec) 
Heartbeat CPU 0 instructions: 100000000 cycles: 43226233 heartbeat IPC: 2.31403 cumulative IPC: 2.31341 (Simulation time: 0 hr 3 min 1 sec) 

Warmup complete CPU 0 instructions: 100000001 cycles: 43226234 (Simulation time: 0 hr 3 min 1 sec) 

Heartbeat CPU 0 instructions: 110000000 cycles: 57731649 heartbeat IPC: 0.689398 cumulative IPC: 0.689398 (Simulation time: 0 hr 3 min 27 sec) 
Heartbeat CPU 0 instructions: 120000000 cycles: 72154682 heartbeat IPC: 0.693335 cumulative IPC: 0.691361 (Simulation time: 0 hr 3 min 54 sec) 
Heartbeat CPU 0 instructions: 130000000 cycles: 86411526 heartbeat IPC: 0.701418 cumulative IPC: 0.694681 (Simulation time: 0 hr 4 min 20 sec) 
Heartbeat CPU 0 instructions: 140000000 cycles: 100581555 heartbeat IPC: 0.705715 cumulative IPC: 0.697407 (Simulation time: 0 hr 4 min 46 sec) 
Heartbeat CPU 0 instructions: 150000003 cycles: 114272391 heartbeat IPC: 0.730416 cumulative IPC: 0.703768 (Simulation time: 0 hr 5 min 11 sec) 
Heartbeat CPU 0 instructions: 160000000 cycles: 128068482 heartbeat IPC: 0.724843 cumulative IPC: 0.707195 (Simulation time: 0 hr 5 min 37 sec) 
Heartbeat CPU 0 instructions: 170000002 cycles: 142473063 heartbeat IPC: 0.694224 cumulative IPC: 0.705312 (Simulation time: 0 hr 6 min 3 sec) 
Heartbeat CPU 0 instructions: 180000000 cycles: 156363462 heartbeat IPC: 0.719922 cumulative IPC: 0.707106 (Simulation time: 0 hr 6 min 29 sec) 
Heartbeat CPU 0 instructions: 190000003 cycles: 173240119 heartbeat IPC: 0.592535 cumulative IPC: 0.692234 (Simulation time: 0 hr 6 min 58 sec) 
Heartbeat CPU 0 instructions: 200000000 cycles: 193628976 heartbeat IPC: 0.490464 cumulative IPC: 0.664881 (Simulation time: 0 hr 7 min 30 sec) 
Heartbeat CPU 0 instructions: 210000001 cycles: 207717391 heartbeat IPC: 0.709803 cumulative IPC: 0.668729 (Simulation time: 0 hr 7 min 56 sec) 
Heartbeat CPU 0 instructions: 220000000 cycles: 221602886 heartbeat IPC: 0.720176 cumulative IPC: 0.672734 (Simulation time: 0 hr 8 min 22 sec) 
Heartbeat CPU 0 instructions: 230000001 cycles: 235662070 heartbeat IPC: 0.711279 cumulative IPC: 0.67555 (Simulation time: 0 hr 8 min 48 sec) 
Heartbeat CPU 0 instructions: 240000000 cycles: 250035505 heartbeat IPC: 0.695728 cumulative IPC: 0.676952 (Simulation time: 0 hr 9 min 14 sec) 
Heartbeat CPU 0 instructions: 250000000 cycles: 264687125 heartbeat IPC: 0.682518 cumulative IPC: 0.67732 (Simulation time: 0 hr 9 min 40 sec) 
Heartbeat CPU 0 instructions: 260000000 cycles: 279406269 heartbeat IPC: 0.679387 cumulative IPC: 0.677449 (Simulation time: 0 hr 10 min 7 sec) 
Heartbeat CPU 0 instructions: 270000002 cycles: 294360840 heartbeat IPC: 0.668692 cumulative IPC: 0.676928 (Simulation time: 0 hr 10 min 34 sec) 
Heartbeat CPU 0 instructions: 280000000 cycles: 309182643 heartbeat IPC: 0.674682 cumulative IPC: 0.676803 (Simulation time: 0 hr 11 min 0 sec) 
Heartbeat CPU 0 instructions: 290000003 cycles: 325006331 heartbeat IPC: 0.631964 cumulative IPC: 0.674285 (Simulation time: 0 hr 11 min 28 sec) 
Heartbeat CPU 0 instructions: 300000000 cycles: 340242320 heartbeat IPC: 0.656341 cumulative IPC: 0.673364 (Simulation time: 0 hr 11 min 55 sec) 
Heartbeat CPU 0 instructions: 310000000 cycles: 356267140 heartbeat IPC: 0.624032 cumulative IPC: 0.670839 (Simulation time: 0 hr 12 min 22 sec) 
Heartbeat CPU 0 instructions: 320000000 cycles: 372130012 heartbeat IPC: 0.630403 cumulative IPC: 0.668889 (Simulation time: 0 hr 12 min 49 sec) 
Heartbeat CPU 0 instructions: 330000002 cycles: 387068047 heartbeat IPC: 0.669432 cumulative IPC: 0.668912 (Simulation time: 0 hr 13 min 15 sec) 
Heartbeat CPU 0 instructions: 340000000 cycles: 403259554 heartbeat IPC: 0.617608 cumulative IPC: 0.666605 (Simulation time: 0 hr 13 min 43 sec) 
Heartbeat CPU 0 instructions: 350000001 cycles: 417939866 heartbeat IPC: 0.681185 cumulative IPC: 0.667176 (Simulation time: 0 hr 14 min 9 sec) 
Heartbeat CPU 0 instructions: 360000000 cycles: 433295390 heartbeat IPC: 0.651231 cumulative IPC: 0.666548 (Simulation time: 0 hr 14 min 35 sec) 
Heartbeat CPU 0 instructions: 370000000 cycles: 447961062 heartbeat IPC: 0.681864 cumulative IPC: 0.667103 (Simulation time: 0 hr 15 min 1 sec) 
Heartbeat CPU 0 instructions: 380000000 cycles: 462996738 heartbeat IPC: 0.665085 cumulative IPC: 0.667031 (Simulation time: 0 hr 15 min 28 sec) 
Heartbeat CPU 0 instructions: 390000000 cycles: 477362999 heartbeat IPC: 0.696075 cumulative IPC: 0.667992 (Simulation time: 0 hr 15 min 53 sec) 
Heartbeat CPU 0 instructions: 400000000 cycles: 491694989 heartbeat IPC: 0.69774 cumulative IPC: 0.668943 (Simulation time: 0 hr 16 min 19 sec) 
Heartbeat CPU 0 instructions: 410000000 cycles: 505779100 heartbeat IPC: 0.71002 cumulative IPC: 0.670194 (Simulation time: 0 hr 16 min 44 sec) 
Heartbeat CPU 0 instructions: 420000000 cycles: 519946516 heartbeat IPC: 0.705845 cumulative IPC: 0.671253 (Simulation time: 0 hr 17 min 10 sec) 
Heartbeat CPU 0 instructions: 430000002 cycles: 533538416 heartbeat IPC: 0.735732 cumulative IPC: 0.673041 (Simulation time: 0 hr 17 min 35 sec) 
Heartbeat CPU 0 instructions: 440000000 cycles: 547201708 heartbeat IPC: 0.731888 cumulative IPC: 0.674636 (Simulation time: 0 hr 18 min 0 sec) 
Heartbeat CPU 0 instructions: 450000000 cycles: 561331585 heartbeat IPC: 0.70772 cumulative IPC: 0.675538 (Simulation time: 0 hr 18 min 25 sec) 
Heartbeat CPU 0 instructions: 460000000 cycles: 575858591 heartbeat IPC: 0.688373 cumulative IPC: 0.675888 (Simulation time: 0 hr 18 min 51 sec) 
Heartbeat CPU 0 instructions: 470000000 cycles: 590033954 heartbeat IPC: 0.705449 cumulative IPC: 0.676655 (Simulation time: 0 hr 19 min 16 sec) 
Heartbeat CPU 0 instructions: 480000000 cycles: 604037802 heartbeat IPC: 0.714089 cumulative IPC: 0.677589 (Simulation time: 0 hr 19 min 41 sec) 
Heartbeat CPU 0 instructions: 490000001 cycles: 618483507 heartbeat IPC: 0.692247 cumulative IPC: 0.677958 (Simulation time: 0 hr 20 min 7 sec) 
Heartbeat CPU 0 instructions: 500000000 cycles: 632608837 heartbeat IPC: 0.707948 cumulative IPC: 0.678676 (Simulation time: 0 hr 20 min 32 sec) 
Heartbeat CPU 0 instructions: 510000002 cycles: 646556069 heartbeat IPC: 0.716988 cumulative IPC: 0.679562 (Simulation time: 0 hr 20 min 57 sec) 
Heartbeat CPU 0 instructions: 520000000 cycles: 660528587 heartbeat IPC: 0.71569 cumulative IPC: 0.68038 (Simulation time: 0 hr 21 min 23 sec) 
Heartbeat CPU 0 instructions: 530000001 cycles: 674480206 heartbeat IPC: 0.716763 cumulative IPC: 0.681184 (Simulation time: 0 hr 21 min 48 sec) 
Heartbeat CPU 0 instructions: 540000000 cycles: 688739491 heartbeat IPC: 0.701297 cumulative IPC: 0.681628 (Simulation time: 0 hr 22 min 13 sec) 
Heartbeat CPU 0 instructions: 550000003 cycles: 702630806 heartbeat IPC: 0.719874 cumulative IPC: 0.682434 (Simulation time: 0 hr 22 min 38 sec) 
Heartbeat CPU 0 instructions: 560000000 cycles: 717338042 heartbeat IPC: 0.679937 cumulative IPC: 0.682379 (Simulation time: 0 hr 23 min 4 sec) 
Heartbeat CPU 0 instructions: 570000001 cycles: 731315209 heartbeat IPC: 0.715453 cumulative IPC: 0.683051 (Simulation time: 0 hr 23 min 29 sec) 
Heartbeat CPU 0 instructions: 580000000 cycles: 744926769 heartbeat IPC: 0.73467 cumulative IPC: 0.684052 (Simulation time: 0 hr 23 min 54 sec) 
Heartbeat CPU 0 instructions: 590000003 cycles: 758088074 heartbeat IPC: 0.759803 cumulative IPC: 0.685447 (Simulation time: 0 hr 24 min 19 sec) 
Heartbeat CPU 0 instructions: 600000000 cycles: 772051273 heartbeat IPC: 0.716168 cumulative IPC: 0.686036 (Simulation time: 0 hr 24 min 44 sec) 
Finished CPU 0 instructions: 500000000 cycles: 728825047 cumulative IPC: 0.686036 (Simulation time: 0 hr 24 min 44 sec) 

CPU 0 Branch Prediction Accuracy: 99.5915% MPKI: 0.037126
Number of Branches: 4544106 Number of Mispredictions: 18563
Number of LOAD Instructions: 149787067
Number of LOAD Instructions (ROI): 149787067
Number of STORE Instructions: 77239062
Number of STORE Instructions (ROI): 77239062
Total Destination Memory Operands: 77239062
Total Destination Memory Operands (ROI): 77239062
Total Source Memory Operands: 149787067
Total Source Memory Operands (ROI): 149787067
Number of DEPENDED LOADS: 19248067
Number of DEPENDED LOADS (ROI): 19248067
Number of SQ_ADDED: 77239036
Number of SQ_ADDED (ROI): 77239036
Number of LQ_ADDED: 149787020
Number of LQ_ADDED (ROI): 149787020
Number of Instructions read from trace: 600000256

ChampSim completed all CPUs

Region of Interest Statistics

CPU 0 cumulative IPC: 0.686036 instructions: 500000000 cycles: 728825047
ITLB TOTAL     ACCESS:   86450547  HIT:   86450546  MISS:          1
ITLB LOAD      ACCESS:   86450547  HIT:   86450546  MISS:          1
ITLB RFO       ACCESS:          0  HIT:          0  MISS:          0
ITLB PREFETCH  ACCESS:          0  HIT:          0  MISS:          0
ITLB WRITEBACK ACCESS:          0  HIT:          0  MISS:          0
ITLB PREFETCH  REQUESTED:          0  ISSUED:          0  USEFUL:          0  USELESS:          0
ITLB TOTAL MSHR MERGED:          1
ITLB LOAD MSHR MERGED:          1
ITLB RFO MSHR MERGED:          0
ITLB PREFETCH MSHR MERGED:          0
ITLB WRITEBACK MSHR MERGED:          0
ITLB TOTAL ACCESSES:   86450548 HITS:   86450546 MISSES:          2
ITLB LOAD ACCESSES:   86450548 HITS:   86450546 MISSES:          2
ITLB RFO ACCESSES:          0 HITS:          0 MISSES:          0
ITLB PREFETCH ACCESSES:          0 HITS:          0 MISSES:          0
ITLB WRITEBACK ACCESSES:          0 HITS:          0 MISSES:          0
ITLB RQ ACCESS:  500000002
ITLB RQ TO_CACHE:   86450548
ITLB RQ MERGED:  413549454
ITLB RQ FORWARD:          0
ITLB WQ ACCESS:          0
ITLB WQ TO_CACHE:          0
ITLB WQ MERGED:          0
ITLB WQ FORWARD:          0
DTLB TOTAL     ACCESS:   98106378  HIT:   97921117  MISS:     185261
DTLB LOAD      ACCESS:   55039274  HIT:   54992963  MISS:      46311
DTLB RFO       ACCESS:   43067104  HIT:   42928154  MISS:     138950
DTLB PREFETCH  ACCESS:          0  HIT:          0  MISS:          0
DTLB WRITEBACK ACCESS:          0  HIT:          0  MISS:          0
DTLB PREFETCH  REQUESTED:          0  ISSUED:          0  USEFUL:          0  USELESS:          0
DTLB TOTAL MSHR MERGED:      83613
DTLB LOAD MSHR MERGED:      83607
DTLB RFO MSHR MERGED:          6
DTLB PREFETCH MSHR MERGED:          0
DTLB WRITEBACK MSHR MERGED:          0
DTLB TOTAL ACCESSES:   98189991 HITS:   97921117 MISSES:     268874
DTLB LOAD ACCESSES:   55122881 HITS:   54992963 MISSES:     129918
DTLB RFO ACCESSES:   43067110 HITS:   42928154 MISSES:     138956
DTLB PREFETCH ACCESSES:          0 HITS:          0 MISSES:          0
DTLB WRITEBACK ACCESSES:          0 HITS:          0 MISSES:          0
DTLB RQ ACCESS:  173634460
DTLB RQ TO_CACHE:   98189991
DTLB RQ MERGED:   75444469
DTLB RQ FORWARD:          0
DTLB WQ ACCESS:          0
DTLB WQ TO_CACHE:          0
DTLB WQ MERGED:          0
DTLB WQ FORWARD:          0
L1D TOTAL     ACCESS:  164577790  HIT:  145005254  MISS:   19572536
L1D LOAD      ACCESS:   60543078  HIT:   58691002  MISS:    1852076
L1D RFO       ACCESS:   64513700  HIT:   47911590  MISS:   16602110
L1D PREFETCH  ACCESS:   39521012  HIT:   38402662  MISS:    1118350
L1D WRITEBACK ACCESS:          0  HIT:          0  MISS:          0
L1D PREFETCH  REQUESTED:   61726703  ISSUED:   61434370  USEFUL:    1116438  USELESS:       1913
L1D TOTAL MSHR MERGED:    3518841
L1D LOAD MSHR MERGED:    1254782
L1D RFO MSHR MERGED:      11295
L1D PREFETCH MSHR MERGED:    2252764
L1D WRITEBACK MSHR MERGED:          0
L1D TOTAL ACCESSES:  168666517 HITS:  145575137 MISSES:   23091380
L1D LOAD ACCESSES:   61989535 HITS:   58953834 MISSES:    3035701
L1D RFO ACCESSES:   64524973 HITS:   47911590 MISSES:   16613383
L1D PREFETCH ACCESSES:   42152009 HITS:   38709713 MISSES:    3442296
L1D WRITEBACK ACCESSES:          0 HITS:          0 MISSES:          0
L1D RQ ACCESS:  109093145
L1D RQ TO_CACHE:   61726703
L1D RQ MERGED:   47103610
L1D RQ FORWARD:          0
L1D WQ ACCESS:   64541313
L1D WQ TO_CACHE:   64524973
L1D WQ MERGED:      16340
L1D WQ FORWARD:     569883
L1I TOTAL     ACCESS:  107759739  HIT:  107759731  MISS:          8
L1I LOAD      ACCESS:  107759739  HIT:  107759731  MISS:          8
L1I RFO       ACCESS:          0  HIT:          0  MISS:          0
L1I PREFETCH  ACCESS:          0  HIT:          0  MISS:          0
L1I WRITEBACK ACCESS:          0  HIT:          0  MISS:          0
L1I PREFETCH  REQUESTED:          0  ISSUED:          0  USEFUL:          0  USELESS:          0
L1I TOTAL MSHR MERGED:          3
L1I LOAD MSHR MERGED:          3
L1I RFO MSHR MERGED:          0
L1I PREFETCH MSHR MERGED:          0
L1I WRITEBACK MSHR MERGED:          0
L1I TOTAL ACCESSES:  107759742 HITS:  107759731 MISSES:         11
L1I LOAD ACCESSES:  107759742 HITS:  107759731 MISSES:         11
L1I RFO ACCESSES:          0 HITS:          0 MISSES:          0
L1I PREFETCH ACCESSES:          0 HITS:          0 MISSES:          0
L1I WRITEBACK ACCESSES:          0 HITS:          0 MISSES:          0
L1I RQ ACCESS:  500000007
L1I RQ TO_CACHE:  107759742
L1I RQ MERGED:  392240265
L1I RQ FORWARD:          0
L1I WQ ACCESS:          0
L1I WQ TO_CACHE:          0
L1I WQ MERGED:          0
L1I WQ FORWARD:          0
L2C TOTAL     ACCESS:   36807784  HIT:   24850222  MISS:   11957562
L2C LOAD      ACCESS:    1780927  HIT:     255405  MISS:    1525522
L2C RFO       ACCESS:   16602083  HIT:    7610733  MISS:    8991350
L2C PREFETCH  ACCESS:    1822605  HIT:     383140  MISS:    1439465
L2C WRITEBACK ACCESS:   16602169  HIT:   16600944  MISS:       1225
L2C PREFETCH  REQUESTED:     816115  ISSUED:     816115  USEFUL:     253081  USELESS:    1186665
L2C TOTAL MSHR MERGED:       2655
L2C LOAD MSHR MERGED:        615
L2C RFO MSHR MERGED:          0
L2C PREFETCH MSHR MERGED:       2040
L2C WRITEBACK MSHR MERGED:          0
L2C TOTAL ACCESSES:   36990742 HITS:   24850225 MISSES:   12140517
L2C LOAD ACCESSES:    1780927 HITS:     255405 MISSES:    1525522
L2C RFO ACCESSES:   16602088 HITS:    7610736 MISSES:    8991352
L2C PREFETCH ACCESSES:    2005558 HITS:     383140 MISSES:    1622418
L2C WRITEBACK ACCESSES:   16602169 HITS:   16600944 MISSES:       1225
L2C RQ ACCESS:   18383015
L2C RQ TO_CACHE:   18383012
L2C RQ MERGED:          0
L2C RQ FORWARD:          0
L2C WQ ACCESS:   16602170
L2C WQ TO_CACHE:   16602170
L2C WQ MERGED:          0
L2C WQ FORWARD:          3
LLC TOTAL     ACCESS:   21125669  HIT:    1713533  MISS:   19412136
LLC LOAD      ACCESS:    1524907  HIT:      65409  MISS:    1459498
LLC RFO       ACCESS:    8991326  HIT:     695016  MISS:    8296310
LLC PREFETCH  ACCESS:    1617265  HIT:     111588  MISS:    1505677
LLC WRITEBACK ACCESS:    8992171  HIT:     841520  MISS:    8150651
LLC PREFETCH  REQUESTED:          0  ISSUED:          0  USEFUL:      65147  USELESS:    1440306
LLC TOTAL MSHR MERGED:       2693
LLC LOAD MSHR MERGED:        223
LLC RFO MSHR MERGED:          0
LLC PREFETCH MSHR MERGED:       2470
LLC WRITEBACK MSHR MERGED:          0
LLC TOTAL ACCESSES:   21128389 HITS:    1713557 MISSES:   19414832
LLC LOAD ACCESSES:    1524907 HITS:      65409 MISSES:    1459498
LLC RFO ACCESSES:    8991352 HITS:     695040 MISSES:    8296312
LLC PREFETCH ACCESSES:    1619959 HITS:     111588 MISSES:    1508371
LLC WRITEBACK ACCESSES:    8992171 HITS:     841520 MISSES:    8150651
LLC 0 RQ ACCESS:   10516259
LLC 0 RQ TO_CACHE:   10516235
LLC 0 RQ MERGED:          0
LLC 0 RQ FORWARD:          0
LLC WQ ACCESS:    8992172
LLC WQ TO_CACHE:    8992172
LLC WQ MERGED:          0
LLC WQ FORWARD:         24
Major fault: 0 Minor fault: 102360
CPU 0 L1D next line prefetcher final stats
CPU 0 L2C PC-based stride prefetcher final stats
All Misses: 23062016
All Hits: 2039165
SD Algo Stats - Switches: 0 SRR-Repls: 1638106 BRR-Repls: 0

DRAM Statistics
 CHANNEL 0
 RQ ROW_BUFFER_HIT:    3686571  ROW_BUFFER_MISS:    7573730
 DBUS_CONGESTED:   13429019
 WQ ROW_BUFFER_HIT:    1369969  ROW_BUFFER_MISS:    6962133  FULL:          0

 AVG_CONGESTED_CYCLE: 13
LOADS RETIRED: 124982196
INSTR RETIRED: 500000000
