
*** ChampSim Multicore Out-of-Order Simulator ***

Warmup Instructions: 100000000
Simulation Instructions: 500000000
Number of CPUs: 1
LLC sets: 2048
LLC ways: 16
Clean RRIP Policies: 1322102013221020 Dirty RRIP Policies: 322001003220010 PSEL Width: 10 Track Set: 4294967295 PSEL Mask: 1 Demote Mask: 3231104232311042DS Algo: 0Window size: 0
Off-chip DRAM Size: 4096 MB Channels: 1 Width: 64-bit Data Rate: 1600 MT/s

CPU 0 runs /mnt/beegfs/iconst01/spec2017/Gcc.trace.gz
NOT SORTED
TRACE STRING: /mnt/beegfs/iconst01/spec2017/Gcc.trace.gz
SORTED
TRACE STRING: /mnt/beegfs/iconst01/spec2017/Gcc.trace.gz
INITIAL
TRACE STRING: /mnt/beegfs/iconst01/spec2017/Gcc.trace.gz

champsim_seed used: 269

CPU 0 L1D next line prefetcher
CPU 0 L2C IP-based stride prefetcher
Initialize DRRIP state
Assign rand_sets[0]: 454  LLC: 2048
rand_sets[0]: 454
Assign rand_sets[1]: 1662  LLC: 2048
rand_sets[1]: 1662
Assign rand_sets[2]: 1921  LLC: 2048
rand_sets[2]: 1921
Assign rand_sets[3]: 1131  LLC: 2048
rand_sets[3]: 1131
Assign rand_sets[4]: 331  LLC: 2048
rand_sets[4]: 331
Assign rand_sets[5]: 1531  LLC: 2048
rand_sets[5]: 1531
Assign rand_sets[6]: 482  LLC: 2048
rand_sets[6]: 482
Assign rand_sets[7]: 1275  LLC: 2048
rand_sets[7]: 1275
Assign rand_sets[8]: 1876  LLC: 2048
rand_sets[8]: 1876
Assign rand_sets[9]: 2038  LLC: 2048
rand_sets[9]: 2038
Assign rand_sets[10]: 701  LLC: 2048
rand_sets[10]: 701
Assign rand_sets[11]: 479  LLC: 2048
rand_sets[11]: 479
Assign rand_sets[12]: 892  LLC: 2048
rand_sets[12]: 892
Assign rand_sets[13]: 1820  LLC: 2048
rand_sets[13]: 1820
Assign rand_sets[14]: 1505  LLC: 2048
rand_sets[14]: 1505
Assign rand_sets[15]: 1159  LLC: 2048
rand_sets[15]: 1159
Assign rand_sets[16]: 513  LLC: 2048
rand_sets[16]: 513
Assign rand_sets[17]: 703  LLC: 2048
rand_sets[17]: 703
Assign rand_sets[18]: 561  LLC: 2048
rand_sets[18]: 561
Assign rand_sets[19]: 990  LLC: 2048
rand_sets[19]: 990
Assign rand_sets[20]: 342  LLC: 2048
rand_sets[20]: 342
Assign rand_sets[21]: 882  LLC: 2048
rand_sets[21]: 882
Assign rand_sets[22]: 15  LLC: 2048
rand_sets[22]: 15
Assign rand_sets[23]: 71  LLC: 2048
rand_sets[23]: 71
Assign rand_sets[24]: 1127  LLC: 2048
rand_sets[24]: 1127
Assign rand_sets[25]: 1382  LLC: 2048
rand_sets[25]: 1382
Assign rand_sets[26]: 647  LLC: 2048
rand_sets[26]: 647
Assign rand_sets[27]: 857  LLC: 2048
rand_sets[27]: 857
Assign rand_sets[28]: 1450  LLC: 2048
rand_sets[28]: 1450
Assign rand_sets[29]: 1160  LLC: 2048
rand_sets[29]: 1160
Assign rand_sets[30]: 1852  LLC: 2048
rand_sets[30]: 1852
Assign rand_sets[31]: 1881  LLC: 2048
rand_sets[31]: 1881
Assign rand_sets[32]: 1770  LLC: 2048
rand_sets[32]: 1770
Assign rand_sets[33]: 1622  LLC: 2048
rand_sets[33]: 1622
Assign rand_sets[34]: 275  LLC: 2048
rand_sets[34]: 275
Assign rand_sets[35]: 635  LLC: 2048
rand_sets[35]: 635
Assign rand_sets[36]: 466  LLC: 2048
rand_sets[36]: 466
Assign rand_sets[37]: 1413  LLC: 2048
rand_sets[37]: 1413
Assign rand_sets[38]: 417  LLC: 2048
rand_sets[38]: 417
Assign rand_sets[39]: 472  LLC: 2048
rand_sets[39]: 472
Assign rand_sets[40]: 1340  LLC: 2048
rand_sets[40]: 1340
Assign rand_sets[41]: 852  LLC: 2048
rand_sets[41]: 852
Assign rand_sets[42]: 1365  LLC: 2048
rand_sets[42]: 1365
Assign rand_sets[43]: 47  LLC: 2048
rand_sets[43]: 47
Assign rand_sets[44]: 823  LLC: 2048
rand_sets[44]: 823
Assign rand_sets[45]: 686  LLC: 2048
rand_sets[45]: 686
Assign rand_sets[46]: 1637  LLC: 2048
rand_sets[46]: 1637
Assign rand_sets[47]: 1115  LLC: 2048
rand_sets[47]: 1115
Assign rand_sets[48]: 986  LLC: 2048
rand_sets[48]: 986
Assign rand_sets[49]: 258  LLC: 2048
rand_sets[49]: 258
Assign rand_sets[50]: 633  LLC: 2048
rand_sets[50]: 633
Assign rand_sets[51]: 920  LLC: 2048
rand_sets[51]: 920
Assign rand_sets[52]: 204  LLC: 2048
rand_sets[52]: 204
Assign rand_sets[53]: 227  LLC: 2048
rand_sets[53]: 227
Assign rand_sets[54]: 1818  LLC: 2048
rand_sets[54]: 1818
Assign rand_sets[55]: 886  LLC: 2048
rand_sets[55]: 886
Assign rand_sets[56]: 1422  LLC: 2048
rand_sets[56]: 1422
Assign rand_sets[57]: 607  LLC: 2048
rand_sets[57]: 607
Assign rand_sets[58]: 217  LLC: 2048
rand_sets[58]: 217
Assign rand_sets[59]: 1945  LLC: 2048
rand_sets[59]: 1945
Assign rand_sets[60]: 143  LLC: 2048
rand_sets[60]: 143
Assign rand_sets[61]: 1311  LLC: 2048
rand_sets[61]: 1311
Assign rand_sets[62]: 319  LLC: 2048
rand_sets[62]: 319
Assign rand_sets[63]: 1846  LLC: 2048
rand_sets[63]: 1846
 CLEAN-RRIP-POLICY-1: 1-3-2-2-1-0-2-0- CLEAN-RRIP-POLICY-2: 1-3-2-2-1-0-2-0-
 DIRTY-RRIP-POLICY-1: 0-3-2-2-0-0-1-0- DIRTY-RRIP-POLICY-2: 0-3-2-2-0-0-1-0-
 PSEL width: 10
Heartbeat CPU 0 instructions: 10000001 cycles: 7315928 heartbeat IPC: 1.36688 cumulative IPC: 1.36688 (Simulation time: 0 hr 0 min 13 sec) 
Heartbeat CPU 0 instructions: 20000000 cycles: 14309017 heartbeat IPC: 1.42998 cumulative IPC: 1.39772 (Simulation time: 0 hr 0 min 27 sec) 
Heartbeat CPU 0 instructions: 30000001 cycles: 21023209 heartbeat IPC: 1.48938 cumulative IPC: 1.42699 (Simulation time: 0 hr 0 min 42 sec) 
Heartbeat CPU 0 instructions: 40000000 cycles: 27484403 heartbeat IPC: 1.5477 cumulative IPC: 1.45537 (Simulation time: 0 hr 0 min 57 sec) 
Heartbeat CPU 0 instructions: 50000001 cycles: 33586720 heartbeat IPC: 1.63872 cumulative IPC: 1.48868 (Simulation time: 0 hr 1 min 12 sec) 
Heartbeat CPU 0 instructions: 60000000 cycles: 40068360 heartbeat IPC: 1.54282 cumulative IPC: 1.49744 (Simulation time: 0 hr 1 min 27 sec) 
Heartbeat CPU 0 instructions: 70000000 cycles: 47110620 heartbeat IPC: 1.42 cumulative IPC: 1.48586 (Simulation time: 0 hr 1 min 41 sec) 
Heartbeat CPU 0 instructions: 80000000 cycles: 54204404 heartbeat IPC: 1.40968 cumulative IPC: 1.47589 (Simulation time: 0 hr 1 min 55 sec) 
Heartbeat CPU 0 instructions: 90000003 cycles: 61213576 heartbeat IPC: 1.4267 cumulative IPC: 1.47026 (Simulation time: 0 hr 2 min 8 sec) 
Heartbeat CPU 0 instructions: 100000000 cycles: 68386163 heartbeat IPC: 1.3942 cumulative IPC: 1.46228 (Simulation time: 0 hr 2 min 22 sec) 

Warmup complete CPU 0 instructions: 100000004 cycles: 68386164 (Simulation time: 0 hr 2 min 22 sec) 

Heartbeat CPU 0 instructions: 110000003 cycles: 96809983 heartbeat IPC: 0.351818 cumulative IPC: 0.351818 (Simulation time: 0 hr 2 min 49 sec) 
Heartbeat CPU 0 instructions: 120000000 cycles: 124569449 heartbeat IPC: 0.360237 cumulative IPC: 0.355978 (Simulation time: 0 hr 3 min 16 sec) 
Heartbeat CPU 0 instructions: 130000000 cycles: 149845428 heartbeat IPC: 0.395633 cumulative IPC: 0.368282 (Simulation time: 0 hr 3 min 42 sec) 
Heartbeat CPU 0 instructions: 140000000 cycles: 180970060 heartbeat IPC: 0.321289 cumulative IPC: 0.355291 (Simulation time: 0 hr 4 min 9 sec) 
Heartbeat CPU 0 instructions: 150000000 cycles: 211948824 heartbeat IPC: 0.322802 cumulative IPC: 0.34828 (Simulation time: 0 hr 4 min 36 sec) 
Heartbeat CPU 0 instructions: 160000000 cycles: 239753104 heartbeat IPC: 0.359657 cumulative IPC: 0.350126 (Simulation time: 0 hr 5 min 1 sec) 
Heartbeat CPU 0 instructions: 170000001 cycles: 268306792 heartbeat IPC: 0.350217 cumulative IPC: 0.350139 (Simulation time: 0 hr 5 min 29 sec) 
Heartbeat CPU 0 instructions: 180000000 cycles: 297323301 heartbeat IPC: 0.344631 cumulative IPC: 0.349441 (Simulation time: 0 hr 5 min 56 sec) 
Heartbeat CPU 0 instructions: 190000002 cycles: 326146783 heartbeat IPC: 0.346939 cumulative IPC: 0.349161 (Simulation time: 0 hr 6 min 23 sec) 
Heartbeat CPU 0 instructions: 200000000 cycles: 355150104 heartbeat IPC: 0.344788 cumulative IPC: 0.348719 (Simulation time: 0 hr 6 min 50 sec) 
Heartbeat CPU 0 instructions: 210000002 cycles: 383781218 heartbeat IPC: 0.34927 cumulative IPC: 0.348769 (Simulation time: 0 hr 7 min 17 sec) 
