
*** ChampSim Multicore Out-of-Order Simulator ***

Warmup Instructions: 100000000
Simulation Instructions: 500000000
Number of CPUs: 1
LLC sets: 2048
LLC ways: 16
Clean RRIP Policies: 2202030122020301 Dirty RRIP Policies: 2202130122021301 PSEL Width: 10 Track Set: 4294967295 PSEL Mask: 1 Demote Mask: 4441211044412110DS Algo: 0Window size: 0
Off-chip DRAM Size: 4096 MB Channels: 1 Width: 64-bit Data Rate: 1600 MT/s

CPU 0 runs /mnt/beegfs/iconst01/spec2017/Roms.trace.gz
NOT SORTED
TRACE STRING: /mnt/beegfs/iconst01/spec2017/Roms.trace.gz
SORTED
TRACE STRING: /mnt/beegfs/iconst01/spec2017/Roms.trace.gz
INITIAL
TRACE STRING: /mnt/beegfs/iconst01/spec2017/Roms.trace.gz

champsim_seed used: 417

CPU 0 L1D next line prefetcher
CPU 0 L2C IP-based stride prefetcher
Initialize DRRIP state
Assign rand_sets[0]: 454  LLC: 2048
rand_sets[0]: 454
Assign rand_sets[1]: 1662  LLC: 2048
rand_sets[1]: 1662
Assign rand_sets[2]: 1921  LLC: 2048
rand_sets[2]: 1921
Assign rand_sets[3]: 1131  LLC: 2048
rand_sets[3]: 1131
Assign rand_sets[4]: 331  LLC: 2048
rand_sets[4]: 331
Assign rand_sets[5]: 1531  LLC: 2048
rand_sets[5]: 1531
Assign rand_sets[6]: 482  LLC: 2048
rand_sets[6]: 482
Assign rand_sets[7]: 1275  LLC: 2048
rand_sets[7]: 1275
Assign rand_sets[8]: 1876  LLC: 2048
rand_sets[8]: 1876
Assign rand_sets[9]: 2038  LLC: 2048
rand_sets[9]: 2038
Assign rand_sets[10]: 701  LLC: 2048
rand_sets[10]: 701
Assign rand_sets[11]: 479  LLC: 2048
rand_sets[11]: 479
Assign rand_sets[12]: 892  LLC: 2048
rand_sets[12]: 892
Assign rand_sets[13]: 1820  LLC: 2048
rand_sets[13]: 1820
Assign rand_sets[14]: 1505  LLC: 2048
rand_sets[14]: 1505
Assign rand_sets[15]: 1159  LLC: 2048
rand_sets[15]: 1159
Assign rand_sets[16]: 513  LLC: 2048
rand_sets[16]: 513
Assign rand_sets[17]: 703  LLC: 2048
rand_sets[17]: 703
Assign rand_sets[18]: 561  LLC: 2048
rand_sets[18]: 561
Assign rand_sets[19]: 990  LLC: 2048
rand_sets[19]: 990
Assign rand_sets[20]: 342  LLC: 2048
rand_sets[20]: 342
Assign rand_sets[21]: 882  LLC: 2048
rand_sets[21]: 882
Assign rand_sets[22]: 15  LLC: 2048
rand_sets[22]: 15
Assign rand_sets[23]: 71  LLC: 2048
rand_sets[23]: 71
Assign rand_sets[24]: 1127  LLC: 2048
rand_sets[24]: 1127
Assign rand_sets[25]: 1382  LLC: 2048
rand_sets[25]: 1382
Assign rand_sets[26]: 647  LLC: 2048
rand_sets[26]: 647
Assign rand_sets[27]: 857  LLC: 2048
rand_sets[27]: 857
Assign rand_sets[28]: 1450  LLC: 2048
rand_sets[28]: 1450
Assign rand_sets[29]: 1160  LLC: 2048
rand_sets[29]: 1160
Assign rand_sets[30]: 1852  LLC: 2048
rand_sets[30]: 1852
Assign rand_sets[31]: 1881  LLC: 2048
rand_sets[31]: 1881
Assign rand_sets[32]: 1770  LLC: 2048
rand_sets[32]: 1770
Assign rand_sets[33]: 1622  LLC: 2048
rand_sets[33]: 1622
Assign rand_sets[34]: 275  LLC: 2048
rand_sets[34]: 275
Assign rand_sets[35]: 635  LLC: 2048
rand_sets[35]: 635
Assign rand_sets[36]: 466  LLC: 2048
rand_sets[36]: 466
Assign rand_sets[37]: 1413  LLC: 2048
rand_sets[37]: 1413
Assign rand_sets[38]: 417  LLC: 2048
rand_sets[38]: 417
Assign rand_sets[39]: 472  LLC: 2048
rand_sets[39]: 472
Assign rand_sets[40]: 1340  LLC: 2048
rand_sets[40]: 1340
Assign rand_sets[41]: 852  LLC: 2048
rand_sets[41]: 852
Assign rand_sets[42]: 1365  LLC: 2048
rand_sets[42]: 1365
Assign rand_sets[43]: 47  LLC: 2048
rand_sets[43]: 47
Assign rand_sets[44]: 823  LLC: 2048
rand_sets[44]: 823
Assign rand_sets[45]: 686  LLC: 2048
rand_sets[45]: 686
Assign rand_sets[46]: 1637  LLC: 2048
rand_sets[46]: 1637
Assign rand_sets[47]: 1115  LLC: 2048
rand_sets[47]: 1115
Assign rand_sets[48]: 986  LLC: 2048
rand_sets[48]: 986
Assign rand_sets[49]: 258  LLC: 2048
rand_sets[49]: 258
Assign rand_sets[50]: 633  LLC: 2048
rand_sets[50]: 633
Assign rand_sets[51]: 920  LLC: 2048
rand_sets[51]: 920
Assign rand_sets[52]: 204  LLC: 2048
rand_sets[52]: 204
Assign rand_sets[53]: 227  LLC: 2048
rand_sets[53]: 227
Assign rand_sets[54]: 1818  LLC: 2048
rand_sets[54]: 1818
Assign rand_sets[55]: 886  LLC: 2048
rand_sets[55]: 886
Assign rand_sets[56]: 1422  LLC: 2048
rand_sets[56]: 1422
Assign rand_sets[57]: 607  LLC: 2048
rand_sets[57]: 607
Assign rand_sets[58]: 217  LLC: 2048
rand_sets[58]: 217
Assign rand_sets[59]: 1945  LLC: 2048
rand_sets[59]: 1945
Assign rand_sets[60]: 143  LLC: 2048
rand_sets[60]: 143
Assign rand_sets[61]: 1311  LLC: 2048
rand_sets[61]: 1311
Assign rand_sets[62]: 319  LLC: 2048
rand_sets[62]: 319
Assign rand_sets[63]: 1846  LLC: 2048
rand_sets[63]: 1846
 CLEAN-RRIP-POLICY-1: 2-2-0-2-0-3-0-1- CLEAN-RRIP-POLICY-2: 2-2-0-2-0-3-0-1-
 DIRTY-RRIP-POLICY-1: 2-2-0-2-1-3-0-1- DIRTY-RRIP-POLICY-2: 2-2-0-2-1-3-0-1-
 PSEL width: 10
Heartbeat CPU 0 instructions: 10000000 cycles: 4688091 heartbeat IPC: 2.13306 cumulative IPC: 2.13306 (Simulation time: 0 hr 0 min 17 sec) 
Heartbeat CPU 0 instructions: 20000000 cycles: 9325360 heartbeat IPC: 2.15644 cumulative IPC: 2.14469 (Simulation time: 0 hr 0 min 34 sec) 
Heartbeat CPU 0 instructions: 30000003 cycles: 14019756 heartbeat IPC: 2.1302 cumulative IPC: 2.13984 (Simulation time: 0 hr 0 min 52 sec) 
Heartbeat CPU 0 instructions: 40000000 cycles: 18670187 heartbeat IPC: 2.15034 cumulative IPC: 2.14245 (Simulation time: 0 hr 1 min 9 sec) 
Heartbeat CPU 0 instructions: 50000003 cycles: 23323587 heartbeat IPC: 2.14897 cumulative IPC: 2.14375 (Simulation time: 0 hr 1 min 26 sec) 
Heartbeat CPU 0 instructions: 60000000 cycles: 27976286 heartbeat IPC: 2.14929 cumulative IPC: 2.14467 (Simulation time: 0 hr 1 min 43 sec) 
Heartbeat CPU 0 instructions: 70000002 cycles: 32367473 heartbeat IPC: 2.27729 cumulative IPC: 2.16267 (Simulation time: 0 hr 1 min 59 sec) 
Heartbeat CPU 0 instructions: 80000000 cycles: 36304159 heartbeat IPC: 2.54021 cumulative IPC: 2.2036 (Simulation time: 0 hr 2 min 11 sec) 
Heartbeat CPU 0 instructions: 90000000 cycles: 40249478 heartbeat IPC: 2.53465 cumulative IPC: 2.23605 (Simulation time: 0 hr 2 min 23 sec) 
Heartbeat CPU 0 instructions: 100000000 cycles: 44211878 heartbeat IPC: 2.52372 cumulative IPC: 2.26184 (Simulation time: 0 hr 2 min 35 sec) 

Warmup complete CPU 0 instructions: 100000002 cycles: 44211879 (Simulation time: 0 hr 2 min 35 sec) 

Heartbeat CPU 0 instructions: 110000000 cycles: 53184620 heartbeat IPC: 1.11449 cumulative IPC: 1.11449 (Simulation time: 0 hr 2 min 54 sec) 
Heartbeat CPU 0 instructions: 120000000 cycles: 62100106 heartbeat IPC: 1.12164 cumulative IPC: 1.11805 (Simulation time: 0 hr 3 min 13 sec) 
Heartbeat CPU 0 instructions: 130000002 cycles: 71036623 heartbeat IPC: 1.119 cumulative IPC: 1.11837 (Simulation time: 0 hr 3 min 33 sec) 
Heartbeat CPU 0 instructions: 140000000 cycles: 79849446 heartbeat IPC: 1.13471 cumulative IPC: 1.12241 (Simulation time: 0 hr 3 min 52 sec) 
Heartbeat CPU 0 instructions: 150000003 cycles: 88808237 heartbeat IPC: 1.11622 cumulative IPC: 1.12117 (Simulation time: 0 hr 4 min 11 sec) 
Heartbeat CPU 0 instructions: 160000000 cycles: 99427049 heartbeat IPC: 0.941725 cumulative IPC: 1.08666 (Simulation time: 0 hr 4 min 33 sec) 
Heartbeat CPU 0 instructions: 170000000 cycles: 112231441 heartbeat IPC: 0.780982 cumulative IPC: 1.02912 (Simulation time: 0 hr 4 min 57 sec) 
Heartbeat CPU 0 instructions: 180000000 cycles: 124957046 heartbeat IPC: 0.785817 cumulative IPC: 0.990771 (Simulation time: 0 hr 5 min 21 sec) 
Heartbeat CPU 0 instructions: 190000000 cycles: 137894174 heartbeat IPC: 0.772969 cumulative IPC: 0.960694 (Simulation time: 0 hr 5 min 46 sec) 
Heartbeat CPU 0 instructions: 200000000 cycles: 151716310 heartbeat IPC: 0.723477 cumulative IPC: 0.930194 (Simulation time: 0 hr 6 min 10 sec) 
Heartbeat CPU 0 instructions: 210000001 cycles: 165614063 heartbeat IPC: 0.719541 cumulative IPC: 0.906079 (Simulation time: 0 hr 6 min 34 sec) 
Heartbeat CPU 0 instructions: 220000000 cycles: 179403741 heartbeat IPC: 0.72518 cumulative IPC: 0.887627 (Simulation time: 0 hr 6 min 59 sec) 
Heartbeat CPU 0 instructions: 230000000 cycles: 193081052 heartbeat IPC: 0.731138 cumulative IPC: 0.87325 (Simulation time: 0 hr 7 min 24 sec) 
Heartbeat CPU 0 instructions: 240000000 cycles: 206814549 heartbeat IPC: 0.728147 cumulative IPC: 0.860994 (Simulation time: 0 hr 7 min 50 sec) 
Heartbeat CPU 0 instructions: 250000003 cycles: 217963406 heartbeat IPC: 0.896953 cumulative IPC: 0.863302 (Simulation time: 0 hr 8 min 13 sec) 
Heartbeat CPU 0 instructions: 260000000 cycles: 225919189 heartbeat IPC: 1.25695 cumulative IPC: 0.880537 (Simulation time: 0 hr 8 min 33 sec) 
Heartbeat CPU 0 instructions: 270000003 cycles: 234295684 heartbeat IPC: 1.19382 cumulative IPC: 0.894342 (Simulation time: 0 hr 8 min 53 sec) 
Heartbeat CPU 0 instructions: 280000000 cycles: 243359744 heartbeat IPC: 1.10326 cumulative IPC: 0.903851 (Simulation time: 0 hr 9 min 15 sec) 
Heartbeat CPU 0 instructions: 290000000 cycles: 252364956 heartbeat IPC: 1.11047 cumulative IPC: 0.91279 (Simulation time: 0 hr 9 min 36 sec) 
Heartbeat CPU 0 instructions: 300000000 cycles: 261368995 heartbeat IPC: 1.11061 cumulative IPC: 0.920992 (Simulation time: 0 hr 9 min 57 sec) 
Heartbeat CPU 0 instructions: 310000000 cycles: 270430461 heartbeat IPC: 1.10357 cumulative IPC: 0.928306 (Simulation time: 0 hr 10 min 19 sec) 
Heartbeat CPU 0 instructions: 320000000 cycles: 279478864 heartbeat IPC: 1.10517 cumulative IPC: 0.935108 (Simulation time: 0 hr 10 min 42 sec) 
Heartbeat CPU 0 instructions: 330000002 cycles: 288510099 heartbeat IPC: 1.10727 cumulative IPC: 0.941472 (Simulation time: 0 hr 11 min 4 sec) 
Heartbeat CPU 0 instructions: 340000000 cycles: 298943742 heartbeat IPC: 0.958438 cumulative IPC: 0.942167 (Simulation time: 0 hr 11 min 27 sec) 
Heartbeat CPU 0 instructions: 350000001 cycles: 308107024 heartbeat IPC: 1.09131 cumulative IPC: 0.947346 (Simulation time: 0 hr 11 min 49 sec) 
Heartbeat CPU 0 instructions: 360000000 cycles: 317270802 heartbeat IPC: 1.09125 cumulative IPC: 0.952175 (Simulation time: 0 hr 12 min 11 sec) 
Heartbeat CPU 0 instructions: 370000001 cycles: 326434340 heartbeat IPC: 1.09128 cumulative IPC: 0.956692 (Simulation time: 0 hr 12 min 32 sec) 
Heartbeat CPU 0 instructions: 380000000 cycles: 335535238 heartbeat IPC: 1.09879 cumulative IPC: 0.961131 (Simulation time: 0 hr 12 min 53 sec) 
Heartbeat CPU 0 instructions: 390000001 cycles: 344448175 heartbeat IPC: 1.12196 cumulative IPC: 0.965906 (Simulation time: 0 hr 13 min 14 sec) 
Heartbeat CPU 0 instructions: 400000000 cycles: 353443019 heartbeat IPC: 1.11175 cumulative IPC: 0.970148 (Simulation time: 0 hr 13 min 35 sec) 
Heartbeat CPU 0 instructions: 410000003 cycles: 362346900 heartbeat IPC: 1.12311 cumulative IPC: 0.974429 (Simulation time: 0 hr 13 min 56 sec) 
Heartbeat CPU 0 instructions: 420000000 cycles: 371348749 heartbeat IPC: 1.11088 cumulative IPC: 0.978184 (Simulation time: 0 hr 14 min 17 sec) 
Heartbeat CPU 0 instructions: 430000001 cycles: 380213190 heartbeat IPC: 1.1281 cumulative IPC: 0.982139 (Simulation time: 0 hr 14 min 38 sec) 
Heartbeat CPU 0 instructions: 440000000 cycles: 389062989 heartbeat IPC: 1.12997 cumulative IPC: 0.985933 (Simulation time: 0 hr 14 min 59 sec) 
Heartbeat CPU 0 instructions: 450000001 cycles: 399473074 heartbeat IPC: 0.960607 cumulative IPC: 0.985191 (Simulation time: 0 hr 15 min 22 sec) 
Heartbeat CPU 0 instructions: 460000000 cycles: 408324712 heartbeat IPC: 1.12973 cumulative IPC: 0.988705 (Simulation time: 0 hr 15 min 43 sec) 
Heartbeat CPU 0 instructions: 470000003 cycles: 417039765 heartbeat IPC: 1.14744 cumulative IPC: 0.992415 (Simulation time: 0 hr 16 min 4 sec) 
Heartbeat CPU 0 instructions: 480000000 cycles: 425782374 heartbeat IPC: 1.14382 cumulative IPC: 0.995884 (Simulation time: 0 hr 16 min 25 sec) 
Heartbeat CPU 0 instructions: 490000000 cycles: 434498577 heartbeat IPC: 1.14729 cumulative IPC: 0.999265 (Simulation time: 0 hr 16 min 46 sec) 
Heartbeat CPU 0 instructions: 500000000 cycles: 443213828 heartbeat IPC: 1.14741 cumulative IPC: 1.0025 (Simulation time: 0 hr 17 min 6 sec) 
Heartbeat CPU 0 instructions: 510000001 cycles: 451879972 heartbeat IPC: 1.15392 cumulative IPC: 1.00572 (Simulation time: 0 hr 17 min 27 sec) 
Heartbeat CPU 0 instructions: 520000000 cycles: 460576388 heartbeat IPC: 1.1499 cumulative IPC: 1.00873 (Simulation time: 0 hr 17 min 48 sec) 
Heartbeat CPU 0 instructions: 530000001 cycles: 469270452 heartbeat IPC: 1.15021 cumulative IPC: 1.01163 (Simulation time: 0 hr 18 min 8 sec) 
Heartbeat CPU 0 instructions: 540000000 cycles: 478167527 heartbeat IPC: 1.12396 cumulative IPC: 1.01393 (Simulation time: 0 hr 18 min 29 sec) 
Heartbeat CPU 0 instructions: 550000000 cycles: 487102137 heartbeat IPC: 1.11924 cumulative IPC: 1.01605 (Simulation time: 0 hr 18 min 50 sec) 
Heartbeat CPU 0 instructions: 560000000 cycles: 495836048 heartbeat IPC: 1.14496 cumulative IPC: 1.01855 (Simulation time: 0 hr 19 min 11 sec) 
Heartbeat CPU 0 instructions: 570000001 cycles: 508478838 heartbeat IPC: 0.790965 cumulative IPC: 1.01235 (Simulation time: 0 hr 19 min 35 sec) 
Heartbeat CPU 0 instructions: 580000000 cycles: 520934505 heartbeat IPC: 0.802847 cumulative IPC: 1.00687 (Simulation time: 0 hr 19 min 57 sec) 
Heartbeat CPU 0 instructions: 590000001 cycles: 533661211 heartbeat IPC: 0.785749 cumulative IPC: 1.00113 (Simulation time: 0 hr 20 min 21 sec) 
Heartbeat CPU 0 instructions: 600000000 cycles: 546072354 heartbeat IPC: 0.805727 cumulative IPC: 0.996293 (Simulation time: 0 hr 20 min 44 sec) 
Finished CPU 0 instructions: 500000001 cycles: 501860488 cumulative IPC: 0.996293 (Simulation time: 0 hr 20 min 44 sec) 

CPU 0 Branch Prediction Accuracy: 99.7422% MPKI: 0.173296
Number of Branches: 33608403 Number of Mispredictions: 86648
Number of LOAD Instructions: 180215231
Number of LOAD Instructions (ROI): 180215231
Number of STORE Instructions: 36067263
Number of STORE Instructions (ROI): 36067263
Total Destination Memory Operands: 38428915
Total Destination Memory Operands (ROI): 38428915
Total Source Memory Operands: 180215231
Total Source Memory Operands (ROI): 180215231
Number of DEPENDED LOADS: 3042129
Number of DEPENDED LOADS (ROI): 3042129
Number of SQ_ADDED: 38428892
Number of SQ_ADDED (ROI): 38428892
Number of LQ_ADDED: 207963114
Number of LQ_ADDED (ROI): 207963114
Number of Instructions read from trace: 600000257

ChampSim completed all CPUs

Region of Interest Statistics

CPU 0 cumulative IPC: 0.996293 instructions: 500000001 cycles: 501860488
ITLB TOTAL     ACCESS:   92126060  HIT:   92126041  MISS:         19
ITLB LOAD      ACCESS:   92126060  HIT:   92126041  MISS:         19
ITLB RFO       ACCESS:          0  HIT:          0  MISS:          0
ITLB PREFETCH  ACCESS:          0  HIT:          0  MISS:          0
ITLB WRITEBACK ACCESS:          0  HIT:          0  MISS:          0
ITLB PREFETCH  REQUESTED:          0  ISSUED:          0  USEFUL:          0  USELESS:          0
ITLB TOTAL MSHR MERGED:         40
ITLB LOAD MSHR MERGED:         40
ITLB RFO MSHR MERGED:          0
ITLB PREFETCH MSHR MERGED:          0
ITLB WRITEBACK MSHR MERGED:          0
ITLB TOTAL ACCESSES:   92126100 HITS:   92126041 MISSES:         59
ITLB LOAD ACCESSES:   92126100 HITS:   92126041 MISSES:         59
ITLB RFO ACCESSES:          0 HITS:          0 MISSES:          0
ITLB PREFETCH ACCESSES:          0 HITS:          0 MISSES:          0
ITLB WRITEBACK ACCESSES:          0 HITS:          0 MISSES:          0
ITLB RQ ACCESS:  500000003
ITLB RQ TO_CACHE:   92126100
ITLB RQ MERGED:  407873903
ITLB RQ FORWARD:          0
ITLB WQ ACCESS:          0
ITLB WQ TO_CACHE:          0
ITLB WQ MERGED:          0
ITLB WQ FORWARD:          0
DTLB TOTAL     ACCESS:  141935296  HIT:  141568835  MISS:     366461
DTLB LOAD      ACCESS:  119319008  HIT:  119005423  MISS:     313585
DTLB RFO       ACCESS:   22616288  HIT:   22563412  MISS:      52876
DTLB PREFETCH  ACCESS:          0  HIT:          0  MISS:          0
DTLB WRITEBACK ACCESS:          0  HIT:          0  MISS:          0
DTLB PREFETCH  REQUESTED:          0  ISSUED:          0  USEFUL:          0  USELESS:          0
DTLB TOTAL MSHR MERGED:     285144
DTLB LOAD MSHR MERGED:     237116
DTLB RFO MSHR MERGED:      48028
DTLB PREFETCH MSHR MERGED:          0
DTLB WRITEBACK MSHR MERGED:          0
DTLB TOTAL ACCESSES:  142220440 HITS:  141568835 MISSES:     651605
DTLB LOAD ACCESSES:  119556124 HITS:  119005423 MISSES:     550701
DTLB RFO ACCESSES:   22664316 HITS:   22563412 MISSES:     100904
DTLB PREFETCH ACCESSES:          0 HITS:          0 MISSES:          0
DTLB WRITEBACK ACCESSES:          0 HITS:          0 MISSES:          0
DTLB RQ ACCESS:  184790848
DTLB RQ TO_CACHE:  142220440
DTLB RQ MERGED:   42570408
DTLB RQ FORWARD:          0
DTLB WQ ACCESS:          0
DTLB WQ TO_CACHE:          0
DTLB WQ MERGED:          0
DTLB WQ FORWARD:          0
L1D TOTAL     ACCESS:  186544787  HIT:  173103032  MISS:   13441755
L1D LOAD      ACCESS:  111517579  HIT:  107990505  MISS:    3527074
L1D RFO       ACCESS:   17558144  HIT:   14776376  MISS:    2781768
L1D PREFETCH  ACCESS:   57469064  HIT:   50336151  MISS:    7132913
L1D WRITEBACK ACCESS:          0  HIT:          0  MISS:          0
L1D PREFETCH  REQUESTED:  116451471  ISSUED:  115094407  USEFUL:    6923639  USELESS:     209275
L1D TOTAL MSHR MERGED:   35423410
L1D LOAD MSHR MERGED:    7904933
L1D RFO MSHR MERGED:   10694423
L1D PREFETCH MSHR MERGED:   16824054
L1D WRITEBACK MSHR MERGED:          0
L1D TOTAL ACCESSES:  221969257 HITS:  173104090 MISSES:   48865167
L1D LOAD ACCESSES:  116452159 HITS:  107991193 MISSES:    8460966
L1D RFO ACCESSES:   28252488 HITS:   14776376 MISSES:   13476112
L1D PREFETCH ACCESSES:   77264610 HITS:   50336521 MISSES:   26928089
L1D WRITEBACK ACCESSES:          0 HITS:          0 MISSES:          0
L1D RQ ACCESS:  156534782
L1D RQ TO_CACHE:  116451474
L1D RQ MERGED:   40082620
L1D RQ FORWARD:          0
L1D WQ ACCESS:   28256066
L1D WQ TO_CACHE:   28252488
L1D WQ MERGED:       3578
L1D WQ FORWARD:       1058
L1I TOTAL     ACCESS:  116123635  HIT:  116122687  MISS:        948
L1I LOAD      ACCESS:  116123635  HIT:  116122687  MISS:        948
L1I RFO       ACCESS:          0  HIT:          0  MISS:          0
L1I PREFETCH  ACCESS:          0  HIT:          0  MISS:          0
L1I WRITEBACK ACCESS:          0  HIT:          0  MISS:          0
L1I PREFETCH  REQUESTED:          0  ISSUED:          0  USEFUL:          0  USELESS:          0
L1I TOTAL MSHR MERGED:       1562
L1I LOAD MSHR MERGED:       1562
L1I RFO MSHR MERGED:          0
L1I PREFETCH MSHR MERGED:          0
L1I WRITEBACK MSHR MERGED:          0
L1I TOTAL ACCESSES:  116125197 HITS:  116122687 MISSES:       2510
L1I LOAD ACCESSES:  116125197 HITS:  116122687 MISSES:       2510
L1I RFO ACCESSES:          0 HITS:          0 MISSES:          0
L1I PREFETCH ACCESSES:          0 HITS:          0 MISSES:          0
L1I WRITEBACK ACCESSES:          0 HITS:          0 MISSES:          0
L1I RQ ACCESS:  500000007
L1I RQ TO_CACHE:  116125197
L1I RQ MERGED:  383874810
L1I RQ FORWARD:          0
L1I WQ ACCESS:          0
L1I WQ TO_CACHE:          0
L1I WQ MERGED:          0
L1I WQ FORWARD:          0
L2C TOTAL     ACCESS:   16687123  HIT:    4842786  MISS:   11844337
L2C LOAD      ACCESS:     556959  HIT:      95536  MISS:     461423
L2C RFO       ACCESS:    2781689  HIT:     266704  MISS:    2514985
L2C PREFETCH  ACCESS:   10127863  HIT:    1262213  MISS:    8865650
L2C WRITEBACK ACCESS:    3220612  HIT:    3218333  MISS:       2279
L2C PREFETCH  REQUESTED:      25795  ISSUED:      25795  USEFUL:      93009  USELESS:    8770720
L2C TOTAL MSHR MERGED:        510
L2C LOAD MSHR MERGED:          6
L2C RFO MSHR MERGED:          0
L2C PREFETCH MSHR MERGED:        504
L2C WRITEBACK MSHR MERGED:          0
L2C TOTAL ACCESSES:   16687730 HITS:    4842828 MISSES:   11844902
L2C LOAD ACCESSES:     556981 HITS:      95558 MISSES:     461423
L2C RFO ACCESSES:    2781689 HITS:     266704 MISSES:    2514985
L2C PREFETCH ACCESSES:   10128448 HITS:    1262233 MISSES:    8866215
L2C WRITEBACK ACCESSES:    3220612 HITS:    3218333 MISSES:       2279
L2C RQ ACCESS:    3338670
L2C RQ TO_CACHE:    3338648
L2C RQ MERGED:          0
L2C RQ FORWARD:          0
L2C WQ ACCESS:    3220612
L2C WQ TO_CACHE:    3220612
L2C WQ MERGED:          0
L2C WQ FORWARD:         42
LLC TOTAL     ACCESS:   14742398  HIT:    5720912  MISS:    9021486
LLC LOAD      ACCESS:     461413  HIT:     187334  MISS:     274079
LLC RFO       ACCESS:    2514969  HIT:    1407203  MISS:    1107766
LLC PREFETCH  ACCESS:    8865652  HIT:    2331872  MISS:    6533780
LLC WRITEBACK ACCESS:    2900364  HIT:    1794503  MISS:    1105861
LLC PREFETCH  REQUESTED:          0  ISSUED:          0  USEFUL:      17386  USELESS:    6523147
LLC TOTAL MSHR MERGED:          1
LLC LOAD MSHR MERGED:          0
LLC RFO MSHR MERGED:          0
LLC PREFETCH MSHR MERGED:          1
LLC WRITEBACK MSHR MERGED:          0
LLC TOTAL ACCESSES:   14742464 HITS:    5720976 MISSES:    9021488
LLC LOAD ACCESSES:     461417 HITS:     187338 MISSES:     274079
LLC RFO ACCESSES:    2514985 HITS:    1407219 MISSES:    1107766
LLC PREFETCH ACCESSES:    8865698 HITS:    2331916 MISSES:    6533782
LLC WRITEBACK ACCESSES:    2900364 HITS:    1794503 MISSES:    1105861
LLC 0 RQ ACCESS:    2976402
LLC 0 RQ TO_CACHE:    2976382
LLC 0 RQ MERGED:          0
LLC 0 RQ FORWARD:          0
LLC WQ ACCESS:    2900365
LLC WQ TO_CACHE:    2900365
LLC WQ MERGED:          0
LLC WQ FORWARD:         64
Major fault: 0 Minor fault: 57518
CPU 0 L1D next line prefetcher final stats
CPU 0 L2C PC-based stride prefetcher final stats
All Misses: 9654383
All Hits: 6584175
SD Algo Stats - Switches: 0 SRR-Repls: 281231 BRR-Repls: 0

DRAM Statistics
 CHANNEL 0
 RQ ROW_BUFFER_HIT:    3992922  ROW_BUFFER_MISS:    3914897
 DBUS_CONGESTED:    4057579
 WQ ROW_BUFFER_HIT:     242539  ROW_BUFFER_MISS:    1155829  FULL:          0

 AVG_CONGESTED_CYCLE: 12
LOADS RETIRED: 157818985
INSTR RETIRED: 500000000
