
*** ChampSim Multicore Out-of-Order Simulator ***

Warmup Instructions: 100000000
Simulation Instructions: 500000000
Number of CPUs: 1
LLC sets: 2048
LLC ways: 16
Clean RRIP Policies: 2202030122020301 Dirty RRIP Policies: 2202130122021301 PSEL Width: 10 Track Set: 4294967295 PSEL Mask: 1 Demote Mask: 4441211044412110DS Algo: 0Window size: 0
Off-chip DRAM Size: 4096 MB Channels: 1 Width: 64-bit Data Rate: 1600 MT/s

CPU 0 runs /mnt/beegfs/iconst01/spec2017/Xz.trace.gz
NOT SORTED
TRACE STRING: /mnt/beegfs/iconst01/spec2017/Xz.trace.gz
SORTED
TRACE STRING: /mnt/beegfs/iconst01/spec2017/Xz.trace.gz
INITIAL
TRACE STRING: /mnt/beegfs/iconst01/spec2017/Xz.trace.gz

champsim_seed used: 210

CPU 0 L1D next line prefetcher
CPU 0 L2C IP-based stride prefetcher
Initialize DRRIP state
Assign rand_sets[0]: 454  LLC: 2048
rand_sets[0]: 454
Assign rand_sets[1]: 1662  LLC: 2048
rand_sets[1]: 1662
Assign rand_sets[2]: 1921  LLC: 2048
rand_sets[2]: 1921
Assign rand_sets[3]: 1131  LLC: 2048
rand_sets[3]: 1131
Assign rand_sets[4]: 331  LLC: 2048
rand_sets[4]: 331
Assign rand_sets[5]: 1531  LLC: 2048
rand_sets[5]: 1531
Assign rand_sets[6]: 482  LLC: 2048
rand_sets[6]: 482
Assign rand_sets[7]: 1275  LLC: 2048
rand_sets[7]: 1275
Assign rand_sets[8]: 1876  LLC: 2048
rand_sets[8]: 1876
Assign rand_sets[9]: 2038  LLC: 2048
rand_sets[9]: 2038
Assign rand_sets[10]: 701  LLC: 2048
rand_sets[10]: 701
Assign rand_sets[11]: 479  LLC: 2048
rand_sets[11]: 479
Assign rand_sets[12]: 892  LLC: 2048
rand_sets[12]: 892
Assign rand_sets[13]: 1820  LLC: 2048
rand_sets[13]: 1820
Assign rand_sets[14]: 1505  LLC: 2048
rand_sets[14]: 1505
Assign rand_sets[15]: 1159  LLC: 2048
rand_sets[15]: 1159
Assign rand_sets[16]: 513  LLC: 2048
rand_sets[16]: 513
Assign rand_sets[17]: 703  LLC: 2048
rand_sets[17]: 703
Assign rand_sets[18]: 561  LLC: 2048
rand_sets[18]: 561
Assign rand_sets[19]: 990  LLC: 2048
rand_sets[19]: 990
Assign rand_sets[20]: 342  LLC: 2048
rand_sets[20]: 342
Assign rand_sets[21]: 882  LLC: 2048
rand_sets[21]: 882
Assign rand_sets[22]: 15  LLC: 2048
rand_sets[22]: 15
Assign rand_sets[23]: 71  LLC: 2048
rand_sets[23]: 71
Assign rand_sets[24]: 1127  LLC: 2048
rand_sets[24]: 1127
Assign rand_sets[25]: 1382  LLC: 2048
rand_sets[25]: 1382
Assign rand_sets[26]: 647  LLC: 2048
rand_sets[26]: 647
Assign rand_sets[27]: 857  LLC: 2048
rand_sets[27]: 857
Assign rand_sets[28]: 1450  LLC: 2048
rand_sets[28]: 1450
Assign rand_sets[29]: 1160  LLC: 2048
rand_sets[29]: 1160
Assign rand_sets[30]: 1852  LLC: 2048
rand_sets[30]: 1852
Assign rand_sets[31]: 1881  LLC: 2048
rand_sets[31]: 1881
Assign rand_sets[32]: 1770  LLC: 2048
rand_sets[32]: 1770
Assign rand_sets[33]: 1622  LLC: 2048
rand_sets[33]: 1622
Assign rand_sets[34]: 275  LLC: 2048
rand_sets[34]: 275
Assign rand_sets[35]: 635  LLC: 2048
rand_sets[35]: 635
Assign rand_sets[36]: 466  LLC: 2048
rand_sets[36]: 466
Assign rand_sets[37]: 1413  LLC: 2048
rand_sets[37]: 1413
Assign rand_sets[38]: 417  LLC: 2048
rand_sets[38]: 417
Assign rand_sets[39]: 472  LLC: 2048
rand_sets[39]: 472
Assign rand_sets[40]: 1340  LLC: 2048
rand_sets[40]: 1340
Assign rand_sets[41]: 852  LLC: 2048
rand_sets[41]: 852
Assign rand_sets[42]: 1365  LLC: 2048
rand_sets[42]: 1365
Assign rand_sets[43]: 47  LLC: 2048
rand_sets[43]: 47
Assign rand_sets[44]: 823  LLC: 2048
rand_sets[44]: 823
Assign rand_sets[45]: 686  LLC: 2048
rand_sets[45]: 686
Assign rand_sets[46]: 1637  LLC: 2048
rand_sets[46]: 1637
Assign rand_sets[47]: 1115  LLC: 2048
rand_sets[47]: 1115
Assign rand_sets[48]: 986  LLC: 2048
rand_sets[48]: 986
Assign rand_sets[49]: 258  LLC: 2048
rand_sets[49]: 258
Assign rand_sets[50]: 633  LLC: 2048
rand_sets[50]: 633
Assign rand_sets[51]: 920  LLC: 2048
rand_sets[51]: 920
Assign rand_sets[52]: 204  LLC: 2048
rand_sets[52]: 204
Assign rand_sets[53]: 227  LLC: 2048
rand_sets[53]: 227
Assign rand_sets[54]: 1818  LLC: 2048
rand_sets[54]: 1818
Assign rand_sets[55]: 886  LLC: 2048
rand_sets[55]: 886
Assign rand_sets[56]: 1422  LLC: 2048
rand_sets[56]: 1422
Assign rand_sets[57]: 607  LLC: 2048
rand_sets[57]: 607
Assign rand_sets[58]: 217  LLC: 2048
rand_sets[58]: 217
Assign rand_sets[59]: 1945  LLC: 2048
rand_sets[59]: 1945
Assign rand_sets[60]: 143  LLC: 2048
rand_sets[60]: 143
Assign rand_sets[61]: 1311  LLC: 2048
rand_sets[61]: 1311
Assign rand_sets[62]: 319  LLC: 2048
rand_sets[62]: 319
Assign rand_sets[63]: 1846  LLC: 2048
rand_sets[63]: 1846
 CLEAN-RRIP-POLICY-1: 2-2-0-2-0-3-0-1- CLEAN-RRIP-POLICY-2: 2-2-0-2-0-3-0-1-
 DIRTY-RRIP-POLICY-1: 2-2-0-2-1-3-0-1- DIRTY-RRIP-POLICY-2: 2-2-0-2-1-3-0-1-
 PSEL width: 10
Heartbeat CPU 0 instructions: 10000000 cycles: 4305123 heartbeat IPC: 2.32281 cumulative IPC: 2.32281 (Simulation time: 0 hr 0 min 12 sec) 
Heartbeat CPU 0 instructions: 20000000 cycles: 8616730 heartbeat IPC: 2.31932 cumulative IPC: 2.32107 (Simulation time: 0 hr 0 min 24 sec) 
Heartbeat CPU 0 instructions: 30000003 cycles: 13160492 heartbeat IPC: 2.20082 cumulative IPC: 2.27955 (Simulation time: 0 hr 0 min 37 sec) 
Heartbeat CPU 0 instructions: 40000000 cycles: 17514987 heartbeat IPC: 2.29648 cumulative IPC: 2.28376 (Simulation time: 0 hr 0 min 49 sec) 
Heartbeat CPU 0 instructions: 50000001 cycles: 21877807 heartbeat IPC: 2.2921 cumulative IPC: 2.28542 (Simulation time: 0 hr 1 min 1 sec) 
Heartbeat CPU 0 instructions: 60000000 cycles: 26178086 heartbeat IPC: 2.32543 cumulative IPC: 2.29199 (Simulation time: 0 hr 1 min 12 sec) 
Heartbeat CPU 0 instructions: 70000001 cycles: 30244089 heartbeat IPC: 2.45942 cumulative IPC: 2.3145 (Simulation time: 0 hr 1 min 24 sec) 
Heartbeat CPU 0 instructions: 80000000 cycles: 34523052 heartbeat IPC: 2.33701 cumulative IPC: 2.31729 (Simulation time: 0 hr 1 min 35 sec) 
Heartbeat CPU 0 instructions: 90000001 cycles: 38739873 heartbeat IPC: 2.37145 cumulative IPC: 2.32319 (Simulation time: 0 hr 1 min 47 sec) 
Heartbeat CPU 0 instructions: 100000000 cycles: 42980526 heartbeat IPC: 2.35813 cumulative IPC: 2.32664 (Simulation time: 0 hr 1 min 58 sec) 

Warmup complete CPU 0 instructions: 100000001 cycles: 42980527 (Simulation time: 0 hr 1 min 58 sec) 

Heartbeat CPU 0 instructions: 110000000 cycles: 53258988 heartbeat IPC: 0.972908 cumulative IPC: 0.972908 (Simulation time: 0 hr 2 min 16 sec) 
Heartbeat CPU 0 instructions: 120000000 cycles: 64110497 heartbeat IPC: 0.921531 cumulative IPC: 0.946523 (Simulation time: 0 hr 2 min 34 sec) 
Heartbeat CPU 0 instructions: 130000001 cycles: 74923248 heartbeat IPC: 0.924834 cumulative IPC: 0.939181 (Simulation time: 0 hr 2 min 52 sec) 
Heartbeat CPU 0 instructions: 140000000 cycles: 84793057 heartbeat IPC: 1.01319 cumulative IPC: 0.956651 (Simulation time: 0 hr 3 min 9 sec) 
Heartbeat CPU 0 instructions: 150000001 cycles: 95335864 heartbeat IPC: 0.948514 cumulative IPC: 0.955013 (Simulation time: 0 hr 3 min 27 sec) 
Heartbeat CPU 0 instructions: 160000000 cycles: 105642775 heartbeat IPC: 0.970223 cumulative IPC: 0.957514 (Simulation time: 0 hr 3 min 44 sec) 
Heartbeat CPU 0 instructions: 170000000 cycles: 115549300 heartbeat IPC: 1.00944 cumulative IPC: 0.964602 (Simulation time: 0 hr 4 min 2 sec) 
Heartbeat CPU 0 instructions: 180000000 cycles: 126388016 heartbeat IPC: 0.922619 cumulative IPC: 0.959146 (Simulation time: 0 hr 4 min 20 sec) 
Heartbeat CPU 0 instructions: 190000001 cycles: 136921789 heartbeat IPC: 0.949328 cumulative IPC: 0.958045 (Simulation time: 0 hr 4 min 37 sec) 
Heartbeat CPU 0 instructions: 200000000 cycles: 147793088 heartbeat IPC: 0.919853 cumulative IPC: 0.954084 (Simulation time: 0 hr 4 min 55 sec) 
Heartbeat CPU 0 instructions: 210000002 cycles: 160742546 heartbeat IPC: 0.772233 cumulative IPC: 0.934087 (Simulation time: 0 hr 5 min 15 sec) 
Heartbeat CPU 0 instructions: 220000000 cycles: 173867274 heartbeat IPC: 0.76192 cumulative IPC: 0.916823 (Simulation time: 0 hr 5 min 34 sec) 
Heartbeat CPU 0 instructions: 230000000 cycles: 186646450 heartbeat IPC: 0.782523 cumulative IPC: 0.904877 (Simulation time: 0 hr 5 min 53 sec) 
Heartbeat CPU 0 instructions: 240000000 cycles: 199393614 heartbeat IPC: 0.784488 cumulative IPC: 0.895066 (Simulation time: 0 hr 6 min 12 sec) 
Heartbeat CPU 0 instructions: 250000000 cycles: 211960626 heartbeat IPC: 0.795734 cumulative IPC: 0.887679 (Simulation time: 0 hr 6 min 31 sec) 
Heartbeat CPU 0 instructions: 260000000 cycles: 224013681 heartbeat IPC: 0.829665 cumulative IPC: 0.883816 (Simulation time: 0 hr 6 min 50 sec) 
Heartbeat CPU 0 instructions: 270000003 cycles: 236516151 heartbeat IPC: 0.799842 cumulative IPC: 0.878391 (Simulation time: 0 hr 7 min 9 sec) 
Heartbeat CPU 0 instructions: 280000000 cycles: 248616243 heartbeat IPC: 0.82644 cumulative IPC: 0.875334 (Simulation time: 0 hr 7 min 28 sec) 
Heartbeat CPU 0 instructions: 290000002 cycles: 260775452 heartbeat IPC: 0.822422 cumulative IPC: 0.87238 (Simulation time: 0 hr 7 min 47 sec) 
Heartbeat CPU 0 instructions: 300000000 cycles: 273835783 heartbeat IPC: 0.765677 cumulative IPC: 0.866344 (Simulation time: 0 hr 8 min 6 sec) 
Heartbeat CPU 0 instructions: 310000000 cycles: 286707118 heartbeat IPC: 0.77692 cumulative IPC: 0.861621 (Simulation time: 0 hr 8 min 25 sec) 
Heartbeat CPU 0 instructions: 320000000 cycles: 300117782 heartbeat IPC: 0.745675 cumulative IPC: 0.855574 (Simulation time: 0 hr 8 min 45 sec) 
Heartbeat CPU 0 instructions: 330000003 cycles: 312761943 heartbeat IPC: 0.790879 cumulative IPC: 0.852542 (Simulation time: 0 hr 9 min 4 sec) 
Heartbeat CPU 0 instructions: 340000000 cycles: 325639467 heartbeat IPC: 0.776547 cumulative IPC: 0.84908 (Simulation time: 0 hr 9 min 23 sec) 
Heartbeat CPU 0 instructions: 350000001 cycles: 337132587 heartbeat IPC: 0.870086 cumulative IPC: 0.849901 (Simulation time: 0 hr 9 min 41 sec) 
Heartbeat CPU 0 instructions: 360000000 cycles: 349611842 heartbeat IPC: 0.80133 cumulative IPC: 0.847924 (Simulation time: 0 hr 10 min 0 sec) 
Heartbeat CPU 0 instructions: 370000001 cycles: 361402756 heartbeat IPC: 0.848111 cumulative IPC: 0.847931 (Simulation time: 0 hr 10 min 19 sec) 
Heartbeat CPU 0 instructions: 380000000 cycles: 372821032 heartbeat IPC: 0.875789 cumulative IPC: 0.848895 (Simulation time: 0 hr 10 min 37 sec) 
Heartbeat CPU 0 instructions: 390000003 cycles: 383909643 heartbeat IPC: 0.901827 cumulative IPC: 0.850617 (Simulation time: 0 hr 10 min 55 sec) 
Heartbeat CPU 0 instructions: 400000000 cycles: 394502999 heartbeat IPC: 0.943988 cumulative IPC: 0.853431 (Simulation time: 0 hr 11 min 14 sec) 
Heartbeat CPU 0 instructions: 410000000 cycles: 405491815 heartbeat IPC: 0.910016 cumulative IPC: 0.855146 (Simulation time: 0 hr 11 min 32 sec) 
Heartbeat CPU 0 instructions: 420000000 cycles: 415070037 heartbeat IPC: 1.04404 cumulative IPC: 0.860008 (Simulation time: 0 hr 11 min 49 sec) 
Heartbeat CPU 0 instructions: 430000002 cycles: 424260553 heartbeat IPC: 1.08808 cumulative IPC: 0.865506 (Simulation time: 0 hr 12 min 7 sec) 
Heartbeat CPU 0 instructions: 440000000 cycles: 434972971 heartbeat IPC: 0.933496 cumulative IPC: 0.867364 (Simulation time: 0 hr 12 min 25 sec) 
Heartbeat CPU 0 instructions: 450000002 cycles: 446630441 heartbeat IPC: 0.857819 cumulative IPC: 0.867088 (Simulation time: 0 hr 12 min 43 sec) 
Heartbeat CPU 0 instructions: 460000000 cycles: 458780263 heartbeat IPC: 0.823057 cumulative IPC: 0.865801 (Simulation time: 0 hr 13 min 1 sec) 
Heartbeat CPU 0 instructions: 470000003 cycles: 469298114 heartbeat IPC: 0.950765 cumulative IPC: 0.867898 (Simulation time: 0 hr 13 min 19 sec) 
Heartbeat CPU 0 instructions: 480000000 cycles: 480239023 heartbeat IPC: 0.914001 cumulative IPC: 0.869051 (Simulation time: 0 hr 13 min 37 sec) 
Heartbeat CPU 0 instructions: 490000000 cycles: 490463771 heartbeat IPC: 0.978019 cumulative IPC: 0.871541 (Simulation time: 0 hr 13 min 54 sec) 
Heartbeat CPU 0 instructions: 500000000 cycles: 502853554 heartbeat IPC: 0.807117 cumulative IPC: 0.869805 (Simulation time: 0 hr 14 min 13 sec) 
Heartbeat CPU 0 instructions: 510000002 cycles: 515874763 heartbeat IPC: 0.767978 cumulative IPC: 0.867001 (Simulation time: 0 hr 14 min 32 sec) 
Heartbeat CPU 0 instructions: 520000000 cycles: 528288959 heartbeat IPC: 0.805529 cumulative IPC: 0.865429 (Simulation time: 0 hr 14 min 50 sec) 
Heartbeat CPU 0 instructions: 530000001 cycles: 540698551 heartbeat IPC: 0.805828 cumulative IPC: 0.863943 (Simulation time: 0 hr 15 min 9 sec) 
Heartbeat CPU 0 instructions: 540000000 cycles: 552870866 heartbeat IPC: 0.821536 cumulative IPC: 0.862931 (Simulation time: 0 hr 15 min 27 sec) 
Heartbeat CPU 0 instructions: 550000001 cycles: 564827542 heartbeat IPC: 0.836353 cumulative IPC: 0.862322 (Simulation time: 0 hr 15 min 46 sec) 
Heartbeat CPU 0 instructions: 560000000 cycles: 576952014 heartbeat IPC: 0.824778 cumulative IPC: 0.861469 (Simulation time: 0 hr 16 min 4 sec) 
Heartbeat CPU 0 instructions: 570000000 cycles: 588905719 heartbeat IPC: 0.836561 cumulative IPC: 0.860924 (Simulation time: 0 hr 16 min 22 sec) 
Heartbeat CPU 0 instructions: 580000000 cycles: 600094881 heartbeat IPC: 0.893722 cumulative IPC: 0.861583 (Simulation time: 0 hr 16 min 40 sec) 
Heartbeat CPU 0 instructions: 590000003 cycles: 612061869 heartbeat IPC: 0.835632 cumulative IPC: 0.861037 (Simulation time: 0 hr 16 min 58 sec) 
Heartbeat CPU 0 instructions: 600000000 cycles: 623061021 heartbeat IPC: 0.909161 cumulative IPC: 0.861949 (Simulation time: 0 hr 17 min 16 sec) 
Finished CPU 0 instructions: 500000001 cycles: 580080502 cumulative IPC: 0.861949 (Simulation time: 0 hr 17 min 16 sec) 

CPU 0 Branch Prediction Accuracy: 93.0095% MPKI: 10.0046
Number of Branches: 71558147 Number of Mispredictions: 5002285
Number of LOAD Instructions: 145708893
Number of LOAD Instructions (ROI): 145708893
Number of STORE Instructions: 40463820
Number of STORE Instructions (ROI): 40463820
Total Destination Memory Operands: 45240498
Total Destination Memory Operands (ROI): 45240498
Total Source Memory Operands: 145708893
Total Source Memory Operands (ROI): 145708893
Number of DEPENDED LOADS: 10679623
Number of DEPENDED LOADS (ROI): 10679623
Number of SQ_ADDED: 45240498
Number of SQ_ADDED (ROI): 45240498
Number of LQ_ADDED: 193406794
Number of LQ_ADDED (ROI): 193406794
Number of Instructions read from trace: 600000002

ChampSim completed all CPUs

Region of Interest Statistics

CPU 0 cumulative IPC: 0.861949 instructions: 500000001 cycles: 580080502
ITLB TOTAL     ACCESS:   77981141  HIT:   77981140  MISS:          1
ITLB LOAD      ACCESS:   77981141  HIT:   77981140  MISS:          1
ITLB RFO       ACCESS:          0  HIT:          0  MISS:          0
ITLB PREFETCH  ACCESS:          0  HIT:          0  MISS:          0
ITLB WRITEBACK ACCESS:          0  HIT:          0  MISS:          0
ITLB PREFETCH  REQUESTED:          0  ISSUED:          0  USEFUL:          0  USELESS:          0
ITLB TOTAL MSHR MERGED:          0
ITLB LOAD MSHR MERGED:          0
ITLB RFO MSHR MERGED:          0
ITLB PREFETCH MSHR MERGED:          0
ITLB WRITEBACK MSHR MERGED:          0
ITLB TOTAL ACCESSES:   77981141 HITS:   77981140 MISSES:          1
ITLB LOAD ACCESSES:   77981141 HITS:   77981140 MISSES:          1
ITLB RFO ACCESSES:          0 HITS:          0 MISSES:          0
ITLB PREFETCH ACCESSES:          0 HITS:          0 MISSES:          0
ITLB WRITEBACK ACCESSES:          0 HITS:          0 MISSES:          0
ITLB RQ ACCESS:  499999995
ITLB RQ TO_CACHE:   77981141
ITLB RQ MERGED:  422018854
ITLB RQ FORWARD:          0
ITLB WQ ACCESS:          0
ITLB WQ TO_CACHE:          0
ITLB WQ MERGED:          0
ITLB WQ FORWARD:          0
DTLB TOTAL     ACCESS:   98680340  HIT:   97799004  MISS:     881336
DTLB LOAD      ACCESS:   70902245  HIT:   70040712  MISS:     861533
DTLB RFO       ACCESS:   27778095  HIT:   27758292  MISS:      19803
DTLB PREFETCH  ACCESS:          0  HIT:          0  MISS:          0
DTLB WRITEBACK ACCESS:          0  HIT:          0  MISS:          0
DTLB PREFETCH  REQUESTED:          0  ISSUED:          0  USEFUL:          0  USELESS:          0
DTLB TOTAL MSHR MERGED:      86968
DTLB LOAD MSHR MERGED:      65173
DTLB RFO MSHR MERGED:      21795
DTLB PREFETCH MSHR MERGED:          0
DTLB WRITEBACK MSHR MERGED:          0
DTLB TOTAL ACCESSES:   98767308 HITS:   97799004 MISSES:     968304
DTLB LOAD ACCESSES:   70967418 HITS:   70040712 MISSES:     926706
DTLB RFO ACCESSES:   27799890 HITS:   27758292 MISSES:      41598
DTLB PREFETCH ACCESSES:          0 HITS:          0 MISSES:          0
DTLB WRITEBACK ACCESSES:          0 HITS:          0 MISSES:          0
DTLB RQ ACCESS:  150265410
DTLB RQ TO_CACHE:   98767308
DTLB RQ MERGED:   51498102
DTLB RQ FORWARD:          0
DTLB WQ ACCESS:          0
DTLB WQ TO_CACHE:          0
DTLB WQ MERGED:          0
DTLB WQ FORWARD:          0
L1D TOTAL     ACCESS:  173290541  HIT:  169122011  MISS:    4168530
L1D LOAD      ACCESS:   75272674  HIT:   73391074  MISS:    1881600
L1D RFO       ACCESS:   36777489  HIT:   36570673  MISS:     206816
L1D PREFETCH  ACCESS:   61240378  HIT:   59160264  MISS:    2080114
L1D WRITEBACK ACCESS:          0  HIT:          0  MISS:          0
L1D PREFETCH  REQUESTED:   75382962  ISSUED:   74818720  USEFUL:     414607  USELESS:    1665496
L1D TOTAL MSHR MERGED:     408662
L1D LOAD MSHR MERGED:     119381
L1D RFO MSHR MERGED:     133516
L1D PREFETCH MSHR MERGED:     155765
L1D WRITEBACK MSHR MERGED:          0
L1D TOTAL ACCESSES:  173851274 HITS:  169274082 MISSES:    4577192
L1D LOAD ACCESSES:   75385813 HITS:   73393925 MISSES:    1991888
L1D RFO ACCESSES:   36909399 HITS:   36570673 MISSES:     338726
L1D PREFETCH ACCESSES:   61556062 HITS:   59309484 MISSES:    2246578
L1D WRITEBACK ACCESSES:          0 HITS:          0 MISSES:          0
L1D RQ ACCESS:  112603007
L1D RQ TO_CACHE:   75382962
L1D RQ MERGED:   37217194
L1D RQ FORWARD:          0
L1D WQ ACCESS:   37662403
L1D WQ TO_CACHE:   36909399
L1D WQ MERGED:     753004
L1D WQ FORWARD:     152071
L1I TOTAL     ACCESS:  100690025  HIT:  100690000  MISS:         25
L1I LOAD      ACCESS:  100690025  HIT:  100690000  MISS:         25
L1I RFO       ACCESS:          0  HIT:          0  MISS:          0
L1I PREFETCH  ACCESS:          0  HIT:          0  MISS:          0
L1I WRITEBACK ACCESS:          0  HIT:          0  MISS:          0
L1I PREFETCH  REQUESTED:          0  ISSUED:          0  USEFUL:          0  USELESS:          0
L1I TOTAL MSHR MERGED:         10
L1I LOAD MSHR MERGED:         10
L1I RFO MSHR MERGED:          0
L1I PREFETCH MSHR MERGED:          0
L1I WRITEBACK MSHR MERGED:          0
L1I TOTAL ACCESSES:  100690035 HITS:  100690000 MISSES:         35
L1I LOAD ACCESSES:  100690035 HITS:  100690000 MISSES:         35
L1I RFO ACCESSES:          0 HITS:          0 MISSES:          0
L1I PREFETCH ACCESSES:          0 HITS:          0 MISSES:          0
L1I WRITEBACK ACCESSES:          0 HITS:          0 MISSES:          0
L1I RQ ACCESS:  499999995
L1I RQ TO_CACHE:  100690035
L1I RQ MERGED:  399309960
L1I RQ FORWARD:          0
L1I WQ ACCESS:          0
L1I WQ TO_CACHE:          0
L1I WQ MERGED:          0
L1I WQ FORWARD:          0
L2C TOTAL     ACCESS:    5852227  HIT:    4009100  MISS:    1843127
L2C LOAD      ACCESS:    1872408  HIT:    1061404  MISS:     811004
L2C RFO       ACCESS:     205202  HIT:     100558  MISS:     104644
L2C PREFETCH  ACCESS:    2168993  HIT:    1245937  MISS:     923056
L2C WRITEBACK ACCESS:    1605624  HIT:    1601201  MISS:       4423
L2C PREFETCH  REQUESTED:      91696  ISSUED:      91696  USEFUL:      86378  USELESS:     836701
L2C TOTAL MSHR MERGED:       1281
L2C LOAD MSHR MERGED:        329
L2C RFO MSHR MERGED:          0
L2C PREFETCH MSHR MERGED:        952
L2C WRITEBACK MSHR MERGED:          0
L2C TOTAL ACCESSES:    5853880 HITS:    4009270 MISSES:    1844610
L2C LOAD ACCESSES:    1872532 HITS:    1061528 MISSES:     811004
L2C RFO ACCESSES:     205210 HITS:     100566 MISSES:     104644
L2C PREFETCH ACCESSES:    2170514 HITS:    1245975 MISSES:     924539
L2C WRITEBACK ACCESSES:    1605624 HITS:    1601201 MISSES:       4423
L2C RQ ACCESS:    2077742
L2C RQ TO_CACHE:    2077610
L2C RQ MERGED:          0
L2C RQ FORWARD:          0
L2C WQ ACCESS:    1605624
L2C WQ TO_CACHE:    1605624
L2C WQ MERGED:          0
L2C WQ FORWARD:        170
LLC TOTAL     ACCESS:    2673526  HIT:    1735407  MISS:     938119
LLC LOAD      ACCESS:     810667  HIT:     458249  MISS:     352418
LLC RFO       ACCESS:     104644  HIT:      48547  MISS:      56097
LLC PREFETCH  ACCESS:     923554  HIT:     488475  MISS:     435079
LLC WRITEBACK ACCESS:     834661  HIT:     740136  MISS:      94525
LLC PREFETCH  REQUESTED:          0  ISSUED:          0  USEFUL:      17552  USELESS:     419152
LLC TOTAL MSHR MERGED:         26
LLC LOAD MSHR MERGED:         10
LLC RFO MSHR MERGED:          0
LLC PREFETCH MSHR MERGED:         16
LLC WRITEBACK MSHR MERGED:          0
LLC TOTAL ACCESSES:    2673562 HITS:    1735417 MISSES:     938145
LLC LOAD ACCESSES:     810675 HITS:     458257 MISSES:     352418
LLC RFO ACCESSES:     104644 HITS:      48547 MISSES:      56097
LLC PREFETCH ACCESSES:     923582 HITS:     488477 MISSES:     435105
LLC WRITEBACK ACCESSES:     834661 HITS:     740136 MISSES:      94525
LLC 0 RQ ACCESS:     915319
LLC 0 RQ TO_CACHE:     915311
LLC 0 RQ MERGED:          0
LLC 0 RQ FORWARD:          0
LLC WQ ACCESS:     834661
LLC WQ TO_CACHE:     834661
LLC WQ MERGED:          0
LLC WQ FORWARD:         10
Major fault: 0 Minor fault: 11278
CPU 0 L1D next line prefetcher final stats
CPU 0 L2C PC-based stride prefetcher final stats
All Misses: 1047280
All Hits: 2007265
SD Algo Stats - Switches: 0 SRR-Repls: 382766 BRR-Repls: 0

DRAM Statistics
 CHANNEL 0
 RQ ROW_BUFFER_HIT:      51783  ROW_BUFFER_MISS:     789882
 DBUS_CONGESTED:     650822
 WQ ROW_BUFFER_HIT:      34255  ROW_BUFFER_MISS:     339461  FULL:          0

 AVG_CONGESTED_CYCLE: 13
LOADS RETIRED: 121769268
INSTR RETIRED: 500000000
