
*** ChampSim Multicore Out-of-Order Simulator ***

Warmup Instructions: 100000000
Simulation Instructions: 500000000
Number of CPUs: 1
LLC sets: 2048
LLC ways: 16
Clean RRIP Policies: 1213130112131301 Dirty RRIP Policies: 1203132112031321 PSEL Width: 10 Track Set: 4294967295 PSEL Mask: 1 Demote Mask: 4003444140034441DS Algo: 0Window size: 0
Off-chip DRAM Size: 4096 MB Channels: 1 Width: 64-bit Data Rate: 1600 MT/s

CPU 0 runs /mnt/beegfs/iconst01/spec2017/Gcc.trace.gz
NOT SORTED
TRACE STRING: /mnt/beegfs/iconst01/spec2017/Gcc.trace.gz
SORTED
TRACE STRING: /mnt/beegfs/iconst01/spec2017/Gcc.trace.gz
INITIAL
TRACE STRING: /mnt/beegfs/iconst01/spec2017/Gcc.trace.gz

champsim_seed used: 269

CPU 0 L1D next line prefetcher
CPU 0 L2C IP-based stride prefetcher
Initialize DRRIP state
Assign rand_sets[0]: 454  LLC: 2048
rand_sets[0]: 454
Assign rand_sets[1]: 1662  LLC: 2048
rand_sets[1]: 1662
Assign rand_sets[2]: 1921  LLC: 2048
rand_sets[2]: 1921
Assign rand_sets[3]: 1131  LLC: 2048
rand_sets[3]: 1131
Assign rand_sets[4]: 331  LLC: 2048
rand_sets[4]: 331
Assign rand_sets[5]: 1531  LLC: 2048
rand_sets[5]: 1531
Assign rand_sets[6]: 482  LLC: 2048
rand_sets[6]: 482
Assign rand_sets[7]: 1275  LLC: 2048
rand_sets[7]: 1275
Assign rand_sets[8]: 1876  LLC: 2048
rand_sets[8]: 1876
Assign rand_sets[9]: 2038  LLC: 2048
rand_sets[9]: 2038
Assign rand_sets[10]: 701  LLC: 2048
rand_sets[10]: 701
Assign rand_sets[11]: 479  LLC: 2048
rand_sets[11]: 479
Assign rand_sets[12]: 892  LLC: 2048
rand_sets[12]: 892
Assign rand_sets[13]: 1820  LLC: 2048
rand_sets[13]: 1820
Assign rand_sets[14]: 1505  LLC: 2048
rand_sets[14]: 1505
Assign rand_sets[15]: 1159  LLC: 2048
rand_sets[15]: 1159
Assign rand_sets[16]: 513  LLC: 2048
rand_sets[16]: 513
Assign rand_sets[17]: 703  LLC: 2048
rand_sets[17]: 703
Assign rand_sets[18]: 561  LLC: 2048
rand_sets[18]: 561
Assign rand_sets[19]: 990  LLC: 2048
rand_sets[19]: 990
Assign rand_sets[20]: 342  LLC: 2048
rand_sets[20]: 342
Assign rand_sets[21]: 882  LLC: 2048
rand_sets[21]: 882
Assign rand_sets[22]: 15  LLC: 2048
rand_sets[22]: 15
Assign rand_sets[23]: 71  LLC: 2048
rand_sets[23]: 71
Assign rand_sets[24]: 1127  LLC: 2048
rand_sets[24]: 1127
Assign rand_sets[25]: 1382  LLC: 2048
rand_sets[25]: 1382
Assign rand_sets[26]: 647  LLC: 2048
rand_sets[26]: 647
Assign rand_sets[27]: 857  LLC: 2048
rand_sets[27]: 857
Assign rand_sets[28]: 1450  LLC: 2048
rand_sets[28]: 1450
Assign rand_sets[29]: 1160  LLC: 2048
rand_sets[29]: 1160
Assign rand_sets[30]: 1852  LLC: 2048
rand_sets[30]: 1852
Assign rand_sets[31]: 1881  LLC: 2048
rand_sets[31]: 1881
Assign rand_sets[32]: 1770  LLC: 2048
rand_sets[32]: 1770
Assign rand_sets[33]: 1622  LLC: 2048
rand_sets[33]: 1622
Assign rand_sets[34]: 275  LLC: 2048
rand_sets[34]: 275
Assign rand_sets[35]: 635  LLC: 2048
rand_sets[35]: 635
Assign rand_sets[36]: 466  LLC: 2048
rand_sets[36]: 466
Assign rand_sets[37]: 1413  LLC: 2048
rand_sets[37]: 1413
Assign rand_sets[38]: 417  LLC: 2048
rand_sets[38]: 417
Assign rand_sets[39]: 472  LLC: 2048
rand_sets[39]: 472
Assign rand_sets[40]: 1340  LLC: 2048
rand_sets[40]: 1340
Assign rand_sets[41]: 852  LLC: 2048
rand_sets[41]: 852
Assign rand_sets[42]: 1365  LLC: 2048
rand_sets[42]: 1365
Assign rand_sets[43]: 47  LLC: 2048
rand_sets[43]: 47
Assign rand_sets[44]: 823  LLC: 2048
rand_sets[44]: 823
Assign rand_sets[45]: 686  LLC: 2048
rand_sets[45]: 686
Assign rand_sets[46]: 1637  LLC: 2048
rand_sets[46]: 1637
Assign rand_sets[47]: 1115  LLC: 2048
rand_sets[47]: 1115
Assign rand_sets[48]: 986  LLC: 2048
rand_sets[48]: 986
Assign rand_sets[49]: 258  LLC: 2048
rand_sets[49]: 258
Assign rand_sets[50]: 633  LLC: 2048
rand_sets[50]: 633
Assign rand_sets[51]: 920  LLC: 2048
rand_sets[51]: 920
Assign rand_sets[52]: 204  LLC: 2048
rand_sets[52]: 204
Assign rand_sets[53]: 227  LLC: 2048
rand_sets[53]: 227
Assign rand_sets[54]: 1818  LLC: 2048
rand_sets[54]: 1818
Assign rand_sets[55]: 886  LLC: 2048
rand_sets[55]: 886
Assign rand_sets[56]: 1422  LLC: 2048
rand_sets[56]: 1422
Assign rand_sets[57]: 607  LLC: 2048
rand_sets[57]: 607
Assign rand_sets[58]: 217  LLC: 2048
rand_sets[58]: 217
Assign rand_sets[59]: 1945  LLC: 2048
rand_sets[59]: 1945
Assign rand_sets[60]: 143  LLC: 2048
rand_sets[60]: 143
Assign rand_sets[61]: 1311  LLC: 2048
rand_sets[61]: 1311
Assign rand_sets[62]: 319  LLC: 2048
rand_sets[62]: 319
Assign rand_sets[63]: 1846  LLC: 2048
rand_sets[63]: 1846
 CLEAN-RRIP-POLICY-1: 1-2-1-3-1-3-0-1- CLEAN-RRIP-POLICY-2: 1-2-1-3-1-3-0-1-
 DIRTY-RRIP-POLICY-1: 1-2-0-3-1-3-2-1- DIRTY-RRIP-POLICY-2: 1-2-0-3-1-3-2-1-
 PSEL width: 10
Heartbeat CPU 0 instructions: 10000001 cycles: 7315982 heartbeat IPC: 1.36687 cumulative IPC: 1.36687 (Simulation time: 0 hr 0 min 15 sec) 
Heartbeat CPU 0 instructions: 20000000 cycles: 14307452 heartbeat IPC: 1.43031 cumulative IPC: 1.39787 (Simulation time: 0 hr 0 min 30 sec) 
Heartbeat CPU 0 instructions: 30000001 cycles: 21020226 heartbeat IPC: 1.4897 cumulative IPC: 1.4272 (Simulation time: 0 hr 0 min 46 sec) 
Heartbeat CPU 0 instructions: 40000000 cycles: 27481136 heartbeat IPC: 1.54777 cumulative IPC: 1.45554 (Simulation time: 0 hr 1 min 2 sec) 
Heartbeat CPU 0 instructions: 50000001 cycles: 33582808 heartbeat IPC: 1.6389 cumulative IPC: 1.48886 (Simulation time: 0 hr 1 min 18 sec) 
Heartbeat CPU 0 instructions: 60000000 cycles: 40064021 heartbeat IPC: 1.54292 cumulative IPC: 1.4976 (Simulation time: 0 hr 1 min 34 sec) 
Heartbeat CPU 0 instructions: 70000000 cycles: 47101057 heartbeat IPC: 1.42105 cumulative IPC: 1.48617 (Simulation time: 0 hr 1 min 49 sec) 
Heartbeat CPU 0 instructions: 80000000 cycles: 54190306 heartbeat IPC: 1.41059 cumulative IPC: 1.47628 (Simulation time: 0 hr 2 min 4 sec) 
Heartbeat CPU 0 instructions: 90000003 cycles: 61194411 heartbeat IPC: 1.42773 cumulative IPC: 1.47072 (Simulation time: 0 hr 2 min 18 sec) 
Heartbeat CPU 0 instructions: 100000000 cycles: 68361264 heartbeat IPC: 1.39531 cumulative IPC: 1.46282 (Simulation time: 0 hr 2 min 33 sec) 

Warmup complete CPU 0 instructions: 100000004 cycles: 68361265 (Simulation time: 0 hr 2 min 33 sec) 

Heartbeat CPU 0 instructions: 110000003 cycles: 95953954 heartbeat IPC: 0.362415 cumulative IPC: 0.362415 (Simulation time: 0 hr 3 min 2 sec) 
Heartbeat CPU 0 instructions: 120000000 cycles: 123426097 heartbeat IPC: 0.364005 cumulative IPC: 0.363208 (Simulation time: 0 hr 3 min 31 sec) 
Heartbeat CPU 0 instructions: 130000000 cycles: 148424604 heartbeat IPC: 0.400024 cumulative IPC: 0.374703 (Simulation time: 0 hr 3 min 59 sec) 
Heartbeat CPU 0 instructions: 140000000 cycles: 177729320 heartbeat IPC: 0.341242 cumulative IPC: 0.365737 (Simulation time: 0 hr 4 min 28 sec) 
Heartbeat CPU 0 instructions: 150000000 cycles: 207522330 heartbeat IPC: 0.335649 cumulative IPC: 0.359296 (Simulation time: 0 hr 4 min 57 sec) 
Heartbeat CPU 0 instructions: 160000000 cycles: 234925091 heartbeat IPC: 0.364927 cumulative IPC: 0.360222 (Simulation time: 0 hr 5 min 24 sec) 
Heartbeat CPU 0 instructions: 170000001 cycles: 262921812 heartbeat IPC: 0.357185 cumulative IPC: 0.359785 (Simulation time: 0 hr 5 min 54 sec) 
Heartbeat CPU 0 instructions: 180000000 cycles: 291294467 heartbeat IPC: 0.352452 cumulative IPC: 0.358852 (Simulation time: 0 hr 6 min 23 sec) 
Heartbeat CPU 0 instructions: 190000002 cycles: 319219395 heartbeat IPC: 0.358103 cumulative IPC: 0.358769 (Simulation time: 0 hr 6 min 52 sec) 
Heartbeat CPU 0 instructions: 200000000 cycles: 347508426 heartbeat IPC: 0.353494 cumulative IPC: 0.358234 (Simulation time: 0 hr 7 min 22 sec) 
Heartbeat CPU 0 instructions: 210000002 cycles: 375283190 heartbeat IPC: 0.360039 cumulative IPC: 0.358397 (Simulation time: 0 hr 7 min 50 sec) 
Heartbeat CPU 0 instructions: 220000000 cycles: 404263232 heartbeat IPC: 0.345065 cumulative IPC: 0.357247 (Simulation time: 0 hr 8 min 18 sec) 
Heartbeat CPU 0 instructions: 230000000 cycles: 431785597 heartbeat IPC: 0.363341 cumulative IPC: 0.357709 (Simulation time: 0 hr 8 min 46 sec) 
Heartbeat CPU 0 instructions: 240000000 cycles: 457787859 heartbeat IPC: 0.384582 cumulative IPC: 0.359503 (Simulation time: 0 hr 9 min 14 sec) 
Heartbeat CPU 0 instructions: 250000000 cycles: 487914101 heartbeat IPC: 0.331937 cumulative IPC: 0.357524 (Simulation time: 0 hr 9 min 44 sec) 
Heartbeat CPU 0 instructions: 260000000 cycles: 515055809 heartbeat IPC: 0.368437 cumulative IPC: 0.358187 (Simulation time: 0 hr 10 min 12 sec) 
Heartbeat CPU 0 instructions: 270000003 cycles: 543421496 heartbeat IPC: 0.352539 cumulative IPC: 0.357849 (Simulation time: 0 hr 10 min 42 sec) 
Heartbeat CPU 0 instructions: 280000000 cycles: 571493358 heartbeat IPC: 0.356229 cumulative IPC: 0.357759 (Simulation time: 0 hr 11 min 11 sec) 
Heartbeat CPU 0 instructions: 290000000 cycles: 600312479 heartbeat IPC: 0.346992 cumulative IPC: 0.357176 (Simulation time: 0 hr 11 min 41 sec) 
Heartbeat CPU 0 instructions: 300000000 cycles: 629992027 heartbeat IPC: 0.336932 cumulative IPC: 0.356106 (Simulation time: 0 hr 12 min 10 sec) 
Heartbeat CPU 0 instructions: 310000001 cycles: 659286954 heartbeat IPC: 0.341356 cumulative IPC: 0.355375 (Simulation time: 0 hr 12 min 38 sec) 
Heartbeat CPU 0 instructions: 320000000 cycles: 687380740 heartbeat IPC: 0.355951 cumulative IPC: 0.355401 (Simulation time: 0 hr 13 min 6 sec) 
Heartbeat CPU 0 instructions: 330000000 cycles: 715927563 heartbeat IPC: 0.350302 cumulative IPC: 0.355176 (Simulation time: 0 hr 13 min 35 sec) 
Heartbeat CPU 0 instructions: 340000000 cycles: 745127944 heartbeat IPC: 0.342461 cumulative IPC: 0.354627 (Simulation time: 0 hr 14 min 4 sec) 
Heartbeat CPU 0 instructions: 350000003 cycles: 772101628 heartbeat IPC: 0.370732 cumulative IPC: 0.355245 (Simulation time: 0 hr 14 min 32 sec) 
Heartbeat CPU 0 instructions: 360000000 cycles: 800134862 heartbeat IPC: 0.356719 cumulative IPC: 0.355301 (Simulation time: 0 hr 14 min 59 sec) 
Heartbeat CPU 0 instructions: 370000000 cycles: 828310483 heartbeat IPC: 0.354917 cumulative IPC: 0.355287 (Simulation time: 0 hr 15 min 27 sec) 
Heartbeat CPU 0 instructions: 380000000 cycles: 856811569 heartbeat IPC: 0.350864 cumulative IPC: 0.355127 (Simulation time: 0 hr 15 min 54 sec) 
Heartbeat CPU 0 instructions: 390000001 cycles: 884416165 heartbeat IPC: 0.362259 cumulative IPC: 0.355368 (Simulation time: 0 hr 16 min 21 sec) 
Heartbeat CPU 0 instructions: 400000000 cycles: 913039213 heartbeat IPC: 0.349369 cumulative IPC: 0.355165 (Simulation time: 0 hr 16 min 49 sec) 
Heartbeat CPU 0 instructions: 410000001 cycles: 940351253 heartbeat IPC: 0.366139 cumulative IPC: 0.355509 (Simulation time: 0 hr 17 min 16 sec) 
Heartbeat CPU 0 instructions: 420000000 cycles: 967675111 heartbeat IPC: 0.365981 cumulative IPC: 0.355827 (Simulation time: 0 hr 17 min 44 sec) 
Heartbeat CPU 0 instructions: 430000002 cycles: 995337581 heartbeat IPC: 0.361501 cumulative IPC: 0.355996 (Simulation time: 0 hr 18 min 11 sec) 
Heartbeat CPU 0 instructions: 440000000 cycles: 1024784480 heartbeat IPC: 0.339594 cumulative IPC: 0.355491 (Simulation time: 0 hr 18 min 39 sec) 
Heartbeat CPU 0 instructions: 450000002 cycles: 1054001037 heartbeat IPC: 0.342272 cumulative IPC: 0.355099 (Simulation time: 0 hr 19 min 6 sec) 
Heartbeat CPU 0 instructions: 460000000 cycles: 1081687059 heartbeat IPC: 0.361193 cumulative IPC: 0.355266 (Simulation time: 0 hr 19 min 34 sec) 
Heartbeat CPU 0 instructions: 470000000 cycles: 1109316513 heartbeat IPC: 0.361933 cumulative IPC: 0.355443 (Simulation time: 0 hr 20 min 1 sec) 
Heartbeat CPU 0 instructions: 480000000 cycles: 1137202076 heartbeat IPC: 0.358609 cumulative IPC: 0.355525 (Simulation time: 0 hr 20 min 29 sec) 
Heartbeat CPU 0 instructions: 490000000 cycles: 1164800331 heartbeat IPC: 0.362342 cumulative IPC: 0.355697 (Simulation time: 0 hr 20 min 56 sec) 
Heartbeat CPU 0 instructions: 500000000 cycles: 1193052847 heartbeat IPC: 0.353951 cumulative IPC: 0.355653 (Simulation time: 0 hr 21 min 24 sec) 
Heartbeat CPU 0 instructions: 510000000 cycles: 1228453476 heartbeat IPC: 0.282481 cumulative IPC: 0.35342 (Simulation time: 0 hr 21 min 55 sec) 
Heartbeat CPU 0 instructions: 520000000 cycles: 1256501677 heartbeat IPC: 0.356529 cumulative IPC: 0.353494 (Simulation time: 0 hr 22 min 24 sec) 
Heartbeat CPU 0 instructions: 530000001 cycles: 1285686580 heartbeat IPC: 0.342643 cumulative IPC: 0.353233 (Simulation time: 0 hr 22 min 52 sec) 
Heartbeat CPU 0 instructions: 540000000 cycles: 1313678230 heartbeat IPC: 0.357249 cumulative IPC: 0.353324 (Simulation time: 0 hr 23 min 20 sec) 
Heartbeat CPU 0 instructions: 550000001 cycles: 1342904239 heartbeat IPC: 0.342161 cumulative IPC: 0.353068 (Simulation time: 0 hr 23 min 50 sec) 
Heartbeat CPU 0 instructions: 560000000 cycles: 1368295140 heartbeat IPC: 0.393842 cumulative IPC: 0.353864 (Simulation time: 0 hr 24 min 18 sec) 
Heartbeat CPU 0 instructions: 570000000 cycles: 1397645811 heartbeat IPC: 0.340708 cumulative IPC: 0.353574 (Simulation time: 0 hr 24 min 47 sec) 
Heartbeat CPU 0 instructions: 580000000 cycles: 1425578461 heartbeat IPC: 0.358004 cumulative IPC: 0.353665 (Simulation time: 0 hr 25 min 15 sec) 
Heartbeat CPU 0 instructions: 590000001 cycles: 1450496727 heartbeat IPC: 0.401312 cumulative IPC: 0.354524 (Simulation time: 0 hr 25 min 42 sec) 
Heartbeat CPU 0 instructions: 600000000 cycles: 1476815015 heartbeat IPC: 0.379964 cumulative IPC: 0.354999 (Simulation time: 0 hr 26 min 10 sec) 
Finished CPU 0 instructions: 500000000 cycles: 1408453772 cumulative IPC: 0.354999 (Simulation time: 0 hr 26 min 10 sec) 

CPU 0 Branch Prediction Accuracy: 86.4311% MPKI: 26.2662
Number of Branches: 96788573 Number of Mispredictions: 13133102
Number of LOAD Instructions: 164682285
Number of LOAD Instructions (ROI): 164682285
Number of STORE Instructions: 78194750
Number of STORE Instructions (ROI): 78194750
Total Destination Memory Operands: 83268534
Total Destination Memory Operands (ROI): 83268534
Total Source Memory Operands: 164712438
Total Source Memory Operands (ROI): 164712438
Number of DEPENDED LOADS: 7066952
Number of DEPENDED LOADS (ROI): 7066952
Number of SQ_ADDED: 83268522
Number of SQ_ADDED (ROI): 83268522
Number of LQ_ADDED: 236839886
Number of LQ_ADDED (ROI): 236839886
Number of Instructions read from trace: 600000066

ChampSim completed all CPUs

Region of Interest Statistics

CPU 0 cumulative IPC: 0.354999 instructions: 500000000 cycles: 1408453772
ITLB TOTAL     ACCESS:  100504858  HIT:  100300412  MISS:     204446
ITLB LOAD      ACCESS:  100504858  HIT:  100300412  MISS:     204446
ITLB RFO       ACCESS:          0  HIT:          0  MISS:          0
ITLB PREFETCH  ACCESS:          0  HIT:          0  MISS:          0
ITLB WRITEBACK ACCESS:          0  HIT:          0  MISS:          0
ITLB PREFETCH  REQUESTED:          0  ISSUED:          0  USEFUL:          0  USELESS:          0
ITLB TOTAL MSHR MERGED:     172424
ITLB LOAD MSHR MERGED:     172424
ITLB RFO MSHR MERGED:          0
ITLB PREFETCH MSHR MERGED:          0
ITLB WRITEBACK MSHR MERGED:          0
ITLB TOTAL ACCESSES:  100677282 HITS:  100300412 MISSES:     376870
ITLB LOAD ACCESSES:  100677282 HITS:  100300412 MISSES:     376870
ITLB RFO ACCESSES:          0 HITS:          0 MISSES:          0
ITLB PREFETCH ACCESSES:          0 HITS:          0 MISSES:          0
ITLB WRITEBACK ACCESSES:          0 HITS:          0 MISSES:          0
ITLB RQ ACCESS:  500000057
ITLB RQ TO_CACHE:  100677282
ITLB RQ MERGED:  399322775
ITLB RQ FORWARD:          0
ITLB WQ ACCESS:          0
ITLB WQ TO_CACHE:          0
ITLB WQ MERGED:          0
ITLB WQ FORWARD:          0
DTLB TOTAL     ACCESS:  165329113  HIT:  164694765  MISS:     634348
DTLB LOAD      ACCESS:  106285997  HIT:  105716008  MISS:     569989
DTLB RFO       ACCESS:   59043116  HIT:   58978757  MISS:      64359
DTLB PREFETCH  ACCESS:          0  HIT:          0  MISS:          0
DTLB WRITEBACK ACCESS:          0  HIT:          0  MISS:          0
DTLB PREFETCH  REQUESTED:          0  ISSUED:          0  USEFUL:          0  USELESS:          0
DTLB TOTAL MSHR MERGED:     100009
DTLB LOAD MSHR MERGED:      59466
DTLB RFO MSHR MERGED:      40543
DTLB PREFETCH MSHR MERGED:          0
DTLB WRITEBACK MSHR MERGED:          0
DTLB TOTAL ACCESSES:  165429122 HITS:  164694765 MISSES:     734357
DTLB LOAD ACCESSES:  106345463 HITS:  105716008 MISSES:     629455
DTLB RFO ACCESSES:   59083659 HITS:   58978757 MISSES:     104902
DTLB PREFETCH ACCESSES:          0 HITS:          0 MISSES:          0
DTLB WRITEBACK ACCESSES:          0 HITS:          0 MISSES:          0
DTLB RQ ACCESS:  200304036
DTLB RQ TO_CACHE:  165429122
DTLB RQ MERGED:   34874914
DTLB RQ FORWARD:          0
DTLB WQ ACCESS:          0
DTLB WQ TO_CACHE:          0
DTLB WQ MERGED:          0
DTLB WQ FORWARD:          0
L1D TOTAL     ACCESS:  281782033  HIT:  273872799  MISS:    7909234
L1D LOAD      ACCESS:  110406520  HIT:  107126877  MISS:    3279643
L1D RFO       ACCESS:   67097292  HIT:   66205777  MISS:     891515
L1D PREFETCH  ACCESS:  104278221  HIT:  100540145  MISS:    3738076
L1D WRITEBACK ACCESS:          0  HIT:          0  MISS:          0
L1D PREFETCH  REQUESTED:  110810189  ISSUED:  109110988  USEFUL:    1658940  USELESS:    2079100
L1D TOTAL MSHR MERGED:    2908464
L1D LOAD MSHR MERGED:     502769
L1D RFO MSHR MERGED:    1889318
L1D PREFETCH MSHR MERGED:     516377
L1D WRITEBACK MSHR MERGED:          0
L1D TOTAL ACCESSES:  284718056 HITS:  273900358 MISSES:   10817698
L1D LOAD ACCESSES:  110811739 HITS:  107128427 MISSES:    3683312
L1D RFO ACCESSES:   68973880 HITS:   66205777 MISSES:    2768103
L1D PREFETCH ACCESSES:  104932437 HITS:  100566154 MISSES:    4366283
L1D WRITEBACK ACCESSES:          0 HITS:          0 MISSES:          0
L1D RQ ACCESS:  130751433
L1D RQ TO_CACHE:  110810192
L1D RQ MERGED:   19939691
L1D RQ FORWARD:          0
L1D WQ ACCESS:   69552603
L1D WQ TO_CACHE:   68973881
L1D WQ MERGED:     578722
L1D WQ FORWARD:      27559
L1I TOTAL     ACCESS:  126552436  HIT:  122313883  MISS:    4238553
L1I LOAD      ACCESS:  126552436  HIT:  122313883  MISS:    4238553
L1I RFO       ACCESS:          0  HIT:          0  MISS:          0
L1I PREFETCH  ACCESS:          0  HIT:          0  MISS:          0
L1I WRITEBACK ACCESS:          0  HIT:          0  MISS:          0
L1I PREFETCH  REQUESTED:          0  ISSUED:          0  USEFUL:          0  USELESS:          0
L1I TOTAL MSHR MERGED:    1834343
L1I LOAD MSHR MERGED:    1834343
L1I RFO MSHR MERGED:          0
L1I PREFETCH MSHR MERGED:          0
L1I WRITEBACK MSHR MERGED:          0
L1I TOTAL ACCESSES:  128386782 HITS:  122313883 MISSES:    6072899
L1I LOAD ACCESSES:  128386782 HITS:  122313883 MISSES:    6072899
L1I RFO ACCESSES:          0 HITS:          0 MISSES:          0
L1I PREFETCH ACCESSES:          0 HITS:          0 MISSES:          0
L1I WRITEBACK ACCESSES:          0 HITS:          0 MISSES:          0
L1I RQ ACCESS:  500000057
L1I RQ TO_CACHE:  128386782
L1I RQ MERGED:  371613275
L1I RQ FORWARD:          0
L1I WQ ACCESS:          0
L1I WQ TO_CACHE:          0
L1I WQ MERGED:          0
L1I WQ FORWARD:          0
L2C TOTAL     ACCESS:   14903723  HIT:   11157203  MISS:    3746520
L2C LOAD      ACCESS:    7418887  HIT:    5098420  MISS:    2320467
L2C RFO       ACCESS:     878687  HIT:     409890  MISS:     468797
L2C PREFETCH  ACCESS:    4566926  HIT:    3626926  MISS:     940000
L2C WRITEBACK ACCESS:    2039223  HIT:    2021967  MISS:      17256
L2C PREFETCH  REQUESTED:     842651  ISSUED:     842651  USEFUL:     202958  USELESS:     736748
L2C TOTAL MSHR MERGED:       8326
L2C LOAD MSHR MERGED:       1179
L2C RFO MSHR MERGED:          0
L2C PREFETCH MSHR MERGED:       7147
L2C WRITEBACK MSHR MERGED:          0
L2C TOTAL ACCESSES:   14913007 HITS:   11157651 MISSES:    3755356
L2C LOAD ACCESSES:    7419096 HITS:    5098629 MISSES:    2320467
L2C RFO ACCESSES:     878785 HITS:     409988 MISSES:     468797
L2C PREFETCH ACCESSES:    4575903 HITS:    3627067 MISSES:     948836
L2C WRITEBACK ACCESSES:    2039223 HITS:    2021967 MISSES:      17256
L2C RQ ACCESS:    8297884
L2C RQ TO_CACHE:    8297577
L2C RQ MERGED:          0
L2C RQ FORWARD:          0
L2C WQ ACCESS:    2039223
L2C WQ TO_CACHE:    2039223
L2C WQ MERGED:          0
L2C WQ FORWARD:        448
LLC TOTAL     ACCESS:    4609910  HIT:    3867199  MISS:     742711
LLC LOAD      ACCESS:    2319276  HIT:    2097128  MISS:     222148
LLC RFO       ACCESS:     468787  HIT:     371799  MISS:      96988
LLC PREFETCH  ACCESS:     941549  HIT:     622715  MISS:     318834
LLC WRITEBACK ACCESS:     880298  HIT:     775557  MISS:     104741
LLC PREFETCH  REQUESTED:          0  ISSUED:          0  USEFUL:      17425  USELESS:     302154
LLC TOTAL MSHR MERGED:        127
LLC LOAD MSHR MERGED:         46
LLC RFO MSHR MERGED:          0
LLC PREFETCH MSHR MERGED:         81
LLC WRITEBACK MSHR MERGED:          0
LLC TOTAL ACCESSES:    4610069 HITS:    3867231 MISSES:     742838
LLC LOAD ACCESSES:    2319288 HITS:    2097140 MISSES:     222148
LLC RFO ACCESSES:     468797 HITS:     371809 MISSES:      96988
LLC PREFETCH ACCESSES:     941686 HITS:     622725 MISSES:     318961
LLC WRITEBACK ACCESSES:     880298 HITS:     775557 MISSES:     104741
LLC 0 RQ ACCESS:    2788085
LLC 0 RQ TO_CACHE:    2788063
LLC 0 RQ MERGED:          0
LLC 0 RQ FORWARD:          0
LLC WQ ACCESS:     880298
LLC WQ TO_CACHE:     880298
LLC WQ MERGED:          0
LLC WQ FORWARD:         32
Major fault: 0 Minor fault: 12862
CPU 0 L1D next line prefetcher final stats
CPU 0 L2C PC-based stride prefetcher final stats
All Misses: 872918
All Hits: 4553998
SD Algo Stats - Switches: 0 SRR-Repls: 258693 BRR-Repls: 0

DRAM Statistics
 CHANNEL 0
 RQ ROW_BUFFER_HIT:     125088  ROW_BUFFER_MISS:     510296
 DBUS_CONGESTED:     445637
 WQ ROW_BUFFER_HIT:      26732  ROW_BUFFER_MISS:     249069  FULL:          0

 AVG_CONGESTED_CYCLE: 13
LOADS RETIRED: 136549171
INSTR RETIRED: 500000000
