
*** ChampSim Multicore Out-of-Order Simulator ***

Warmup Instructions: 100000000
Simulation Instructions: 500000000
Number of CPUs: 1
LLC sets: 2048
LLC ways: 16
Clean RRIP Policies: 323102303231023 Dirty RRIP Policies: 2303202323032023 PSEL Width: 10 Track Set: 4294967295 PSEL Mask: 1 Demote Mask: 2410143324101433DS Algo: 0Window size: 0
Off-chip DRAM Size: 4096 MB Channels: 1 Width: 64-bit Data Rate: 1600 MT/s

CPU 0 runs /mnt/beegfs/iconst01/spec2017/Gcc.trace.gz
NOT SORTED
TRACE STRING: /mnt/beegfs/iconst01/spec2017/Gcc.trace.gz
SORTED
TRACE STRING: /mnt/beegfs/iconst01/spec2017/Gcc.trace.gz
INITIAL
TRACE STRING: /mnt/beegfs/iconst01/spec2017/Gcc.trace.gz

champsim_seed used: 269

CPU 0 L1D next line prefetcher
CPU 0 L2C IP-based stride prefetcher
Initialize DRRIP state
Assign rand_sets[0]: 454  LLC: 2048
rand_sets[0]: 454
Assign rand_sets[1]: 1662  LLC: 2048
rand_sets[1]: 1662
Assign rand_sets[2]: 1921  LLC: 2048
rand_sets[2]: 1921
Assign rand_sets[3]: 1131  LLC: 2048
rand_sets[3]: 1131
Assign rand_sets[4]: 331  LLC: 2048
rand_sets[4]: 331
Assign rand_sets[5]: 1531  LLC: 2048
rand_sets[5]: 1531
Assign rand_sets[6]: 482  LLC: 2048
rand_sets[6]: 482
Assign rand_sets[7]: 1275  LLC: 2048
rand_sets[7]: 1275
Assign rand_sets[8]: 1876  LLC: 2048
rand_sets[8]: 1876
Assign rand_sets[9]: 2038  LLC: 2048
rand_sets[9]: 2038
Assign rand_sets[10]: 701  LLC: 2048
rand_sets[10]: 701
Assign rand_sets[11]: 479  LLC: 2048
rand_sets[11]: 479
Assign rand_sets[12]: 892  LLC: 2048
rand_sets[12]: 892
Assign rand_sets[13]: 1820  LLC: 2048
rand_sets[13]: 1820
Assign rand_sets[14]: 1505  LLC: 2048
rand_sets[14]: 1505
Assign rand_sets[15]: 1159  LLC: 2048
rand_sets[15]: 1159
Assign rand_sets[16]: 513  LLC: 2048
rand_sets[16]: 513
Assign rand_sets[17]: 703  LLC: 2048
rand_sets[17]: 703
Assign rand_sets[18]: 561  LLC: 2048
rand_sets[18]: 561
Assign rand_sets[19]: 990  LLC: 2048
rand_sets[19]: 990
Assign rand_sets[20]: 342  LLC: 2048
rand_sets[20]: 342
Assign rand_sets[21]: 882  LLC: 2048
rand_sets[21]: 882
Assign rand_sets[22]: 15  LLC: 2048
rand_sets[22]: 15
Assign rand_sets[23]: 71  LLC: 2048
rand_sets[23]: 71
Assign rand_sets[24]: 1127  LLC: 2048
rand_sets[24]: 1127
Assign rand_sets[25]: 1382  LLC: 2048
rand_sets[25]: 1382
Assign rand_sets[26]: 647  LLC: 2048
rand_sets[26]: 647
Assign rand_sets[27]: 857  LLC: 2048
rand_sets[27]: 857
Assign rand_sets[28]: 1450  LLC: 2048
rand_sets[28]: 1450
Assign rand_sets[29]: 1160  LLC: 2048
rand_sets[29]: 1160
Assign rand_sets[30]: 1852  LLC: 2048
rand_sets[30]: 1852
Assign rand_sets[31]: 1881  LLC: 2048
rand_sets[31]: 1881
Assign rand_sets[32]: 1770  LLC: 2048
rand_sets[32]: 1770
Assign rand_sets[33]: 1622  LLC: 2048
rand_sets[33]: 1622
Assign rand_sets[34]: 275  LLC: 2048
rand_sets[34]: 275
Assign rand_sets[35]: 635  LLC: 2048
rand_sets[35]: 635
Assign rand_sets[36]: 466  LLC: 2048
rand_sets[36]: 466
Assign rand_sets[37]: 1413  LLC: 2048
rand_sets[37]: 1413
Assign rand_sets[38]: 417  LLC: 2048
rand_sets[38]: 417
Assign rand_sets[39]: 472  LLC: 2048
rand_sets[39]: 472
Assign rand_sets[40]: 1340  LLC: 2048
rand_sets[40]: 1340
Assign rand_sets[41]: 852  LLC: 2048
rand_sets[41]: 852
Assign rand_sets[42]: 1365  LLC: 2048
rand_sets[42]: 1365
Assign rand_sets[43]: 47  LLC: 2048
rand_sets[43]: 47
Assign rand_sets[44]: 823  LLC: 2048
rand_sets[44]: 823
Assign rand_sets[45]: 686  LLC: 2048
rand_sets[45]: 686
Assign rand_sets[46]: 1637  LLC: 2048
rand_sets[46]: 1637
Assign rand_sets[47]: 1115  LLC: 2048
rand_sets[47]: 1115
Assign rand_sets[48]: 986  LLC: 2048
rand_sets[48]: 986
Assign rand_sets[49]: 258  LLC: 2048
rand_sets[49]: 258
Assign rand_sets[50]: 633  LLC: 2048
rand_sets[50]: 633
Assign rand_sets[51]: 920  LLC: 2048
rand_sets[51]: 920
Assign rand_sets[52]: 204  LLC: 2048
rand_sets[52]: 204
Assign rand_sets[53]: 227  LLC: 2048
rand_sets[53]: 227
Assign rand_sets[54]: 1818  LLC: 2048
rand_sets[54]: 1818
Assign rand_sets[55]: 886  LLC: 2048
rand_sets[55]: 886
Assign rand_sets[56]: 1422  LLC: 2048
rand_sets[56]: 1422
Assign rand_sets[57]: 607  LLC: 2048
rand_sets[57]: 607
Assign rand_sets[58]: 217  LLC: 2048
rand_sets[58]: 217
Assign rand_sets[59]: 1945  LLC: 2048
rand_sets[59]: 1945
Assign rand_sets[60]: 143  LLC: 2048
rand_sets[60]: 143
Assign rand_sets[61]: 1311  LLC: 2048
rand_sets[61]: 1311
Assign rand_sets[62]: 319  LLC: 2048
rand_sets[62]: 319
Assign rand_sets[63]: 1846  LLC: 2048
rand_sets[63]: 1846
 CLEAN-RRIP-POLICY-1: 0-3-2-3-1-0-2-3- CLEAN-RRIP-POLICY-2: 0-3-2-3-1-0-2-3-
 DIRTY-RRIP-POLICY-1: 2-3-0-3-2-0-2-3- DIRTY-RRIP-POLICY-2: 2-3-0-3-2-0-2-3-
 PSEL width: 10
Heartbeat CPU 0 instructions: 10000001 cycles: 7321625 heartbeat IPC: 1.36582 cumulative IPC: 1.36582 (Simulation time: 0 hr 0 min 15 sec) 
Heartbeat CPU 0 instructions: 20000000 cycles: 14328006 heartbeat IPC: 1.42727 cumulative IPC: 1.39587 (Simulation time: 0 hr 0 min 31 sec) 
Heartbeat CPU 0 instructions: 30000001 cycles: 21045401 heartbeat IPC: 1.48867 cumulative IPC: 1.42549 (Simulation time: 0 hr 0 min 47 sec) 
Heartbeat CPU 0 instructions: 40000000 cycles: 27507828 heartbeat IPC: 1.54741 cumulative IPC: 1.45413 (Simulation time: 0 hr 1 min 4 sec) 
Heartbeat CPU 0 instructions: 50000001 cycles: 33610817 heartbeat IPC: 1.63854 cumulative IPC: 1.48762 (Simulation time: 0 hr 1 min 20 sec) 
Heartbeat CPU 0 instructions: 60000000 cycles: 40093215 heartbeat IPC: 1.54264 cumulative IPC: 1.49651 (Simulation time: 0 hr 1 min 37 sec) 
Heartbeat CPU 0 instructions: 70000000 cycles: 47136671 heartbeat IPC: 1.41976 cumulative IPC: 1.48504 (Simulation time: 0 hr 2 min 11 sec) 
Heartbeat CPU 0 instructions: 80000000 cycles: 54232395 heartbeat IPC: 1.4093 cumulative IPC: 1.47513 (Simulation time: 0 hr 2 min 27 sec) 
Heartbeat CPU 0 instructions: 90000003 cycles: 61242874 heartbeat IPC: 1.42644 cumulative IPC: 1.46956 (Simulation time: 0 hr 2 min 42 sec) 
Heartbeat CPU 0 instructions: 100000000 cycles: 68416072 heartbeat IPC: 1.39408 cumulative IPC: 1.46164 (Simulation time: 0 hr 2 min 57 sec) 

Warmup complete CPU 0 instructions: 100000004 cycles: 68416073 (Simulation time: 0 hr 2 min 57 sec) 

Heartbeat CPU 0 instructions: 110000003 cycles: 96943569 heartbeat IPC: 0.350539 cumulative IPC: 0.350539 (Simulation time: 0 hr 3 min 28 sec) 
Heartbeat CPU 0 instructions: 120000000 cycles: 124681151 heartbeat IPC: 0.360522 cumulative IPC: 0.35546 (Simulation time: 0 hr 3 min 59 sec) 
Heartbeat CPU 0 instructions: 130000000 cycles: 149923892 heartbeat IPC: 0.396153 cumulative IPC: 0.368063 (Simulation time: 0 hr 4 min 29 sec) 
Heartbeat CPU 0 instructions: 140000000 cycles: 180937603 heartbeat IPC: 0.322438 cumulative IPC: 0.355487 (Simulation time: 0 hr 5 min 0 sec) 
Heartbeat CPU 0 instructions: 150000000 cycles: 211797122 heartbeat IPC: 0.324049 cumulative IPC: 0.348721 (Simulation time: 0 hr 5 min 31 sec) 
Heartbeat CPU 0 instructions: 160000000 cycles: 239542890 heartbeat IPC: 0.360415 cumulative IPC: 0.350617 (Simulation time: 0 hr 6 min 1 sec) 
Heartbeat CPU 0 instructions: 170000001 cycles: 267968877 heartbeat IPC: 0.351791 cumulative IPC: 0.350784 (Simulation time: 0 hr 6 min 33 sec) 
Heartbeat CPU 0 instructions: 180000000 cycles: 296850173 heartbeat IPC: 0.346245 cumulative IPC: 0.35021 (Simulation time: 0 hr 7 min 4 sec) 
Heartbeat CPU 0 instructions: 190000002 cycles: 325376579 heartbeat IPC: 0.350552 cumulative IPC: 0.350248 (Simulation time: 0 hr 7 min 35 sec) 
Heartbeat CPU 0 instructions: 200000000 cycles: 354202826 heartbeat IPC: 0.346906 cumulative IPC: 0.349911 (Simulation time: 0 hr 8 min 6 sec) 
Heartbeat CPU 0 instructions: 210000002 cycles: 382545081 heartbeat IPC: 0.35283 cumulative IPC: 0.350175 (Simulation time: 0 hr 8 min 37 sec) 
Heartbeat CPU 0 instructions: 220000000 cycles: 412931468 heartbeat IPC: 0.329095 cumulative IPC: 0.348315 (Simulation time: 0 hr 9 min 7 sec) 
Heartbeat CPU 0 instructions: 230000000 cycles: 441051162 heartbeat IPC: 0.355623 cumulative IPC: 0.348867 (Simulation time: 0 hr 9 min 37 sec) 
Heartbeat CPU 0 instructions: 240000000 cycles: 467429207 heartbeat IPC: 0.379103 cumulative IPC: 0.350866 (Simulation time: 0 hr 10 min 6 sec) 
Heartbeat CPU 0 instructions: 250000000 cycles: 497691279 heartbeat IPC: 0.330447 cumulative IPC: 0.349426 (Simulation time: 0 hr 10 min 38 sec) 
Heartbeat CPU 0 instructions: 260000000 cycles: 524973660 heartbeat IPC: 0.366537 cumulative IPC: 0.350449 (Simulation time: 0 hr 11 min 9 sec) 
Heartbeat CPU 0 instructions: 270000003 cycles: 553658095 heartbeat IPC: 0.348621 cumulative IPC: 0.350341 (Simulation time: 0 hr 11 min 40 sec) 
Heartbeat CPU 0 instructions: 280000000 cycles: 582137060 heartbeat IPC: 0.351136 cumulative IPC: 0.350385 (Simulation time: 0 hr 12 min 12 sec) 
Heartbeat CPU 0 instructions: 290000000 cycles: 611313970 heartbeat IPC: 0.342737 cumulative IPC: 0.349974 (Simulation time: 0 hr 12 min 44 sec) 
Heartbeat CPU 0 instructions: 300000000 cycles: 642080793 heartbeat IPC: 0.325025 cumulative IPC: 0.348636 (Simulation time: 0 hr 13 min 15 sec) 
Heartbeat CPU 0 instructions: 310000001 cycles: 672087015 heartbeat IPC: 0.333264 cumulative IPC: 0.347872 (Simulation time: 0 hr 13 min 45 sec) 
Heartbeat CPU 0 instructions: 320000000 cycles: 701050282 heartbeat IPC: 0.345265 cumulative IPC: 0.347752 (Simulation time: 0 hr 14 min 16 sec) 
Heartbeat CPU 0 instructions: 330000000 cycles: 730183535 heartbeat IPC: 0.34325 cumulative IPC: 0.347554 (Simulation time: 0 hr 14 min 46 sec) 
Heartbeat CPU 0 instructions: 340000000 cycles: 760050119 heartbeat IPC: 0.334822 cumulative IPC: 0.347004 (Simulation time: 0 hr 15 min 17 sec) 
Heartbeat CPU 0 instructions: 350000003 cycles: 787468599 heartbeat IPC: 0.364718 cumulative IPC: 0.34768 (Simulation time: 0 hr 15 min 47 sec) 
Heartbeat CPU 0 instructions: 360000000 cycles: 817707280 heartbeat IPC: 0.330702 cumulative IPC: 0.346995 (Simulation time: 0 hr 16 min 17 sec) 
Heartbeat CPU 0 instructions: 370000000 cycles: 848053996 heartbeat IPC: 0.329525 cumulative IPC: 0.346315 (Simulation time: 0 hr 16 min 47 sec) 
Heartbeat CPU 0 instructions: 380000000 cycles: 878746682 heartbeat IPC: 0.325811 cumulative IPC: 0.345538 (Simulation time: 0 hr 17 min 18 sec) 
Heartbeat CPU 0 instructions: 390000001 cycles: 908609797 heartbeat IPC: 0.334861 cumulative IPC: 0.345158 (Simulation time: 0 hr 17 min 48 sec) 
Heartbeat CPU 0 instructions: 400000000 cycles: 939339420 heartbeat IPC: 0.325419 cumulative IPC: 0.344462 (Simulation time: 0 hr 18 min 18 sec) 
Heartbeat CPU 0 instructions: 410000001 cycles: 968948649 heartbeat IPC: 0.337733 cumulative IPC: 0.344241 (Simulation time: 0 hr 18 min 48 sec) 
Heartbeat CPU 0 instructions: 420000000 cycles: 998586216 heartbeat IPC: 0.33741 cumulative IPC: 0.344023 (Simulation time: 0 hr 19 min 17 sec) 
Heartbeat CPU 0 instructions: 430000002 cycles: 1028624372 heartbeat IPC: 0.33291 cumulative IPC: 0.343675 (Simulation time: 0 hr 19 min 47 sec) 
Heartbeat CPU 0 instructions: 440000000 cycles: 1059812049 heartbeat IPC: 0.320639 cumulative IPC: 0.342951 (Simulation time: 0 hr 20 min 16 sec) 
Heartbeat CPU 0 instructions: 450000002 cycles: 1090816354 heartbeat IPC: 0.322536 cumulative IPC: 0.342332 (Simulation time: 0 hr 20 min 44 sec) 
Heartbeat CPU 0 instructions: 460000000 cycles: 1120734184 heartbeat IPC: 0.334249 cumulative IPC: 0.342102 (Simulation time: 0 hr 21 min 13 sec) 
Heartbeat CPU 0 instructions: 470000000 cycles: 1150358320 heartbeat IPC: 0.337563 cumulative IPC: 0.341978 (Simulation time: 0 hr 21 min 42 sec) 
Heartbeat CPU 0 instructions: 480000000 cycles: 1180232467 heartbeat IPC: 0.334738 cumulative IPC: 0.341783 (Simulation time: 0 hr 22 min 10 sec) 
Heartbeat CPU 0 instructions: 490000000 cycles: 1209836590 heartbeat IPC: 0.337791 cumulative IPC: 0.34168 (Simulation time: 0 hr 22 min 39 sec) 
Heartbeat CPU 0 instructions: 500000000 cycles: 1239831750 heartbeat IPC: 0.333387 cumulative IPC: 0.341467 (Simulation time: 0 hr 23 min 7 sec) 
Heartbeat CPU 0 instructions: 510000000 cycles: 1274832283 heartbeat IPC: 0.28571 cumulative IPC: 0.33985 (Simulation time: 0 hr 23 min 39 sec) 
Heartbeat CPU 0 instructions: 520000000 cycles: 1302872458 heartbeat IPC: 0.356631 cumulative IPC: 0.340231 (Simulation time: 0 hr 24 min 8 sec) 
Heartbeat CPU 0 instructions: 530000001 cycles: 1333092961 heartbeat IPC: 0.330901 cumulative IPC: 0.340008 (Simulation time: 0 hr 24 min 37 sec) 
Heartbeat CPU 0 instructions: 540000000 cycles: 1361813334 heartbeat IPC: 0.348185 cumulative IPC: 0.340189 (Simulation time: 0 hr 25 min 6 sec) 
Heartbeat CPU 0 instructions: 550000001 cycles: 1391185885 heartbeat IPC: 0.340454 cumulative IPC: 0.340195 (Simulation time: 0 hr 25 min 37 sec) 
Heartbeat CPU 0 instructions: 560000000 cycles: 1416820571 heartbeat IPC: 0.390096 cumulative IPC: 0.341144 (Simulation time: 0 hr 26 min 5 sec) 
Heartbeat CPU 0 instructions: 570000000 cycles: 1446854698 heartbeat IPC: 0.332955 cumulative IPC: 0.340965 (Simulation time: 0 hr 26 min 34 sec) 
Heartbeat CPU 0 instructions: 580000000 cycles: 1475385913 heartbeat IPC: 0.350493 cumulative IPC: 0.341159 (Simulation time: 0 hr 27 min 4 sec) 
Heartbeat CPU 0 instructions: 590000001 cycles: 1500522199 heartbeat IPC: 0.397831 cumulative IPC: 0.342153 (Simulation time: 0 hr 27 min 31 sec) 
Heartbeat CPU 0 instructions: 600000000 cycles: 1527562314 heartbeat IPC: 0.369821 cumulative IPC: 0.342666 (Simulation time: 0 hr 27 min 59 sec) 
Finished CPU 0 instructions: 500000000 cycles: 1459146263 cumulative IPC: 0.342666 (Simulation time: 0 hr 27 min 59 sec) 

CPU 0 Branch Prediction Accuracy: 86.4311% MPKI: 26.2662
Number of Branches: 96788573 Number of Mispredictions: 13133102
Number of LOAD Instructions: 164682285
Number of LOAD Instructions (ROI): 164682285
Number of STORE Instructions: 78194750
Number of STORE Instructions (ROI): 78194750
Total Destination Memory Operands: 83268534
Total Destination Memory Operands (ROI): 83268534
Total Source Memory Operands: 164712438
Total Source Memory Operands (ROI): 164712438
Number of DEPENDED LOADS: 7057971
Number of DEPENDED LOADS (ROI): 7057971
Number of SQ_ADDED: 83268522
Number of SQ_ADDED (ROI): 83268522
Number of LQ_ADDED: 236670342
Number of LQ_ADDED (ROI): 236670342
Number of Instructions read from trace: 600000066

ChampSim completed all CPUs

Region of Interest Statistics

CPU 0 cumulative IPC: 0.342666 instructions: 500000000 cycles: 1459146263
ITLB TOTAL     ACCESS:  100521767  HIT:  100317321  MISS:     204446
ITLB LOAD      ACCESS:  100521767  HIT:  100317321  MISS:     204446
ITLB RFO       ACCESS:          0  HIT:          0  MISS:          0
ITLB PREFETCH  ACCESS:          0  HIT:          0  MISS:          0
ITLB WRITEBACK ACCESS:          0  HIT:          0  MISS:          0
ITLB PREFETCH  REQUESTED:          0  ISSUED:          0  USEFUL:          0  USELESS:          0
ITLB TOTAL MSHR MERGED:     172424
ITLB LOAD MSHR MERGED:     172424
ITLB RFO MSHR MERGED:          0
ITLB PREFETCH MSHR MERGED:          0
ITLB WRITEBACK MSHR MERGED:          0
ITLB TOTAL ACCESSES:  100694191 HITS:  100317321 MISSES:     376870
ITLB LOAD ACCESSES:  100694191 HITS:  100317321 MISSES:     376870
ITLB RFO ACCESSES:          0 HITS:          0 MISSES:          0
ITLB PREFETCH ACCESSES:          0 HITS:          0 MISSES:          0
ITLB WRITEBACK ACCESSES:          0 HITS:          0 MISSES:          0
ITLB RQ ACCESS:  500000057
ITLB RQ TO_CACHE:  100694191
ITLB RQ MERGED:  399305866
ITLB RQ FORWARD:          0
ITLB WQ ACCESS:          0
ITLB WQ TO_CACHE:          0
ITLB WQ MERGED:          0
ITLB WQ FORWARD:          0
DTLB TOTAL     ACCESS:  165349324  HIT:  164714969  MISS:     634355
DTLB LOAD      ACCESS:  106299969  HIT:  105729926  MISS:     570043
DTLB RFO       ACCESS:   59049355  HIT:   58985043  MISS:      64312
DTLB PREFETCH  ACCESS:          0  HIT:          0  MISS:          0
DTLB WRITEBACK ACCESS:          0  HIT:          0  MISS:          0
DTLB PREFETCH  REQUESTED:          0  ISSUED:          0  USEFUL:          0  USELESS:          0
DTLB TOTAL MSHR MERGED:      99636
DTLB LOAD MSHR MERGED:      59245
DTLB RFO MSHR MERGED:      40391
DTLB PREFETCH MSHR MERGED:          0
DTLB WRITEBACK MSHR MERGED:          0
DTLB TOTAL ACCESSES:  165448960 HITS:  164714969 MISSES:     733991
DTLB LOAD ACCESSES:  106359214 HITS:  105729926 MISSES:     629288
DTLB RFO ACCESSES:   59089746 HITS:   58985043 MISSES:     104703
DTLB PREFETCH ACCESSES:          0 HITS:          0 MISSES:          0
DTLB WRITEBACK ACCESSES:          0 HITS:          0 MISSES:          0
DTLB RQ ACCESS:  200312941
DTLB RQ TO_CACHE:  165448960
DTLB RQ MERGED:   34863981
DTLB RQ FORWARD:          0
DTLB WQ ACCESS:          0
DTLB WQ TO_CACHE:          0
DTLB WQ MERGED:          0
DTLB WQ FORWARD:          0
L1D TOTAL     ACCESS:  281874396  HIT:  273964941  MISS:    7909455
L1D LOAD      ACCESS:  110429644  HIT:  107151356  MISS:    3278288
L1D RFO       ACCESS:   67130838  HIT:   66240642  MISS:     890196
L1D PREFETCH  ACCESS:  104313914  HIT:  100572943  MISS:    3740971
L1D WRITEBACK ACCESS:          0  HIT:          0  MISS:          0
L1D PREFETCH  REQUESTED:  110827866  ISSUED:  109128423  USEFUL:    1661563  USELESS:    2079372
L1D TOTAL MSHR MERGED:    2856605
L1D LOAD MSHR MERGED:     496270
L1D RFO MSHR MERGED:    1854562
L1D PREFETCH MSHR MERGED:     505773
L1D WRITEBACK MSHR MERGED:          0
L1D TOTAL ACCESSES:  284758444 HITS:  273992384 MISSES:   10766060
L1D LOAD ACCESSES:  110829347 HITS:  107152837 MISSES:    3676510
L1D RFO ACCESSES:   68973916 HITS:   66240642 MISSES:    2733274
L1D PREFETCH ACCESSES:  104955181 HITS:  100598905 MISSES:    4356276
L1D WRITEBACK ACCESSES:          0 HITS:          0 MISSES:          0
L1D RQ ACCESS:  130760338
L1D RQ TO_CACHE:  110827869
L1D RQ MERGED:   19930988
L1D RQ FORWARD:          0
L1D WQ ACCESS:   69552603
L1D WQ TO_CACHE:   68973917
L1D WQ MERGED:     578686
L1D WQ FORWARD:      27443
L1I TOTAL     ACCESS:  126565616  HIT:  122327067  MISS:    4238549
L1I LOAD      ACCESS:  126565616  HIT:  122327067  MISS:    4238549
L1I RFO       ACCESS:          0  HIT:          0  MISS:          0
L1I PREFETCH  ACCESS:          0  HIT:          0  MISS:          0
L1I WRITEBACK ACCESS:          0  HIT:          0  MISS:          0
L1I PREFETCH  REQUESTED:          0  ISSUED:          0  USEFUL:          0  USELESS:          0
L1I TOTAL MSHR MERGED:    1838332
L1I LOAD MSHR MERGED:    1838332
L1I RFO MSHR MERGED:          0
L1I PREFETCH MSHR MERGED:          0
L1I WRITEBACK MSHR MERGED:          0
L1I TOTAL ACCESSES:  128403951 HITS:  122327067 MISSES:    6076884
L1I LOAD ACCESSES:  128403951 HITS:  122327067 MISSES:    6076884
L1I RFO ACCESSES:          0 HITS:          0 MISSES:          0
L1I PREFETCH ACCESSES:          0 HITS:          0 MISSES:          0
L1I WRITEBACK ACCESSES:          0 HITS:          0 MISSES:          0
L1I RQ ACCESS:  500000057
L1I RQ TO_CACHE:  128403951
L1I RQ MERGED:  371596106
L1I RQ FORWARD:          0
L1I WQ ACCESS:          0
L1I WQ TO_CACHE:          0
L1I WQ MERGED:          0
L1I WQ FORWARD:          0
L2C TOTAL     ACCESS:   14905740  HIT:   11159249  MISS:    3746491
L2C LOAD      ACCESS:    7418580  HIT:    5098828  MISS:    2319752
L2C RFO       ACCESS:     878616  HIT:     409920  MISS:     468696
L2C PREFETCH  ACCESS:    4569283  HIT:    3628498  MISS:     940785
L2C WRITEBACK ACCESS:    2039261  HIT:    2022003  MISS:      17258
L2C PREFETCH  REQUESTED:     842874  ISSUED:     842874  USEFUL:     203572  USELESS:     736919
L2C TOTAL MSHR MERGED:       6761
L2C LOAD MSHR MERGED:        719
L2C RFO MSHR MERGED:          0
L2C PREFETCH MSHR MERGED:       6042
L2C WRITEBACK MSHR MERGED:          0
L2C TOTAL ACCESSES:   14913386 HITS:   11159698 MISSES:    3753688
L2C LOAD ACCESSES:    7418789 HITS:    5099037 MISSES:    2319752
L2C RFO ACCESSES:     878712 HITS:     410016 MISSES:     468696
L2C PREFETCH ACCESSES:    4576624 HITS:    3628642 MISSES:     947982
L2C WRITEBACK ACCESSES:    2039261 HITS:    2022003 MISSES:      17258
L2C RQ ACCESS:    8297504
L2C RQ TO_CACHE:    8297199
L2C RQ MERGED:          0
L2C RQ FORWARD:          0
L2C WQ ACCESS:    2039261
L2C WQ TO_CACHE:    2039261
L2C WQ MERGED:          0
L2C WQ FORWARD:        449
LLC TOTAL     ACCESS:    4609841  HIT:    3402333  MISS:    1207508
LLC LOAD      ACCESS:    2319021  HIT:    1559392  MISS:     759629
LLC RFO       ACCESS:     468686  HIT:     417636  MISS:      51050
LLC PREFETCH  ACCESS:     941830  HIT:     621801  MISS:     320029
LLC WRITEBACK ACCESS:     880304  HIT:     803504  MISS:      76800
LLC PREFETCH  REQUESTED:          0  ISSUED:          0  USEFUL:      13656  USELESS:     304290
LLC TOTAL MSHR MERGED:         94
LLC LOAD MSHR MERGED:         32
LLC RFO MSHR MERGED:          0
LLC PREFETCH MSHR MERGED:         62
LLC WRITEBACK MSHR MERGED:          0
LLC TOTAL ACCESSES:    4609970 HITS:    3402368 MISSES:    1207602
LLC LOAD ACCESSES:    2319033 HITS:    1559404 MISSES:     759629
LLC RFO ACCESSES:     468696 HITS:     417646 MISSES:      51050
LLC PREFETCH ACCESSES:     941937 HITS:     621814 MISSES:     320123
LLC WRITEBACK ACCESSES:     880304 HITS:     803504 MISSES:      76800
LLC 0 RQ ACCESS:    2787729
LLC 0 RQ TO_CACHE:    2787707
LLC 0 RQ MERGED:          0
LLC 0 RQ FORWARD:          0
LLC WQ ACCESS:     880304
LLC WQ TO_CACHE:     880304
LLC WQ MERGED:          0
LLC WQ FORWARD:         35
Major fault: 0 Minor fault: 12862
CPU 0 L1D next line prefetcher final stats
CPU 0 L2C PC-based stride prefetcher final stats
All Misses: 1454684
All Hits: 3972163
SD Algo Stats - Switches: 0 SRR-Repls: 903529 BRR-Repls: 0

DRAM Statistics
 CHANNEL 0
 RQ ROW_BUFFER_HIT:     338368  ROW_BUFFER_MISS:     790089
 DBUS_CONGESTED:     456845
 WQ ROW_BUFFER_HIT:       9290  ROW_BUFFER_MISS:     175756  FULL:          0

 AVG_CONGESTED_CYCLE: 13
LOADS RETIRED: 136549171
INSTR RETIRED: 500000000
