
*** ChampSim Multicore Out-of-Order Simulator ***

Warmup Instructions: 100000000
Simulation Instructions: 500000000
Number of CPUs: 1
LLC sets: 2048
LLC ways: 16
Clean RRIP Policies: 1213010112130101 Dirty RRIP Policies: 2203110122031101 PSEL Width: 10 Track Set: 4294967295 PSEL Mask: 1 Demote Mask: 3010001030100010DS Algo: 0Window size: 0
Off-chip DRAM Size: 4096 MB Channels: 1 Width: 64-bit Data Rate: 1600 MT/s

CPU 0 runs /mnt/beegfs/iconst01/spec2017/Parest.trace.gz
NOT SORTED
TRACE STRING: /mnt/beegfs/iconst01/spec2017/Parest.trace.gz
SORTED
TRACE STRING: /mnt/beegfs/iconst01/spec2017/Parest.trace.gz
INITIAL
TRACE STRING: /mnt/beegfs/iconst01/spec2017/Parest.trace.gz

champsim_seed used: 623

CPU 0 L1D next line prefetcher
CPU 0 L2C IP-based stride prefetcher
Initialize DRRIP state
Assign rand_sets[0]: 454  LLC: 2048
rand_sets[0]: 454
Assign rand_sets[1]: 1662  LLC: 2048
rand_sets[1]: 1662
Assign rand_sets[2]: 1921  LLC: 2048
rand_sets[2]: 1921
Assign rand_sets[3]: 1131  LLC: 2048
rand_sets[3]: 1131
Assign rand_sets[4]: 331  LLC: 2048
rand_sets[4]: 331
Assign rand_sets[5]: 1531  LLC: 2048
rand_sets[5]: 1531
Assign rand_sets[6]: 482  LLC: 2048
rand_sets[6]: 482
Assign rand_sets[7]: 1275  LLC: 2048
rand_sets[7]: 1275
Assign rand_sets[8]: 1876  LLC: 2048
rand_sets[8]: 1876
Assign rand_sets[9]: 2038  LLC: 2048
rand_sets[9]: 2038
Assign rand_sets[10]: 701  LLC: 2048
rand_sets[10]: 701
Assign rand_sets[11]: 479  LLC: 2048
rand_sets[11]: 479
Assign rand_sets[12]: 892  LLC: 2048
rand_sets[12]: 892
Assign rand_sets[13]: 1820  LLC: 2048
rand_sets[13]: 1820
Assign rand_sets[14]: 1505  LLC: 2048
rand_sets[14]: 1505
Assign rand_sets[15]: 1159  LLC: 2048
rand_sets[15]: 1159
Assign rand_sets[16]: 513  LLC: 2048
rand_sets[16]: 513
Assign rand_sets[17]: 703  LLC: 2048
rand_sets[17]: 703
Assign rand_sets[18]: 561  LLC: 2048
rand_sets[18]: 561
Assign rand_sets[19]: 990  LLC: 2048
rand_sets[19]: 990
Assign rand_sets[20]: 342  LLC: 2048
rand_sets[20]: 342
Assign rand_sets[21]: 882  LLC: 2048
rand_sets[21]: 882
Assign rand_sets[22]: 15  LLC: 2048
rand_sets[22]: 15
Assign rand_sets[23]: 71  LLC: 2048
rand_sets[23]: 71
Assign rand_sets[24]: 1127  LLC: 2048
rand_sets[24]: 1127
Assign rand_sets[25]: 1382  LLC: 2048
rand_sets[25]: 1382
Assign rand_sets[26]: 647  LLC: 2048
rand_sets[26]: 647
Assign rand_sets[27]: 857  LLC: 2048
rand_sets[27]: 857
Assign rand_sets[28]: 1450  LLC: 2048
rand_sets[28]: 1450
Assign rand_sets[29]: 1160  LLC: 2048
rand_sets[29]: 1160
Assign rand_sets[30]: 1852  LLC: 2048
rand_sets[30]: 1852
Assign rand_sets[31]: 1881  LLC: 2048
rand_sets[31]: 1881
Assign rand_sets[32]: 1770  LLC: 2048
rand_sets[32]: 1770
Assign rand_sets[33]: 1622  LLC: 2048
rand_sets[33]: 1622
Assign rand_sets[34]: 275  LLC: 2048
rand_sets[34]: 275
Assign rand_sets[35]: 635  LLC: 2048
rand_sets[35]: 635
Assign rand_sets[36]: 466  LLC: 2048
rand_sets[36]: 466
Assign rand_sets[37]: 1413  LLC: 2048
rand_sets[37]: 1413
Assign rand_sets[38]: 417  LLC: 2048
rand_sets[38]: 417
Assign rand_sets[39]: 472  LLC: 2048
rand_sets[39]: 472
Assign rand_sets[40]: 1340  LLC: 2048
rand_sets[40]: 1340
Assign rand_sets[41]: 852  LLC: 2048
rand_sets[41]: 852
Assign rand_sets[42]: 1365  LLC: 2048
rand_sets[42]: 1365
Assign rand_sets[43]: 47  LLC: 2048
rand_sets[43]: 47
Assign rand_sets[44]: 823  LLC: 2048
rand_sets[44]: 823
Assign rand_sets[45]: 686  LLC: 2048
rand_sets[45]: 686
Assign rand_sets[46]: 1637  LLC: 2048
rand_sets[46]: 1637
Assign rand_sets[47]: 1115  LLC: 2048
rand_sets[47]: 1115
Assign rand_sets[48]: 986  LLC: 2048
rand_sets[48]: 986
Assign rand_sets[49]: 258  LLC: 2048
rand_sets[49]: 258
Assign rand_sets[50]: 633  LLC: 2048
rand_sets[50]: 633
Assign rand_sets[51]: 920  LLC: 2048
rand_sets[51]: 920
Assign rand_sets[52]: 204  LLC: 2048
rand_sets[52]: 204
Assign rand_sets[53]: 227  LLC: 2048
rand_sets[53]: 227
Assign rand_sets[54]: 1818  LLC: 2048
rand_sets[54]: 1818
Assign rand_sets[55]: 886  LLC: 2048
rand_sets[55]: 886
Assign rand_sets[56]: 1422  LLC: 2048
rand_sets[56]: 1422
Assign rand_sets[57]: 607  LLC: 2048
rand_sets[57]: 607
Assign rand_sets[58]: 217  LLC: 2048
rand_sets[58]: 217
Assign rand_sets[59]: 1945  LLC: 2048
rand_sets[59]: 1945
Assign rand_sets[60]: 143  LLC: 2048
rand_sets[60]: 143
Assign rand_sets[61]: 1311  LLC: 2048
rand_sets[61]: 1311
Assign rand_sets[62]: 319  LLC: 2048
rand_sets[62]: 319
Assign rand_sets[63]: 1846  LLC: 2048
rand_sets[63]: 1846
 CLEAN-RRIP-POLICY-1: 1-2-1-3-0-1-0-1- CLEAN-RRIP-POLICY-2: 1-2-1-3-0-1-0-1-
 DIRTY-RRIP-POLICY-1: 2-2-0-3-1-1-0-1- DIRTY-RRIP-POLICY-2: 2-2-0-3-1-1-0-1-
 PSEL width: 10
Heartbeat CPU 0 instructions: 10000001 cycles: 4387120 heartbeat IPC: 2.2794 cumulative IPC: 2.2794 (Simulation time: 0 hr 0 min 14 sec) 
Heartbeat CPU 0 instructions: 20000000 cycles: 8781242 heartbeat IPC: 2.27577 cumulative IPC: 2.27758 (Simulation time: 0 hr 0 min 28 sec) 
Heartbeat CPU 0 instructions: 30000003 cycles: 13213177 heartbeat IPC: 2.25635 cumulative IPC: 2.27046 (Simulation time: 0 hr 0 min 43 sec) 
Heartbeat CPU 0 instructions: 40000000 cycles: 17643753 heartbeat IPC: 2.25704 cumulative IPC: 2.26709 (Simulation time: 0 hr 0 min 56 sec) 
Heartbeat CPU 0 instructions: 50000000 cycles: 22051946 heartbeat IPC: 2.2685 cumulative IPC: 2.26737 (Simulation time: 0 hr 1 min 10 sec) 
Heartbeat CPU 0 instructions: 60000000 cycles: 26457634 heartbeat IPC: 2.26979 cumulative IPC: 2.26778 (Simulation time: 0 hr 1 min 24 sec) 
Heartbeat CPU 0 instructions: 70000000 cycles: 30858453 heartbeat IPC: 2.2723 cumulative IPC: 2.26842 (Simulation time: 0 hr 1 min 38 sec) 
Heartbeat CPU 0 instructions: 80000000 cycles: 35254012 heartbeat IPC: 2.27502 cumulative IPC: 2.26925 (Simulation time: 0 hr 1 min 52 sec) 
Heartbeat CPU 0 instructions: 90000000 cycles: 39648283 heartbeat IPC: 2.27569 cumulative IPC: 2.26996 (Simulation time: 0 hr 2 min 6 sec) 
Heartbeat CPU 0 instructions: 100000000 cycles: 44045591 heartbeat IPC: 2.27412 cumulative IPC: 2.27037 (Simulation time: 0 hr 2 min 20 sec) 

Warmup complete CPU 0 instructions: 100000002 cycles: 44045601 (Simulation time: 0 hr 2 min 20 sec) 

Heartbeat CPU 0 instructions: 110000000 cycles: 54075347 heartbeat IPC: 0.997033 cumulative IPC: 0.997034 (Simulation time: 0 hr 2 min 38 sec) 
Heartbeat CPU 0 instructions: 120000000 cycles: 63262916 heartbeat IPC: 1.08843 cumulative IPC: 1.04073 (Simulation time: 0 hr 2 min 56 sec) 
Heartbeat CPU 0 instructions: 130000000 cycles: 72516892 heartbeat IPC: 1.08062 cumulative IPC: 1.05369 (Simulation time: 0 hr 3 min 13 sec) 
Heartbeat CPU 0 instructions: 140000000 cycles: 81992567 heartbeat IPC: 1.05533 cumulative IPC: 1.0541 (Simulation time: 0 hr 3 min 31 sec) 
Heartbeat CPU 0 instructions: 150000000 cycles: 93101483 heartbeat IPC: 0.900178 cumulative IPC: 1.01925 (Simulation time: 0 hr 3 min 49 sec) 
Heartbeat CPU 0 instructions: 160000000 cycles: 103157294 heartbeat IPC: 0.99445 cumulative IPC: 1.01503 (Simulation time: 0 hr 4 min 7 sec) 
Heartbeat CPU 0 instructions: 170000003 cycles: 113041819 heartbeat IPC: 1.01168 cumulative IPC: 1.01455 (Simulation time: 0 hr 4 min 25 sec) 
Heartbeat CPU 0 instructions: 180000000 cycles: 122824138 heartbeat IPC: 1.02225 cumulative IPC: 1.0155 (Simulation time: 0 hr 4 min 42 sec) 
Heartbeat CPU 0 instructions: 190000002 cycles: 132749926 heartbeat IPC: 1.00748 cumulative IPC: 1.01461 (Simulation time: 0 hr 5 min 0 sec) 
Heartbeat CPU 0 instructions: 200000000 cycles: 142158909 heartbeat IPC: 1.06281 cumulative IPC: 1.01923 (Simulation time: 0 hr 5 min 18 sec) 
Heartbeat CPU 0 instructions: 210000000 cycles: 151993570 heartbeat IPC: 1.01681 cumulative IPC: 1.01901 (Simulation time: 0 hr 5 min 36 sec) 
Heartbeat CPU 0 instructions: 220000000 cycles: 161184541 heartbeat IPC: 1.08802 cumulative IPC: 1.02442 (Simulation time: 0 hr 5 min 53 sec) 
Heartbeat CPU 0 instructions: 230000001 cycles: 173369336 heartbeat IPC: 0.820695 cumulative IPC: 1.00523 (Simulation time: 0 hr 6 min 13 sec) 
Heartbeat CPU 0 instructions: 240000000 cycles: 183833877 heartbeat IPC: 0.955608 cumulative IPC: 1.00151 (Simulation time: 0 hr 6 min 31 sec) 
Heartbeat CPU 0 instructions: 250000002 cycles: 193736058 heartbeat IPC: 1.00988 cumulative IPC: 1.00207 (Simulation time: 0 hr 6 min 49 sec) 
Heartbeat CPU 0 instructions: 260000000 cycles: 203426813 heartbeat IPC: 1.03191 cumulative IPC: 1.00388 (Simulation time: 0 hr 7 min 6 sec) 
Heartbeat CPU 0 instructions: 270000001 cycles: 212962288 heartbeat IPC: 1.04872 cumulative IPC: 1.00641 (Simulation time: 0 hr 7 min 24 sec) 
Heartbeat CPU 0 instructions: 280000000 cycles: 222829726 heartbeat IPC: 1.01343 cumulative IPC: 1.0068 (Simulation time: 0 hr 7 min 42 sec) 
Heartbeat CPU 0 instructions: 290000002 cycles: 232123512 heartbeat IPC: 1.07599 cumulative IPC: 1.01022 (Simulation time: 0 hr 7 min 59 sec) 
Heartbeat CPU 0 instructions: 300000000 cycles: 241860640 heartbeat IPC: 1.027 cumulative IPC: 1.01105 (Simulation time: 0 hr 8 min 17 sec) 
Heartbeat CPU 0 instructions: 310000000 cycles: 251110997 heartbeat IPC: 1.08104 cumulative IPC: 1.01417 (Simulation time: 0 hr 8 min 35 sec) 
Heartbeat CPU 0 instructions: 320000000 cycles: 260417312 heartbeat IPC: 1.07454 cumulative IPC: 1.01677 (Simulation time: 0 hr 8 min 52 sec) 
Heartbeat CPU 0 instructions: 330000003 cycles: 269893673 heartbeat IPC: 1.05526 cumulative IPC: 1.01838 (Simulation time: 0 hr 9 min 10 sec) 
Heartbeat CPU 0 instructions: 340000000 cycles: 279983610 heartbeat IPC: 0.991086 cumulative IPC: 1.01722 (Simulation time: 0 hr 9 min 28 sec) 
Heartbeat CPU 0 instructions: 350000000 cycles: 290288208 heartbeat IPC: 0.970441 cumulative IPC: 1.01526 (Simulation time: 0 hr 9 min 46 sec) 
Heartbeat CPU 0 instructions: 360000000 cycles: 300099095 heartbeat IPC: 1.01928 cumulative IPC: 1.01541 (Simulation time: 0 hr 10 min 4 sec) 
Heartbeat CPU 0 instructions: 370000000 cycles: 309693134 heartbeat IPC: 1.04231 cumulative IPC: 1.01638 (Simulation time: 0 hr 10 min 21 sec) 
Heartbeat CPU 0 instructions: 380000000 cycles: 319149861 heartbeat IPC: 1.05745 cumulative IPC: 1.0178 (Simulation time: 0 hr 10 min 39 sec) 
Heartbeat CPU 0 instructions: 390000002 cycles: 328411334 heartbeat IPC: 1.07974 cumulative IPC: 1.01981 (Simulation time: 0 hr 10 min 56 sec) 
Heartbeat CPU 0 instructions: 400000000 cycles: 338085751 heartbeat IPC: 1.03365 cumulative IPC: 1.02027 (Simulation time: 0 hr 11 min 14 sec) 
Heartbeat CPU 0 instructions: 410000000 cycles: 347189776 heartbeat IPC: 1.09842 cumulative IPC: 1.02262 (Simulation time: 0 hr 11 min 32 sec) 
Heartbeat CPU 0 instructions: 420000000 cycles: 358117584 heartbeat IPC: 0.915097 cumulative IPC: 1.01887 (Simulation time: 0 hr 11 min 50 sec) 
Heartbeat CPU 0 instructions: 430000000 cycles: 368940722 heartbeat IPC: 0.923946 cumulative IPC: 1.01571 (Simulation time: 0 hr 12 min 8 sec) 
Heartbeat CPU 0 instructions: 440000000 cycles: 378917320 heartbeat IPC: 1.00235 cumulative IPC: 1.01531 (Simulation time: 0 hr 12 min 26 sec) 
Heartbeat CPU 0 instructions: 450000000 cycles: 388817329 heartbeat IPC: 1.0101 cumulative IPC: 1.01516 (Simulation time: 0 hr 12 min 43 sec) 
Heartbeat CPU 0 instructions: 460000000 cycles: 398672311 heartbeat IPC: 1.01472 cumulative IPC: 1.01515 (Simulation time: 0 hr 13 min 1 sec) 
Heartbeat CPU 0 instructions: 470000001 cycles: 408607038 heartbeat IPC: 1.00657 cumulative IPC: 1.01492 (Simulation time: 0 hr 13 min 18 sec) 
Heartbeat CPU 0 instructions: 480000000 cycles: 418044609 heartbeat IPC: 1.05959 cumulative IPC: 1.01605 (Simulation time: 0 hr 13 min 36 sec) 
Heartbeat CPU 0 instructions: 490000000 cycles: 427936018 heartbeat IPC: 1.01098 cumulative IPC: 1.01591 (Simulation time: 0 hr 13 min 54 sec) 
Heartbeat CPU 0 instructions: 500000000 cycles: 437475668 heartbeat IPC: 1.04826 cumulative IPC: 1.0167 (Simulation time: 0 hr 14 min 11 sec) 
Heartbeat CPU 0 instructions: 510000000 cycles: 446804616 heartbeat IPC: 1.07193 cumulative IPC: 1.01798 (Simulation time: 0 hr 14 min 29 sec) 
Heartbeat CPU 0 instructions: 520000000 cycles: 456373057 heartbeat IPC: 1.0451 cumulative IPC: 1.01861 (Simulation time: 0 hr 14 min 46 sec) 
Heartbeat CPU 0 instructions: 530000001 cycles: 466703494 heartbeat IPC: 0.968013 cumulative IPC: 1.01737 (Simulation time: 0 hr 15 min 4 sec) 
Heartbeat CPU 0 instructions: 540000000 cycles: 477169325 heartbeat IPC: 0.95549 cumulative IPC: 1.01588 (Simulation time: 0 hr 15 min 22 sec) 
Heartbeat CPU 0 instructions: 550000003 cycles: 487170504 heartbeat IPC: 0.999882 cumulative IPC: 1.01552 (Simulation time: 0 hr 15 min 39 sec) 
Heartbeat CPU 0 instructions: 560000000 cycles: 496954275 heartbeat IPC: 1.0221 cumulative IPC: 1.01566 (Simulation time: 0 hr 15 min 57 sec) 
Heartbeat CPU 0 instructions: 570000002 cycles: 506584411 heartbeat IPC: 1.03841 cumulative IPC: 1.01613 (Simulation time: 0 hr 16 min 14 sec) 
Heartbeat CPU 0 instructions: 580000000 cycles: 516029288 heartbeat IPC: 1.05877 cumulative IPC: 1.01698 (Simulation time: 0 hr 16 min 32 sec) 
Heartbeat CPU 0 instructions: 590000001 cycles: 525809303 heartbeat IPC: 1.02249 cumulative IPC: 1.0171 (Simulation time: 0 hr 16 min 49 sec) 
Heartbeat CPU 0 instructions: 600000000 cycles: 535208346 heartbeat IPC: 1.06394 cumulative IPC: 1.01799 (Simulation time: 0 hr 17 min 7 sec) 
Finished CPU 0 instructions: 500000000 cycles: 491162759 cumulative IPC: 1.01799 (Simulation time: 0 hr 17 min 7 sec) 

CPU 0 Branch Prediction Accuracy: 97.8526% MPKI: 2.66709
Number of Branches: 62099103 Number of Mispredictions: 1333545
Number of LOAD Instructions: 210576465
Number of LOAD Instructions (ROI): 210576465
Number of STORE Instructions: 16915507
Number of STORE Instructions (ROI): 16915507
Total Destination Memory Operands: 16918869
Total Destination Memory Operands (ROI): 16918869
Total Source Memory Operands: 210576465
Total Source Memory Operands (ROI): 210576465
Number of DEPENDED LOADS: 344866
Number of DEPENDED LOADS (ROI): 344866
Number of SQ_ADDED: 16918826
Number of SQ_ADDED (ROI): 16918826
Number of LQ_ADDED: 210610832
Number of LQ_ADDED (ROI): 210610832
Number of Instructions read from trace: 600000257

ChampSim completed all CPUs

Region of Interest Statistics

CPU 0 cumulative IPC: 1.01799 instructions: 500000000 cycles: 491162759
ITLB TOTAL     ACCESS:   76321329  HIT:   76321291  MISS:         38
ITLB LOAD      ACCESS:   76321329  HIT:   76321291  MISS:         38
ITLB RFO       ACCESS:          0  HIT:          0  MISS:          0
ITLB PREFETCH  ACCESS:          0  HIT:          0  MISS:          0
ITLB WRITEBACK ACCESS:          0  HIT:          0  MISS:          0
ITLB PREFETCH  REQUESTED:          0  ISSUED:          0  USEFUL:          0  USELESS:          0
ITLB TOTAL MSHR MERGED:         37
ITLB LOAD MSHR MERGED:         37
ITLB RFO MSHR MERGED:          0
ITLB PREFETCH MSHR MERGED:          0
ITLB WRITEBACK MSHR MERGED:          0
ITLB TOTAL ACCESSES:   76321366 HITS:   76321291 MISSES:         75
ITLB LOAD ACCESSES:   76321366 HITS:   76321291 MISSES:         75
ITLB RFO ACCESSES:          0 HITS:          0 MISSES:          0
ITLB PREFETCH ACCESSES:          0 HITS:          0 MISSES:          0
ITLB WRITEBACK ACCESSES:          0 HITS:          0 MISSES:          0
ITLB RQ ACCESS:  500000188
ITLB RQ TO_CACHE:   76321367
ITLB RQ MERGED:  423678821
ITLB RQ FORWARD:          0
ITLB WQ ACCESS:          0
ITLB WQ TO_CACHE:          0
ITLB WQ MERGED:          0
ITLB WQ FORWARD:          0
DTLB TOTAL     ACCESS:  136761266  HIT:  136558473  MISS:     202793
DTLB LOAD      ACCESS:  128699559  HIT:  128499487  MISS:     200072
DTLB RFO       ACCESS:    8061707  HIT:    8058986  MISS:       2721
DTLB PREFETCH  ACCESS:          0  HIT:          0  MISS:          0
DTLB WRITEBACK ACCESS:          0  HIT:          0  MISS:          0
DTLB PREFETCH  REQUESTED:          0  ISSUED:          0  USEFUL:          0  USELESS:          0
DTLB TOTAL MSHR MERGED:     447541
DTLB LOAD MSHR MERGED:     443760
DTLB RFO MSHR MERGED:       3781
DTLB PREFETCH MSHR MERGED:          0
DTLB WRITEBACK MSHR MERGED:          0
DTLB TOTAL ACCESSES:  137208807 HITS:  136558473 MISSES:     650334
DTLB LOAD ACCESSES:  129143319 HITS:  128499487 MISSES:     643832
DTLB RFO ACCESSES:    8065488 HITS:    8058986 MISSES:       6502
DTLB PREFETCH ACCESSES:          0 HITS:          0 MISSES:          0
DTLB WRITEBACK ACCESSES:          0 HITS:          0 MISSES:          0
DTLB RQ ACCESS:  189419693
DTLB RQ TO_CACHE:  137208807
DTLB RQ MERGED:   52210886
DTLB RQ FORWARD:          0
DTLB WQ ACCESS:          0
DTLB WQ TO_CACHE:          0
DTLB WQ MERGED:          0
DTLB WQ FORWARD:          0
L1D TOTAL     ACCESS:  125332355  HIT:  107775384  MISS:   17556971
L1D LOAD      ACCESS:   72311302  HIT:   62042705  MISS:   10268597
L1D RFO       ACCESS:   14015993  HIT:   13863163  MISS:     152830
L1D PREFETCH  ACCESS:   39005060  HIT:   31869516  MISS:    7135544
L1D WRITEBACK ACCESS:          0  HIT:          0  MISS:          0
L1D PREFETCH  REQUESTED:   85518275  ISSUED:   84197225  USEFUL:    5876161  USELESS:    1259394
L1D TOTAL MSHR MERGED:   31579908
L1D LOAD MSHR MERGED:   18368256
L1D RFO MSHR MERGED:     264627
L1D PREFETCH MSHR MERGED:   12947025
L1D WRITEBACK MSHR MERGED:          0
L1D TOTAL ACCESSES:  156912772 HITS:  107775894 MISSES:   49136878
L1D LOAD ACCESSES:   85518290 HITS:   62042720 MISSES:   23475570
L1D RFO ACCESSES:   14280594 HITS:   13863163 MISSES:     417431
L1D PREFETCH ACCESSES:   57113888 HITS:   31870011 MISSES:   25243877
L1D WRITEBACK ACCESSES:          0 HITS:          0 MISSES:          0
L1D RQ ACCESS:  175130671
L1D RQ TO_CACHE:   85518275
L1D RQ MERGED:   89612381
L1D RQ FORWARD:          0
L1D WQ ACCESS:   14289037
L1D WQ TO_CACHE:   14280594
L1D WQ MERGED:       8443
L1D WQ FORWARD:        510
L1I TOTAL     ACCESS:   93347612  HIT:   93345816  MISS:       1796
L1I LOAD      ACCESS:   93347612  HIT:   93345816  MISS:       1796
L1I RFO       ACCESS:          0  HIT:          0  MISS:          0
L1I PREFETCH  ACCESS:          0  HIT:          0  MISS:          0
L1I WRITEBACK ACCESS:          0  HIT:          0  MISS:          0
L1I PREFETCH  REQUESTED:          0  ISSUED:          0  USEFUL:          0  USELESS:          0
L1I TOTAL MSHR MERGED:       2321
L1I LOAD MSHR MERGED:       2321
L1I RFO MSHR MERGED:          0
L1I PREFETCH MSHR MERGED:          0
L1I WRITEBACK MSHR MERGED:          0
L1I TOTAL ACCESSES:   93349933 HITS:   93345816 MISSES:       4117
L1I LOAD ACCESSES:   93349933 HITS:   93345816 MISSES:       4117
L1I RFO ACCESSES:          0 HITS:          0 MISSES:          0
L1I PREFETCH ACCESSES:          0 HITS:          0 MISSES:          0
L1I WRITEBACK ACCESSES:          0 HITS:          0 MISSES:          0
L1I RQ ACCESS:  500000187
L1I RQ TO_CACHE:   93349933
L1I RQ MERGED:  406650254
L1I RQ FORWARD:          0
L1I WQ ACCESS:          0
L1I WQ TO_CACHE:          0
L1I WQ MERGED:          0
L1I WQ FORWARD:          0
L2C TOTAL     ACCESS:   20895599  HIT:    8666587  MISS:   12229012
L2C LOAD      ACCESS:    5109085  HIT:    2142642  MISS:    2966443
L2C RFO       ACCESS:     152804  HIT:       6516  MISS:     146288
L2C PREFETCH  ACCESS:   13860958  HIT:    4744787  MISS:    9116171
L2C WRITEBACK ACCESS:    1772752  HIT:    1772642  MISS:        110
L2C PREFETCH  REQUESTED:    1801246  ISSUED:    1801246  USEFUL:    1064200  USELESS:    8053619
L2C TOTAL MSHR MERGED:      96962
L2C LOAD MSHR MERGED:      22482
L2C RFO MSHR MERGED:          0
L2C PREFETCH MSHR MERGED:      74480
L2C WRITEBACK MSHR MERGED:          0
L2C TOTAL ACCESSES:   21014395 HITS:    8666628 MISSES:   12347767
L2C LOAD ACCESSES:    5109110 HITS:    2142667 MISSES:    2966443
L2C RFO ACCESSES:     152804 HITS:       6516 MISSES:     146288
L2C PREFETCH ACCESSES:   13979729 HITS:    4744803 MISSES:    9234926
L2C WRITEBACK ACCESSES:    1772752 HITS:    1772642 MISSES:        110
L2C RQ ACCESS:    5261914
L2C RQ TO_CACHE:    5261889
L2C RQ MERGED:          0
L2C RQ FORWARD:          0
L2C WQ ACCESS:    1772752
L2C WQ TO_CACHE:    1772752
L2C WQ MERGED:          0
L2C WQ FORWARD:         41
LLC TOTAL     ACCESS:   12531702  HIT:    6751359  MISS:    5780343
LLC LOAD      ACCESS:    2943942  HIT:    2434929  MISS:     509013
LLC RFO       ACCESS:     146288  HIT:      85260  MISS:      61028
LLC PREFETCH  ACCESS:    9155486  HIT:    3954992  MISS:    5200494
LLC WRITEBACK ACCESS:     285986  HIT:     276178  MISS:       9808
LLC PREFETCH  REQUESTED:          0  ISSUED:          0  USEFUL:       8114  USELESS:    5192358
LLC TOTAL MSHR MERGED:       1242
LLC LOAD MSHR MERGED:        253
LLC RFO MSHR MERGED:          0
LLC PREFETCH MSHR MERGED:        989
LLC WRITEBACK MSHR MERGED:          0
LLC TOTAL ACCESSES:   12532978 HITS:    6751393 MISSES:    5781585
LLC LOAD ACCESSES:    2943961 HITS:    2434948 MISSES:     509013
LLC RFO ACCESSES:     146288 HITS:      85260 MISSES:      61028
LLC PREFETCH ACCESSES:    9156743 HITS:    3955007 MISSES:    5201736
LLC WRITEBACK ACCESSES:     285986 HITS:     276178 MISSES:       9808
LLC 0 RQ ACCESS:    3090249
LLC 0 RQ TO_CACHE:    3090230
LLC 0 RQ MERGED:          0
LLC 0 RQ FORWARD:          0
LLC WQ ACCESS:     285986
LLC WQ TO_CACHE:     285986
LLC WQ MERGED:          0
LLC WQ FORWARD:         34
Major fault: 0 Minor fault: 6524
CPU 0 L1D next line prefetcher final stats
CPU 0 L2C PC-based stride prefetcher final stats
All Misses: 7569602
All Hits: 7487113
SD Algo Stats - Switches: 0 SRR-Repls: 541518 BRR-Repls: 0

DRAM Statistics
 CHANNEL 0
 RQ ROW_BUFFER_HIT:    4950113  ROW_BUFFER_MISS:     811699
 DBUS_CONGESTED:    2044974
 WQ ROW_BUFFER_HIT:       7274  ROW_BUFFER_MISS:      69169  FULL:          0

 AVG_CONGESTED_CYCLE: 12
LOADS RETIRED: 175418235
INSTR RETIRED: 500000000
