
*** ChampSim Multicore Out-of-Order Simulator ***

Warmup Instructions: 100000000
Simulation Instructions: 500000000
Number of CPUs: 1
LLC sets: 2048
LLC ways: 16
Clean RRIP Policies: 2213230222132302 Dirty RRIP Policies: 2203130222031302 PSEL Width: 10 Track Set: 4294967295 PSEL Mask: 1 Demote Mask: 3440100034401000DS Algo: 0Window size: 0
Off-chip DRAM Size: 4096 MB Channels: 1 Width: 64-bit Data Rate: 1600 MT/s

CPU 0 runs /mnt/beegfs/iconst01/spec2017/Parest.trace.gz
NOT SORTED
TRACE STRING: /mnt/beegfs/iconst01/spec2017/Parest.trace.gz
SORTED
TRACE STRING: /mnt/beegfs/iconst01/spec2017/Parest.trace.gz
INITIAL
TRACE STRING: /mnt/beegfs/iconst01/spec2017/Parest.trace.gz

champsim_seed used: 623

CPU 0 L1D next line prefetcher
CPU 0 L2C IP-based stride prefetcher
Initialize DRRIP state
Assign rand_sets[0]: 454  LLC: 2048
rand_sets[0]: 454
Assign rand_sets[1]: 1662  LLC: 2048
rand_sets[1]: 1662
Assign rand_sets[2]: 1921  LLC: 2048
rand_sets[2]: 1921
Assign rand_sets[3]: 1131  LLC: 2048
rand_sets[3]: 1131
Assign rand_sets[4]: 331  LLC: 2048
rand_sets[4]: 331
Assign rand_sets[5]: 1531  LLC: 2048
rand_sets[5]: 1531
Assign rand_sets[6]: 482  LLC: 2048
rand_sets[6]: 482
Assign rand_sets[7]: 1275  LLC: 2048
rand_sets[7]: 1275
Assign rand_sets[8]: 1876  LLC: 2048
rand_sets[8]: 1876
Assign rand_sets[9]: 2038  LLC: 2048
rand_sets[9]: 2038
Assign rand_sets[10]: 701  LLC: 2048
rand_sets[10]: 701
Assign rand_sets[11]: 479  LLC: 2048
rand_sets[11]: 479
Assign rand_sets[12]: 892  LLC: 2048
rand_sets[12]: 892
Assign rand_sets[13]: 1820  LLC: 2048
rand_sets[13]: 1820
Assign rand_sets[14]: 1505  LLC: 2048
rand_sets[14]: 1505
Assign rand_sets[15]: 1159  LLC: 2048
rand_sets[15]: 1159
Assign rand_sets[16]: 513  LLC: 2048
rand_sets[16]: 513
Assign rand_sets[17]: 703  LLC: 2048
rand_sets[17]: 703
Assign rand_sets[18]: 561  LLC: 2048
rand_sets[18]: 561
Assign rand_sets[19]: 990  LLC: 2048
rand_sets[19]: 990
Assign rand_sets[20]: 342  LLC: 2048
rand_sets[20]: 342
Assign rand_sets[21]: 882  LLC: 2048
rand_sets[21]: 882
Assign rand_sets[22]: 15  LLC: 2048
rand_sets[22]: 15
Assign rand_sets[23]: 71  LLC: 2048
rand_sets[23]: 71
Assign rand_sets[24]: 1127  LLC: 2048
rand_sets[24]: 1127
Assign rand_sets[25]: 1382  LLC: 2048
rand_sets[25]: 1382
Assign rand_sets[26]: 647  LLC: 2048
rand_sets[26]: 647
Assign rand_sets[27]: 857  LLC: 2048
rand_sets[27]: 857
Assign rand_sets[28]: 1450  LLC: 2048
rand_sets[28]: 1450
Assign rand_sets[29]: 1160  LLC: 2048
rand_sets[29]: 1160
Assign rand_sets[30]: 1852  LLC: 2048
rand_sets[30]: 1852
Assign rand_sets[31]: 1881  LLC: 2048
rand_sets[31]: 1881
Assign rand_sets[32]: 1770  LLC: 2048
rand_sets[32]: 1770
Assign rand_sets[33]: 1622  LLC: 2048
rand_sets[33]: 1622
Assign rand_sets[34]: 275  LLC: 2048
rand_sets[34]: 275
Assign rand_sets[35]: 635  LLC: 2048
rand_sets[35]: 635
Assign rand_sets[36]: 466  LLC: 2048
rand_sets[36]: 466
Assign rand_sets[37]: 1413  LLC: 2048
rand_sets[37]: 1413
Assign rand_sets[38]: 417  LLC: 2048
rand_sets[38]: 417
Assign rand_sets[39]: 472  LLC: 2048
rand_sets[39]: 472
Assign rand_sets[40]: 1340  LLC: 2048
rand_sets[40]: 1340
Assign rand_sets[41]: 852  LLC: 2048
rand_sets[41]: 852
Assign rand_sets[42]: 1365  LLC: 2048
rand_sets[42]: 1365
Assign rand_sets[43]: 47  LLC: 2048
rand_sets[43]: 47
Assign rand_sets[44]: 823  LLC: 2048
rand_sets[44]: 823
Assign rand_sets[45]: 686  LLC: 2048
rand_sets[45]: 686
Assign rand_sets[46]: 1637  LLC: 2048
rand_sets[46]: 1637
Assign rand_sets[47]: 1115  LLC: 2048
rand_sets[47]: 1115
Assign rand_sets[48]: 986  LLC: 2048
rand_sets[48]: 986
Assign rand_sets[49]: 258  LLC: 2048
rand_sets[49]: 258
Assign rand_sets[50]: 633  LLC: 2048
rand_sets[50]: 633
Assign rand_sets[51]: 920  LLC: 2048
rand_sets[51]: 920
Assign rand_sets[52]: 204  LLC: 2048
rand_sets[52]: 204
Assign rand_sets[53]: 227  LLC: 2048
rand_sets[53]: 227
Assign rand_sets[54]: 1818  LLC: 2048
rand_sets[54]: 1818
Assign rand_sets[55]: 886  LLC: 2048
rand_sets[55]: 886
Assign rand_sets[56]: 1422  LLC: 2048
rand_sets[56]: 1422
Assign rand_sets[57]: 607  LLC: 2048
rand_sets[57]: 607
Assign rand_sets[58]: 217  LLC: 2048
rand_sets[58]: 217
Assign rand_sets[59]: 1945  LLC: 2048
rand_sets[59]: 1945
Assign rand_sets[60]: 143  LLC: 2048
rand_sets[60]: 143
Assign rand_sets[61]: 1311  LLC: 2048
rand_sets[61]: 1311
Assign rand_sets[62]: 319  LLC: 2048
rand_sets[62]: 319
Assign rand_sets[63]: 1846  LLC: 2048
rand_sets[63]: 1846
 CLEAN-RRIP-POLICY-1: 2-2-1-3-2-3-0-2- CLEAN-RRIP-POLICY-2: 2-2-1-3-2-3-0-2-
 DIRTY-RRIP-POLICY-1: 2-2-0-3-1-3-0-2- DIRTY-RRIP-POLICY-2: 2-2-0-3-1-3-0-2-
 PSEL width: 10
Heartbeat CPU 0 instructions: 10000001 cycles: 4387143 heartbeat IPC: 2.27939 cumulative IPC: 2.27939 (Simulation time: 0 hr 0 min 15 sec) 
Heartbeat CPU 0 instructions: 20000000 cycles: 8781332 heartbeat IPC: 2.27573 cumulative IPC: 2.27756 (Simulation time: 0 hr 0 min 30 sec) 
Heartbeat CPU 0 instructions: 30000003 cycles: 13213265 heartbeat IPC: 2.25635 cumulative IPC: 2.27045 (Simulation time: 0 hr 0 min 45 sec) 
Heartbeat CPU 0 instructions: 40000000 cycles: 17643881 heartbeat IPC: 2.25702 cumulative IPC: 2.26707 (Simulation time: 0 hr 1 min 0 sec) 
Heartbeat CPU 0 instructions: 50000000 cycles: 22052168 heartbeat IPC: 2.26845 cumulative IPC: 2.26735 (Simulation time: 0 hr 1 min 15 sec) 
Heartbeat CPU 0 instructions: 60000000 cycles: 26457918 heartbeat IPC: 2.26976 cumulative IPC: 2.26775 (Simulation time: 0 hr 1 min 30 sec) 
Heartbeat CPU 0 instructions: 70000000 cycles: 30858842 heartbeat IPC: 2.27225 cumulative IPC: 2.26839 (Simulation time: 0 hr 1 min 45 sec) 
Heartbeat CPU 0 instructions: 80000000 cycles: 35254459 heartbeat IPC: 2.27499 cumulative IPC: 2.26922 (Simulation time: 0 hr 2 min 0 sec) 
Heartbeat CPU 0 instructions: 90000000 cycles: 39648773 heartbeat IPC: 2.27567 cumulative IPC: 2.26993 (Simulation time: 0 hr 2 min 15 sec) 
Heartbeat CPU 0 instructions: 100000000 cycles: 44046124 heartbeat IPC: 2.2741 cumulative IPC: 2.27035 (Simulation time: 0 hr 2 min 31 sec) 

Warmup complete CPU 0 instructions: 100000002 cycles: 44046134 (Simulation time: 0 hr 2 min 31 sec) 

Heartbeat CPU 0 instructions: 110000000 cycles: 54005809 heartbeat IPC: 1.00405 cumulative IPC: 1.00405 (Simulation time: 0 hr 2 min 50 sec) 
Heartbeat CPU 0 instructions: 120000000 cycles: 63028191 heartbeat IPC: 1.10835 cumulative IPC: 1.05363 (Simulation time: 0 hr 3 min 9 sec) 
Heartbeat CPU 0 instructions: 130000001 cycles: 72081654 heartbeat IPC: 1.10455 cumulative IPC: 1.07007 (Simulation time: 0 hr 3 min 28 sec) 
Heartbeat CPU 0 instructions: 140000000 cycles: 81197783 heartbeat IPC: 1.09696 cumulative IPC: 1.07667 (Simulation time: 0 hr 3 min 48 sec) 
Heartbeat CPU 0 instructions: 150000000 cycles: 92400578 heartbeat IPC: 0.892634 cumulative IPC: 1.03403 (Simulation time: 0 hr 4 min 8 sec) 
Heartbeat CPU 0 instructions: 160000000 cycles: 102848518 heartbeat IPC: 0.957126 cumulative IPC: 1.02037 (Simulation time: 0 hr 4 min 27 sec) 
Heartbeat CPU 0 instructions: 170000000 cycles: 113059832 heartbeat IPC: 0.979306 cumulative IPC: 1.01429 (Simulation time: 0 hr 4 min 47 sec) 
Heartbeat CPU 0 instructions: 180000000 cycles: 123063815 heartbeat IPC: 0.999602 cumulative IPC: 1.01243 (Simulation time: 0 hr 5 min 6 sec) 
Heartbeat CPU 0 instructions: 190000002 cycles: 133086206 heartbeat IPC: 0.997766 cumulative IPC: 1.01078 (Simulation time: 0 hr 5 min 26 sec) 
Heartbeat CPU 0 instructions: 200000000 cycles: 142456664 heartbeat IPC: 1.06718 cumulative IPC: 1.01615 (Simulation time: 0 hr 5 min 45 sec) 
Heartbeat CPU 0 instructions: 210000000 cycles: 152179224 heartbeat IPC: 1.02854 cumulative IPC: 1.01726 (Simulation time: 0 hr 6 min 5 sec) 
Heartbeat CPU 0 instructions: 220000000 cycles: 161072819 heartbeat IPC: 1.1244 cumulative IPC: 1.02541 (Simulation time: 0 hr 6 min 24 sec) 
Heartbeat CPU 0 instructions: 230000001 cycles: 173097339 heartbeat IPC: 0.831634 cumulative IPC: 1.00735 (Simulation time: 0 hr 6 min 45 sec) 
Heartbeat CPU 0 instructions: 240000000 cycles: 183814441 heartbeat IPC: 0.933088 cumulative IPC: 1.00166 (Simulation time: 0 hr 7 min 4 sec) 
Heartbeat CPU 0 instructions: 250000002 cycles: 193956877 heartbeat IPC: 0.985957 cumulative IPC: 1.0006 (Simulation time: 0 hr 7 min 24 sec) 
Heartbeat CPU 0 instructions: 260000000 cycles: 203766753 heartbeat IPC: 1.01938 cumulative IPC: 1.00175 (Simulation time: 0 hr 7 min 43 sec) 
Heartbeat CPU 0 instructions: 270000001 cycles: 213303552 heartbeat IPC: 1.04857 cumulative IPC: 1.00439 (Simulation time: 0 hr 8 min 2 sec) 
Heartbeat CPU 0 instructions: 280000000 cycles: 223128774 heartbeat IPC: 1.01779 cumulative IPC: 1.00512 (Simulation time: 0 hr 8 min 22 sec) 
Heartbeat CPU 0 instructions: 290000002 cycles: 232203411 heartbeat IPC: 1.10197 cumulative IPC: 1.00979 (Simulation time: 0 hr 8 min 41 sec) 
Heartbeat CPU 0 instructions: 300000000 cycles: 241723045 heartbeat IPC: 1.05046 cumulative IPC: 1.01175 (Simulation time: 0 hr 9 min 0 sec) 
Heartbeat CPU 0 instructions: 310000000 cycles: 250598858 heartbeat IPC: 1.12666 cumulative IPC: 1.01669 (Simulation time: 0 hr 9 min 19 sec) 
Heartbeat CPU 0 instructions: 320000000 cycles: 259584441 heartbeat IPC: 1.11289 cumulative IPC: 1.0207 (Simulation time: 0 hr 9 min 38 sec) 
Heartbeat CPU 0 instructions: 330000003 cycles: 268743526 heartbeat IPC: 1.09181 cumulative IPC: 1.0236 (Simulation time: 0 hr 9 min 57 sec) 
Heartbeat CPU 0 instructions: 340000000 cycles: 278573213 heartbeat IPC: 1.01733 cumulative IPC: 1.02334 (Simulation time: 0 hr 10 min 17 sec) 
Heartbeat CPU 0 instructions: 350000000 cycles: 289133217 heartbeat IPC: 0.946969 cumulative IPC: 1.02005 (Simulation time: 0 hr 10 min 36 sec) 
Heartbeat CPU 0 instructions: 360000000 cycles: 299326056 heartbeat IPC: 0.981081 cumulative IPC: 1.01849 (Simulation time: 0 hr 10 min 56 sec) 
Heartbeat CPU 0 instructions: 370000000 cycles: 309180603 heartbeat IPC: 1.01476 cumulative IPC: 1.01835 (Simulation time: 0 hr 11 min 15 sec) 
Heartbeat CPU 0 instructions: 380000000 cycles: 318746772 heartbeat IPC: 1.04535 cumulative IPC: 1.01929 (Simulation time: 0 hr 11 min 35 sec) 
Heartbeat CPU 0 instructions: 390000002 cycles: 328016205 heartbeat IPC: 1.07881 cumulative IPC: 1.02123 (Simulation time: 0 hr 11 min 54 sec) 
Heartbeat CPU 0 instructions: 400000000 cycles: 337666413 heartbeat IPC: 1.03625 cumulative IPC: 1.02173 (Simulation time: 0 hr 12 min 13 sec) 
Heartbeat CPU 0 instructions: 410000000 cycles: 346547662 heartbeat IPC: 1.12597 cumulative IPC: 1.02479 (Simulation time: 0 hr 12 min 32 sec) 
Heartbeat CPU 0 instructions: 420000000 cycles: 357282422 heartbeat IPC: 0.931553 cumulative IPC: 1.02159 (Simulation time: 0 hr 12 min 52 sec) 
Heartbeat CPU 0 instructions: 430000000 cycles: 368314356 heartbeat IPC: 0.906459 cumulative IPC: 1.01768 (Simulation time: 0 hr 13 min 11 sec) 
Heartbeat CPU 0 instructions: 440000000 cycles: 378458469 heartbeat IPC: 0.985793 cumulative IPC: 1.01671 (Simulation time: 0 hr 13 min 30 sec) 
Heartbeat CPU 0 instructions: 450000000 cycles: 388434787 heartbeat IPC: 1.00237 cumulative IPC: 1.01629 (Simulation time: 0 hr 13 min 49 sec) 
Heartbeat CPU 0 instructions: 460000000 cycles: 398264448 heartbeat IPC: 1.01733 cumulative IPC: 1.01632 (Simulation time: 0 hr 14 min 8 sec) 
Heartbeat CPU 0 instructions: 470000001 cycles: 408098920 heartbeat IPC: 1.01683 cumulative IPC: 1.01634 (Simulation time: 0 hr 14 min 27 sec) 
Heartbeat CPU 0 instructions: 480000000 cycles: 417250934 heartbeat IPC: 1.09266 cumulative IPC: 1.01821 (Simulation time: 0 hr 14 min 45 sec) 
Heartbeat CPU 0 instructions: 490000002 cycles: 426891335 heartbeat IPC: 1.0373 cumulative IPC: 1.01869 (Simulation time: 0 hr 15 min 4 sec) 
Heartbeat CPU 0 instructions: 500000000 cycles: 436054317 heartbeat IPC: 1.09135 cumulative IPC: 1.02039 (Simulation time: 0 hr 15 min 23 sec) 
Heartbeat CPU 0 instructions: 510000000 cycles: 444981223 heartbeat IPC: 1.12021 cumulative IPC: 1.02261 (Simulation time: 0 hr 15 min 42 sec) 
Heartbeat CPU 0 instructions: 520000000 cycles: 454206304 heartbeat IPC: 1.084 cumulative IPC: 1.02399 (Simulation time: 0 hr 16 min 1 sec) 
Heartbeat CPU 0 instructions: 530000001 cycles: 464251164 heartbeat IPC: 0.995534 cumulative IPC: 1.02331 (Simulation time: 0 hr 16 min 20 sec) 
Heartbeat CPU 0 instructions: 540000000 cycles: 474927375 heartbeat IPC: 0.936662 cumulative IPC: 1.02116 (Simulation time: 0 hr 16 min 39 sec) 
Heartbeat CPU 0 instructions: 550000003 cycles: 485264396 heartbeat IPC: 0.967397 cumulative IPC: 1.0199 (Simulation time: 0 hr 16 min 57 sec) 
Heartbeat CPU 0 instructions: 560000000 cycles: 495269798 heartbeat IPC: 0.99946 cumulative IPC: 1.01945 (Simulation time: 0 hr 17 min 16 sec) 
Heartbeat CPU 0 instructions: 570000002 cycles: 504983865 heartbeat IPC: 1.02944 cumulative IPC: 1.01966 (Simulation time: 0 hr 17 min 34 sec) 
Heartbeat CPU 0 instructions: 580000000 cycles: 514407844 heartbeat IPC: 1.06112 cumulative IPC: 1.02049 (Simulation time: 0 hr 17 min 53 sec) 
Heartbeat CPU 0 instructions: 590000002 cycles: 524132518 heartbeat IPC: 1.02831 cumulative IPC: 1.02065 (Simulation time: 0 hr 18 min 11 sec) 
Heartbeat CPU 0 instructions: 600000000 cycles: 533288577 heartbeat IPC: 1.09217 cumulative IPC: 1.02199 (Simulation time: 0 hr 18 min 29 sec) 
Finished CPU 0 instructions: 500000000 cycles: 489242457 cumulative IPC: 1.02199 (Simulation time: 0 hr 18 min 29 sec) 

CPU 0 Branch Prediction Accuracy: 97.8526% MPKI: 2.66709
Number of Branches: 62099103 Number of Mispredictions: 1333545
Number of LOAD Instructions: 210576465
Number of LOAD Instructions (ROI): 210576465
Number of STORE Instructions: 16915507
Number of STORE Instructions (ROI): 16915507
Total Destination Memory Operands: 16918869
Total Destination Memory Operands (ROI): 16918869
Total Source Memory Operands: 210576465
Total Source Memory Operands (ROI): 210576465
Number of DEPENDED LOADS: 346419
Number of DEPENDED LOADS (ROI): 346419
Number of SQ_ADDED: 16918826
Number of SQ_ADDED (ROI): 16918826
Number of LQ_ADDED: 210614847
Number of LQ_ADDED (ROI): 210614847
Number of Instructions read from trace: 600000257

ChampSim completed all CPUs

Region of Interest Statistics

CPU 0 cumulative IPC: 1.02199 instructions: 500000000 cycles: 489242457
ITLB TOTAL     ACCESS:   76465619  HIT:   76465581  MISS:         38
ITLB LOAD      ACCESS:   76465619  HIT:   76465581  MISS:         38
ITLB RFO       ACCESS:          0  HIT:          0  MISS:          0
ITLB PREFETCH  ACCESS:          0  HIT:          0  MISS:          0
ITLB WRITEBACK ACCESS:          0  HIT:          0  MISS:          0
ITLB PREFETCH  REQUESTED:          0  ISSUED:          0  USEFUL:          0  USELESS:          0
ITLB TOTAL MSHR MERGED:         37
ITLB LOAD MSHR MERGED:         37
ITLB RFO MSHR MERGED:          0
ITLB PREFETCH MSHR MERGED:          0
ITLB WRITEBACK MSHR MERGED:          0
ITLB TOTAL ACCESSES:   76465656 HITS:   76465581 MISSES:         75
ITLB LOAD ACCESSES:   76465656 HITS:   76465581 MISSES:         75
ITLB RFO ACCESSES:          0 HITS:          0 MISSES:          0
ITLB PREFETCH ACCESSES:          0 HITS:          0 MISSES:          0
ITLB WRITEBACK ACCESSES:          0 HITS:          0 MISSES:          0
ITLB RQ ACCESS:  500000188
ITLB RQ TO_CACHE:   76465657
ITLB RQ MERGED:  423534531
ITLB RQ FORWARD:          0
ITLB WQ ACCESS:          0
ITLB WQ TO_CACHE:          0
ITLB WQ MERGED:          0
ITLB WQ FORWARD:          0
DTLB TOTAL     ACCESS:  136619902  HIT:  136417105  MISS:     202797
DTLB LOAD      ACCESS:  128557279  HIT:  128357203  MISS:     200076
DTLB RFO       ACCESS:    8062623  HIT:    8059902  MISS:       2721
DTLB PREFETCH  ACCESS:          0  HIT:          0  MISS:          0
DTLB WRITEBACK ACCESS:          0  HIT:          0  MISS:          0
DTLB PREFETCH  REQUESTED:          0  ISSUED:          0  USEFUL:          0  USELESS:          0
DTLB TOTAL MSHR MERGED:     446046
DTLB LOAD MSHR MERGED:     442095
DTLB RFO MSHR MERGED:       3951
DTLB PREFETCH MSHR MERGED:          0
DTLB WRITEBACK MSHR MERGED:          0
DTLB TOTAL ACCESSES:  137065948 HITS:  136417105 MISSES:     648843
DTLB LOAD ACCESSES:  128999374 HITS:  128357203 MISSES:     642171
DTLB RFO ACCESSES:    8066574 HITS:    8059902 MISSES:       6672
DTLB PREFETCH ACCESSES:          0 HITS:          0 MISSES:          0
DTLB WRITEBACK ACCESSES:          0 HITS:          0 MISSES:          0
DTLB RQ ACCESS:  189418133
DTLB RQ TO_CACHE:  137065948
DTLB RQ MERGED:   52352185
DTLB RQ FORWARD:          0
DTLB WQ ACCESS:          0
DTLB WQ TO_CACHE:          0
DTLB WQ MERGED:          0
DTLB WQ FORWARD:          0
L1D TOTAL     ACCESS:  124791947  HIT:  107234975  MISS:   17556972
L1D LOAD      ACCESS:   72080774  HIT:   61709666  MISS:   10371108
L1D RFO       ACCESS:   14015498  HIT:   13862664  MISS:     152834
L1D PREFETCH  ACCESS:   38695675  HIT:   31662645  MISS:    7033030
L1D WRITEBACK ACCESS:          0  HIT:          0  MISS:          0
L1D PREFETCH  REQUESTED:   85512717  ISSUED:   84191588  USEFUL:    5773614  USELESS:    1259427
L1D TOTAL MSHR MERGED:   32363793
L1D LOAD MSHR MERGED:   18718030
L1D RFO MSHR MERGED:     263691
L1D PREFETCH MSHR MERGED:   13382072
L1D WRITEBACK MSHR MERGED:          0
L1D TOTAL ACCESSES:  157156215 HITS:  107235451 MISSES:   49920764
L1D LOAD ACCESSES:   85512720 HITS:   61709669 MISSES:   23803051
L1D RFO ACCESSES:   14279165 HITS:   13862664 MISSES:     416501
L1D PREFETCH ACCESSES:   57364330 HITS:   31663118 MISSES:   25701212
L1D WRITEBACK ACCESSES:          0 HITS:          0 MISSES:          0
L1D RQ ACCESS:  175129111
L1D RQ TO_CACHE:   85512717
L1D RQ MERGED:   89616391
L1D RQ FORWARD:          0
L1D WQ ACCESS:   14289037
L1D WQ TO_CACHE:   14279165
L1D WQ MERGED:       9872
L1D WQ FORWARD:        476
L1I TOTAL     ACCESS:   93504919  HIT:   93503123  MISS:       1796
L1I LOAD      ACCESS:   93504919  HIT:   93503123  MISS:       1796
L1I RFO       ACCESS:          0  HIT:          0  MISS:          0
L1I PREFETCH  ACCESS:          0  HIT:          0  MISS:          0
L1I WRITEBACK ACCESS:          0  HIT:          0  MISS:          0
L1I PREFETCH  REQUESTED:          0  ISSUED:          0  USEFUL:          0  USELESS:          0
L1I TOTAL MSHR MERGED:       2358
L1I LOAD MSHR MERGED:       2358
L1I RFO MSHR MERGED:          0
L1I PREFETCH MSHR MERGED:          0
L1I WRITEBACK MSHR MERGED:          0
L1I TOTAL ACCESSES:   93507277 HITS:   93503123 MISSES:       4154
L1I LOAD ACCESSES:   93507277 HITS:   93503123 MISSES:       4154
L1I RFO ACCESSES:          0 HITS:          0 MISSES:          0
L1I PREFETCH ACCESSES:          0 HITS:          0 MISSES:          0
L1I WRITEBACK ACCESSES:          0 HITS:          0 MISSES:          0
L1I RQ ACCESS:  500000187
L1I RQ TO_CACHE:   93507277
L1I RQ MERGED:  406492910
L1I RQ FORWARD:          0
L1I WQ ACCESS:          0
L1I WQ TO_CACHE:          0
L1I WQ MERGED:          0
L1I WQ FORWARD:          0
L2C TOTAL     ACCESS:   20887942  HIT:    8659539  MISS:   12228403
L2C LOAD      ACCESS:    5086799  HIT:    2135679  MISS:    2951120
L2C RFO       ACCESS:     152810  HIT:       6515  MISS:     146295
L2C PREFETCH  ACCESS:   13875575  HIT:    4744698  MISS:    9130877
L2C WRITEBACK ACCESS:    1772758  HIT:    1772647  MISS:        111
L2C PREFETCH  REQUESTED:    1795413  ISSUED:    1795413  USEFUL:    1058579  USELESS:    8073965
L2C TOTAL MSHR MERGED:      99758
L2C LOAD MSHR MERGED:      23740
L2C RFO MSHR MERGED:          0
L2C PREFETCH MSHR MERGED:      76018
L2C WRITEBACK MSHR MERGED:          0
L2C TOTAL ACCESSES:   21009324 HITS:    8659579 MISSES:   12349745
L2C LOAD ACCESSES:    5086817 HITS:    2135697 MISSES:    2951120
L2C RFO ACCESSES:     152810 HITS:       6515 MISSES:     146295
L2C PREFETCH ACCESSES:   13996939 HITS:    4744720 MISSES:    9252219
L2C WRITEBACK ACCESSES:    1772758 HITS:    1772647 MISSES:        111
L2C RQ ACCESS:    5239627
L2C RQ TO_CACHE:    5239609
L2C RQ MERGED:          0
L2C RQ FORWARD:          0
L2C WQ ACCESS:    1772758
L2C WQ TO_CACHE:    1772758
L2C WQ MERGED:          0
L2C WQ FORWARD:         40
LLC TOTAL     ACCESS:   12530503  HIT:    6282505  MISS:    6247998
LLC LOAD      ACCESS:    2927363  HIT:    2354860  MISS:     572503
LLC RFO       ACCESS:     146295  HIT:     114437  MISS:      31858
LLC PREFETCH  ACCESS:    9170861  HIT:    3554029  MISS:    5616832
LLC WRITEBACK ACCESS:     285984  HIT:     259179  MISS:      26805
LLC PREFETCH  REQUESTED:          0  ISSUED:          0  USEFUL:       3478  USELESS:    5613465
LLC TOTAL MSHR MERGED:       1092
LLC LOAD MSHR MERGED:        204
LLC RFO MSHR MERGED:          0
LLC PREFETCH MSHR MERGED:        888
LLC WRITEBACK MSHR MERGED:          0
LLC TOTAL ACCESSES:   12531626 HITS:    6282536 MISSES:    6249090
LLC LOAD ACCESSES:    2927380 HITS:    2354877 MISSES:     572503
LLC RFO ACCESSES:     146295 HITS:     114437 MISSES:      31858
LLC PREFETCH ACCESSES:    9171967 HITS:    3554043 MISSES:    5617924
LLC WRITEBACK ACCESSES:     285984 HITS:     259179 MISSES:      26805
LLC 0 RQ ACCESS:    3073675
LLC 0 RQ TO_CACHE:    3073658
LLC 0 RQ MERGED:          0
LLC 0 RQ FORWARD:          0
LLC WQ ACCESS:     285984
LLC WQ TO_CACHE:     285984
LLC WQ MERGED:          0
LLC WQ FORWARD:         31
Major fault: 0 Minor fault: 6524
CPU 0 L1D next line prefetcher final stats
CPU 0 L2C PC-based stride prefetcher final stats
All Misses: 8047356
All Hits: 7008161
SD Algo Stats - Switches: 0 SRR-Repls: 599510 BRR-Repls: 0

DRAM Statistics
 CHANNEL 0
 RQ ROW_BUFFER_HIT:    5438835  ROW_BUFFER_MISS:     776782
 DBUS_CONGESTED:    2342659
 WQ ROW_BUFFER_HIT:       5059  ROW_BUFFER_MISS:      35130  FULL:          0

 AVG_CONGESTED_CYCLE: 12
LOADS RETIRED: 175418235
INSTR RETIRED: 500000000
