
*** ChampSim Multicore Out-of-Order Simulator ***

Warmup Instructions: 100000000
Simulation Instructions: 500000000
Number of CPUs: 1
LLC sets: 2048
LLC ways: 16
Clean RRIP Policies: 1223230212232302 Dirty RRIP Policies: 2203130222031302 PSEL Width: 10 Track Set: 4294967295 PSEL Mask: 1 Demote Mask: 3014100030141000DS Algo: 0Window size: 0
Off-chip DRAM Size: 4096 MB Channels: 1 Width: 64-bit Data Rate: 1600 MT/s

CPU 0 runs /mnt/beegfs/iconst01/spec2017/Gcc.trace.gz
NOT SORTED
TRACE STRING: /mnt/beegfs/iconst01/spec2017/Gcc.trace.gz
SORTED
TRACE STRING: /mnt/beegfs/iconst01/spec2017/Gcc.trace.gz
INITIAL
TRACE STRING: /mnt/beegfs/iconst01/spec2017/Gcc.trace.gz

champsim_seed used: 269

CPU 0 L1D next line prefetcher
CPU 0 L2C IP-based stride prefetcher
Initialize DRRIP state
Assign rand_sets[0]: 454  LLC: 2048
rand_sets[0]: 454
Assign rand_sets[1]: 1662  LLC: 2048
rand_sets[1]: 1662
Assign rand_sets[2]: 1921  LLC: 2048
rand_sets[2]: 1921
Assign rand_sets[3]: 1131  LLC: 2048
rand_sets[3]: 1131
Assign rand_sets[4]: 331  LLC: 2048
rand_sets[4]: 331
Assign rand_sets[5]: 1531  LLC: 2048
rand_sets[5]: 1531
Assign rand_sets[6]: 482  LLC: 2048
rand_sets[6]: 482
Assign rand_sets[7]: 1275  LLC: 2048
rand_sets[7]: 1275
Assign rand_sets[8]: 1876  LLC: 2048
rand_sets[8]: 1876
Assign rand_sets[9]: 2038  LLC: 2048
rand_sets[9]: 2038
Assign rand_sets[10]: 701  LLC: 2048
rand_sets[10]: 701
Assign rand_sets[11]: 479  LLC: 2048
rand_sets[11]: 479
Assign rand_sets[12]: 892  LLC: 2048
rand_sets[12]: 892
Assign rand_sets[13]: 1820  LLC: 2048
rand_sets[13]: 1820
Assign rand_sets[14]: 1505  LLC: 2048
rand_sets[14]: 1505
Assign rand_sets[15]: 1159  LLC: 2048
rand_sets[15]: 1159
Assign rand_sets[16]: 513  LLC: 2048
rand_sets[16]: 513
Assign rand_sets[17]: 703  LLC: 2048
rand_sets[17]: 703
Assign rand_sets[18]: 561  LLC: 2048
rand_sets[18]: 561
Assign rand_sets[19]: 990  LLC: 2048
rand_sets[19]: 990
Assign rand_sets[20]: 342  LLC: 2048
rand_sets[20]: 342
Assign rand_sets[21]: 882  LLC: 2048
rand_sets[21]: 882
Assign rand_sets[22]: 15  LLC: 2048
rand_sets[22]: 15
Assign rand_sets[23]: 71  LLC: 2048
rand_sets[23]: 71
Assign rand_sets[24]: 1127  LLC: 2048
rand_sets[24]: 1127
Assign rand_sets[25]: 1382  LLC: 2048
rand_sets[25]: 1382
Assign rand_sets[26]: 647  LLC: 2048
rand_sets[26]: 647
Assign rand_sets[27]: 857  LLC: 2048
rand_sets[27]: 857
Assign rand_sets[28]: 1450  LLC: 2048
rand_sets[28]: 1450
Assign rand_sets[29]: 1160  LLC: 2048
rand_sets[29]: 1160
Assign rand_sets[30]: 1852  LLC: 2048
rand_sets[30]: 1852
Assign rand_sets[31]: 1881  LLC: 2048
rand_sets[31]: 1881
Assign rand_sets[32]: 1770  LLC: 2048
rand_sets[32]: 1770
Assign rand_sets[33]: 1622  LLC: 2048
rand_sets[33]: 1622
Assign rand_sets[34]: 275  LLC: 2048
rand_sets[34]: 275
Assign rand_sets[35]: 635  LLC: 2048
rand_sets[35]: 635
Assign rand_sets[36]: 466  LLC: 2048
rand_sets[36]: 466
Assign rand_sets[37]: 1413  LLC: 2048
rand_sets[37]: 1413
Assign rand_sets[38]: 417  LLC: 2048
rand_sets[38]: 417
Assign rand_sets[39]: 472  LLC: 2048
rand_sets[39]: 472
Assign rand_sets[40]: 1340  LLC: 2048
rand_sets[40]: 1340
Assign rand_sets[41]: 852  LLC: 2048
rand_sets[41]: 852
Assign rand_sets[42]: 1365  LLC: 2048
rand_sets[42]: 1365
Assign rand_sets[43]: 47  LLC: 2048
rand_sets[43]: 47
Assign rand_sets[44]: 823  LLC: 2048
rand_sets[44]: 823
Assign rand_sets[45]: 686  LLC: 2048
rand_sets[45]: 686
Assign rand_sets[46]: 1637  LLC: 2048
rand_sets[46]: 1637
Assign rand_sets[47]: 1115  LLC: 2048
rand_sets[47]: 1115
Assign rand_sets[48]: 986  LLC: 2048
rand_sets[48]: 986
Assign rand_sets[49]: 258  LLC: 2048
rand_sets[49]: 258
Assign rand_sets[50]: 633  LLC: 2048
rand_sets[50]: 633
Assign rand_sets[51]: 920  LLC: 2048
rand_sets[51]: 920
Assign rand_sets[52]: 204  LLC: 2048
rand_sets[52]: 204
Assign rand_sets[53]: 227  LLC: 2048
rand_sets[53]: 227
Assign rand_sets[54]: 1818  LLC: 2048
rand_sets[54]: 1818
Assign rand_sets[55]: 886  LLC: 2048
rand_sets[55]: 886
Assign rand_sets[56]: 1422  LLC: 2048
rand_sets[56]: 1422
Assign rand_sets[57]: 607  LLC: 2048
rand_sets[57]: 607
Assign rand_sets[58]: 217  LLC: 2048
rand_sets[58]: 217
Assign rand_sets[59]: 1945  LLC: 2048
rand_sets[59]: 1945
Assign rand_sets[60]: 143  LLC: 2048
rand_sets[60]: 143
Assign rand_sets[61]: 1311  LLC: 2048
rand_sets[61]: 1311
Assign rand_sets[62]: 319  LLC: 2048
rand_sets[62]: 319
Assign rand_sets[63]: 1846  LLC: 2048
rand_sets[63]: 1846
 CLEAN-RRIP-POLICY-1: 1-2-2-3-2-3-0-2- CLEAN-RRIP-POLICY-2: 1-2-2-3-2-3-0-2-
 DIRTY-RRIP-POLICY-1: 2-2-0-3-1-3-0-2- DIRTY-RRIP-POLICY-2: 2-2-0-3-1-3-0-2-
 PSEL width: 10
Heartbeat CPU 0 instructions: 10000001 cycles: 7315980 heartbeat IPC: 1.36687 cumulative IPC: 1.36687 (Simulation time: 0 hr 0 min 14 sec) 
Heartbeat CPU 0 instructions: 20000000 cycles: 14307792 heartbeat IPC: 1.43024 cumulative IPC: 1.39784 (Simulation time: 0 hr 0 min 28 sec) 
Heartbeat CPU 0 instructions: 30000001 cycles: 21020838 heartbeat IPC: 1.48964 cumulative IPC: 1.42716 (Simulation time: 0 hr 0 min 43 sec) 
Heartbeat CPU 0 instructions: 40000000 cycles: 27481660 heartbeat IPC: 1.54779 cumulative IPC: 1.45552 (Simulation time: 0 hr 0 min 58 sec) 
Heartbeat CPU 0 instructions: 50000001 cycles: 33583494 heartbeat IPC: 1.63885 cumulative IPC: 1.48883 (Simulation time: 0 hr 1 min 12 sec) 
Heartbeat CPU 0 instructions: 60000000 cycles: 40064797 heartbeat IPC: 1.5429 cumulative IPC: 1.49757 (Simulation time: 0 hr 1 min 28 sec) 
Heartbeat CPU 0 instructions: 70000000 cycles: 47104513 heartbeat IPC: 1.42051 cumulative IPC: 1.48606 (Simulation time: 0 hr 1 min 42 sec) 
Heartbeat CPU 0 instructions: 80000000 cycles: 54196060 heartbeat IPC: 1.41013 cumulative IPC: 1.47612 (Simulation time: 0 hr 1 min 56 sec) 
Heartbeat CPU 0 instructions: 90000003 cycles: 61202343 heartbeat IPC: 1.42729 cumulative IPC: 1.47053 (Simulation time: 0 hr 2 min 9 sec) 
Heartbeat CPU 0 instructions: 100000000 cycles: 68371364 heartbeat IPC: 1.39489 cumulative IPC: 1.4626 (Simulation time: 0 hr 2 min 23 sec) 

Warmup complete CPU 0 instructions: 100000004 cycles: 68371365 (Simulation time: 0 hr 2 min 23 sec) 

Heartbeat CPU 0 instructions: 110000003 cycles: 96214593 heartbeat IPC: 0.359154 cumulative IPC: 0.359154 (Simulation time: 0 hr 2 min 50 sec) 
Heartbeat CPU 0 instructions: 120000000 cycles: 123724181 heartbeat IPC: 0.36351 cumulative IPC: 0.361318 (Simulation time: 0 hr 3 min 17 sec) 
Heartbeat CPU 0 instructions: 130000000 cycles: 148753649 heartbeat IPC: 0.399529 cumulative IPC: 0.373217 (Simulation time: 0 hr 3 min 43 sec) 
Heartbeat CPU 0 instructions: 140000000 cycles: 178642713 heartbeat IPC: 0.334571 cumulative IPC: 0.362742 (Simulation time: 0 hr 4 min 10 sec) 
Heartbeat CPU 0 instructions: 150000000 cycles: 208743382 heartbeat IPC: 0.332219 cumulative IPC: 0.356196 (Simulation time: 0 hr 4 min 37 sec) 
Heartbeat CPU 0 instructions: 160000000 cycles: 236236660 heartbeat IPC: 0.363725 cumulative IPC: 0.357429 (Simulation time: 0 hr 5 min 2 sec) 
Heartbeat CPU 0 instructions: 170000001 cycles: 264335554 heartbeat IPC: 0.355886 cumulative IPC: 0.357208 (Simulation time: 0 hr 5 min 30 sec) 
Heartbeat CPU 0 instructions: 180000000 cycles: 292877164 heartbeat IPC: 0.350366 cumulative IPC: 0.356338 (Simulation time: 0 hr 5 min 57 sec) 
Heartbeat CPU 0 instructions: 190000002 cycles: 321032536 heartbeat IPC: 0.355172 cumulative IPC: 0.356208 (Simulation time: 0 hr 6 min 24 sec) 
Heartbeat CPU 0 instructions: 200000000 cycles: 349493903 heartbeat IPC: 0.351353 cumulative IPC: 0.355717 (Simulation time: 0 hr 6 min 51 sec) 
Heartbeat CPU 0 instructions: 210000002 cycles: 377489017 heartbeat IPC: 0.357205 cumulative IPC: 0.355852 (Simulation time: 0 hr 7 min 18 sec) 
Heartbeat CPU 0 instructions: 220000000 cycles: 407035040 heartbeat IPC: 0.338455 cumulative IPC: 0.354334 (Simulation time: 0 hr 7 min 44 sec) 
Heartbeat CPU 0 instructions: 230000000 cycles: 434697284 heartbeat IPC: 0.361504 cumulative IPC: 0.354875 (Simulation time: 0 hr 8 min 10 sec) 
Heartbeat CPU 0 instructions: 240000000 cycles: 460679950 heartbeat IPC: 0.384872 cumulative IPC: 0.356862 (Simulation time: 0 hr 8 min 35 sec) 
Heartbeat CPU 0 instructions: 250000000 cycles: 490857539 heartbeat IPC: 0.331372 cumulative IPC: 0.355041 (Simulation time: 0 hr 9 min 3 sec) 
Heartbeat CPU 0 instructions: 260000000 cycles: 517970079 heartbeat IPC: 0.368833 cumulative IPC: 0.355873 (Simulation time: 0 hr 9 min 30 sec) 
Heartbeat CPU 0 instructions: 270000003 cycles: 546475003 heartbeat IPC: 0.350817 cumulative IPC: 0.355571 (Simulation time: 0 hr 9 min 57 sec) 
Heartbeat CPU 0 instructions: 280000000 cycles: 574796917 heartbeat IPC: 0.353083 cumulative IPC: 0.355432 (Simulation time: 0 hr 10 min 25 sec) 
Heartbeat CPU 0 instructions: 290000000 cycles: 603826793 heartbeat IPC: 0.344473 cumulative IPC: 0.354838 (Simulation time: 0 hr 10 min 53 sec) 
Heartbeat CPU 0 instructions: 300000000 cycles: 634253226 heartbeat IPC: 0.328662 cumulative IPC: 0.353431 (Simulation time: 0 hr 11 min 20 sec) 
Heartbeat CPU 0 instructions: 310000001 cycles: 663956943 heartbeat IPC: 0.336658 cumulative IPC: 0.352594 (Simulation time: 0 hr 11 min 46 sec) 
Heartbeat CPU 0 instructions: 320000000 cycles: 692500970 heartbeat IPC: 0.350336 cumulative IPC: 0.352491 (Simulation time: 0 hr 12 min 12 sec) 
Heartbeat CPU 0 instructions: 330000000 cycles: 721355575 heartbeat IPC: 0.346565 cumulative IPC: 0.352229 (Simulation time: 0 hr 12 min 39 sec) 
Heartbeat CPU 0 instructions: 340000000 cycles: 750831394 heartbeat IPC: 0.339261 cumulative IPC: 0.351669 (Simulation time: 0 hr 13 min 5 sec) 
Heartbeat CPU 0 instructions: 350000003 cycles: 778021455 heartbeat IPC: 0.367782 cumulative IPC: 0.352286 (Simulation time: 0 hr 13 min 31 sec) 
Heartbeat CPU 0 instructions: 360000000 cycles: 806650472 heartbeat IPC: 0.349296 cumulative IPC: 0.35217 (Simulation time: 0 hr 13 min 56 sec) 
Heartbeat CPU 0 instructions: 370000000 cycles: 835171163 heartbeat IPC: 0.350623 cumulative IPC: 0.352113 (Simulation time: 0 hr 14 min 21 sec) 
Heartbeat CPU 0 instructions: 380000000 cycles: 863957819 heartbeat IPC: 0.347383 cumulative IPC: 0.351942 (Simulation time: 0 hr 14 min 47 sec) 
Heartbeat CPU 0 instructions: 390000001 cycles: 891774230 heartbeat IPC: 0.3595 cumulative IPC: 0.352197 (Simulation time: 0 hr 15 min 12 sec) 
Heartbeat CPU 0 instructions: 400000000 cycles: 920612782 heartbeat IPC: 0.346758 cumulative IPC: 0.352013 (Simulation time: 0 hr 15 min 37 sec) 
Heartbeat CPU 0 instructions: 410000001 cycles: 948078975 heartbeat IPC: 0.364084 cumulative IPC: 0.35239 (Simulation time: 0 hr 16 min 2 sec) 
Heartbeat CPU 0 instructions: 420000000 cycles: 975527968 heartbeat IPC: 0.364312 cumulative IPC: 0.352751 (Simulation time: 0 hr 16 min 27 sec) 
Heartbeat CPU 0 instructions: 430000002 cycles: 1003396397 heartbeat IPC: 0.358829 cumulative IPC: 0.352932 (Simulation time: 0 hr 16 min 52 sec) 
Heartbeat CPU 0 instructions: 440000000 cycles: 1033179490 heartbeat IPC: 0.335761 cumulative IPC: 0.352402 (Simulation time: 0 hr 17 min 17 sec) 
Heartbeat CPU 0 instructions: 450000002 cycles: 1062649412 heartbeat IPC: 0.339329 cumulative IPC: 0.352014 (Simulation time: 0 hr 17 min 43 sec) 
Heartbeat CPU 0 instructions: 460000000 cycles: 1090512970 heartbeat IPC: 0.358892 cumulative IPC: 0.352202 (Simulation time: 0 hr 18 min 8 sec) 
Heartbeat CPU 0 instructions: 470000000 cycles: 1118266323 heartbeat IPC: 0.360317 cumulative IPC: 0.352416 (Simulation time: 0 hr 18 min 33 sec) 
Heartbeat CPU 0 instructions: 480000000 cycles: 1146270162 heartbeat IPC: 0.357094 cumulative IPC: 0.352538 (Simulation time: 0 hr 18 min 58 sec) 
Heartbeat CPU 0 instructions: 490000000 cycles: 1173988242 heartbeat IPC: 0.360775 cumulative IPC: 0.352744 (Simulation time: 0 hr 19 min 23 sec) 
Heartbeat CPU 0 instructions: 500000000 cycles: 1202419779 heartbeat IPC: 0.351722 cumulative IPC: 0.352719 (Simulation time: 0 hr 19 min 48 sec) 
Heartbeat CPU 0 instructions: 510000000 cycles: 1236431321 heartbeat IPC: 0.294018 cumulative IPC: 0.351009 (Simulation time: 0 hr 20 min 16 sec) 
Heartbeat CPU 0 instructions: 520000000 cycles: 1264513846 heartbeat IPC: 0.356093 cumulative IPC: 0.351129 (Simulation time: 0 hr 20 min 42 sec) 
Heartbeat CPU 0 instructions: 530000001 cycles: 1294544799 heartbeat IPC: 0.33299 cumulative IPC: 0.350684 (Simulation time: 0 hr 21 min 9 sec) 
Heartbeat CPU 0 instructions: 540000000 cycles: 1322985863 heartbeat IPC: 0.351604 cumulative IPC: 0.350705 (Simulation time: 0 hr 21 min 35 sec) 
Heartbeat CPU 0 instructions: 550000001 cycles: 1352280224 heartbeat IPC: 0.341363 cumulative IPC: 0.350492 (Simulation time: 0 hr 22 min 3 sec) 
Heartbeat CPU 0 instructions: 560000000 cycles: 1377786997 heartbeat IPC: 0.392053 cumulative IPC: 0.351302 (Simulation time: 0 hr 22 min 28 sec) 
Heartbeat CPU 0 instructions: 570000000 cycles: 1407601313 heartbeat IPC: 0.335409 cumulative IPC: 0.350948 (Simulation time: 0 hr 22 min 55 sec) 
Heartbeat CPU 0 instructions: 580000000 cycles: 1435781975 heartbeat IPC: 0.354853 cumulative IPC: 0.351028 (Simulation time: 0 hr 23 min 21 sec) 
Heartbeat CPU 0 instructions: 590000001 cycles: 1460567358 heartbeat IPC: 0.403464 cumulative IPC: 0.351962 (Simulation time: 0 hr 23 min 46 sec) 
Heartbeat CPU 0 instructions: 600000000 cycles: 1486716494 heartbeat IPC: 0.382422 cumulative IPC: 0.352524 (Simulation time: 0 hr 24 min 11 sec) 
Finished CPU 0 instructions: 500000000 cycles: 1418345151 cumulative IPC: 0.352524 (Simulation time: 0 hr 24 min 11 sec) 

CPU 0 Branch Prediction Accuracy: 86.4311% MPKI: 26.2662
Number of Branches: 96788573 Number of Mispredictions: 13133102
Number of LOAD Instructions: 164682285
Number of LOAD Instructions (ROI): 164682285
Number of STORE Instructions: 78194750
Number of STORE Instructions (ROI): 78194750
Total Destination Memory Operands: 83268534
Total Destination Memory Operands (ROI): 83268534
Total Source Memory Operands: 164712438
Total Source Memory Operands (ROI): 164712438
Number of DEPENDED LOADS: 7055518
Number of DEPENDED LOADS (ROI): 7055518
Number of SQ_ADDED: 83268522
Number of SQ_ADDED (ROI): 83268522
Number of LQ_ADDED: 236740017
Number of LQ_ADDED (ROI): 236740017
Number of Instructions read from trace: 600000066

ChampSim completed all CPUs

Region of Interest Statistics

CPU 0 cumulative IPC: 0.352524 instructions: 500000000 cycles: 1418345151
ITLB TOTAL     ACCESS:  100522647  HIT:  100318201  MISS:     204446
ITLB LOAD      ACCESS:  100522647  HIT:  100318201  MISS:     204446
ITLB RFO       ACCESS:          0  HIT:          0  MISS:          0
ITLB PREFETCH  ACCESS:          0  HIT:          0  MISS:          0
ITLB WRITEBACK ACCESS:          0  HIT:          0  MISS:          0
ITLB PREFETCH  REQUESTED:          0  ISSUED:          0  USEFUL:          0  USELESS:          0
ITLB TOTAL MSHR MERGED:     172424
ITLB LOAD MSHR MERGED:     172424
ITLB RFO MSHR MERGED:          0
ITLB PREFETCH MSHR MERGED:          0
ITLB WRITEBACK MSHR MERGED:          0
ITLB TOTAL ACCESSES:  100695071 HITS:  100318201 MISSES:     376870
ITLB LOAD ACCESSES:  100695071 HITS:  100318201 MISSES:     376870
ITLB RFO ACCESSES:          0 HITS:          0 MISSES:          0
ITLB PREFETCH ACCESSES:          0 HITS:          0 MISSES:          0
ITLB WRITEBACK ACCESSES:          0 HITS:          0 MISSES:          0
ITLB RQ ACCESS:  500000057
ITLB RQ TO_CACHE:  100695071
ITLB RQ MERGED:  399304986
ITLB RQ FORWARD:          0
ITLB WQ ACCESS:          0
ITLB WQ TO_CACHE:          0
ITLB WQ MERGED:          0
ITLB WQ FORWARD:          0
DTLB TOTAL     ACCESS:  165342620  HIT:  164708272  MISS:     634348
DTLB LOAD      ACCESS:  106296654  HIT:  105726747  MISS:     569907
DTLB RFO       ACCESS:   59045966  HIT:   58981525  MISS:      64441
DTLB PREFETCH  ACCESS:          0  HIT:          0  MISS:          0
DTLB WRITEBACK ACCESS:          0  HIT:          0  MISS:          0
DTLB PREFETCH  REQUESTED:          0  ISSUED:          0  USEFUL:          0  USELESS:          0
DTLB TOTAL MSHR MERGED:      99848
DTLB LOAD MSHR MERGED:      59375
DTLB RFO MSHR MERGED:      40473
DTLB PREFETCH MSHR MERGED:          0
DTLB WRITEBACK MSHR MERGED:          0
DTLB TOTAL ACCESSES:  165442468 HITS:  164708272 MISSES:     734196
DTLB LOAD ACCESSES:  106356029 HITS:  105726747 MISSES:     629282
DTLB RFO ACCESSES:   59086439 HITS:   58981525 MISSES:     104914
DTLB PREFETCH ACCESSES:          0 HITS:          0 MISSES:          0
DTLB WRITEBACK ACCESSES:          0 HITS:          0 MISSES:          0
DTLB RQ ACCESS:  200315375
DTLB RQ TO_CACHE:  165442468
DTLB RQ MERGED:   34872907
DTLB RQ FORWARD:          0
DTLB WQ ACCESS:          0
DTLB WQ TO_CACHE:          0
DTLB WQ MERGED:          0
DTLB WQ FORWARD:          0
L1D TOTAL     ACCESS:  281851994  HIT:  273942626  MISS:    7909368
L1D LOAD      ACCESS:  110421972  HIT:  107143049  MISS:    3278923
L1D RFO       ACCESS:   67130579  HIT:   66240412  MISS:     890167
L1D PREFETCH  ACCESS:  104299443  HIT:  100559165  MISS:    3740278
L1D WRITEBACK ACCESS:          0  HIT:          0  MISS:          0
L1D PREFETCH  REQUESTED:  110823285  ISSUED:  109123951  USEFUL:    1660888  USELESS:    2079354
L1D TOTAL MSHR MERGED:    2865096
L1D LOAD MSHR MERGED:     499771
L1D RFO MSHR MERGED:    1854966
L1D PREFETCH MSHR MERGED:     510359
L1D WRITEBACK MSHR MERGED:          0
L1D TOTAL ACCESSES:  284744520 HITS:  273970056 MISSES:   10774464
L1D LOAD ACCESSES:  110824725 HITS:  107144489 MISSES:    3680236
L1D RFO ACCESSES:   68974162 HITS:   66240412 MISSES:    2733750
L1D PREFETCH ACCESSES:  104945633 HITS:  100585155 MISSES:    4360478
L1D WRITEBACK ACCESSES:          0 HITS:          0 MISSES:          0
L1D RQ ACCESS:  130762772
L1D RQ TO_CACHE:  110823288
L1D RQ MERGED:   19938044
L1D RQ FORWARD:          0
L1D WQ ACCESS:   69552603
L1D WQ TO_CACHE:   68974163
L1D WQ MERGED:     578440
L1D WQ FORWARD:      27430
L1I TOTAL     ACCESS:  126569401  HIT:  122330849  MISS:    4238552
L1I LOAD      ACCESS:  126569401  HIT:  122330849  MISS:    4238552
L1I RFO       ACCESS:          0  HIT:          0  MISS:          0
L1I PREFETCH  ACCESS:          0  HIT:          0  MISS:          0
L1I WRITEBACK ACCESS:          0  HIT:          0  MISS:          0
L1I PREFETCH  REQUESTED:          0  ISSUED:          0  USEFUL:          0  USELESS:          0
L1I TOTAL MSHR MERGED:    1834963
L1I LOAD MSHR MERGED:    1834963
L1I RFO MSHR MERGED:          0
L1I PREFETCH MSHR MERGED:          0
L1I WRITEBACK MSHR MERGED:          0
L1I TOTAL ACCESSES:  128404367 HITS:  122330849 MISSES:    6073518
L1I LOAD ACCESSES:  128404367 HITS:  122330849 MISSES:    6073518
L1I RFO ACCESSES:          0 HITS:          0 MISSES:          0
L1I PREFETCH ACCESSES:          0 HITS:          0 MISSES:          0
L1I WRITEBACK ACCESSES:          0 HITS:          0 MISSES:          0
L1I RQ ACCESS:  500000057
L1I RQ TO_CACHE:  128404367
L1I RQ MERGED:  371595690
L1I RQ FORWARD:          0
L1I WQ ACCESS:          0
L1I WQ TO_CACHE:          0
L1I WQ MERGED:          0
L1I WQ FORWARD:          0
L2C TOTAL     ACCESS:   14905304  HIT:   11158814  MISS:    3746490
L2C LOAD      ACCESS:    7418809  HIT:    5098895  MISS:    2319914
L2C RFO       ACCESS:     878688  HIT:     409892  MISS:     468796
L2C PREFETCH  ACCESS:    4568572  HIT:    3628048  MISS:     940524
L2C WRITEBACK ACCESS:    2039235  HIT:    2021979  MISS:      17256
L2C PREFETCH  REQUESTED:     842787  ISSUED:     842787  USEFUL:     203415  USELESS:     736815
L2C TOTAL MSHR MERGED:       7027
L2C LOAD MSHR MERGED:        756
L2C RFO MSHR MERGED:          0
L2C PREFETCH MSHR MERGED:       6271
L2C WRITEBACK MSHR MERGED:          0
L2C TOTAL ACCESSES:   14913208 HITS:   11159262 MISSES:    3753946
L2C LOAD ACCESSES:    7419017 HITS:    5099103 MISSES:    2319914
L2C RFO ACCESSES:     878784 HITS:     409988 MISSES:     468796
L2C PREFETCH ACCESSES:    4576172 HITS:    3628192 MISSES:     947980
L2C WRITEBACK ACCESSES:    2039235 HITS:    2021979 MISSES:      17256
L2C RQ ACCESS:    8297804
L2C RQ TO_CACHE:    8297500
L2C RQ MERGED:          0
L2C RQ FORWARD:          0
L2C WQ ACCESS:    2039235
L2C WQ TO_CACHE:    2039235
L2C WQ MERGED:          0
L2C WQ FORWARD:        448
LLC TOTAL     ACCESS:    4609823  HIT:    3888026  MISS:     721797
LLC LOAD      ACCESS:    2319142  HIT:    1991940  MISS:     327202
LLC RFO       ACCESS:     468786  HIT:     419822  MISS:      48964
LLC PREFETCH  ACCESS:     941600  HIT:     642390  MISS:     299210
LLC WRITEBACK ACCESS:     880295  HIT:     833874  MISS:      46421
LLC PREFETCH  REQUESTED:          0  ISSUED:          0  USEFUL:      14434  USELESS:     284409
LLC TOTAL MSHR MERGED:         86
LLC LOAD MSHR MERGED:         25
LLC RFO MSHR MERGED:          0
LLC PREFETCH MSHR MERGED:         61
LLC WRITEBACK MSHR MERGED:          0
LLC TOTAL ACCESSES:    4609945 HITS:    3888062 MISSES:     721883
LLC LOAD ACCESSES:    2319158 HITS:    1991956 MISSES:     327202
LLC RFO ACCESSES:     468796 HITS:     419832 MISSES:      48964
LLC PREFETCH ACCESSES:     941696 HITS:     642400 MISSES:     299296
LLC WRITEBACK ACCESSES:     880295 HITS:     833874 MISSES:      46421
LLC 0 RQ ACCESS:    2787954
LLC 0 RQ TO_CACHE:    2787928
LLC 0 RQ MERGED:          0
LLC 0 RQ FORWARD:          0
LLC WQ ACCESS:     880295
LLC WQ TO_CACHE:     880295
LLC WQ MERGED:          0
LLC WQ FORWARD:         36
Major fault: 0 Minor fault: 12862
CPU 0 L1D next line prefetcher final stats
CPU 0 L2C PC-based stride prefetcher final stats
All Misses: 860515
All Hits: 4566314
SD Algo Stats - Switches: 0 SRR-Repls: 382590 BRR-Repls: 0

DRAM Statistics
 CHANNEL 0
 RQ ROW_BUFFER_HIT:     146899  ROW_BUFFER_MISS:     527646
 DBUS_CONGESTED:     315458
 WQ ROW_BUFFER_HIT:       7308  ROW_BUFFER_MISS:     140572  FULL:          0

 AVG_CONGESTED_CYCLE: 13
LOADS RETIRED: 136549171
INSTR RETIRED: 500000000
