
*** ChampSim Multicore Out-of-Order Simulator ***

Warmup Instructions: 100000000
Simulation Instructions: 500000000
Number of CPUs: 1
LLC sets: 2048
LLC ways: 16
Clean RRIP Policies: 123031201230312 Dirty RRIP Policies: 2103132221031322 PSEL Width: 10 Track Set: 4294967295 PSEL Mask: 1 Demote Mask: 4404102044041020DS Algo: 0Window size: 0
Off-chip DRAM Size: 4096 MB Channels: 1 Width: 64-bit Data Rate: 1600 MT/s

CPU 0 runs /mnt/beegfs/iconst01/spec2017/Gcc.trace.gz
NOT SORTED
TRACE STRING: /mnt/beegfs/iconst01/spec2017/Gcc.trace.gz
SORTED
TRACE STRING: /mnt/beegfs/iconst01/spec2017/Gcc.trace.gz
INITIAL
TRACE STRING: /mnt/beegfs/iconst01/spec2017/Gcc.trace.gz

champsim_seed used: 269

CPU 0 L1D next line prefetcher
CPU 0 L2C IP-based stride prefetcher
Initialize DRRIP state
Assign rand_sets[0]: 454  LLC: 2048
rand_sets[0]: 454
Assign rand_sets[1]: 1662  LLC: 2048
rand_sets[1]: 1662
Assign rand_sets[2]: 1921  LLC: 2048
rand_sets[2]: 1921
Assign rand_sets[3]: 1131  LLC: 2048
rand_sets[3]: 1131
Assign rand_sets[4]: 331  LLC: 2048
rand_sets[4]: 331
Assign rand_sets[5]: 1531  LLC: 2048
rand_sets[5]: 1531
Assign rand_sets[6]: 482  LLC: 2048
rand_sets[6]: 482
Assign rand_sets[7]: 1275  LLC: 2048
rand_sets[7]: 1275
Assign rand_sets[8]: 1876  LLC: 2048
rand_sets[8]: 1876
Assign rand_sets[9]: 2038  LLC: 2048
rand_sets[9]: 2038
Assign rand_sets[10]: 701  LLC: 2048
rand_sets[10]: 701
Assign rand_sets[11]: 479  LLC: 2048
rand_sets[11]: 479
Assign rand_sets[12]: 892  LLC: 2048
rand_sets[12]: 892
Assign rand_sets[13]: 1820  LLC: 2048
rand_sets[13]: 1820
Assign rand_sets[14]: 1505  LLC: 2048
rand_sets[14]: 1505
Assign rand_sets[15]: 1159  LLC: 2048
rand_sets[15]: 1159
Assign rand_sets[16]: 513  LLC: 2048
rand_sets[16]: 513
Assign rand_sets[17]: 703  LLC: 2048
rand_sets[17]: 703
Assign rand_sets[18]: 561  LLC: 2048
rand_sets[18]: 561
Assign rand_sets[19]: 990  LLC: 2048
rand_sets[19]: 990
Assign rand_sets[20]: 342  LLC: 2048
rand_sets[20]: 342
Assign rand_sets[21]: 882  LLC: 2048
rand_sets[21]: 882
Assign rand_sets[22]: 15  LLC: 2048
rand_sets[22]: 15
Assign rand_sets[23]: 71  LLC: 2048
rand_sets[23]: 71
Assign rand_sets[24]: 1127  LLC: 2048
rand_sets[24]: 1127
Assign rand_sets[25]: 1382  LLC: 2048
rand_sets[25]: 1382
Assign rand_sets[26]: 647  LLC: 2048
rand_sets[26]: 647
Assign rand_sets[27]: 857  LLC: 2048
rand_sets[27]: 857
Assign rand_sets[28]: 1450  LLC: 2048
rand_sets[28]: 1450
Assign rand_sets[29]: 1160  LLC: 2048
rand_sets[29]: 1160
Assign rand_sets[30]: 1852  LLC: 2048
rand_sets[30]: 1852
Assign rand_sets[31]: 1881  LLC: 2048
rand_sets[31]: 1881
Assign rand_sets[32]: 1770  LLC: 2048
rand_sets[32]: 1770
Assign rand_sets[33]: 1622  LLC: 2048
rand_sets[33]: 1622
Assign rand_sets[34]: 275  LLC: 2048
rand_sets[34]: 275
Assign rand_sets[35]: 635  LLC: 2048
rand_sets[35]: 635
Assign rand_sets[36]: 466  LLC: 2048
rand_sets[36]: 466
Assign rand_sets[37]: 1413  LLC: 2048
rand_sets[37]: 1413
Assign rand_sets[38]: 417  LLC: 2048
rand_sets[38]: 417
Assign rand_sets[39]: 472  LLC: 2048
rand_sets[39]: 472
Assign rand_sets[40]: 1340  LLC: 2048
rand_sets[40]: 1340
Assign rand_sets[41]: 852  LLC: 2048
rand_sets[41]: 852
Assign rand_sets[42]: 1365  LLC: 2048
rand_sets[42]: 1365
Assign rand_sets[43]: 47  LLC: 2048
rand_sets[43]: 47
Assign rand_sets[44]: 823  LLC: 2048
rand_sets[44]: 823
Assign rand_sets[45]: 686  LLC: 2048
rand_sets[45]: 686
Assign rand_sets[46]: 1637  LLC: 2048
rand_sets[46]: 1637
Assign rand_sets[47]: 1115  LLC: 2048
rand_sets[47]: 1115
Assign rand_sets[48]: 986  LLC: 2048
rand_sets[48]: 986
Assign rand_sets[49]: 258  LLC: 2048
rand_sets[49]: 258
Assign rand_sets[50]: 633  LLC: 2048
rand_sets[50]: 633
Assign rand_sets[51]: 920  LLC: 2048
rand_sets[51]: 920
Assign rand_sets[52]: 204  LLC: 2048
rand_sets[52]: 204
Assign rand_sets[53]: 227  LLC: 2048
rand_sets[53]: 227
Assign rand_sets[54]: 1818  LLC: 2048
rand_sets[54]: 1818
Assign rand_sets[55]: 886  LLC: 2048
rand_sets[55]: 886
Assign rand_sets[56]: 1422  LLC: 2048
rand_sets[56]: 1422
Assign rand_sets[57]: 607  LLC: 2048
rand_sets[57]: 607
Assign rand_sets[58]: 217  LLC: 2048
rand_sets[58]: 217
Assign rand_sets[59]: 1945  LLC: 2048
rand_sets[59]: 1945
Assign rand_sets[60]: 143  LLC: 2048
rand_sets[60]: 143
Assign rand_sets[61]: 1311  LLC: 2048
rand_sets[61]: 1311
Assign rand_sets[62]: 319  LLC: 2048
rand_sets[62]: 319
Assign rand_sets[63]: 1846  LLC: 2048
rand_sets[63]: 1846
 CLEAN-RRIP-POLICY-1: 0-1-2-3-0-3-1-2- CLEAN-RRIP-POLICY-2: 0-1-2-3-0-3-1-2-
 DIRTY-RRIP-POLICY-1: 2-1-0-3-1-3-2-2- DIRTY-RRIP-POLICY-2: 2-1-0-3-1-3-2-2-
 PSEL width: 10
Heartbeat CPU 0 instructions: 10000001 cycles: 7315981 heartbeat IPC: 1.36687 cumulative IPC: 1.36687 (Simulation time: 0 hr 0 min 17 sec) 
Heartbeat CPU 0 instructions: 20000000 cycles: 14307859 heartbeat IPC: 1.43023 cumulative IPC: 1.39783 (Simulation time: 0 hr 0 min 34 sec) 
Heartbeat CPU 0 instructions: 30000001 cycles: 21021169 heartbeat IPC: 1.48958 cumulative IPC: 1.42713 (Simulation time: 0 hr 0 min 53 sec) 
Heartbeat CPU 0 instructions: 40000000 cycles: 27482100 heartbeat IPC: 1.54776 cumulative IPC: 1.45549 (Simulation time: 0 hr 1 min 12 sec) 
Heartbeat CPU 0 instructions: 50000001 cycles: 33584136 heartbeat IPC: 1.6388 cumulative IPC: 1.4888 (Simulation time: 0 hr 1 min 30 sec) 
Heartbeat CPU 0 instructions: 60000000 cycles: 40065559 heartbeat IPC: 1.54287 cumulative IPC: 1.49755 (Simulation time: 0 hr 1 min 49 sec) 
Heartbeat CPU 0 instructions: 70000000 cycles: 47106864 heartbeat IPC: 1.42019 cumulative IPC: 1.48598 (Simulation time: 0 hr 2 min 7 sec) 
Heartbeat CPU 0 instructions: 80000000 cycles: 54200283 heartbeat IPC: 1.40976 cumulative IPC: 1.47601 (Simulation time: 0 hr 2 min 24 sec) 
Heartbeat CPU 0 instructions: 90000003 cycles: 61209439 heartbeat IPC: 1.42671 cumulative IPC: 1.47036 (Simulation time: 0 hr 2 min 41 sec) 
Heartbeat CPU 0 instructions: 100000000 cycles: 68381961 heartbeat IPC: 1.39421 cumulative IPC: 1.46237 (Simulation time: 0 hr 2 min 58 sec) 

Warmup complete CPU 0 instructions: 100000004 cycles: 68381962 (Simulation time: 0 hr 2 min 58 sec) 

Heartbeat CPU 0 instructions: 110000003 cycles: 96864427 heartbeat IPC: 0.351093 cumulative IPC: 0.351093 (Simulation time: 0 hr 3 min 33 sec) 
Heartbeat CPU 0 instructions: 120000000 cycles: 124663410 heartbeat IPC: 0.359725 cumulative IPC: 0.355357 (Simulation time: 0 hr 4 min 7 sec) 
Heartbeat CPU 0 instructions: 130000000 cycles: 149927511 heartbeat IPC: 0.395819 cumulative IPC: 0.367893 (Simulation time: 0 hr 4 min 41 sec) 
Heartbeat CPU 0 instructions: 140000000 cycles: 181221948 heartbeat IPC: 0.319546 cumulative IPC: 0.354484 (Simulation time: 0 hr 5 min 16 sec) 
Heartbeat CPU 0 instructions: 150000000 cycles: 212270402 heartbeat IPC: 0.322077 cumulative IPC: 0.347491 (Simulation time: 0 hr 5 min 50 sec) 
Heartbeat CPU 0 instructions: 160000000 cycles: 240100631 heartbeat IPC: 0.359322 cumulative IPC: 0.349409 (Simulation time: 0 hr 6 min 24 sec) 
Heartbeat CPU 0 instructions: 170000001 cycles: 268684885 heartbeat IPC: 0.349843 cumulative IPC: 0.349471 (Simulation time: 0 hr 6 min 59 sec) 
Heartbeat CPU 0 instructions: 180000000 cycles: 297764897 heartbeat IPC: 0.343879 cumulative IPC: 0.348762 (Simulation time: 0 hr 7 min 34 sec) 
Heartbeat CPU 0 instructions: 190000002 cycles: 326585685 heartbeat IPC: 0.346972 cumulative IPC: 0.348562 (Simulation time: 0 hr 8 min 9 sec) 
Heartbeat CPU 0 instructions: 200000000 cycles: 355644581 heartbeat IPC: 0.344129 cumulative IPC: 0.348114 (Simulation time: 0 hr 8 min 44 sec) 
Heartbeat CPU 0 instructions: 210000002 cycles: 384266913 heartbeat IPC: 0.349378 cumulative IPC: 0.348228 (Simulation time: 0 hr 9 min 19 sec) 
Heartbeat CPU 0 instructions: 220000000 cycles: 415290324 heartbeat IPC: 0.322337 cumulative IPC: 0.345913 (Simulation time: 0 hr 9 min 52 sec) 
Heartbeat CPU 0 instructions: 230000000 cycles: 443691789 heartbeat IPC: 0.352095 cumulative IPC: 0.34638 (Simulation time: 0 hr 10 min 26 sec) 
Heartbeat CPU 0 instructions: 240000000 cycles: 470140870 heartbeat IPC: 0.378085 cumulative IPC: 0.348468 (Simulation time: 0 hr 10 min 58 sec) 
Heartbeat CPU 0 instructions: 250000000 cycles: 500843733 heartbeat IPC: 0.325703 cumulative IPC: 0.346851 (Simulation time: 0 hr 11 min 34 sec) 
Heartbeat CPU 0 instructions: 260000000 cycles: 528264913 heartbeat IPC: 0.364682 cumulative IPC: 0.347915 (Simulation time: 0 hr 12 min 8 sec) 
Heartbeat CPU 0 instructions: 270000003 cycles: 557191106 heartbeat IPC: 0.345708 cumulative IPC: 0.347784 (Simulation time: 0 hr 12 min 44 sec) 
Heartbeat CPU 0 instructions: 280000000 cycles: 585969369 heartbeat IPC: 0.347484 cumulative IPC: 0.347767 (Simulation time: 0 hr 13 min 19 sec) 
Heartbeat CPU 0 instructions: 290000000 cycles: 615384551 heartbeat IPC: 0.339961 cumulative IPC: 0.347348 (Simulation time: 0 hr 13 min 55 sec) 
Heartbeat CPU 0 instructions: 300000000 cycles: 646841777 heartbeat IPC: 0.317892 cumulative IPC: 0.345746 (Simulation time: 0 hr 14 min 29 sec) 
Heartbeat CPU 0 instructions: 310000001 cycles: 677305428 heartbeat IPC: 0.32826 cumulative IPC: 0.344871 (Simulation time: 0 hr 15 min 4 sec) 
Heartbeat CPU 0 instructions: 320000000 cycles: 706815510 heartbeat IPC: 0.338867 cumulative IPC: 0.344593 (Simulation time: 0 hr 15 min 38 sec) 
Heartbeat CPU 0 instructions: 330000000 cycles: 736472619 heartbeat IPC: 0.337187 cumulative IPC: 0.344265 (Simulation time: 0 hr 16 min 12 sec) 
Heartbeat CPU 0 instructions: 340000000 cycles: 766869843 heartbeat IPC: 0.328977 cumulative IPC: 0.343599 (Simulation time: 0 hr 16 min 47 sec) 
Heartbeat CPU 0 instructions: 350000003 cycles: 794589962 heartbeat IPC: 0.360749 cumulative IPC: 0.344254 (Simulation time: 0 hr 17 min 20 sec) 
Heartbeat CPU 0 instructions: 360000000 cycles: 825728170 heartbeat IPC: 0.321149 cumulative IPC: 0.343304 (Simulation time: 0 hr 17 min 54 sec) 
Heartbeat CPU 0 instructions: 370000000 cycles: 856885732 heartbeat IPC: 0.320949 cumulative IPC: 0.342421 (Simulation time: 0 hr 18 min 28 sec) 
Heartbeat CPU 0 instructions: 380000000 cycles: 888461816 heartbeat IPC: 0.316695 cumulative IPC: 0.34143 (Simulation time: 0 hr 19 min 2 sec) 
Heartbeat CPU 0 instructions: 390000001 cycles: 918903483 heartbeat IPC: 0.328497 cumulative IPC: 0.340967 (Simulation time: 0 hr 19 min 35 sec) 
Heartbeat CPU 0 instructions: 400000000 cycles: 950314928 heartbeat IPC: 0.318355 cumulative IPC: 0.340162 (Simulation time: 0 hr 20 min 9 sec) 
Heartbeat CPU 0 instructions: 410000001 cycles: 980106854 heartbeat IPC: 0.335661 cumulative IPC: 0.340015 (Simulation time: 0 hr 20 min 42 sec) 
Heartbeat CPU 0 instructions: 420000000 cycles: 1009875506 heartbeat IPC: 0.335924 cumulative IPC: 0.339886 (Simulation time: 0 hr 21 min 16 sec) 
Heartbeat CPU 0 instructions: 430000002 cycles: 1040160300 heartbeat IPC: 0.330199 cumulative IPC: 0.339584 (Simulation time: 0 hr 21 min 49 sec) 
Heartbeat CPU 0 instructions: 440000000 cycles: 1072030088 heartbeat IPC: 0.313777 cumulative IPC: 0.338764 (Simulation time: 0 hr 22 min 23 sec) 
Heartbeat CPU 0 instructions: 450000002 cycles: 1103661873 heartbeat IPC: 0.316138 cumulative IPC: 0.338073 (Simulation time: 0 hr 22 min 57 sec) 
Heartbeat CPU 0 instructions: 460000000 cycles: 1133702517 heartbeat IPC: 0.332882 cumulative IPC: 0.337926 (Simulation time: 0 hr 23 min 31 sec) 
Heartbeat CPU 0 instructions: 470000000 cycles: 1163383912 heartbeat IPC: 0.336911 cumulative IPC: 0.337899 (Simulation time: 0 hr 24 min 4 sec) 
Heartbeat CPU 0 instructions: 480000000 cycles: 1193268583 heartbeat IPC: 0.33462 cumulative IPC: 0.337812 (Simulation time: 0 hr 24 min 38 sec) 
Heartbeat CPU 0 instructions: 490000000 cycles: 1222848921 heartbeat IPC: 0.338062 cumulative IPC: 0.337818 (Simulation time: 0 hr 25 min 11 sec) 
Heartbeat CPU 0 instructions: 500000000 cycles: 1253001335 heartbeat IPC: 0.331648 cumulative IPC: 0.337661 (Simulation time: 0 hr 25 min 44 sec) 
Heartbeat CPU 0 instructions: 510000000 cycles: 1287630403 heartbeat IPC: 0.288775 cumulative IPC: 0.336273 (Simulation time: 0 hr 26 min 21 sec) 
Heartbeat CPU 0 instructions: 520000000 cycles: 1316346926 heartbeat IPC: 0.348232 cumulative IPC: 0.336548 (Simulation time: 0 hr 26 min 55 sec) 
Heartbeat CPU 0 instructions: 530000001 cycles: 1347556219 heartbeat IPC: 0.320417 cumulative IPC: 0.336154 (Simulation time: 0 hr 27 min 30 sec) 
Heartbeat CPU 0 instructions: 540000000 cycles: 1376816647 heartbeat IPC: 0.341758 cumulative IPC: 0.33628 (Simulation time: 0 hr 28 min 4 sec) 
Heartbeat CPU 0 instructions: 550000001 cycles: 1406543121 heartbeat IPC: 0.336401 cumulative IPC: 0.336282 (Simulation time: 0 hr 28 min 40 sec) 
Heartbeat CPU 0 instructions: 560000000 cycles: 1432356172 heartbeat IPC: 0.387401 cumulative IPC: 0.33725 (Simulation time: 0 hr 29 min 13 sec) 
Heartbeat CPU 0 instructions: 570000000 cycles: 1463110416 heartbeat IPC: 0.325158 cumulative IPC: 0.336983 (Simulation time: 0 hr 29 min 48 sec) 
Heartbeat CPU 0 instructions: 580000000 cycles: 1491965706 heartbeat IPC: 0.346557 cumulative IPC: 0.337177 (Simulation time: 0 hr 30 min 23 sec) 
Heartbeat CPU 0 instructions: 590000001 cycles: 1517087486 heartbeat IPC: 0.398061 cumulative IPC: 0.338233 (Simulation time: 0 hr 30 min 55 sec) 
Heartbeat CPU 0 instructions: 600000000 cycles: 1543745851 heartbeat IPC: 0.375117 cumulative IPC: 0.338899 (Simulation time: 0 hr 31 min 27 sec) 
Finished CPU 0 instructions: 500000000 cycles: 1475363911 cumulative IPC: 0.338899 (Simulation time: 0 hr 31 min 27 sec) 

CPU 0 Branch Prediction Accuracy: 86.4311% MPKI: 26.2662
Number of Branches: 96788573 Number of Mispredictions: 13133102
Number of LOAD Instructions: 164682285
Number of LOAD Instructions (ROI): 164682285
Number of STORE Instructions: 78194750
Number of STORE Instructions (ROI): 78194750
Total Destination Memory Operands: 83268534
Total Destination Memory Operands (ROI): 83268534
Total Source Memory Operands: 164712438
Total Source Memory Operands (ROI): 164712438
Number of DEPENDED LOADS: 7049130
Number of DEPENDED LOADS (ROI): 7049130
Number of SQ_ADDED: 83268522
Number of SQ_ADDED (ROI): 83268522
Number of LQ_ADDED: 236795373
Number of LQ_ADDED (ROI): 236795373
Number of Instructions read from trace: 600000066

ChampSim completed all CPUs

Region of Interest Statistics

CPU 0 cumulative IPC: 0.338899 instructions: 500000000 cycles: 1475363911
ITLB TOTAL     ACCESS:  100537488  HIT:  100333042  MISS:     204446
ITLB LOAD      ACCESS:  100537488  HIT:  100333042  MISS:     204446
ITLB RFO       ACCESS:          0  HIT:          0  MISS:          0
ITLB PREFETCH  ACCESS:          0  HIT:          0  MISS:          0
ITLB WRITEBACK ACCESS:          0  HIT:          0  MISS:          0
ITLB PREFETCH  REQUESTED:          0  ISSUED:          0  USEFUL:          0  USELESS:          0
ITLB TOTAL MSHR MERGED:     172421
ITLB LOAD MSHR MERGED:     172421
ITLB RFO MSHR MERGED:          0
ITLB PREFETCH MSHR MERGED:          0
ITLB WRITEBACK MSHR MERGED:          0
ITLB TOTAL ACCESSES:  100709909 HITS:  100333042 MISSES:     376867
ITLB LOAD ACCESSES:  100709909 HITS:  100333042 MISSES:     376867
ITLB RFO ACCESSES:          0 HITS:          0 MISSES:          0
ITLB PREFETCH ACCESSES:          0 HITS:          0 MISSES:          0
ITLB WRITEBACK ACCESSES:          0 HITS:          0 MISSES:          0
ITLB RQ ACCESS:  500000057
ITLB RQ TO_CACHE:  100709909
ITLB RQ MERGED:  399290148
ITLB RQ FORWARD:          0
ITLB WQ ACCESS:          0
ITLB WQ TO_CACHE:          0
ITLB WQ MERGED:          0
ITLB WQ FORWARD:          0
DTLB TOTAL     ACCESS:  165361981  HIT:  164727624  MISS:     634357
DTLB LOAD      ACCESS:  106310093  HIT:  105740200  MISS:     569893
DTLB RFO       ACCESS:   59051888  HIT:   58987424  MISS:      64464
DTLB PREFETCH  ACCESS:          0  HIT:          0  MISS:          0
DTLB WRITEBACK ACCESS:          0  HIT:          0  MISS:          0
DTLB PREFETCH  REQUESTED:          0  ISSUED:          0  USEFUL:          0  USELESS:          0
DTLB TOTAL MSHR MERGED:      99452
DTLB LOAD MSHR MERGED:      59137
DTLB RFO MSHR MERGED:      40315
DTLB PREFETCH MSHR MERGED:          0
DTLB WRITEBACK MSHR MERGED:          0
DTLB TOTAL ACCESSES:  165461433 HITS:  164727624 MISSES:     733809
DTLB LOAD ACCESSES:  106369230 HITS:  105740200 MISSES:     629030
DTLB RFO ACCESSES:   59092203 HITS:   58987424 MISSES:     104779
DTLB PREFETCH ACCESSES:          0 HITS:          0 MISSES:          0
DTLB WRITEBACK ACCESSES:          0 HITS:          0 MISSES:          0
DTLB RQ ACCESS:  200321713
DTLB RQ TO_CACHE:  165461433
DTLB RQ MERGED:   34860280
DTLB RQ FORWARD:          0
DTLB WQ ACCESS:          0
DTLB WQ TO_CACHE:          0
DTLB WQ MERGED:          0
DTLB WQ FORWARD:          0
L1D TOTAL     ACCESS:  281876110  HIT:  273966673  MISS:    7909437
L1D LOAD      ACCESS:  110440008  HIT:  107158666  MISS:    3281342
L1D RFO       ACCESS:   67136589  HIT:   66246663  MISS:     889926
L1D PREFETCH  ACCESS:  104299513  HIT:  100561344  MISS:    3738169
L1D WRITEBACK ACCESS:          0  HIT:          0  MISS:          0
L1D PREFETCH  REQUESTED:  110841267  ISSUED:  109141646  USEFUL:    1658730  USELESS:    2079403
L1D TOTAL MSHR MERGED:    2883130
L1D LOAD MSHR MERGED:     502556
L1D RFO MSHR MERGED:    1848731
L1D PREFETCH MSHR MERGED:     531843
L1D WRITEBACK MSHR MERGED:          0
L1D TOTAL ACCESSES:  284786558 HITS:  273993991 MISSES:   10792567
L1D LOAD ACCESSES:  110842663 HITS:  107160062 MISSES:    3682601
L1D RFO ACCESSES:   68974083 HITS:   66246663 MISSES:    2727420
L1D PREFETCH ACCESSES:  104969812 HITS:  100587266 MISSES:    4382546
L1D WRITEBACK ACCESSES:          0 HITS:          0 MISSES:          0
L1D RQ ACCESS:  130769110
L1D RQ TO_CACHE:  110841270
L1D RQ MERGED:   19926444
L1D RQ FORWARD:          0
L1D WQ ACCESS:   69552603
L1D WQ TO_CACHE:   68974084
L1D WQ MERGED:     578519
L1D WQ FORWARD:      27318
L1I TOTAL     ACCESS:  126581946  HIT:  122343417  MISS:    4238529
L1I LOAD      ACCESS:  126581946  HIT:  122343417  MISS:    4238529
L1I RFO       ACCESS:          0  HIT:          0  MISS:          0
L1I PREFETCH  ACCESS:          0  HIT:          0  MISS:          0
L1I WRITEBACK ACCESS:          0  HIT:          0  MISS:          0
L1I PREFETCH  REQUESTED:          0  ISSUED:          0  USEFUL:          0  USELESS:          0
L1I TOTAL MSHR MERGED:    1837569
L1I LOAD MSHR MERGED:    1837569
L1I RFO MSHR MERGED:          0
L1I PREFETCH MSHR MERGED:          0
L1I WRITEBACK MSHR MERGED:          0
L1I TOTAL ACCESSES:  128419518 HITS:  122343417 MISSES:    6076101
L1I LOAD ACCESSES:  128419518 HITS:  122343417 MISSES:    6076101
L1I RFO ACCESSES:          0 HITS:          0 MISSES:          0
L1I PREFETCH ACCESSES:          0 HITS:          0 MISSES:          0
L1I WRITEBACK ACCESSES:          0 HITS:          0 MISSES:          0
L1I RQ ACCESS:  500000057
L1I RQ TO_CACHE:  128419518
L1I RQ MERGED:  371580539
L1I RQ FORWARD:          0
L1I WQ ACCESS:          0
L1I WQ TO_CACHE:          0
L1I WQ MERGED:          0
L1I WQ FORWARD:          0
L2C TOTAL     ACCESS:   14905577  HIT:   11159113  MISS:    3746464
L2C LOAD      ACCESS:    7418366  HIT:    5098724  MISS:    2319642
L2C RFO       ACCESS:     878594  HIT:     409915  MISS:     468679
L2C PREFETCH  ACCESS:    4569356  HIT:    3628473  MISS:     940883
L2C WRITEBACK ACCESS:    2039261  HIT:    2022001  MISS:      17260
L2C PREFETCH  REQUESTED:     842763  ISSUED:     842763  USEFUL:     203584  USELESS:     737006
L2C TOTAL MSHR MERGED:       6801
L2C LOAD MSHR MERGED:        658
L2C RFO MSHR MERGED:          0
L2C PREFETCH MSHR MERGED:       6143
L2C WRITEBACK MSHR MERGED:          0
L2C TOTAL ACCESSES:   14913238 HITS:   11159559 MISSES:    3753679
L2C LOAD ACCESSES:    7418574 HITS:    5098932 MISSES:    2319642
L2C RFO ACCESSES:     878689 HITS:     410010 MISSES:     468679
L2C PREFETCH ACCESSES:    4576714 HITS:    3628616 MISSES:     948098
L2C WRITEBACK ACCESSES:    2039261 HITS:    2022001 MISSES:      17260
L2C RQ ACCESS:    8297266
L2C RQ TO_CACHE:    8296963
L2C RQ MERGED:          0
L2C RQ FORWARD:          0
L2C WQ ACCESS:    2039261
L2C WQ TO_CACHE:    2039261
L2C WQ MERGED:          0
L2C WQ FORWARD:        446
LLC TOTAL     ACCESS:    4609771  HIT:    3203317  MISS:    1406454
LLC LOAD      ACCESS:    2318969  HIT:    1430114  MISS:     888855
LLC RFO       ACCESS:     468672  HIT:     421842  MISS:      46830
LLC PREFETCH  ACCESS:     941838  HIT:     543353  MISS:     398485
LLC WRITEBACK ACCESS:     880292  HIT:     808008  MISS:      72284
LLC PREFETCH  REQUESTED:          0  ISSUED:          0  USEFUL:      11877  USELESS:     385538
LLC TOTAL MSHR MERGED:         98
LLC LOAD MSHR MERGED:         29
LLC RFO MSHR MERGED:          0
LLC PREFETCH MSHR MERGED:         69
LLC WRITEBACK MSHR MERGED:          0
LLC TOTAL ACCESSES:    4609902 HITS:    3203350 MISSES:    1406552
LLC LOAD ACCESSES:    2318984 HITS:    1430129 MISSES:     888855
LLC RFO ACCESSES:     468679 HITS:     421849 MISSES:      46830
LLC PREFETCH ACCESSES:     941947 HITS:     543364 MISSES:     398583
LLC WRITEBACK ACCESSES:     880292 HITS:     808008 MISSES:      72284
LLC 0 RQ ACCESS:    2787663
LLC 0 RQ TO_CACHE:    2787641
LLC 0 RQ MERGED:          0
LLC 0 RQ FORWARD:          0
LLC WQ ACCESS:     880292
LLC WQ TO_CACHE:     880292
LLC WQ MERGED:          0
LLC WQ FORWARD:         33
Major fault: 0 Minor fault: 12862
CPU 0 L1D next line prefetcher final stats
CPU 0 L2C PC-based stride prefetcher final stats
All Misses: 1571136
All Hits: 3855641
SD Algo Stats - Switches: 11 SRR-Repls: 621091 BRR-Repls: 325813

DRAM Statistics
 CHANNEL 0
 RQ ROW_BUFFER_HIT:     378644  ROW_BUFFER_MISS:     953870
 DBUS_CONGESTED:     441240
 WQ ROW_BUFFER_HIT:       4557  ROW_BUFFER_MISS:     140973  FULL:          0

 AVG_CONGESTED_CYCLE: 13
LOADS RETIRED: 136549171
INSTR RETIRED: 500000000
