
*** ChampSim Multicore Out-of-Order Simulator ***

Warmup Instructions: 100000000
Simulation Instructions: 500000000
Number of CPUs: 1
LLC sets: 2048
LLC ways: 16
Clean RRIP Policies: 2213230322132303 Dirty RRIP Policies: 1203130312031303 PSEL Width: 10 Track Set: 4294967295 PSEL Mask: 1 Demote Mask: 3040100030401000DS Algo: 0Window size: 0
Off-chip DRAM Size: 4096 MB Channels: 1 Width: 64-bit Data Rate: 1600 MT/s

CPU 0 runs /mnt/beegfs/iconst01/spec2017/Lbm.trace.gz
NOT SORTED
TRACE STRING: /mnt/beegfs/iconst01/spec2017/Lbm.trace.gz
SORTED
TRACE STRING: /mnt/beegfs/iconst01/spec2017/Lbm.trace.gz
INITIAL
TRACE STRING: /mnt/beegfs/iconst01/spec2017/Lbm.trace.gz

champsim_seed used: 283

CPU 0 L1D next line prefetcher
CPU 0 L2C IP-based stride prefetcher
Initialize DRRIP state
Assign rand_sets[0]: 454  LLC: 2048
rand_sets[0]: 454
Assign rand_sets[1]: 1662  LLC: 2048
rand_sets[1]: 1662
Assign rand_sets[2]: 1921  LLC: 2048
rand_sets[2]: 1921
Assign rand_sets[3]: 1131  LLC: 2048
rand_sets[3]: 1131
Assign rand_sets[4]: 331  LLC: 2048
rand_sets[4]: 331
Assign rand_sets[5]: 1531  LLC: 2048
rand_sets[5]: 1531
Assign rand_sets[6]: 482  LLC: 2048
rand_sets[6]: 482
Assign rand_sets[7]: 1275  LLC: 2048
rand_sets[7]: 1275
Assign rand_sets[8]: 1876  LLC: 2048
rand_sets[8]: 1876
Assign rand_sets[9]: 2038  LLC: 2048
rand_sets[9]: 2038
Assign rand_sets[10]: 701  LLC: 2048
rand_sets[10]: 701
Assign rand_sets[11]: 479  LLC: 2048
rand_sets[11]: 479
Assign rand_sets[12]: 892  LLC: 2048
rand_sets[12]: 892
Assign rand_sets[13]: 1820  LLC: 2048
rand_sets[13]: 1820
Assign rand_sets[14]: 1505  LLC: 2048
rand_sets[14]: 1505
Assign rand_sets[15]: 1159  LLC: 2048
rand_sets[15]: 1159
Assign rand_sets[16]: 513  LLC: 2048
rand_sets[16]: 513
Assign rand_sets[17]: 703  LLC: 2048
rand_sets[17]: 703
Assign rand_sets[18]: 561  LLC: 2048
rand_sets[18]: 561
Assign rand_sets[19]: 990  LLC: 2048
rand_sets[19]: 990
Assign rand_sets[20]: 342  LLC: 2048
rand_sets[20]: 342
Assign rand_sets[21]: 882  LLC: 2048
rand_sets[21]: 882
Assign rand_sets[22]: 15  LLC: 2048
rand_sets[22]: 15
Assign rand_sets[23]: 71  LLC: 2048
rand_sets[23]: 71
Assign rand_sets[24]: 1127  LLC: 2048
rand_sets[24]: 1127
Assign rand_sets[25]: 1382  LLC: 2048
rand_sets[25]: 1382
Assign rand_sets[26]: 647  LLC: 2048
rand_sets[26]: 647
Assign rand_sets[27]: 857  LLC: 2048
rand_sets[27]: 857
Assign rand_sets[28]: 1450  LLC: 2048
rand_sets[28]: 1450
Assign rand_sets[29]: 1160  LLC: 2048
rand_sets[29]: 1160
Assign rand_sets[30]: 1852  LLC: 2048
rand_sets[30]: 1852
Assign rand_sets[31]: 1881  LLC: 2048
rand_sets[31]: 1881
Assign rand_sets[32]: 1770  LLC: 2048
rand_sets[32]: 1770
Assign rand_sets[33]: 1622  LLC: 2048
rand_sets[33]: 1622
Assign rand_sets[34]: 275  LLC: 2048
rand_sets[34]: 275
Assign rand_sets[35]: 635  LLC: 2048
rand_sets[35]: 635
Assign rand_sets[36]: 466  LLC: 2048
rand_sets[36]: 466
Assign rand_sets[37]: 1413  LLC: 2048
rand_sets[37]: 1413
Assign rand_sets[38]: 417  LLC: 2048
rand_sets[38]: 417
Assign rand_sets[39]: 472  LLC: 2048
rand_sets[39]: 472
Assign rand_sets[40]: 1340  LLC: 2048
rand_sets[40]: 1340
Assign rand_sets[41]: 852  LLC: 2048
rand_sets[41]: 852
Assign rand_sets[42]: 1365  LLC: 2048
rand_sets[42]: 1365
Assign rand_sets[43]: 47  LLC: 2048
rand_sets[43]: 47
Assign rand_sets[44]: 823  LLC: 2048
rand_sets[44]: 823
Assign rand_sets[45]: 686  LLC: 2048
rand_sets[45]: 686
Assign rand_sets[46]: 1637  LLC: 2048
rand_sets[46]: 1637
Assign rand_sets[47]: 1115  LLC: 2048
rand_sets[47]: 1115
Assign rand_sets[48]: 986  LLC: 2048
rand_sets[48]: 986
Assign rand_sets[49]: 258  LLC: 2048
rand_sets[49]: 258
Assign rand_sets[50]: 633  LLC: 2048
rand_sets[50]: 633
Assign rand_sets[51]: 920  LLC: 2048
rand_sets[51]: 920
Assign rand_sets[52]: 204  LLC: 2048
rand_sets[52]: 204
Assign rand_sets[53]: 227  LLC: 2048
rand_sets[53]: 227
Assign rand_sets[54]: 1818  LLC: 2048
rand_sets[54]: 1818
Assign rand_sets[55]: 886  LLC: 2048
rand_sets[55]: 886
Assign rand_sets[56]: 1422  LLC: 2048
rand_sets[56]: 1422
Assign rand_sets[57]: 607  LLC: 2048
rand_sets[57]: 607
Assign rand_sets[58]: 217  LLC: 2048
rand_sets[58]: 217
Assign rand_sets[59]: 1945  LLC: 2048
rand_sets[59]: 1945
Assign rand_sets[60]: 143  LLC: 2048
rand_sets[60]: 143
Assign rand_sets[61]: 1311  LLC: 2048
rand_sets[61]: 1311
Assign rand_sets[62]: 319  LLC: 2048
rand_sets[62]: 319
Assign rand_sets[63]: 1846  LLC: 2048
rand_sets[63]: 1846
 CLEAN-RRIP-POLICY-1: 2-2-1-3-2-3-0-3- CLEAN-RRIP-POLICY-2: 2-2-1-3-2-3-0-3-
 DIRTY-RRIP-POLICY-1: 1-2-0-3-1-3-0-3- DIRTY-RRIP-POLICY-2: 1-2-0-3-1-3-0-3-
 PSEL width: 10
Heartbeat CPU 0 instructions: 10000000 cycles: 4321559 heartbeat IPC: 2.31398 cumulative IPC: 2.31398 (Simulation time: 0 hr 0 min 18 sec) 
Heartbeat CPU 0 instructions: 20000000 cycles: 8643572 heartbeat IPC: 2.31374 cumulative IPC: 2.31386 (Simulation time: 0 hr 0 min 36 sec) 
Heartbeat CPU 0 instructions: 30000000 cycles: 12965364 heartbeat IPC: 2.31385 cumulative IPC: 2.31386 (Simulation time: 0 hr 0 min 54 sec) 
Heartbeat CPU 0 instructions: 40000000 cycles: 17291096 heartbeat IPC: 2.31175 cumulative IPC: 2.31333 (Simulation time: 0 hr 1 min 12 sec) 
Heartbeat CPU 0 instructions: 50000000 cycles: 21612966 heartbeat IPC: 2.31381 cumulative IPC: 2.31343 (Simulation time: 0 hr 1 min 29 sec) 
Heartbeat CPU 0 instructions: 60000000 cycles: 25934838 heartbeat IPC: 2.31381 cumulative IPC: 2.31349 (Simulation time: 0 hr 1 min 47 sec) 
Heartbeat CPU 0 instructions: 70000000 cycles: 30256364 heartbeat IPC: 2.314 cumulative IPC: 2.31356 (Simulation time: 0 hr 2 min 5 sec) 
Heartbeat CPU 0 instructions: 80000000 cycles: 34582563 heartbeat IPC: 2.3115 cumulative IPC: 2.3133 (Simulation time: 0 hr 2 min 23 sec) 
Heartbeat CPU 0 instructions: 90000003 cycles: 38904662 heartbeat IPC: 2.31369 cumulative IPC: 2.31335 (Simulation time: 0 hr 2 min 41 sec) 
Heartbeat CPU 0 instructions: 100000000 cycles: 43226144 heartbeat IPC: 2.31402 cumulative IPC: 2.31341 (Simulation time: 0 hr 2 min 59 sec) 

Warmup complete CPU 0 instructions: 100000001 cycles: 43226145 (Simulation time: 0 hr 2 min 59 sec) 

Heartbeat CPU 0 instructions: 110000000 cycles: 57608603 heartbeat IPC: 0.695291 cumulative IPC: 0.695291 (Simulation time: 0 hr 3 min 24 sec) 
Heartbeat CPU 0 instructions: 120000000 cycles: 71843833 heartbeat IPC: 0.702483 cumulative IPC: 0.698868 (Simulation time: 0 hr 3 min 49 sec) 
Heartbeat CPU 0 instructions: 130000000 cycles: 85662639 heartbeat IPC: 0.723652 cumulative IPC: 0.706939 (Simulation time: 0 hr 4 min 14 sec) 
Heartbeat CPU 0 instructions: 140000000 cycles: 99654084 heartbeat IPC: 0.714722 cumulative IPC: 0.708869 (Simulation time: 0 hr 4 min 39 sec) 
Heartbeat CPU 0 instructions: 150000003 cycles: 112765251 heartbeat IPC: 0.762709 cumulative IPC: 0.71902 (Simulation time: 0 hr 5 min 4 sec) 
Heartbeat CPU 0 instructions: 160000000 cycles: 126409383 heartbeat IPC: 0.732916 cumulative IPC: 0.721299 (Simulation time: 0 hr 5 min 29 sec) 
Heartbeat CPU 0 instructions: 170000002 cycles: 140750784 heartbeat IPC: 0.697282 cumulative IPC: 0.717767 (Simulation time: 0 hr 5 min 54 sec) 
Heartbeat CPU 0 instructions: 180000000 cycles: 154425539 heartbeat IPC: 0.731274 cumulative IPC: 0.719428 (Simulation time: 0 hr 6 min 19 sec) 
Heartbeat CPU 0 instructions: 190000003 cycles: 170815084 heartbeat IPC: 0.610145 cumulative IPC: 0.70539 (Simulation time: 0 hr 6 min 47 sec) 
Heartbeat CPU 0 instructions: 200000000 cycles: 190825550 heartbeat IPC: 0.499738 cumulative IPC: 0.677509 (Simulation time: 0 hr 7 min 18 sec) 
Heartbeat CPU 0 instructions: 210000001 cycles: 204978332 heartbeat IPC: 0.706575 cumulative IPC: 0.680053 (Simulation time: 0 hr 7 min 43 sec) 
Heartbeat CPU 0 instructions: 220000000 cycles: 218783817 heartbeat IPC: 0.72435 cumulative IPC: 0.683536 (Simulation time: 0 hr 8 min 8 sec) 
Heartbeat CPU 0 instructions: 230000001 cycles: 232580261 heartbeat IPC: 0.724825 cumulative IPC: 0.686544 (Simulation time: 0 hr 8 min 33 sec) 
Heartbeat CPU 0 instructions: 240000000 cycles: 246607982 heartbeat IPC: 0.712874 cumulative IPC: 0.68836 (Simulation time: 0 hr 8 min 58 sec) 
Heartbeat CPU 0 instructions: 250000000 cycles: 261130368 heartbeat IPC: 0.688592 cumulative IPC: 0.688376 (Simulation time: 0 hr 9 min 24 sec) 
Heartbeat CPU 0 instructions: 260000000 cycles: 275944126 heartbeat IPC: 0.675048 cumulative IPC: 0.687527 (Simulation time: 0 hr 9 min 50 sec) 
Heartbeat CPU 0 instructions: 270000002 cycles: 290749670 heartbeat IPC: 0.675423 cumulative IPC: 0.686803 (Simulation time: 0 hr 10 min 16 sec) 
Heartbeat CPU 0 instructions: 280000000 cycles: 305360102 heartbeat IPC: 0.684442 cumulative IPC: 0.686672 (Simulation time: 0 hr 10 min 42 sec) 
Heartbeat CPU 0 instructions: 290000003 cycles: 320452803 heartbeat IPC: 0.662572 cumulative IPC: 0.68536 (Simulation time: 0 hr 11 min 8 sec) 
Heartbeat CPU 0 instructions: 300000000 cycles: 335619922 heartbeat IPC: 0.659321 cumulative IPC: 0.684009 (Simulation time: 0 hr 11 min 34 sec) 
Heartbeat CPU 0 instructions: 310000000 cycles: 351193449 heartbeat IPC: 0.642115 cumulative IPC: 0.681891 (Simulation time: 0 hr 12 min 0 sec) 
Heartbeat CPU 0 instructions: 320000000 cycles: 366716481 heartbeat IPC: 0.644204 cumulative IPC: 0.680082 (Simulation time: 0 hr 12 min 26 sec) 
Heartbeat CPU 0 instructions: 330000002 cycles: 381423197 heartbeat IPC: 0.679962 cumulative IPC: 0.680077 (Simulation time: 0 hr 12 min 52 sec) 
Heartbeat CPU 0 instructions: 340000000 cycles: 397174433 heartbeat IPC: 0.634871 cumulative IPC: 0.678065 (Simulation time: 0 hr 13 min 18 sec) 
Heartbeat CPU 0 instructions: 350000001 cycles: 411737075 heartbeat IPC: 0.686689 cumulative IPC: 0.678406 (Simulation time: 0 hr 13 min 43 sec) 
Heartbeat CPU 0 instructions: 360000000 cycles: 426753014 heartbeat IPC: 0.665959 cumulative IPC: 0.677919 (Simulation time: 0 hr 14 min 9 sec) 
Heartbeat CPU 0 instructions: 370000000 cycles: 441349343 heartbeat IPC: 0.685104 cumulative IPC: 0.678182 (Simulation time: 0 hr 14 min 34 sec) 
Heartbeat CPU 0 instructions: 380000000 cycles: 456065680 heartbeat IPC: 0.679517 cumulative IPC: 0.67823 (Simulation time: 0 hr 14 min 59 sec) 
Heartbeat CPU 0 instructions: 390000000 cycles: 469992179 heartbeat IPC: 0.718056 cumulative IPC: 0.679529 (Simulation time: 0 hr 15 min 24 sec) 
Heartbeat CPU 0 instructions: 400000000 cycles: 483759880 heartbeat IPC: 0.726338 cumulative IPC: 0.680992 (Simulation time: 0 hr 15 min 48 sec) 
Heartbeat CPU 0 instructions: 410000000 cycles: 497673823 heartbeat IPC: 0.718704 cumulative IPC: 0.682147 (Simulation time: 0 hr 16 min 13 sec) 
Heartbeat CPU 0 instructions: 420000000 cycles: 511475105 heartbeat IPC: 0.72457 cumulative IPC: 0.683397 (Simulation time: 0 hr 16 min 37 sec) 
Heartbeat CPU 0 instructions: 430000002 cycles: 524931899 heartbeat IPC: 0.743119 cumulative IPC: 0.685066 (Simulation time: 0 hr 17 min 1 sec) 
Heartbeat CPU 0 instructions: 440000000 cycles: 538605015 heartbeat IPC: 0.731362 cumulative IPC: 0.686343 (Simulation time: 0 hr 17 min 25 sec) 
Heartbeat CPU 0 instructions: 450000000 cycles: 551778276 heartbeat IPC: 0.759113 cumulative IPC: 0.688228 (Simulation time: 0 hr 17 min 49 sec) 
Heartbeat CPU 0 instructions: 460000000 cycles: 566305922 heartbeat IPC: 0.688343 cumulative IPC: 0.688232 (Simulation time: 0 hr 18 min 14 sec) 
Heartbeat CPU 0 instructions: 470000000 cycles: 580389075 heartbeat IPC: 0.710068 cumulative IPC: 0.688804 (Simulation time: 0 hr 18 min 38 sec) 
Heartbeat CPU 0 instructions: 480000000 cycles: 594257940 heartbeat IPC: 0.72104 cumulative IPC: 0.689615 (Simulation time: 0 hr 19 min 3 sec) 
Heartbeat CPU 0 instructions: 490000001 cycles: 608529147 heartbeat IPC: 0.700712 cumulative IPC: 0.689896 (Simulation time: 0 hr 19 min 27 sec) 
Heartbeat CPU 0 instructions: 500000000 cycles: 622735332 heartbeat IPC: 0.703919 cumulative IPC: 0.690239 (Simulation time: 0 hr 19 min 52 sec) 
Heartbeat CPU 0 instructions: 510000002 cycles: 636521523 heartbeat IPC: 0.725364 cumulative IPC: 0.691055 (Simulation time: 0 hr 20 min 16 sec) 
Heartbeat CPU 0 instructions: 520000000 cycles: 650499587 heartbeat IPC: 0.715407 cumulative IPC: 0.691616 (Simulation time: 0 hr 20 min 40 sec) 
Heartbeat CPU 0 instructions: 530000001 cycles: 664186334 heartbeat IPC: 0.730634 cumulative IPC: 0.692476 (Simulation time: 0 hr 21 min 4 sec) 
Heartbeat CPU 0 instructions: 540000000 cycles: 678568835 heartbeat IPC: 0.695289 cumulative IPC: 0.69254 (Simulation time: 0 hr 21 min 29 sec) 
Heartbeat CPU 0 instructions: 550000003 cycles: 692078669 heartbeat IPC: 0.740202 cumulative IPC: 0.693532 (Simulation time: 0 hr 21 min 53 sec) 
Heartbeat CPU 0 instructions: 560000000 cycles: 706235022 heartbeat IPC: 0.706396 cumulative IPC: 0.693807 (Simulation time: 0 hr 22 min 17 sec) 
Heartbeat CPU 0 instructions: 570000001 cycles: 720285568 heartbeat IPC: 0.711716 cumulative IPC: 0.694178 (Simulation time: 0 hr 22 min 42 sec) 
Heartbeat CPU 0 instructions: 580000000 cycles: 733374835 heartbeat IPC: 0.763985 cumulative IPC: 0.695502 (Simulation time: 0 hr 23 min 6 sec) 
Heartbeat CPU 0 instructions: 590000003 cycles: 746195358 heartbeat IPC: 0.78 cumulative IPC: 0.697043 (Simulation time: 0 hr 23 min 29 sec) 
Heartbeat CPU 0 instructions: 600000000 cycles: 760074847 heartbeat IPC: 0.720487 cumulative IPC: 0.697497 (Simulation time: 0 hr 23 min 53 sec) 
Finished CPU 0 instructions: 500000000 cycles: 716848710 cumulative IPC: 0.697497 (Simulation time: 0 hr 23 min 53 sec) 

CPU 0 Branch Prediction Accuracy: 99.5915% MPKI: 0.037126
Number of Branches: 4544106 Number of Mispredictions: 18563
Number of LOAD Instructions: 149787067
Number of LOAD Instructions (ROI): 149787067
Number of STORE Instructions: 77239062
Number of STORE Instructions (ROI): 77239062
Total Destination Memory Operands: 77239062
Total Destination Memory Operands (ROI): 77239062
Total Source Memory Operands: 149787067
Total Source Memory Operands (ROI): 149787067
Number of DEPENDED LOADS: 19246972
Number of DEPENDED LOADS (ROI): 19246972
Number of SQ_ADDED: 77239036
Number of SQ_ADDED (ROI): 77239036
Number of LQ_ADDED: 149787020
Number of LQ_ADDED (ROI): 149787020
Number of Instructions read from trace: 600000256

ChampSim completed all CPUs

Region of Interest Statistics

CPU 0 cumulative IPC: 0.697497 instructions: 500000000 cycles: 716848710
ITLB TOTAL     ACCESS:   86464779  HIT:   86464778  MISS:          1
ITLB LOAD      ACCESS:   86464779  HIT:   86464778  MISS:          1
ITLB RFO       ACCESS:          0  HIT:          0  MISS:          0
ITLB PREFETCH  ACCESS:          0  HIT:          0  MISS:          0
ITLB WRITEBACK ACCESS:          0  HIT:          0  MISS:          0
ITLB PREFETCH  REQUESTED:          0  ISSUED:          0  USEFUL:          0  USELESS:          0
ITLB TOTAL MSHR MERGED:          1
ITLB LOAD MSHR MERGED:          1
ITLB RFO MSHR MERGED:          0
ITLB PREFETCH MSHR MERGED:          0
ITLB WRITEBACK MSHR MERGED:          0
ITLB TOTAL ACCESSES:   86464780 HITS:   86464778 MISSES:          2
ITLB LOAD ACCESSES:   86464780 HITS:   86464778 MISSES:          2
ITLB RFO ACCESSES:          0 HITS:          0 MISSES:          0
ITLB PREFETCH ACCESSES:          0 HITS:          0 MISSES:          0
ITLB WRITEBACK ACCESSES:          0 HITS:          0 MISSES:          0
ITLB RQ ACCESS:  500000002
ITLB RQ TO_CACHE:   86464780
ITLB RQ MERGED:  413535222
ITLB RQ FORWARD:          0
ITLB WQ ACCESS:          0
ITLB WQ TO_CACHE:          0
ITLB WQ MERGED:          0
ITLB WQ FORWARD:          0
DTLB TOTAL     ACCESS:   98110549  HIT:   97925288  MISS:     185261
DTLB LOAD      ACCESS:   55041794  HIT:   54995483  MISS:      46311
DTLB RFO       ACCESS:   43068755  HIT:   42929805  MISS:     138950
DTLB PREFETCH  ACCESS:          0  HIT:          0  MISS:          0
DTLB WRITEBACK ACCESS:          0  HIT:          0  MISS:          0
DTLB PREFETCH  REQUESTED:          0  ISSUED:          0  USEFUL:          0  USELESS:          0
DTLB TOTAL MSHR MERGED:      83511
DTLB LOAD MSHR MERGED:      83506
DTLB RFO MSHR MERGED:          5
DTLB PREFETCH MSHR MERGED:          0
DTLB WRITEBACK MSHR MERGED:          0
DTLB TOTAL ACCESSES:   98194060 HITS:   97925288 MISSES:     268772
DTLB LOAD ACCESSES:   55125300 HITS:   54995483 MISSES:     129817
DTLB RFO ACCESSES:   43068760 HITS:   42929805 MISSES:     138955
DTLB PREFETCH ACCESSES:          0 HITS:          0 MISSES:          0
DTLB WRITEBACK ACCESSES:          0 HITS:          0 MISSES:          0
DTLB RQ ACCESS:  173635555
DTLB RQ TO_CACHE:   98194060
DTLB RQ MERGED:   75441495
DTLB RQ FORWARD:          0
DTLB WQ ACCESS:          0
DTLB WQ TO_CACHE:          0
DTLB WQ MERGED:          0
DTLB WQ FORWARD:          0
L1D TOTAL     ACCESS:  164617108  HIT:  145044542  MISS:   19572566
L1D LOAD      ACCESS:   60579389  HIT:   58726177  MISS:    1853212
L1D RFO       ACCESS:   64514502  HIT:   47912367  MISS:   16602135
L1D PREFETCH  ACCESS:   39523217  HIT:   38405998  MISS:    1117219
L1D WRITEBACK ACCESS:          0  HIT:          0  MISS:          0
L1D PREFETCH  REQUESTED:   61780963  ISSUED:   61488338  USEFUL:    1115299  USELESS:       1921
L1D TOTAL MSHR MERGED:    3549287
L1D LOAD MSHR MERGED:    1274032
L1D RFO MSHR MERGED:      11784
L1D PREFETCH MSHR MERGED:    2263471
L1D WRITEBACK MSHR MERGED:          0
L1D TOTAL ACCESSES:  168718833 HITS:  145596980 MISSES:   23121853
L1D LOAD ACCESSES:   62026245 HITS:   58971459 MISSES:    3054786
L1D RFO ACCESSES:   64526259 HITS:   47912367 MISSES:   16613892
L1D PREFETCH ACCESSES:   42166329 HITS:   38713154 MISSES:    3453175
L1D WRITEBACK ACCESSES:          0 HITS:          0 MISSES:          0
L1D RQ ACCESS:  109094240
L1D RQ TO_CACHE:   61780963
L1D RQ MERGED:   47067995
L1D RQ FORWARD:          0
L1D WQ ACCESS:   64541313
L1D WQ TO_CACHE:   64526260
L1D WQ MERGED:      15053
L1D WQ FORWARD:     552438
L1I TOTAL     ACCESS:  107774418  HIT:  107774410  MISS:          8
L1I LOAD      ACCESS:  107774418  HIT:  107774410  MISS:          8
L1I RFO       ACCESS:          0  HIT:          0  MISS:          0
L1I PREFETCH  ACCESS:          0  HIT:          0  MISS:          0
L1I WRITEBACK ACCESS:          0  HIT:          0  MISS:          0
L1I PREFETCH  REQUESTED:          0  ISSUED:          0  USEFUL:          0  USELESS:          0
L1I TOTAL MSHR MERGED:          3
L1I LOAD MSHR MERGED:          3
L1I RFO MSHR MERGED:          0
L1I PREFETCH MSHR MERGED:          0
L1I WRITEBACK MSHR MERGED:          0
L1I TOTAL ACCESSES:  107774421 HITS:  107774410 MISSES:         11
L1I LOAD ACCESSES:  107774421 HITS:  107774410 MISSES:         11
L1I RFO ACCESSES:          0 HITS:          0 MISSES:          0
L1I PREFETCH ACCESSES:          0 HITS:          0 MISSES:          0
L1I WRITEBACK ACCESSES:          0 HITS:          0 MISSES:          0
L1I RQ ACCESS:  500000007
L1I RQ TO_CACHE:  107774421
L1I RQ MERGED:  392225586
L1I RQ FORWARD:          0
L1I WQ ACCESS:          0
L1I WQ TO_CACHE:          0
L1I WQ MERGED:          0
L1I WQ FORWARD:          0
L2C TOTAL     ACCESS:   36817215  HIT:   24859625  MISS:   11957590
L2C LOAD      ACCESS:    1780762  HIT:     258853  MISS:    1521909
L2C RFO       ACCESS:   16602105  HIT:    7610721  MISS:    8991384
L2C PREFETCH  ACCESS:    1832164  HIT:     389096  MISS:    1443068
L2C WRITEBACK ACCESS:   16602184  HIT:   16600955  MISS:       1229
L2C PREFETCH  REQUESTED:     817593  ISSUED:     817593  USEFUL:     256537  USELESS:    1186812
L2C TOTAL MSHR MERGED:       2992
L2C LOAD MSHR MERGED:        677
L2C RFO MSHR MERGED:          0
L2C PREFETCH MSHR MERGED:       2315
L2C WRITEBACK MSHR MERGED:          0
L2C TOTAL ACCESSES:   36992256 HITS:   24859629 MISSES:   12132627
L2C LOAD ACCESSES:    1780762 HITS:     258853 MISSES:    1521909
L2C RFO ACCESSES:   16602108 HITS:    7610725 MISSES:    8991383
L2C PREFETCH ACCESSES:    2007202 HITS:     389096 MISSES:    1618106
L2C WRITEBACK ACCESSES:   16602184 HITS:   16600955 MISSES:       1229
L2C RQ ACCESS:   18382870
L2C RQ TO_CACHE:   18382866
L2C RQ MERGED:          0
L2C RQ FORWARD:          0
L2C WQ ACCESS:   16602184
L2C WQ TO_CACHE:   16602184
L2C WQ MERGED:          0
L2C WQ FORWARD:          4
LLC TOTAL     ACCESS:   21117606  HIT:    2238611  MISS:   18878995
LLC LOAD      ACCESS:    1521232  HIT:      61970  MISS:    1459262
LLC RFO       ACCESS:    8991362  HIT:     945711  MISS:    8045651
LLC PREFETCH  ACCESS:    1612806  HIT:     106577  MISS:    1506229
LLC WRITEBACK ACCESS:    8992206  HIT:    1124353  MISS:    7867853
LLC PREFETCH  REQUESTED:          0  ISSUED:          0  USEFUL:      61970  USELESS:    1444065
LLC TOTAL MSHR MERGED:       2573
LLC LOAD MSHR MERGED:        234
LLC RFO MSHR MERGED:          0
LLC PREFETCH MSHR MERGED:       2339
LLC WRITEBACK MSHR MERGED:          0
LLC TOTAL ACCESSES:   21120200 HITS:    2238633 MISSES:   18881567
LLC LOAD ACCESSES:    1521232 HITS:      61970 MISSES:    1459262
LLC RFO ACCESSES:    8991383 HITS:     945733 MISSES:    8045650
LLC PREFETCH ACCESSES:    1615379 HITS:     106577 MISSES:    1508802
LLC WRITEBACK ACCESSES:    8992206 HITS:    1124353 MISSES:    7867853
LLC 0 RQ ACCESS:   10512615
LLC 0 RQ TO_CACHE:   10512593
LLC 0 RQ MERGED:          0
LLC 0 RQ FORWARD:          0
LLC WQ ACCESS:    8992206
LLC WQ TO_CACHE:    8992206
LLC WQ MERGED:          0
LLC WQ FORWARD:         22
Major fault: 0 Minor fault: 102360
CPU 0 L1D next line prefetcher final stats
CPU 0 L2C PC-based stride prefetcher final stats
All Misses: 22493318
All Hits: 2599799
SD Algo Stats - Switches: 0 SRR-Repls: 1637918 BRR-Repls: 0

DRAM Statistics
 CHANNEL 0
 RQ ROW_BUFFER_HIT:    3733014  ROW_BUFFER_MISS:    7275835
 DBUS_CONGESTED:   13036409
 WQ ROW_BUFFER_HIT:    1409322  ROW_BUFFER_MISS:    6665334  FULL:          0

 AVG_CONGESTED_CYCLE: 13
LOADS RETIRED: 124982196
INSTR RETIRED: 500000000
