
*** ChampSim Multicore Out-of-Order Simulator ***

Warmup Instructions: 100000000
Simulation Instructions: 500000000
Number of CPUs: 1
LLC sets: 2048
LLC ways: 16
Clean RRIP Policies: 2213230222132302 Dirty RRIP Policies: 1203130212031302 PSEL Width: 10 Track Set: 4294967295 PSEL Mask: 1 Demote Mask: 1030100010301000DS Algo: 0Window size: 0
Off-chip DRAM Size: 4096 MB Channels: 1 Width: 64-bit Data Rate: 1600 MT/s

CPU 0 runs /mnt/beegfs/iconst01/spec2017/Lbm.trace.gz
NOT SORTED
TRACE STRING: /mnt/beegfs/iconst01/spec2017/Lbm.trace.gz
SORTED
TRACE STRING: /mnt/beegfs/iconst01/spec2017/Lbm.trace.gz
INITIAL
TRACE STRING: /mnt/beegfs/iconst01/spec2017/Lbm.trace.gz

champsim_seed used: 283

CPU 0 L1D next line prefetcher
CPU 0 L2C IP-based stride prefetcher
Initialize DRRIP state
Assign rand_sets[0]: 454  LLC: 2048
rand_sets[0]: 454
Assign rand_sets[1]: 1662  LLC: 2048
rand_sets[1]: 1662
Assign rand_sets[2]: 1921  LLC: 2048
rand_sets[2]: 1921
Assign rand_sets[3]: 1131  LLC: 2048
rand_sets[3]: 1131
Assign rand_sets[4]: 331  LLC: 2048
rand_sets[4]: 331
Assign rand_sets[5]: 1531  LLC: 2048
rand_sets[5]: 1531
Assign rand_sets[6]: 482  LLC: 2048
rand_sets[6]: 482
Assign rand_sets[7]: 1275  LLC: 2048
rand_sets[7]: 1275
Assign rand_sets[8]: 1876  LLC: 2048
rand_sets[8]: 1876
Assign rand_sets[9]: 2038  LLC: 2048
rand_sets[9]: 2038
Assign rand_sets[10]: 701  LLC: 2048
rand_sets[10]: 701
Assign rand_sets[11]: 479  LLC: 2048
rand_sets[11]: 479
Assign rand_sets[12]: 892  LLC: 2048
rand_sets[12]: 892
Assign rand_sets[13]: 1820  LLC: 2048
rand_sets[13]: 1820
Assign rand_sets[14]: 1505  LLC: 2048
rand_sets[14]: 1505
Assign rand_sets[15]: 1159  LLC: 2048
rand_sets[15]: 1159
Assign rand_sets[16]: 513  LLC: 2048
rand_sets[16]: 513
Assign rand_sets[17]: 703  LLC: 2048
rand_sets[17]: 703
Assign rand_sets[18]: 561  LLC: 2048
rand_sets[18]: 561
Assign rand_sets[19]: 990  LLC: 2048
rand_sets[19]: 990
Assign rand_sets[20]: 342  LLC: 2048
rand_sets[20]: 342
Assign rand_sets[21]: 882  LLC: 2048
rand_sets[21]: 882
Assign rand_sets[22]: 15  LLC: 2048
rand_sets[22]: 15
Assign rand_sets[23]: 71  LLC: 2048
rand_sets[23]: 71
Assign rand_sets[24]: 1127  LLC: 2048
rand_sets[24]: 1127
Assign rand_sets[25]: 1382  LLC: 2048
rand_sets[25]: 1382
Assign rand_sets[26]: 647  LLC: 2048
rand_sets[26]: 647
Assign rand_sets[27]: 857  LLC: 2048
rand_sets[27]: 857
Assign rand_sets[28]: 1450  LLC: 2048
rand_sets[28]: 1450
Assign rand_sets[29]: 1160  LLC: 2048
rand_sets[29]: 1160
Assign rand_sets[30]: 1852  LLC: 2048
rand_sets[30]: 1852
Assign rand_sets[31]: 1881  LLC: 2048
rand_sets[31]: 1881
Assign rand_sets[32]: 1770  LLC: 2048
rand_sets[32]: 1770
Assign rand_sets[33]: 1622  LLC: 2048
rand_sets[33]: 1622
Assign rand_sets[34]: 275  LLC: 2048
rand_sets[34]: 275
Assign rand_sets[35]: 635  LLC: 2048
rand_sets[35]: 635
Assign rand_sets[36]: 466  LLC: 2048
rand_sets[36]: 466
Assign rand_sets[37]: 1413  LLC: 2048
rand_sets[37]: 1413
Assign rand_sets[38]: 417  LLC: 2048
rand_sets[38]: 417
Assign rand_sets[39]: 472  LLC: 2048
rand_sets[39]: 472
Assign rand_sets[40]: 1340  LLC: 2048
rand_sets[40]: 1340
Assign rand_sets[41]: 852  LLC: 2048
rand_sets[41]: 852
Assign rand_sets[42]: 1365  LLC: 2048
rand_sets[42]: 1365
Assign rand_sets[43]: 47  LLC: 2048
rand_sets[43]: 47
Assign rand_sets[44]: 823  LLC: 2048
rand_sets[44]: 823
Assign rand_sets[45]: 686  LLC: 2048
rand_sets[45]: 686
Assign rand_sets[46]: 1637  LLC: 2048
rand_sets[46]: 1637
Assign rand_sets[47]: 1115  LLC: 2048
rand_sets[47]: 1115
Assign rand_sets[48]: 986  LLC: 2048
rand_sets[48]: 986
Assign rand_sets[49]: 258  LLC: 2048
rand_sets[49]: 258
Assign rand_sets[50]: 633  LLC: 2048
rand_sets[50]: 633
Assign rand_sets[51]: 920  LLC: 2048
rand_sets[51]: 920
Assign rand_sets[52]: 204  LLC: 2048
rand_sets[52]: 204
Assign rand_sets[53]: 227  LLC: 2048
rand_sets[53]: 227
Assign rand_sets[54]: 1818  LLC: 2048
rand_sets[54]: 1818
Assign rand_sets[55]: 886  LLC: 2048
rand_sets[55]: 886
Assign rand_sets[56]: 1422  LLC: 2048
rand_sets[56]: 1422
Assign rand_sets[57]: 607  LLC: 2048
rand_sets[57]: 607
Assign rand_sets[58]: 217  LLC: 2048
rand_sets[58]: 217
Assign rand_sets[59]: 1945  LLC: 2048
rand_sets[59]: 1945
Assign rand_sets[60]: 143  LLC: 2048
rand_sets[60]: 143
Assign rand_sets[61]: 1311  LLC: 2048
rand_sets[61]: 1311
Assign rand_sets[62]: 319  LLC: 2048
rand_sets[62]: 319
Assign rand_sets[63]: 1846  LLC: 2048
rand_sets[63]: 1846
 CLEAN-RRIP-POLICY-1: 2-2-1-3-2-3-0-2- CLEAN-RRIP-POLICY-2: 2-2-1-3-2-3-0-2-
 DIRTY-RRIP-POLICY-1: 1-2-0-3-1-3-0-2- DIRTY-RRIP-POLICY-2: 1-2-0-3-1-3-0-2-
 PSEL width: 10
Heartbeat CPU 0 instructions: 10000000 cycles: 4321581 heartbeat IPC: 2.31397 cumulative IPC: 2.31397 (Simulation time: 0 hr 0 min 17 sec) 
Heartbeat CPU 0 instructions: 20000000 cycles: 8643648 heartbeat IPC: 2.31371 cumulative IPC: 2.31384 (Simulation time: 0 hr 0 min 35 sec) 
Heartbeat CPU 0 instructions: 30000000 cycles: 12965410 heartbeat IPC: 2.31387 cumulative IPC: 2.31385 (Simulation time: 0 hr 0 min 53 sec) 
Heartbeat CPU 0 instructions: 40000000 cycles: 17291263 heartbeat IPC: 2.31168 cumulative IPC: 2.31331 (Simulation time: 0 hr 1 min 11 sec) 
Heartbeat CPU 0 instructions: 50000000 cycles: 21613159 heartbeat IPC: 2.3138 cumulative IPC: 2.31341 (Simulation time: 0 hr 1 min 28 sec) 
Heartbeat CPU 0 instructions: 60000000 cycles: 25935073 heartbeat IPC: 2.31379 cumulative IPC: 2.31347 (Simulation time: 0 hr 1 min 47 sec) 
Heartbeat CPU 0 instructions: 70000000 cycles: 30256589 heartbeat IPC: 2.314 cumulative IPC: 2.31355 (Simulation time: 0 hr 2 min 5 sec) 
Heartbeat CPU 0 instructions: 80000000 cycles: 34582810 heartbeat IPC: 2.31149 cumulative IPC: 2.31329 (Simulation time: 0 hr 2 min 23 sec) 
Heartbeat CPU 0 instructions: 90000003 cycles: 38904930 heartbeat IPC: 2.31368 cumulative IPC: 2.31333 (Simulation time: 0 hr 2 min 41 sec) 
Heartbeat CPU 0 instructions: 100000000 cycles: 43226412 heartbeat IPC: 2.31402 cumulative IPC: 2.3134 (Simulation time: 0 hr 2 min 59 sec) 

Warmup complete CPU 0 instructions: 100000001 cycles: 43226413 (Simulation time: 0 hr 2 min 59 sec) 

Heartbeat CPU 0 instructions: 110000000 cycles: 57563727 heartbeat IPC: 0.697481 cumulative IPC: 0.697481 (Simulation time: 0 hr 3 min 24 sec) 
Heartbeat CPU 0 instructions: 120000000 cycles: 71865386 heartbeat IPC: 0.69922 cumulative IPC: 0.698349 (Simulation time: 0 hr 3 min 50 sec) 
Heartbeat CPU 0 instructions: 130000000 cycles: 85987471 heartbeat IPC: 0.708111 cumulative IPC: 0.701573 (Simulation time: 0 hr 4 min 16 sec) 
Heartbeat CPU 0 instructions: 140000000 cycles: 100106499 heartbeat IPC: 0.708264 cumulative IPC: 0.703234 (Simulation time: 0 hr 4 min 42 sec) 
Heartbeat CPU 0 instructions: 150000003 cycles: 113902597 heartbeat IPC: 0.724843 cumulative IPC: 0.707452 (Simulation time: 0 hr 5 min 8 sec) 
Heartbeat CPU 0 instructions: 160000000 cycles: 127836447 heartbeat IPC: 0.717677 cumulative IPC: 0.709136 (Simulation time: 0 hr 5 min 34 sec) 
Heartbeat CPU 0 instructions: 170000002 cycles: 142250623 heartbeat IPC: 0.693762 cumulative IPC: 0.706898 (Simulation time: 0 hr 6 min 0 sec) 
Heartbeat CPU 0 instructions: 180000000 cycles: 156220355 heartbeat IPC: 0.715833 cumulative IPC: 0.708003 (Simulation time: 0 hr 6 min 25 sec) 
Heartbeat CPU 0 instructions: 190000003 cycles: 173005150 heartbeat IPC: 0.595778 cumulative IPC: 0.693488 (Simulation time: 0 hr 6 min 54 sec) 
Heartbeat CPU 0 instructions: 200000000 cycles: 193404734 heartbeat IPC: 0.490206 cumulative IPC: 0.665875 (Simulation time: 0 hr 7 min 25 sec) 
Heartbeat CPU 0 instructions: 210000001 cycles: 207646977 heartbeat IPC: 0.702137 cumulative IPC: 0.669016 (Simulation time: 0 hr 7 min 51 sec) 
Heartbeat CPU 0 instructions: 220000000 cycles: 221459501 heartbeat IPC: 0.723981 cumulative IPC: 0.673276 (Simulation time: 0 hr 8 min 16 sec) 
Heartbeat CPU 0 instructions: 230000001 cycles: 235540115 heartbeat IPC: 0.710196 cumulative IPC: 0.675979 (Simulation time: 0 hr 8 min 42 sec) 
Heartbeat CPU 0 instructions: 240000000 cycles: 249793502 heartbeat IPC: 0.701588 cumulative IPC: 0.677746 (Simulation time: 0 hr 9 min 7 sec) 
Heartbeat CPU 0 instructions: 250000000 cycles: 264362654 heartbeat IPC: 0.686382 cumulative IPC: 0.678315 (Simulation time: 0 hr 9 min 33 sec) 
Heartbeat CPU 0 instructions: 260000000 cycles: 279197241 heartbeat IPC: 0.6741 cumulative IPC: 0.67805 (Simulation time: 0 hr 9 min 59 sec) 
Heartbeat CPU 0 instructions: 270000002 cycles: 294203281 heartbeat IPC: 0.666398 cumulative IPC: 0.677353 (Simulation time: 0 hr 10 min 26 sec) 
Heartbeat CPU 0 instructions: 280000000 cycles: 309133519 heartbeat IPC: 0.669782 cumulative IPC: 0.676928 (Simulation time: 0 hr 10 min 52 sec) 
Heartbeat CPU 0 instructions: 290000003 cycles: 324854279 heartbeat IPC: 0.636102 cumulative IPC: 0.674649 (Simulation time: 0 hr 11 min 19 sec) 
Heartbeat CPU 0 instructions: 300000000 cycles: 340043701 heartbeat IPC: 0.658353 cumulative IPC: 0.673815 (Simulation time: 0 hr 11 min 45 sec) 
Heartbeat CPU 0 instructions: 310000000 cycles: 355955143 heartbeat IPC: 0.628479 cumulative IPC: 0.671508 (Simulation time: 0 hr 12 min 12 sec) 
Heartbeat CPU 0 instructions: 320000000 cycles: 371651452 heartbeat IPC: 0.637092 cumulative IPC: 0.669864 (Simulation time: 0 hr 12 min 38 sec) 
Heartbeat CPU 0 instructions: 330000002 cycles: 386578788 heartbeat IPC: 0.669912 cumulative IPC: 0.669866 (Simulation time: 0 hr 13 min 4 sec) 
Heartbeat CPU 0 instructions: 340000000 cycles: 402620467 heartbeat IPC: 0.623376 cumulative IPC: 0.667791 (Simulation time: 0 hr 13 min 31 sec) 
Heartbeat CPU 0 instructions: 350000001 cycles: 417189842 heartbeat IPC: 0.686371 cumulative IPC: 0.668515 (Simulation time: 0 hr 13 min 56 sec) 
Heartbeat CPU 0 instructions: 360000000 cycles: 432678538 heartbeat IPC: 0.645632 cumulative IPC: 0.667605 (Simulation time: 0 hr 14 min 22 sec) 
Heartbeat CPU 0 instructions: 370000000 cycles: 447394388 heartbeat IPC: 0.679539 cumulative IPC: 0.668039 (Simulation time: 0 hr 14 min 48 sec) 
Heartbeat CPU 0 instructions: 380000000 cycles: 462496475 heartbeat IPC: 0.66216 cumulative IPC: 0.667827 (Simulation time: 0 hr 15 min 13 sec) 
Heartbeat CPU 0 instructions: 390000000 cycles: 476873549 heartbeat IPC: 0.695552 cumulative IPC: 0.668746 (Simulation time: 0 hr 15 min 39 sec) 
Heartbeat CPU 0 instructions: 400000000 cycles: 491084274 heartbeat IPC: 0.703694 cumulative IPC: 0.669855 (Simulation time: 0 hr 16 min 3 sec) 
Heartbeat CPU 0 instructions: 410000000 cycles: 504866718 heartbeat IPC: 0.725561 cumulative IPC: 0.671519 (Simulation time: 0 hr 16 min 27 sec) 
Heartbeat CPU 0 instructions: 420000000 cycles: 519040150 heartbeat IPC: 0.705545 cumulative IPC: 0.672532 (Simulation time: 0 hr 16 min 52 sec) 
Heartbeat CPU 0 instructions: 430000002 cycles: 532733831 heartbeat IPC: 0.730264 cumulative IPC: 0.674147 (Simulation time: 0 hr 17 min 16 sec) 
Heartbeat CPU 0 instructions: 440000000 cycles: 546470807 heartbeat IPC: 0.727962 cumulative IPC: 0.675616 (Simulation time: 0 hr 17 min 40 sec) 
Heartbeat CPU 0 instructions: 450000000 cycles: 560130730 heartbeat IPC: 0.732069 cumulative IPC: 0.677108 (Simulation time: 0 hr 18 min 4 sec) 
Heartbeat CPU 0 instructions: 460000000 cycles: 574823420 heartbeat IPC: 0.680611 cumulative IPC: 0.677205 (Simulation time: 0 hr 18 min 29 sec) 
Heartbeat CPU 0 instructions: 470000000 cycles: 588960501 heartbeat IPC: 0.70736 cumulative IPC: 0.677986 (Simulation time: 0 hr 18 min 53 sec) 
Heartbeat CPU 0 instructions: 480000000 cycles: 602984250 heartbeat IPC: 0.713076 cumulative IPC: 0.678865 (Simulation time: 0 hr 19 min 17 sec) 
Heartbeat CPU 0 instructions: 490000001 cycles: 617472111 heartbeat IPC: 0.690233 cumulative IPC: 0.679152 (Simulation time: 0 hr 19 min 42 sec) 
Heartbeat CPU 0 instructions: 500000000 cycles: 631878724 heartbeat IPC: 0.694126 cumulative IPC: 0.679518 (Simulation time: 0 hr 20 min 6 sec) 
Heartbeat CPU 0 instructions: 510000002 cycles: 645867701 heartbeat IPC: 0.714849 cumulative IPC: 0.680338 (Simulation time: 0 hr 20 min 30 sec) 
Heartbeat CPU 0 instructions: 520000000 cycles: 659675233 heartbeat IPC: 0.724242 cumulative IPC: 0.681322 (Simulation time: 0 hr 20 min 54 sec) 
Heartbeat CPU 0 instructions: 530000001 cycles: 673602175 heartbeat IPC: 0.718033 cumulative IPC: 0.682133 (Simulation time: 0 hr 21 min 19 sec) 
Heartbeat CPU 0 instructions: 540000000 cycles: 688004634 heartbeat IPC: 0.694326 cumulative IPC: 0.682405 (Simulation time: 0 hr 21 min 43 sec) 
Heartbeat CPU 0 instructions: 550000003 cycles: 701870479 heartbeat IPC: 0.721197 cumulative IPC: 0.683222 (Simulation time: 0 hr 22 min 7 sec) 
Heartbeat CPU 0 instructions: 560000000 cycles: 716365004 heartbeat IPC: 0.689915 cumulative IPC: 0.683366 (Simulation time: 0 hr 22 min 32 sec) 
Heartbeat CPU 0 instructions: 570000001 cycles: 730527425 heartbeat IPC: 0.706094 cumulative IPC: 0.683834 (Simulation time: 0 hr 22 min 56 sec) 
Heartbeat CPU 0 instructions: 580000000 cycles: 744267935 heartbeat IPC: 0.727775 cumulative IPC: 0.684696 (Simulation time: 0 hr 23 min 20 sec) 
Heartbeat CPU 0 instructions: 590000003 cycles: 757582722 heartbeat IPC: 0.751045 cumulative IPC: 0.685932 (Simulation time: 0 hr 23 min 44 sec) 
Heartbeat CPU 0 instructions: 600000000 cycles: 771459809 heartbeat IPC: 0.720612 cumulative IPC: 0.686593 (Simulation time: 0 hr 24 min 8 sec) 
Finished CPU 0 instructions: 500000000 cycles: 728233404 cumulative IPC: 0.686593 (Simulation time: 0 hr 24 min 8 sec) 

CPU 0 Branch Prediction Accuracy: 99.5915% MPKI: 0.037126
Number of Branches: 4544106 Number of Mispredictions: 18563
Number of LOAD Instructions: 149787067
Number of LOAD Instructions (ROI): 149787067
Number of STORE Instructions: 77239062
Number of STORE Instructions (ROI): 77239062
Total Destination Memory Operands: 77239062
Total Destination Memory Operands (ROI): 77239062
Total Source Memory Operands: 149787067
Total Source Memory Operands (ROI): 149787067
Number of DEPENDED LOADS: 19247320
Number of DEPENDED LOADS (ROI): 19247320
Number of SQ_ADDED: 77239036
Number of SQ_ADDED (ROI): 77239036
Number of LQ_ADDED: 149787020
Number of LQ_ADDED (ROI): 149787020
Number of Instructions read from trace: 600000256

ChampSim completed all CPUs

Region of Interest Statistics

CPU 0 cumulative IPC: 0.686593 instructions: 500000000 cycles: 728233404
ITLB TOTAL     ACCESS:   86453719  HIT:   86453718  MISS:          1
ITLB LOAD      ACCESS:   86453719  HIT:   86453718  MISS:          1
ITLB RFO       ACCESS:          0  HIT:          0  MISS:          0
ITLB PREFETCH  ACCESS:          0  HIT:          0  MISS:          0
ITLB WRITEBACK ACCESS:          0  HIT:          0  MISS:          0
ITLB PREFETCH  REQUESTED:          0  ISSUED:          0  USEFUL:          0  USELESS:          0
ITLB TOTAL MSHR MERGED:          1
ITLB LOAD MSHR MERGED:          1
ITLB RFO MSHR MERGED:          0
ITLB PREFETCH MSHR MERGED:          0
ITLB WRITEBACK MSHR MERGED:          0
ITLB TOTAL ACCESSES:   86453720 HITS:   86453718 MISSES:          2
ITLB LOAD ACCESSES:   86453720 HITS:   86453718 MISSES:          2
ITLB RFO ACCESSES:          0 HITS:          0 MISSES:          0
ITLB PREFETCH ACCESSES:          0 HITS:          0 MISSES:          0
ITLB WRITEBACK ACCESSES:          0 HITS:          0 MISSES:          0
ITLB RQ ACCESS:  500000002
ITLB RQ TO_CACHE:   86453720
ITLB RQ MERGED:  413546282
ITLB RQ FORWARD:          0
ITLB WQ ACCESS:          0
ITLB WQ TO_CACHE:          0
ITLB WQ MERGED:          0
ITLB WQ FORWARD:          0
DTLB TOTAL     ACCESS:   98108318  HIT:   97923057  MISS:     185261
DTLB LOAD      ACCESS:   55041444  HIT:   54995133  MISS:      46311
DTLB RFO       ACCESS:   43066874  HIT:   42927924  MISS:     138950
DTLB PREFETCH  ACCESS:          0  HIT:          0  MISS:          0
DTLB WRITEBACK ACCESS:          0  HIT:          0  MISS:          0
DTLB PREFETCH  REQUESTED:          0  ISSUED:          0  USEFUL:          0  USELESS:          0
DTLB TOTAL MSHR MERGED:      83524
DTLB LOAD MSHR MERGED:      83519
DTLB RFO MSHR MERGED:          5
DTLB PREFETCH MSHR MERGED:          0
DTLB WRITEBACK MSHR MERGED:          0
DTLB TOTAL ACCESSES:   98191842 HITS:   97923057 MISSES:     268785
DTLB LOAD ACCESSES:   55124963 HITS:   54995133 MISSES:     129830
DTLB RFO ACCESSES:   43066879 HITS:   42927924 MISSES:     138955
DTLB PREFETCH ACCESSES:          0 HITS:          0 MISSES:          0
DTLB WRITEBACK ACCESSES:          0 HITS:          0 MISSES:          0
DTLB RQ ACCESS:  173635207
DTLB RQ TO_CACHE:   98191842
DTLB RQ MERGED:   75443365
DTLB RQ FORWARD:          0
DTLB WQ ACCESS:          0
DTLB WQ TO_CACHE:          0
DTLB WQ MERGED:          0
DTLB WQ FORWARD:          0
L1D TOTAL     ACCESS:  164581657  HIT:  145009115  MISS:   19572542
L1D LOAD      ACCESS:   60548319  HIT:   58696821  MISS:    1851498
L1D RFO       ACCESS:   64513796  HIT:   47911675  MISS:   16602121
L1D PREFETCH  ACCESS:   39519542  HIT:   38400619  MISS:    1118923
L1D WRITEBACK ACCESS:          0  HIT:          0  MISS:          0
L1D PREFETCH  REQUESTED:   61735574  ISSUED:   61443153  USEFUL:    1117009  USELESS:       1914
L1D TOTAL MSHR MERGED:    3531166
L1D LOAD MSHR MERGED:    1258607
L1D RFO MSHR MERGED:      11448
L1D PREFETCH MSHR MERGED:    2261111
L1D WRITEBACK MSHR MERGED:          0
L1D TOTAL ACCESSES:  168677676 HITS:  145573969 MISSES:   23103707
L1D LOAD ACCESSES:   61993291 HITS:   58954538 MISSES:    3038753
L1D RFO ACCESSES:   64525209 HITS:   47911675 MISSES:   16613534
L1D PREFETCH ACCESSES:   42159176 HITS:   38707756 MISSES:    3451420
L1D WRITEBACK ACCESSES:          0 HITS:          0 MISSES:          0
L1D RQ ACCESS:  109093892
L1D RQ TO_CACHE:   61735574
L1D RQ MERGED:   47100601
L1D RQ FORWARD:          0
L1D WQ ACCESS:   64541313
L1D WQ TO_CACHE:   64525210
L1D WQ MERGED:      16103
L1D WQ FORWARD:     564854
L1I TOTAL     ACCESS:  107762638  HIT:  107762630  MISS:          8
L1I LOAD      ACCESS:  107762638  HIT:  107762630  MISS:          8
L1I RFO       ACCESS:          0  HIT:          0  MISS:          0
L1I PREFETCH  ACCESS:          0  HIT:          0  MISS:          0
L1I WRITEBACK ACCESS:          0  HIT:          0  MISS:          0
L1I PREFETCH  REQUESTED:          0  ISSUED:          0  USEFUL:          0  USELESS:          0
L1I TOTAL MSHR MERGED:          3
L1I LOAD MSHR MERGED:          3
L1I RFO MSHR MERGED:          0
L1I PREFETCH MSHR MERGED:          0
L1I WRITEBACK MSHR MERGED:          0
L1I TOTAL ACCESSES:  107762641 HITS:  107762630 MISSES:         11
L1I LOAD ACCESSES:  107762641 HITS:  107762630 MISSES:         11
L1I RFO ACCESSES:          0 HITS:          0 MISSES:          0
L1I PREFETCH ACCESSES:          0 HITS:          0 MISSES:          0
L1I WRITEBACK ACCESSES:          0 HITS:          0 MISSES:          0
L1I RQ ACCESS:  500000007
L1I RQ TO_CACHE:  107762641
L1I RQ MERGED:  392237366
L1I RQ FORWARD:          0
L1I WQ ACCESS:          0
L1I WQ TO_CACHE:          0
L1I WQ MERGED:          0
L1I WQ FORWARD:          0
L2C TOTAL     ACCESS:   36807250  HIT:   24849686  MISS:   11957564
L2C LOAD      ACCESS:    1780154  HIT:     255272  MISS:    1524882
L2C RFO       ACCESS:   16602085  HIT:    7610729  MISS:    8991356
L2C PREFETCH  ACCESS:    1822833  HIT:     382733  MISS:    1440100
L2C WRITEBACK ACCESS:   16602178  HIT:   16600952  MISS:       1226
L2C PREFETCH  REQUESTED:     814323  ISSUED:     814323  USEFUL:     252963  USELESS:    1187419
L2C TOTAL MSHR MERGED:       2689
L2C LOAD MSHR MERGED:        588
L2C RFO MSHR MERGED:          0
L2C PREFETCH MSHR MERGED:       2101
L2C WRITEBACK MSHR MERGED:          0
L2C TOTAL ACCESSES:   36988965 HITS:   24849688 MISSES:   12139277
L2C LOAD ACCESSES:    1780154 HITS:     255272 MISSES:    1524882
L2C RFO ACCESSES:   16602086 HITS:    7610731 MISSES:    8991355
L2C PREFETCH ACCESSES:    2004547 HITS:     382733 MISSES:    1621814
L2C WRITEBACK ACCESSES:   16602178 HITS:   16600952 MISSES:       1226
L2C RQ ACCESS:   18382240
L2C RQ TO_CACHE:   18382238
L2C RQ MERGED:          0
L2C RQ FORWARD:          0
L2C WQ ACCESS:   16602178
L2C WQ TO_CACHE:   16602178
L2C WQ MERGED:          0
L2C WQ FORWARD:          2
LLC TOTAL     ACCESS:   21124491  HIT:    1809147  MISS:   19315344
LLC LOAD      ACCESS:    1524294  HIT:      64628  MISS:    1459666
LLC RFO       ACCESS:    8991339  HIT:     719991  MISS:    8271348
LLC PREFETCH  ACCESS:    1616679  HIT:     111016  MISS:    1505663
LLC WRITEBACK ACCESS:    8992179  HIT:     913512  MISS:    8078667
LLC PREFETCH  REQUESTED:          0  ISSUED:          0  USEFUL:      64479  USELESS:    1441000
LLC TOTAL MSHR MERGED:       2657
LLC LOAD MSHR MERGED:        220
LLC RFO MSHR MERGED:          0
LLC PREFETCH MSHR MERGED:       2437
LLC WRITEBACK MSHR MERGED:          0
LLC TOTAL ACCESSES:   21127164 HITS:    1809164 MISSES:   19318000
LLC LOAD ACCESSES:    1524294 HITS:      64628 MISSES:    1459666
LLC RFO ACCESSES:    8991355 HITS:     720008 MISSES:    8271347
LLC PREFETCH ACCESSES:    1619336 HITS:     111016 MISSES:    1508320
LLC WRITEBACK ACCESSES:    8992179 HITS:     913512 MISSES:    8078667
LLC 0 RQ ACCESS:   10515649
LLC 0 RQ TO_CACHE:   10515632
LLC 0 RQ MERGED:          0
LLC 0 RQ FORWARD:          0
LLC WQ ACCESS:    8992179
LLC WQ TO_CACHE:    8992179
LLC WQ MERGED:          0
LLC WQ FORWARD:         17
Major fault: 0 Minor fault: 102360
CPU 0 L1D next line prefetcher final stats
CPU 0 L2C PC-based stride prefetcher final stats
All Misses: 22999921
All Hits: 2100081
SD Algo Stats - Switches: 0 SRR-Repls: 1638293 BRR-Repls: 0

DRAM Statistics
 CHANNEL 0
 RQ ROW_BUFFER_HIT:    3741629  ROW_BUFFER_MISS:    7493197
 DBUS_CONGESTED:   13350146
 WQ ROW_BUFFER_HIT:    1291244  ROW_BUFFER_MISS:    6982044  FULL:          0

 AVG_CONGESTED_CYCLE: 13
LOADS RETIRED: 124982196
INSTR RETIRED: 500000000
