
*** ChampSim Multicore Out-of-Order Simulator ***

Warmup Instructions: 100000000
Simulation Instructions: 500000000
Number of CPUs: 1
LLC sets: 2048
LLC ways: 16
Clean RRIP Policies: 2110011121100111 Dirty RRIP Policies: 100212101002121 PSEL Width: 10 Track Set: 4294967295 PSEL Mask: 1 Demote Mask: 1231304212313042DS Algo: 0Window size: 0
Off-chip DRAM Size: 4096 MB Channels: 1 Width: 64-bit Data Rate: 1600 MT/s

CPU 0 runs /mnt/beegfs/iconst01/spec2017/Leela.trace.gz
NOT SORTED
TRACE STRING: /mnt/beegfs/iconst01/spec2017/Leela.trace.gz
SORTED
TRACE STRING: /mnt/beegfs/iconst01/spec2017/Leela.trace.gz
INITIAL
TRACE STRING: /mnt/beegfs/iconst01/spec2017/Leela.trace.gz

champsim_seed used: 483

CPU 0 L1D next line prefetcher
CPU 0 L2C IP-based stride prefetcher
Initialize DRRIP state
Assign rand_sets[0]: 454  LLC: 2048
rand_sets[0]: 454
Assign rand_sets[1]: 1662  LLC: 2048
rand_sets[1]: 1662
Assign rand_sets[2]: 1921  LLC: 2048
rand_sets[2]: 1921
Assign rand_sets[3]: 1131  LLC: 2048
rand_sets[3]: 1131
Assign rand_sets[4]: 331  LLC: 2048
rand_sets[4]: 331
Assign rand_sets[5]: 1531  LLC: 2048
rand_sets[5]: 1531
Assign rand_sets[6]: 482  LLC: 2048
rand_sets[6]: 482
Assign rand_sets[7]: 1275  LLC: 2048
rand_sets[7]: 1275
Assign rand_sets[8]: 1876  LLC: 2048
rand_sets[8]: 1876
Assign rand_sets[9]: 2038  LLC: 2048
rand_sets[9]: 2038
Assign rand_sets[10]: 701  LLC: 2048
rand_sets[10]: 701
Assign rand_sets[11]: 479  LLC: 2048
rand_sets[11]: 479
Assign rand_sets[12]: 892  LLC: 2048
rand_sets[12]: 892
Assign rand_sets[13]: 1820  LLC: 2048
rand_sets[13]: 1820
Assign rand_sets[14]: 1505  LLC: 2048
rand_sets[14]: 1505
Assign rand_sets[15]: 1159  LLC: 2048
rand_sets[15]: 1159
Assign rand_sets[16]: 513  LLC: 2048
rand_sets[16]: 513
Assign rand_sets[17]: 703  LLC: 2048
rand_sets[17]: 703
Assign rand_sets[18]: 561  LLC: 2048
rand_sets[18]: 561
Assign rand_sets[19]: 990  LLC: 2048
rand_sets[19]: 990
Assign rand_sets[20]: 342  LLC: 2048
rand_sets[20]: 342
Assign rand_sets[21]: 882  LLC: 2048
rand_sets[21]: 882
Assign rand_sets[22]: 15  LLC: 2048
rand_sets[22]: 15
Assign rand_sets[23]: 71  LLC: 2048
rand_sets[23]: 71
Assign rand_sets[24]: 1127  LLC: 2048
rand_sets[24]: 1127
Assign rand_sets[25]: 1382  LLC: 2048
rand_sets[25]: 1382
Assign rand_sets[26]: 647  LLC: 2048
rand_sets[26]: 647
Assign rand_sets[27]: 857  LLC: 2048
rand_sets[27]: 857
Assign rand_sets[28]: 1450  LLC: 2048
rand_sets[28]: 1450
Assign rand_sets[29]: 1160  LLC: 2048
rand_sets[29]: 1160
Assign rand_sets[30]: 1852  LLC: 2048
rand_sets[30]: 1852
Assign rand_sets[31]: 1881  LLC: 2048
rand_sets[31]: 1881
Assign rand_sets[32]: 1770  LLC: 2048
rand_sets[32]: 1770
Assign rand_sets[33]: 1622  LLC: 2048
rand_sets[33]: 1622
Assign rand_sets[34]: 275  LLC: 2048
rand_sets[34]: 275
Assign rand_sets[35]: 635  LLC: 2048
rand_sets[35]: 635
Assign rand_sets[36]: 466  LLC: 2048
rand_sets[36]: 466
Assign rand_sets[37]: 1413  LLC: 2048
rand_sets[37]: 1413
Assign rand_sets[38]: 417  LLC: 2048
rand_sets[38]: 417
Assign rand_sets[39]: 472  LLC: 2048
rand_sets[39]: 472
Assign rand_sets[40]: 1340  LLC: 2048
rand_sets[40]: 1340
Assign rand_sets[41]: 852  LLC: 2048
rand_sets[41]: 852
Assign rand_sets[42]: 1365  LLC: 2048
rand_sets[42]: 1365
Assign rand_sets[43]: 47  LLC: 2048
rand_sets[43]: 47
Assign rand_sets[44]: 823  LLC: 2048
rand_sets[44]: 823
Assign rand_sets[45]: 686  LLC: 2048
rand_sets[45]: 686
Assign rand_sets[46]: 1637  LLC: 2048
rand_sets[46]: 1637
Assign rand_sets[47]: 1115  LLC: 2048
rand_sets[47]: 1115
Assign rand_sets[48]: 986  LLC: 2048
rand_sets[48]: 986
Assign rand_sets[49]: 258  LLC: 2048
rand_sets[49]: 258
Assign rand_sets[50]: 633  LLC: 2048
rand_sets[50]: 633
Assign rand_sets[51]: 920  LLC: 2048
rand_sets[51]: 920
Assign rand_sets[52]: 204  LLC: 2048
rand_sets[52]: 204
Assign rand_sets[53]: 227  LLC: 2048
rand_sets[53]: 227
Assign rand_sets[54]: 1818  LLC: 2048
rand_sets[54]: 1818
Assign rand_sets[55]: 886  LLC: 2048
rand_sets[55]: 886
Assign rand_sets[56]: 1422  LLC: 2048
rand_sets[56]: 1422
Assign rand_sets[57]: 607  LLC: 2048
rand_sets[57]: 607
Assign rand_sets[58]: 217  LLC: 2048
rand_sets[58]: 217
Assign rand_sets[59]: 1945  LLC: 2048
rand_sets[59]: 1945
Assign rand_sets[60]: 143  LLC: 2048
rand_sets[60]: 143
Assign rand_sets[61]: 1311  LLC: 2048
rand_sets[61]: 1311
Assign rand_sets[62]: 319  LLC: 2048
rand_sets[62]: 319
Assign rand_sets[63]: 1846  LLC: 2048
rand_sets[63]: 1846
 CLEAN-RRIP-POLICY-1: 2-1-1-0-0-1-1-1- CLEAN-RRIP-POLICY-2: 2-1-1-0-0-1-1-1-
 DIRTY-RRIP-POLICY-1: 0-1-0-0-2-1-2-1- DIRTY-RRIP-POLICY-2: 0-1-0-0-2-1-2-1-
 PSEL width: 10
Heartbeat CPU 0 instructions: 10000000 cycles: 5810760 heartbeat IPC: 1.72095 cumulative IPC: 1.72095 (Simulation time: 0 hr 0 min 12 sec) 
Heartbeat CPU 0 instructions: 20000000 cycles: 11606059 heartbeat IPC: 1.72554 cumulative IPC: 1.72324 (Simulation time: 0 hr 0 min 24 sec) 
Heartbeat CPU 0 instructions: 30000000 cycles: 17388024 heartbeat IPC: 1.72952 cumulative IPC: 1.72533 (Simulation time: 0 hr 0 min 36 sec) 
Heartbeat CPU 0 instructions: 40000000 cycles: 23169613 heartbeat IPC: 1.72963 cumulative IPC: 1.7264 (Simulation time: 0 hr 0 min 49 sec) 
Heartbeat CPU 0 instructions: 50000003 cycles: 28984169 heartbeat IPC: 1.71982 cumulative IPC: 1.72508 (Simulation time: 0 hr 1 min 1 sec) 
Heartbeat CPU 0 instructions: 60000000 cycles: 34769434 heartbeat IPC: 1.72853 cumulative IPC: 1.72565 (Simulation time: 0 hr 1 min 13 sec) 
Heartbeat CPU 0 instructions: 70000001 cycles: 40536488 heartbeat IPC: 1.73399 cumulative IPC: 1.72684 (Simulation time: 0 hr 1 min 26 sec) 
Heartbeat CPU 0 instructions: 80000000 cycles: 46308609 heartbeat IPC: 1.73247 cumulative IPC: 1.72754 (Simulation time: 0 hr 1 min 38 sec) 
Heartbeat CPU 0 instructions: 90000002 cycles: 52118090 heartbeat IPC: 1.72132 cumulative IPC: 1.72685 (Simulation time: 0 hr 1 min 50 sec) 
Heartbeat CPU 0 instructions: 100000000 cycles: 57935761 heartbeat IPC: 1.7189 cumulative IPC: 1.72605 (Simulation time: 0 hr 2 min 3 sec) 

Warmup complete CPU 0 instructions: 100000001 cycles: 57935762 (Simulation time: 0 hr 2 min 3 sec) 

Heartbeat CPU 0 instructions: 110000001 cycles: 76357533 heartbeat IPC: 0.542836 cumulative IPC: 0.542836 (Simulation time: 0 hr 2 min 25 sec) 
Heartbeat CPU 0 instructions: 120000000 cycles: 94734799 heartbeat IPC: 0.544151 cumulative IPC: 0.543492 (Simulation time: 0 hr 2 min 46 sec) 
Heartbeat CPU 0 instructions: 130000002 cycles: 113054462 heartbeat IPC: 0.545862 cumulative IPC: 0.54428 (Simulation time: 0 hr 3 min 7 sec) 
Heartbeat CPU 0 instructions: 140000000 cycles: 131289999 heartbeat IPC: 0.54838 cumulative IPC: 0.545299 (Simulation time: 0 hr 3 min 29 sec) 
Heartbeat CPU 0 instructions: 150000002 cycles: 149397556 heartbeat IPC: 0.552256 cumulative IPC: 0.546676 (Simulation time: 0 hr 3 min 50 sec) 
Heartbeat CPU 0 instructions: 160000000 cycles: 167549667 heartbeat IPC: 0.5509 cumulative IPC: 0.547376 (Simulation time: 0 hr 4 min 12 sec) 
Heartbeat CPU 0 instructions: 170000001 cycles: 185751302 heartbeat IPC: 0.549401 cumulative IPC: 0.547664 (Simulation time: 0 hr 4 min 33 sec) 
Heartbeat CPU 0 instructions: 180000000 cycles: 204052616 heartbeat IPC: 0.546409 cumulative IPC: 0.547507 (Simulation time: 0 hr 4 min 54 sec) 
Heartbeat CPU 0 instructions: 190000001 cycles: 222400299 heartbeat IPC: 0.545028 cumulative IPC: 0.54723 (Simulation time: 0 hr 5 min 16 sec) 
Heartbeat CPU 0 instructions: 200000000 cycles: 240604730 heartbeat IPC: 0.549317 cumulative IPC: 0.547438 (Simulation time: 0 hr 5 min 37 sec) 
Heartbeat CPU 0 instructions: 210000002 cycles: 258732025 heartbeat IPC: 0.551654 cumulative IPC: 0.547819 (Simulation time: 0 hr 5 min 59 sec) 
Heartbeat CPU 0 instructions: 220000000 cycles: 276884518 heartbeat IPC: 0.550888 cumulative IPC: 0.548073 (Simulation time: 0 hr 6 min 20 sec) 
Heartbeat CPU 0 instructions: 230000002 cycles: 295103992 heartbeat IPC: 0.548863 cumulative IPC: 0.548134 (Simulation time: 0 hr 6 min 42 sec) 
Heartbeat CPU 0 instructions: 240000000 cycles: 313381085 heartbeat IPC: 0.547133 cumulative IPC: 0.548063 (Simulation time: 0 hr 7 min 3 sec) 
Heartbeat CPU 0 instructions: 250000003 cycles: 331549779 heartbeat IPC: 0.550397 cumulative IPC: 0.548218 (Simulation time: 0 hr 7 min 25 sec) 
Heartbeat CPU 0 instructions: 260000000 cycles: 349694975 heartbeat IPC: 0.55111 cumulative IPC: 0.548397 (Simulation time: 0 hr 7 min 46 sec) 
Heartbeat CPU 0 instructions: 270000001 cycles: 367931766 heartbeat IPC: 0.548342 cumulative IPC: 0.548394 (Simulation time: 0 hr 8 min 8 sec) 
Heartbeat CPU 0 instructions: 280000000 cycles: 386938035 heartbeat IPC: 0.526142 cumulative IPC: 0.547109 (Simulation time: 0 hr 8 min 30 sec) 
Heartbeat CPU 0 instructions: 290000001 cycles: 404950192 heartbeat IPC: 0.555181 cumulative IPC: 0.547528 (Simulation time: 0 hr 8 min 51 sec) 
Heartbeat CPU 0 instructions: 300000000 cycles: 423021459 heartbeat IPC: 0.553365 cumulative IPC: 0.547817 (Simulation time: 0 hr 9 min 13 sec) 
Heartbeat CPU 0 instructions: 310000000 cycles: 441236316 heartbeat IPC: 0.549002 cumulative IPC: 0.547873 (Simulation time: 0 hr 9 min 34 sec) 
Heartbeat CPU 0 instructions: 320000000 cycles: 459612429 heartbeat IPC: 0.544185 cumulative IPC: 0.547704 (Simulation time: 0 hr 9 min 56 sec) 
Heartbeat CPU 0 instructions: 330000000 cycles: 477907317 heartbeat IPC: 0.546601 cumulative IPC: 0.547656 (Simulation time: 0 hr 10 min 17 sec) 
Heartbeat CPU 0 instructions: 340000000 cycles: 496233046 heartbeat IPC: 0.545681 cumulative IPC: 0.547574 (Simulation time: 0 hr 10 min 39 sec) 
Heartbeat CPU 0 instructions: 350000000 cycles: 514465228 heartbeat IPC: 0.548481 cumulative IPC: 0.54761 (Simulation time: 0 hr 11 min 1 sec) 
Heartbeat CPU 0 instructions: 360000000 cycles: 532591748 heartbeat IPC: 0.551678 cumulative IPC: 0.547765 (Simulation time: 0 hr 11 min 22 sec) 
Heartbeat CPU 0 instructions: 370000000 cycles: 550603133 heartbeat IPC: 0.555204 cumulative IPC: 0.548037 (Simulation time: 0 hr 11 min 43 sec) 
Heartbeat CPU 0 instructions: 380000000 cycles: 568757587 heartbeat IPC: 0.550829 cumulative IPC: 0.548136 (Simulation time: 0 hr 12 min 5 sec) 
Heartbeat CPU 0 instructions: 390000003 cycles: 587028892 heartbeat IPC: 0.547306 cumulative IPC: 0.548108 (Simulation time: 0 hr 12 min 26 sec) 
Heartbeat CPU 0 instructions: 400000000 cycles: 605200219 heartbeat IPC: 0.550317 cumulative IPC: 0.548181 (Simulation time: 0 hr 12 min 48 sec) 
Heartbeat CPU 0 instructions: 410000002 cycles: 623424961 heartbeat IPC: 0.548705 cumulative IPC: 0.548198 (Simulation time: 0 hr 13 min 9 sec) 
Heartbeat CPU 0 instructions: 420000000 cycles: 641677597 heartbeat IPC: 0.547866 cumulative IPC: 0.548188 (Simulation time: 0 hr 13 min 30 sec) 
Heartbeat CPU 0 instructions: 430000003 cycles: 660012839 heartbeat IPC: 0.545398 cumulative IPC: 0.548103 (Simulation time: 0 hr 13 min 51 sec) 
Heartbeat CPU 0 instructions: 440000000 cycles: 678347864 heartbeat IPC: 0.545404 cumulative IPC: 0.548023 (Simulation time: 0 hr 14 min 12 sec) 
Heartbeat CPU 0 instructions: 450000003 cycles: 696584947 heartbeat IPC: 0.548333 cumulative IPC: 0.548032 (Simulation time: 0 hr 14 min 33 sec) 
Heartbeat CPU 0 instructions: 460000000 cycles: 714779143 heartbeat IPC: 0.549626 cumulative IPC: 0.548076 (Simulation time: 0 hr 14 min 54 sec) 
Heartbeat CPU 0 instructions: 470000001 cycles: 732895305 heartbeat IPC: 0.551993 cumulative IPC: 0.548181 (Simulation time: 0 hr 15 min 15 sec) 
Heartbeat CPU 0 instructions: 480000000 cycles: 751158276 heartbeat IPC: 0.547556 cumulative IPC: 0.548165 (Simulation time: 0 hr 15 min 36 sec) 
Heartbeat CPU 0 instructions: 490000000 cycles: 769395835 heartbeat IPC: 0.548319 cumulative IPC: 0.548168 (Simulation time: 0 hr 15 min 57 sec) 
Heartbeat CPU 0 instructions: 500000000 cycles: 787637923 heartbeat IPC: 0.548183 cumulative IPC: 0.548169 (Simulation time: 0 hr 16 min 18 sec) 
Heartbeat CPU 0 instructions: 510000003 cycles: 805822426 heartbeat IPC: 0.549919 cumulative IPC: 0.548211 (Simulation time: 0 hr 16 min 39 sec) 
Heartbeat CPU 0 instructions: 520000000 cycles: 823971883 heartbeat IPC: 0.550981 cumulative IPC: 0.548277 (Simulation time: 0 hr 16 min 59 sec) 
Heartbeat CPU 0 instructions: 530000001 cycles: 842231404 heartbeat IPC: 0.54766 cumulative IPC: 0.548263 (Simulation time: 0 hr 17 min 20 sec) 
Heartbeat CPU 0 instructions: 540000000 cycles: 860505828 heartbeat IPC: 0.547213 cumulative IPC: 0.548239 (Simulation time: 0 hr 17 min 40 sec) 
Heartbeat CPU 0 instructions: 550000002 cycles: 878747399 heartbeat IPC: 0.548199 cumulative IPC: 0.548238 (Simulation time: 0 hr 18 min 1 sec) 
Heartbeat CPU 0 instructions: 560000000 cycles: 896899109 heartbeat IPC: 0.550912 cumulative IPC: 0.548296 (Simulation time: 0 hr 18 min 21 sec) 
Heartbeat CPU 0 instructions: 570000003 cycles: 915126681 heartbeat IPC: 0.54862 cumulative IPC: 0.548303 (Simulation time: 0 hr 18 min 42 sec) 
Heartbeat CPU 0 instructions: 580000000 cycles: 933279596 heartbeat IPC: 0.550876 cumulative IPC: 0.548356 (Simulation time: 0 hr 19 min 2 sec) 
Heartbeat CPU 0 instructions: 590000000 cycles: 951431534 heartbeat IPC: 0.550905 cumulative IPC: 0.548408 (Simulation time: 0 hr 19 min 23 sec) 
Heartbeat CPU 0 instructions: 600000000 cycles: 969606917 heartbeat IPC: 0.550195 cumulative IPC: 0.548443 (Simulation time: 0 hr 19 min 43 sec) 
Finished CPU 0 instructions: 500000002 cycles: 911671169 cumulative IPC: 0.548443 (Simulation time: 0 hr 19 min 43 sec) 

CPU 0 Branch Prediction Accuracy: 84.5197% MPKI: 17.7348
Number of Branches: 57281827 Number of Mispredictions: 8867420
Number of LOAD Instructions: 149599668
Number of LOAD Instructions (ROI): 149599668
Number of STORE Instructions: 48204126
Number of STORE Instructions (ROI): 48204126
Total Destination Memory Operands: 56787011
Total Destination Memory Operands (ROI): 56787011
Total Source Memory Operands: 149599668
Total Source Memory Operands (ROI): 149599668
Number of DEPENDED LOADS: 8173538
Number of DEPENDED LOADS (ROI): 8173538
Number of SQ_ADDED: 56787004
Number of SQ_ADDED (ROI): 56787004
Number of LQ_ADDED: 236109054
Number of LQ_ADDED (ROI): 236109054
Number of Instructions read from trace: 600000094

ChampSim completed all CPUs

Region of Interest Statistics

CPU 0 cumulative IPC: 0.548443 instructions: 500000002 cycles: 911671169
ITLB TOTAL     ACCESS:   88351933  HIT:   88351889  MISS:         44
ITLB LOAD      ACCESS:   88351933  HIT:   88351889  MISS:         44
ITLB RFO       ACCESS:          0  HIT:          0  MISS:          0
ITLB PREFETCH  ACCESS:          0  HIT:          0  MISS:          0
ITLB WRITEBACK ACCESS:          0  HIT:          0  MISS:          0
ITLB PREFETCH  REQUESTED:          0  ISSUED:          0  USEFUL:          0  USELESS:          0
ITLB TOTAL MSHR MERGED:         55
ITLB LOAD MSHR MERGED:         55
ITLB RFO MSHR MERGED:          0
ITLB PREFETCH MSHR MERGED:          0
ITLB WRITEBACK MSHR MERGED:          0
ITLB TOTAL ACCESSES:   88351988 HITS:   88351889 MISSES:         99
ITLB LOAD ACCESSES:   88351988 HITS:   88351889 MISSES:         99
ITLB RFO ACCESSES:          0 HITS:          0 MISSES:          0
ITLB PREFETCH ACCESSES:          0 HITS:          0 MISSES:          0
ITLB WRITEBACK ACCESSES:          0 HITS:          0 MISSES:          0
ITLB RQ ACCESS:  500000064
ITLB RQ TO_CACHE:   88351988
ITLB RQ MERGED:  411648076
ITLB RQ FORWARD:          0
ITLB WQ ACCESS:          0
ITLB WQ TO_CACHE:          0
ITLB WQ MERGED:          0
ITLB WQ FORWARD:          0
DTLB TOTAL     ACCESS:  121280885  HIT:  121188098  MISS:      92787
DTLB LOAD      ACCESS:   81232443  HIT:   81143608  MISS:      88835
DTLB RFO       ACCESS:   40048442  HIT:   40044490  MISS:       3952
DTLB PREFETCH  ACCESS:          0  HIT:          0  MISS:          0
DTLB WRITEBACK ACCESS:          0  HIT:          0  MISS:          0
DTLB PREFETCH  REQUESTED:          0  ISSUED:          0  USEFUL:          0  USELESS:          0
DTLB TOTAL MSHR MERGED:       2661
DTLB LOAD MSHR MERGED:       2333
DTLB RFO MSHR MERGED:        328
DTLB PREFETCH MSHR MERGED:          0
DTLB WRITEBACK MSHR MERGED:          0
DTLB TOTAL ACCESSES:  121283546 HITS:  121188098 MISSES:      95448
DTLB LOAD ACCESSES:   81234776 HITS:   81143608 MISSES:      91168
DTLB RFO ACCESSES:   40048770 HITS:   40044490 MISSES:       4280
DTLB PREFETCH ACCESSES:          0 HITS:          0 MISSES:          0
DTLB WRITEBACK ACCESSES:          0 HITS:          0 MISSES:          0
DTLB RQ ACCESS:  164789694
DTLB RQ TO_CACHE:  121283546
DTLB RQ MERGED:   43506148
DTLB RQ FORWARD:          0
DTLB WQ ACCESS:          0
DTLB WQ TO_CACHE:          0
DTLB WQ MERGED:          0
DTLB WQ FORWARD:          0
L1D TOTAL     ACCESS:  217707515  HIT:  214708629  MISS:    2998886
L1D LOAD      ACCESS:   90566674  HIT:   89162504  MISS:    1404170
L1D RFO       ACCESS:   46154888  HIT:   45772585  MISS:     382303
L1D PREFETCH  ACCESS:   80985953  HIT:   79773540  MISS:    1212413
L1D WRITEBACK ACCESS:          0  HIT:          0  MISS:          0
L1D PREFETCH  REQUESTED:   90616310  ISSUED:   88239243  USEFUL:     599010  USELESS:     613422
L1D TOTAL MSHR MERGED:     344652
L1D LOAD MSHR MERGED:      54137
L1D RFO MSHR MERGED:     174554
L1D PREFETCH MSHR MERGED:     115961
L1D WRITEBACK MSHR MERGED:          0
L1D TOTAL ACCESSES:  218056728 HITS:  214713190 MISSES:    3343538
L1D LOAD ACCESSES:   90616311 HITS:   89162505 MISSES:    1453806
L1D RFO ACCESSES:   46328300 HITS:   45772585 MISSES:     555715
L1D PREFETCH ACCESSES:   81112117 HITS:   79778100 MISSES:    1334017
L1D WRITEBACK ACCESSES:          0 HITS:          0 MISSES:          0
L1D RQ ACCESS:  117521774
L1D RQ TO_CACHE:   90616310
L1D RQ MERGED:   26905463
L1D RQ FORWARD:          0
L1D WQ ACCESS:   47267919
L1D WQ TO_CACHE:   46328300
L1D WQ MERGED:     939619
L1D WQ FORWARD:       4561
L1I TOTAL     ACCESS:  112806557  HIT:  112711154  MISS:      95403
L1I LOAD      ACCESS:  112806557  HIT:  112711154  MISS:      95403
L1I RFO       ACCESS:          0  HIT:          0  MISS:          0
L1I PREFETCH  ACCESS:          0  HIT:          0  MISS:          0
L1I WRITEBACK ACCESS:          0  HIT:          0  MISS:          0
L1I PREFETCH  REQUESTED:          0  ISSUED:          0  USEFUL:          0  USELESS:          0
L1I TOTAL MSHR MERGED:      59456
L1I LOAD MSHR MERGED:      59456
L1I RFO MSHR MERGED:          0
L1I PREFETCH MSHR MERGED:          0
L1I WRITEBACK MSHR MERGED:          0
L1I TOTAL ACCESSES:  112866013 HITS:  112711154 MISSES:     154859
L1I LOAD ACCESSES:  112866013 HITS:  112711154 MISSES:     154859
L1I RFO ACCESSES:          0 HITS:          0 MISSES:          0
L1I PREFETCH ACCESSES:          0 HITS:          0 MISSES:          0
L1I WRITEBACK ACCESSES:          0 HITS:          0 MISSES:          0
L1I RQ ACCESS:  500000064
L1I RQ TO_CACHE:  112866013
L1I RQ MERGED:  387134051
L1I RQ FORWARD:          0
L1I WQ ACCESS:          0
L1I WQ TO_CACHE:          0
L1I WQ MERGED:          0
L1I WQ FORWARD:          0
L2C TOTAL     ACCESS:    4791828  HIT:    4716752  MISS:      75076
L2C LOAD      ACCESS:    1495054  HIT:    1468419  MISS:      26635
L2C RFO       ACCESS:     381153  HIT:     372272  MISS:       8881
L2C PREFETCH  ACCESS:    2135916  HIT:    2096488  MISS:      39428
L2C WRITEBACK ACCESS:     779705  HIT:     779573  MISS:        132
L2C PREFETCH  REQUESTED:     923258  ISSUED:     923258  USEFUL:      13226  USELESS:      26319
L2C TOTAL MSHR MERGED:       5390
L2C LOAD MSHR MERGED:        202
L2C RFO MSHR MERGED:          0
L2C PREFETCH MSHR MERGED:       5188
L2C WRITEBACK MSHR MERGED:          0
L2C TOTAL ACCESSES:    4797251 HITS:    4716785 MISSES:      80466
L2C LOAD ACCESSES:    1495072 HITS:    1468437 MISSES:      26635
L2C RFO ACCESSES:     381161 HITS:     372280 MISSES:       8881
L2C PREFETCH ACCESSES:    2141313 HITS:    2096495 MISSES:      44818
L2C WRITEBACK ACCESSES:     779705 HITS:     779573 MISSES:        132
L2C RQ ACCESS:    1876233
L2C RQ TO_CACHE:    1876207
L2C RQ MERGED:          0
L2C RQ FORWARD:          0
L2C WQ ACCESS:     779705
L2C WQ TO_CACHE:     779705
L2C WQ MERGED:          0
L2C WQ FORWARD:         33
LLC TOTAL     ACCESS:      95472  HIT:      76957  MISS:      18515
LLC LOAD      ACCESS:      26433  HIT:      23784  MISS:       2649
LLC RFO       ACCESS:       8881  HIT:        406  MISS:       8475
LLC PREFETCH  ACCESS:      39630  HIT:      32262  MISS:       7368
LLC WRITEBACK ACCESS:      20528  HIT:      20505  MISS:         23
LLC PREFETCH  REQUESTED:          0  ISSUED:          0  USEFUL:        870  USELESS:        145
LLC TOTAL MSHR MERGED:          0
LLC LOAD MSHR MERGED:          0
LLC RFO MSHR MERGED:          0
LLC PREFETCH MSHR MERGED:          0
LLC WRITEBACK MSHR MERGED:          0
LLC TOTAL ACCESSES:      95472 HITS:      76957 MISSES:      18515
LLC LOAD ACCESSES:      26433 HITS:      23784 MISSES:       2649
LLC RFO ACCESSES:       8881 HITS:        406 MISSES:       8475
LLC PREFETCH ACCESSES:      39630 HITS:      32262 MISSES:       7368
LLC WRITEBACK ACCESSES:      20528 HITS:      20505 MISSES:         23
LLC 0 RQ ACCESS:      35314
LLC 0 RQ TO_CACHE:      35314
LLC 0 RQ MERGED:          0
LLC 0 RQ FORWARD:          0
LLC WQ ACCESS:      20528
LLC WQ TO_CACHE:      20528
LLC WQ MERGED:          0
LLC WQ FORWARD:          0
Major fault: 0 Minor fault: 1378
CPU 0 L1D next line prefetcher final stats
CPU 0 L2C PC-based stride prefetcher final stats
All Misses: 26576
All Hits: 86373
SD Algo Stats - Switches: 0 SRR-Repls: 5448 BRR-Repls: 0

DRAM Statistics
 CHANNEL 0
 RQ ROW_BUFFER_HIT:      14118  ROW_BUFFER_MISS:       4360
 DBUS_CONGESTED:       2975
 WQ ROW_BUFFER_HIT:         39  ROW_BUFFER_MISS:        242  FULL:          0

 AVG_CONGESTED_CYCLE: 12
LOADS RETIRED: 124527094
INSTR RETIRED: 500000000
