
*** ChampSim Multicore Out-of-Order Simulator ***

Warmup Instructions: 100000000
Simulation Instructions: 500000000
Number of CPUs: 1
LLC sets: 2048
LLC ways: 16
Clean RRIP Policies: 2213230222132302 Dirty RRIP Policies: 2203130222031302 PSEL Width: 10 Track Set: 4294967295 PSEL Mask: 1 Demote Mask: 1040100010401000DS Algo: 0Window size: 0
Off-chip DRAM Size: 4096 MB Channels: 1 Width: 64-bit Data Rate: 1600 MT/s

CPU 0 runs /mnt/beegfs/iconst01/spec2017/Gcc.trace.gz
NOT SORTED
TRACE STRING: /mnt/beegfs/iconst01/spec2017/Gcc.trace.gz
SORTED
TRACE STRING: /mnt/beegfs/iconst01/spec2017/Gcc.trace.gz
INITIAL
TRACE STRING: /mnt/beegfs/iconst01/spec2017/Gcc.trace.gz

champsim_seed used: 269

CPU 0 L1D next line prefetcher
CPU 0 L2C IP-based stride prefetcher
Initialize DRRIP state
Assign rand_sets[0]: 454  LLC: 2048
rand_sets[0]: 454
Assign rand_sets[1]: 1662  LLC: 2048
rand_sets[1]: 1662
Assign rand_sets[2]: 1921  LLC: 2048
rand_sets[2]: 1921
Assign rand_sets[3]: 1131  LLC: 2048
rand_sets[3]: 1131
Assign rand_sets[4]: 331  LLC: 2048
rand_sets[4]: 331
Assign rand_sets[5]: 1531  LLC: 2048
rand_sets[5]: 1531
Assign rand_sets[6]: 482  LLC: 2048
rand_sets[6]: 482
Assign rand_sets[7]: 1275  LLC: 2048
rand_sets[7]: 1275
Assign rand_sets[8]: 1876  LLC: 2048
rand_sets[8]: 1876
Assign rand_sets[9]: 2038  LLC: 2048
rand_sets[9]: 2038
Assign rand_sets[10]: 701  LLC: 2048
rand_sets[10]: 701
Assign rand_sets[11]: 479  LLC: 2048
rand_sets[11]: 479
Assign rand_sets[12]: 892  LLC: 2048
rand_sets[12]: 892
Assign rand_sets[13]: 1820  LLC: 2048
rand_sets[13]: 1820
Assign rand_sets[14]: 1505  LLC: 2048
rand_sets[14]: 1505
Assign rand_sets[15]: 1159  LLC: 2048
rand_sets[15]: 1159
Assign rand_sets[16]: 513  LLC: 2048
rand_sets[16]: 513
Assign rand_sets[17]: 703  LLC: 2048
rand_sets[17]: 703
Assign rand_sets[18]: 561  LLC: 2048
rand_sets[18]: 561
Assign rand_sets[19]: 990  LLC: 2048
rand_sets[19]: 990
Assign rand_sets[20]: 342  LLC: 2048
rand_sets[20]: 342
Assign rand_sets[21]: 882  LLC: 2048
rand_sets[21]: 882
Assign rand_sets[22]: 15  LLC: 2048
rand_sets[22]: 15
Assign rand_sets[23]: 71  LLC: 2048
rand_sets[23]: 71
Assign rand_sets[24]: 1127  LLC: 2048
rand_sets[24]: 1127
Assign rand_sets[25]: 1382  LLC: 2048
rand_sets[25]: 1382
Assign rand_sets[26]: 647  LLC: 2048
rand_sets[26]: 647
Assign rand_sets[27]: 857  LLC: 2048
rand_sets[27]: 857
Assign rand_sets[28]: 1450  LLC: 2048
rand_sets[28]: 1450
Assign rand_sets[29]: 1160  LLC: 2048
rand_sets[29]: 1160
Assign rand_sets[30]: 1852  LLC: 2048
rand_sets[30]: 1852
Assign rand_sets[31]: 1881  LLC: 2048
rand_sets[31]: 1881
Assign rand_sets[32]: 1770  LLC: 2048
rand_sets[32]: 1770
Assign rand_sets[33]: 1622  LLC: 2048
rand_sets[33]: 1622
Assign rand_sets[34]: 275  LLC: 2048
rand_sets[34]: 275
Assign rand_sets[35]: 635  LLC: 2048
rand_sets[35]: 635
Assign rand_sets[36]: 466  LLC: 2048
rand_sets[36]: 466
Assign rand_sets[37]: 1413  LLC: 2048
rand_sets[37]: 1413
Assign rand_sets[38]: 417  LLC: 2048
rand_sets[38]: 417
Assign rand_sets[39]: 472  LLC: 2048
rand_sets[39]: 472
Assign rand_sets[40]: 1340  LLC: 2048
rand_sets[40]: 1340
Assign rand_sets[41]: 852  LLC: 2048
rand_sets[41]: 852
Assign rand_sets[42]: 1365  LLC: 2048
rand_sets[42]: 1365
Assign rand_sets[43]: 47  LLC: 2048
rand_sets[43]: 47
Assign rand_sets[44]: 823  LLC: 2048
rand_sets[44]: 823
Assign rand_sets[45]: 686  LLC: 2048
rand_sets[45]: 686
Assign rand_sets[46]: 1637  LLC: 2048
rand_sets[46]: 1637
Assign rand_sets[47]: 1115  LLC: 2048
rand_sets[47]: 1115
Assign rand_sets[48]: 986  LLC: 2048
rand_sets[48]: 986
Assign rand_sets[49]: 258  LLC: 2048
rand_sets[49]: 258
Assign rand_sets[50]: 633  LLC: 2048
rand_sets[50]: 633
Assign rand_sets[51]: 920  LLC: 2048
rand_sets[51]: 920
Assign rand_sets[52]: 204  LLC: 2048
rand_sets[52]: 204
Assign rand_sets[53]: 227  LLC: 2048
rand_sets[53]: 227
Assign rand_sets[54]: 1818  LLC: 2048
rand_sets[54]: 1818
Assign rand_sets[55]: 886  LLC: 2048
rand_sets[55]: 886
Assign rand_sets[56]: 1422  LLC: 2048
rand_sets[56]: 1422
Assign rand_sets[57]: 607  LLC: 2048
rand_sets[57]: 607
Assign rand_sets[58]: 217  LLC: 2048
rand_sets[58]: 217
Assign rand_sets[59]: 1945  LLC: 2048
rand_sets[59]: 1945
Assign rand_sets[60]: 143  LLC: 2048
rand_sets[60]: 143
Assign rand_sets[61]: 1311  LLC: 2048
rand_sets[61]: 1311
Assign rand_sets[62]: 319  LLC: 2048
rand_sets[62]: 319
Assign rand_sets[63]: 1846  LLC: 2048
rand_sets[63]: 1846
 CLEAN-RRIP-POLICY-1: 2-2-1-3-2-3-0-2- CLEAN-RRIP-POLICY-2: 2-2-1-3-2-3-0-2-
 DIRTY-RRIP-POLICY-1: 2-2-0-3-1-3-0-2- DIRTY-RRIP-POLICY-2: 2-2-0-3-1-3-0-2-
 PSEL width: 10
Heartbeat CPU 0 instructions: 10000001 cycles: 7315980 heartbeat IPC: 1.36687 cumulative IPC: 1.36687 (Simulation time: 0 hr 0 min 14 sec) 
Heartbeat CPU 0 instructions: 20000000 cycles: 14307659 heartbeat IPC: 1.43027 cumulative IPC: 1.39785 (Simulation time: 0 hr 0 min 27 sec) 
Heartbeat CPU 0 instructions: 30000001 cycles: 21020550 heartbeat IPC: 1.48967 cumulative IPC: 1.42717 (Simulation time: 0 hr 0 min 42 sec) 
Heartbeat CPU 0 instructions: 40000000 cycles: 27481310 heartbeat IPC: 1.54781 cumulative IPC: 1.45553 (Simulation time: 0 hr 0 min 57 sec) 
Heartbeat CPU 0 instructions: 50000001 cycles: 33583059 heartbeat IPC: 1.63887 cumulative IPC: 1.48885 (Simulation time: 0 hr 1 min 11 sec) 
Heartbeat CPU 0 instructions: 60000000 cycles: 40064272 heartbeat IPC: 1.54292 cumulative IPC: 1.49759 (Simulation time: 0 hr 1 min 25 sec) 
Heartbeat CPU 0 instructions: 70000000 cycles: 47103019 heartbeat IPC: 1.42071 cumulative IPC: 1.4861 (Simulation time: 0 hr 1 min 39 sec) 
Heartbeat CPU 0 instructions: 80000000 cycles: 54193224 heartbeat IPC: 1.4104 cumulative IPC: 1.4762 (Simulation time: 0 hr 1 min 52 sec) 
Heartbeat CPU 0 instructions: 90000003 cycles: 61197997 heartbeat IPC: 1.4276 cumulative IPC: 1.47064 (Simulation time: 0 hr 2 min 6 sec) 
Heartbeat CPU 0 instructions: 100000000 cycles: 68365470 heartbeat IPC: 1.39519 cumulative IPC: 1.46273 (Simulation time: 0 hr 2 min 19 sec) 

Warmup complete CPU 0 instructions: 100000004 cycles: 68365471 (Simulation time: 0 hr 2 min 19 sec) 

Heartbeat CPU 0 instructions: 110000003 cycles: 95979817 heartbeat IPC: 0.362131 cumulative IPC: 0.362131 (Simulation time: 0 hr 2 min 45 sec) 
Heartbeat CPU 0 instructions: 120000000 cycles: 123423873 heartbeat IPC: 0.364378 cumulative IPC: 0.363251 (Simulation time: 0 hr 3 min 11 sec) 
Heartbeat CPU 0 instructions: 130000000 cycles: 148390503 heartbeat IPC: 0.400535 cumulative IPC: 0.374883 (Simulation time: 0 hr 3 min 36 sec) 
Heartbeat CPU 0 instructions: 140000000 cycles: 177916872 heartbeat IPC: 0.33868 cumulative IPC: 0.365125 (Simulation time: 0 hr 4 min 1 sec) 
Heartbeat CPU 0 instructions: 150000000 cycles: 207771442 heartbeat IPC: 0.334957 cumulative IPC: 0.358665 (Simulation time: 0 hr 4 min 26 sec) 
Heartbeat CPU 0 instructions: 160000000 cycles: 235186231 heartbeat IPC: 0.364767 cumulative IPC: 0.359667 (Simulation time: 0 hr 4 min 50 sec) 
Heartbeat CPU 0 instructions: 170000001 cycles: 263167951 heartbeat IPC: 0.357376 cumulative IPC: 0.359338 (Simulation time: 0 hr 5 min 17 sec) 
Heartbeat CPU 0 instructions: 180000000 cycles: 291597791 heartbeat IPC: 0.351743 cumulative IPC: 0.358371 (Simulation time: 0 hr 5 min 42 sec) 
Heartbeat CPU 0 instructions: 190000002 cycles: 319591508 heartbeat IPC: 0.357223 cumulative IPC: 0.358243 (Simulation time: 0 hr 6 min 7 sec) 
Heartbeat CPU 0 instructions: 200000000 cycles: 347926340 heartbeat IPC: 0.352922 cumulative IPC: 0.357704 (Simulation time: 0 hr 6 min 33 sec) 
Heartbeat CPU 0 instructions: 210000002 cycles: 375767989 heartbeat IPC: 0.359174 cumulative IPC: 0.357837 (Simulation time: 0 hr 6 min 59 sec) 
Heartbeat CPU 0 instructions: 220000000 cycles: 404922110 heartbeat IPC: 0.343005 cumulative IPC: 0.356552 (Simulation time: 0 hr 7 min 23 sec) 
Heartbeat CPU 0 instructions: 230000000 cycles: 432434097 heartbeat IPC: 0.363478 cumulative IPC: 0.357076 (Simulation time: 0 hr 7 min 47 sec) 
Heartbeat CPU 0 instructions: 240000000 cycles: 458354105 heartbeat IPC: 0.385802 cumulative IPC: 0.358985 (Simulation time: 0 hr 8 min 11 sec) 
Heartbeat CPU 0 instructions: 250000000 cycles: 488459071 heartbeat IPC: 0.332171 cumulative IPC: 0.357063 (Simulation time: 0 hr 8 min 38 sec) 
Heartbeat CPU 0 instructions: 260000000 cycles: 515528133 heartbeat IPC: 0.369425 cumulative IPC: 0.357812 (Simulation time: 0 hr 9 min 2 sec) 
Heartbeat CPU 0 instructions: 270000003 cycles: 543921539 heartbeat IPC: 0.352195 cumulative IPC: 0.357476 (Simulation time: 0 hr 9 min 29 sec) 
Heartbeat CPU 0 instructions: 280000000 cycles: 572071985 heartbeat IPC: 0.355234 cumulative IPC: 0.357351 (Simulation time: 0 hr 9 min 55 sec) 
Heartbeat CPU 0 instructions: 290000000 cycles: 600987302 heartbeat IPC: 0.345837 cumulative IPC: 0.356726 (Simulation time: 0 hr 10 min 21 sec) 
Heartbeat CPU 0 instructions: 300000000 cycles: 630985356 heartbeat IPC: 0.333355 cumulative IPC: 0.35548 (Simulation time: 0 hr 10 min 46 sec) 
Heartbeat CPU 0 instructions: 310000001 cycles: 660407551 heartbeat IPC: 0.33988 cumulative IPC: 0.354704 (Simulation time: 0 hr 11 min 11 sec) 
Heartbeat CPU 0 instructions: 320000000 cycles: 688624039 heartbeat IPC: 0.354403 cumulative IPC: 0.354691 (Simulation time: 0 hr 11 min 36 sec) 
Heartbeat CPU 0 instructions: 330000000 cycles: 717262773 heartbeat IPC: 0.349177 cumulative IPC: 0.354447 (Simulation time: 0 hr 12 min 0 sec) 
Heartbeat CPU 0 instructions: 340000000 cycles: 746516061 heartbeat IPC: 0.341842 cumulative IPC: 0.353904 (Simulation time: 0 hr 12 min 25 sec) 
Heartbeat CPU 0 instructions: 350000003 cycles: 773553384 heartbeat IPC: 0.369859 cumulative IPC: 0.354515 (Simulation time: 0 hr 12 min 50 sec) 
Heartbeat CPU 0 instructions: 360000000 cycles: 801685604 heartbeat IPC: 0.355464 cumulative IPC: 0.354552 (Simulation time: 0 hr 13 min 14 sec) 
Heartbeat CPU 0 instructions: 370000000 cycles: 829862047 heartbeat IPC: 0.354906 cumulative IPC: 0.354565 (Simulation time: 0 hr 13 min 37 sec) 
Heartbeat CPU 0 instructions: 380000000 cycles: 858353751 heartbeat IPC: 0.350979 cumulative IPC: 0.354436 (Simulation time: 0 hr 14 min 1 sec) 
Heartbeat CPU 0 instructions: 390000001 cycles: 885954763 heartbeat IPC: 0.362306 cumulative IPC: 0.354701 (Simulation time: 0 hr 14 min 25 sec) 
Heartbeat CPU 0 instructions: 400000000 cycles: 914586520 heartbeat IPC: 0.349263 cumulative IPC: 0.354517 (Simulation time: 0 hr 14 min 49 sec) 
Heartbeat CPU 0 instructions: 410000001 cycles: 941889846 heartbeat IPC: 0.366256 cumulative IPC: 0.354884 (Simulation time: 0 hr 15 min 12 sec) 
Heartbeat CPU 0 instructions: 420000000 cycles: 969202807 heartbeat IPC: 0.366127 cumulative IPC: 0.355225 (Simulation time: 0 hr 15 min 36 sec) 
Heartbeat CPU 0 instructions: 430000002 cycles: 996909636 heartbeat IPC: 0.360922 cumulative IPC: 0.355395 (Simulation time: 0 hr 15 min 59 sec) 
Heartbeat CPU 0 instructions: 440000000 cycles: 1026436592 heartbeat IPC: 0.338674 cumulative IPC: 0.35488 (Simulation time: 0 hr 16 min 23 sec) 
Heartbeat CPU 0 instructions: 450000002 cycles: 1055668909 heartbeat IPC: 0.342087 cumulative IPC: 0.354501 (Simulation time: 0 hr 16 min 47 sec) 
Heartbeat CPU 0 instructions: 460000000 cycles: 1083368415 heartbeat IPC: 0.361017 cumulative IPC: 0.354679 (Simulation time: 0 hr 17 min 11 sec) 
Heartbeat CPU 0 instructions: 470000000 cycles: 1111003827 heartbeat IPC: 0.361855 cumulative IPC: 0.354869 (Simulation time: 0 hr 17 min 35 sec) 
Heartbeat CPU 0 instructions: 480000000 cycles: 1138884346 heartbeat IPC: 0.358673 cumulative IPC: 0.354968 (Simulation time: 0 hr 17 min 58 sec) 
Heartbeat CPU 0 instructions: 490000000 cycles: 1166475374 heartbeat IPC: 0.362437 cumulative IPC: 0.355156 (Simulation time: 0 hr 18 min 22 sec) 
Heartbeat CPU 0 instructions: 500000000 cycles: 1194789050 heartbeat IPC: 0.353186 cumulative IPC: 0.355106 (Simulation time: 0 hr 18 min 46 sec) 
Heartbeat CPU 0 instructions: 510000000 cycles: 1229010984 heartbeat IPC: 0.29221 cumulative IPC: 0.353252 (Simulation time: 0 hr 19 min 13 sec) 
Heartbeat CPU 0 instructions: 520000000 cycles: 1257009201 heartbeat IPC: 0.357166 cumulative IPC: 0.353344 (Simulation time: 0 hr 19 min 37 sec) 
Heartbeat CPU 0 instructions: 530000001 cycles: 1286545031 heartbeat IPC: 0.338572 cumulative IPC: 0.352986 (Simulation time: 0 hr 20 min 2 sec) 
Heartbeat CPU 0 instructions: 540000000 cycles: 1314636044 heartbeat IPC: 0.355986 cumulative IPC: 0.353053 (Simulation time: 0 hr 20 min 27 sec) 
Heartbeat CPU 0 instructions: 550000001 cycles: 1343806117 heartbeat IPC: 0.342817 cumulative IPC: 0.352819 (Simulation time: 0 hr 20 min 53 sec) 
Heartbeat CPU 0 instructions: 560000000 cycles: 1369192662 heartbeat IPC: 0.393909 cumulative IPC: 0.353621 (Simulation time: 0 hr 21 min 17 sec) 
Heartbeat CPU 0 instructions: 570000000 cycles: 1398664419 heartbeat IPC: 0.339308 cumulative IPC: 0.353304 (Simulation time: 0 hr 21 min 42 sec) 
Heartbeat CPU 0 instructions: 580000000 cycles: 1426601103 heartbeat IPC: 0.357952 cumulative IPC: 0.3534 (Simulation time: 0 hr 22 min 7 sec) 
Heartbeat CPU 0 instructions: 590000001 cycles: 1451335437 heartbeat IPC: 0.404296 cumulative IPC: 0.35431 (Simulation time: 0 hr 22 min 30 sec) 
Heartbeat CPU 0 instructions: 600000000 cycles: 1477405854 heartbeat IPC: 0.383576 cumulative IPC: 0.354851 (Simulation time: 0 hr 22 min 54 sec) 
Finished CPU 0 instructions: 500000000 cycles: 1409040405 cumulative IPC: 0.354851 (Simulation time: 0 hr 22 min 54 sec) 

CPU 0 Branch Prediction Accuracy: 86.4311% MPKI: 26.2662
Number of Branches: 96788573 Number of Mispredictions: 13133102
Number of LOAD Instructions: 164682285
Number of LOAD Instructions (ROI): 164682285
Number of STORE Instructions: 78194750
Number of STORE Instructions (ROI): 78194750
Total Destination Memory Operands: 83268534
Total Destination Memory Operands (ROI): 83268534
Total Source Memory Operands: 164712438
Total Source Memory Operands (ROI): 164712438
Number of DEPENDED LOADS: 7057962
Number of DEPENDED LOADS (ROI): 7057962
Number of SQ_ADDED: 83268522
Number of SQ_ADDED (ROI): 83268522
Number of LQ_ADDED: 236719765
Number of LQ_ADDED (ROI): 236719765
Number of Instructions read from trace: 600000066

ChampSim completed all CPUs

Region of Interest Statistics

CPU 0 cumulative IPC: 0.354851 instructions: 500000000 cycles: 1409040405
ITLB TOTAL     ACCESS:  100517162  HIT:  100312716  MISS:     204446
ITLB LOAD      ACCESS:  100517162  HIT:  100312716  MISS:     204446
ITLB RFO       ACCESS:          0  HIT:          0  MISS:          0
ITLB PREFETCH  ACCESS:          0  HIT:          0  MISS:          0
ITLB WRITEBACK ACCESS:          0  HIT:          0  MISS:          0
ITLB PREFETCH  REQUESTED:          0  ISSUED:          0  USEFUL:          0  USELESS:          0
ITLB TOTAL MSHR MERGED:     172424
ITLB LOAD MSHR MERGED:     172424
ITLB RFO MSHR MERGED:          0
ITLB PREFETCH MSHR MERGED:          0
ITLB WRITEBACK MSHR MERGED:          0
ITLB TOTAL ACCESSES:  100689586 HITS:  100312716 MISSES:     376870
ITLB LOAD ACCESSES:  100689586 HITS:  100312716 MISSES:     376870
ITLB RFO ACCESSES:          0 HITS:          0 MISSES:          0
ITLB PREFETCH ACCESSES:          0 HITS:          0 MISSES:          0
ITLB WRITEBACK ACCESSES:          0 HITS:          0 MISSES:          0
ITLB RQ ACCESS:  500000057
ITLB RQ TO_CACHE:  100689586
ITLB RQ MERGED:  399310471
ITLB RQ FORWARD:          0
ITLB WQ ACCESS:          0
ITLB WQ TO_CACHE:          0
ITLB WQ MERGED:          0
ITLB WQ FORWARD:          0
DTLB TOTAL     ACCESS:  165338259  HIT:  164703909  MISS:     634350
DTLB LOAD      ACCESS:  106293405  HIT:  105723484  MISS:     569921
DTLB RFO       ACCESS:   59044854  HIT:   58980425  MISS:      64429
DTLB PREFETCH  ACCESS:          0  HIT:          0  MISS:          0
DTLB WRITEBACK ACCESS:          0  HIT:          0  MISS:          0
DTLB PREFETCH  REQUESTED:          0  ISSUED:          0  USEFUL:          0  USELESS:          0
DTLB TOTAL MSHR MERGED:      99988
DTLB LOAD MSHR MERGED:      59462
DTLB RFO MSHR MERGED:      40526
DTLB PREFETCH MSHR MERGED:          0
DTLB WRITEBACK MSHR MERGED:          0
DTLB TOTAL ACCESSES:  165438247 HITS:  164703909 MISSES:     734338
DTLB LOAD ACCESSES:  106352867 HITS:  105723484 MISSES:     629383
DTLB RFO ACCESSES:   59085380 HITS:   58980425 MISSES:     104955
DTLB PREFETCH ACCESSES:          0 HITS:          0 MISSES:          0
DTLB WRITEBACK ACCESSES:          0 HITS:          0 MISSES:          0
DTLB RQ ACCESS:  200312931
DTLB RQ TO_CACHE:  165438247
DTLB RQ MERGED:   34874684
DTLB RQ FORWARD:          0
DTLB WQ ACCESS:          0
DTLB WQ TO_CACHE:          0
DTLB WQ MERGED:          0
DTLB WQ FORWARD:          0
L1D TOTAL     ACCESS:  281844396  HIT:  273935037  MISS:    7909359
L1D LOAD      ACCESS:  110419960  HIT:  107142329  MISS:    3277631
L1D RFO       ACCESS:   67122638  HIT:   66232183  MISS:     890455
L1D PREFETCH  ACCESS:  104301798  HIT:  100560525  MISS:    3741273
L1D WRITEBACK ACCESS:          0  HIT:          0  MISS:          0
L1D PREFETCH  REQUESTED:  110818694  ISSUED:  109119409  USEFUL:    1661938  USELESS:    2079299
L1D TOTAL MSHR MERGED:    2862611
L1D LOAD MSHR MERGED:     495815
L1D RFO MSHR MERGED:    1863164
L1D PREFETCH MSHR MERGED:     503632
L1D WRITEBACK MSHR MERGED:          0
L1D TOTAL ACCESSES:  284734443 HITS:  273962473 MISSES:   10771970
L1D LOAD ACCESSES:  110820133 HITS:  107143768 MISSES:    3676365
L1D RFO ACCESSES:   68974138 HITS:   66232183 MISSES:    2741955
L1D PREFETCH ACCESSES:  104940172 HITS:  100586522 MISSES:    4353650
L1D WRITEBACK ACCESSES:          0 HITS:          0 MISSES:          0
L1D RQ ACCESS:  130760328
L1D RQ TO_CACHE:  110818697
L1D RQ MERGED:   19940192
L1D RQ FORWARD:          0
L1D WQ ACCESS:   69552603
L1D WQ TO_CACHE:   68974139
L1D WQ MERGED:     578464
L1D WQ FORWARD:      27436
L1I TOTAL     ACCESS:  126564433  HIT:  122325880  MISS:    4238553
L1I LOAD      ACCESS:  126564433  HIT:  122325880  MISS:    4238553
L1I RFO       ACCESS:          0  HIT:          0  MISS:          0
L1I PREFETCH  ACCESS:          0  HIT:          0  MISS:          0
L1I WRITEBACK ACCESS:          0  HIT:          0  MISS:          0
L1I PREFETCH  REQUESTED:          0  ISSUED:          0  USEFUL:          0  USELESS:          0
L1I TOTAL MSHR MERGED:    1834701
L1I LOAD MSHR MERGED:    1834701
L1I RFO MSHR MERGED:          0
L1I PREFETCH MSHR MERGED:          0
L1I WRITEBACK MSHR MERGED:          0
L1I TOTAL ACCESSES:  128399137 HITS:  122325880 MISSES:    6073257
L1I LOAD ACCESSES:  128399137 HITS:  122325880 MISSES:    6073257
L1I RFO ACCESSES:          0 HITS:          0 MISSES:          0
L1I PREFETCH ACCESSES:          0 HITS:          0 MISSES:          0
L1I WRITEBACK ACCESSES:          0 HITS:          0 MISSES:          0
L1I RQ ACCESS:  500000057
L1I RQ TO_CACHE:  128399137
L1I RQ MERGED:  371600920
L1I RQ FORWARD:          0
L1I WQ ACCESS:          0
L1I WQ TO_CACHE:          0
L1I WQ MERGED:          0
L1I WQ FORWARD:          0
L2C TOTAL     ACCESS:   14905192  HIT:   11158688  MISS:    3746504
L2C LOAD      ACCESS:    7418894  HIT:    5098854  MISS:    2320040
L2C RFO       ACCESS:     878693  HIT:     409892  MISS:     468801
L2C PREFETCH  ACCESS:    4568362  HIT:    3627952  MISS:     940410
L2C WRITEBACK ACCESS:    2039243  HIT:    2021990  MISS:      17253
L2C PREFETCH  REQUESTED:     842794  ISSUED:     842794  USEFUL:     203355  USELESS:     736761
L2C TOTAL MSHR MERGED:       7132
L2C LOAD MSHR MERGED:        810
L2C RFO MSHR MERGED:          0
L2C PREFETCH MSHR MERGED:       6322
L2C WRITEBACK MSHR MERGED:          0
L2C TOTAL ACCESSES:   14913213 HITS:   11159140 MISSES:    3754073
L2C LOAD ACCESSES:    7419103 HITS:    5099063 MISSES:    2320040
L2C RFO ACCESSES:     878791 HITS:     409990 MISSES:     468801
L2C PREFETCH ACCESSES:    4576076 HITS:    3628097 MISSES:     947979
L2C WRITEBACK ACCESSES:    2039243 HITS:    2021990 MISSES:      17253
L2C RQ ACCESS:    8297897
L2C RQ TO_CACHE:    8297590
L2C RQ MERGED:          0
L2C RQ FORWARD:          0
L2C WQ ACCESS:    2039243
L2C WQ TO_CACHE:    2039243
L2C WQ MERGED:          0
L2C WQ FORWARD:        452
LLC TOTAL     ACCESS:    4609844  HIT:    3987397  MISS:     622447
LLC LOAD      ACCESS:    2319214  HIT:    2073871  MISS:     245343
LLC RFO       ACCESS:     468791  HIT:     411451  MISS:      57340
LLC PREFETCH  ACCESS:     941532  HIT:     669169  MISS:     272363
LLC WRITEBACK ACCESS:     880307  HIT:     832906  MISS:      47401
LLC PREFETCH  REQUESTED:          0  ISSUED:          0  USEFUL:      15088  USELESS:     257574
LLC TOTAL MSHR MERGED:        101
LLC LOAD MSHR MERGED:         32
LLC RFO MSHR MERGED:          0
LLC PREFETCH MSHR MERGED:         69
LLC WRITEBACK MSHR MERGED:          0
LLC TOTAL ACCESSES:    4609981 HITS:    3987433 MISSES:     622548
LLC LOAD ACCESSES:    2319230 HITS:    2073887 MISSES:     245343
LLC RFO ACCESSES:     468801 HITS:     411461 MISSES:      57340
LLC PREFETCH ACCESSES:     941643 HITS:     669179 MISSES:     272464
LLC WRITEBACK ACCESSES:     880307 HITS:     832906 MISSES:      47401
LLC 0 RQ ACCESS:    2788031
LLC 0 RQ TO_CACHE:    2788005
LLC 0 RQ MERGED:          0
LLC 0 RQ FORWARD:          0
LLC WQ ACCESS:     880307
LLC WQ TO_CACHE:     880307
LLC WQ MERGED:          0
LLC WQ FORWARD:         36
Major fault: 0 Minor fault: 12862
CPU 0 L1D next line prefetcher final stats
CPU 0 L2C PC-based stride prefetcher final stats
All Misses: 745836
All Hits: 4681014
SD Algo Stats - Switches: 0 SRR-Repls: 290530 BRR-Repls: 0

DRAM Statistics
 CHANNEL 0
 RQ ROW_BUFFER_HIT:     117175  ROW_BUFFER_MISS:     457015
 DBUS_CONGESTED:     324061
 WQ ROW_BUFFER_HIT:      11073  ROW_BUFFER_MISS:     155780  FULL:          0

 AVG_CONGESTED_CYCLE: 13
LOADS RETIRED: 136549171
INSTR RETIRED: 500000000
