
*** ChampSim Multicore Out-of-Order Simulator ***

Warmup Instructions: 100000000
Simulation Instructions: 100000000
Number of CPUs: 1
LLC sets: 2048
LLC ways: 16
Clean RRIP Policies: 1322170213221702 Dirty RRIP Policies: 302070203020702 PSEL Width: 10 Track Set: 4294967295 PSEL Mask: 1 Demote Mask: 4044001040440010DS Algo: 0Window size: 0
Off-chip DRAM Size: 4096 MB Channels: 1 Width: 64-bit Data Rate: 1600 MT/s

CPU 0 runs /mnt/beegfs/iconst01/spec2017/Mcf.trace.gz
NOT SORTED
TRACE STRING: /mnt/beegfs/iconst01/spec2017/Mcf.trace.gz
SORTED
TRACE STRING: /mnt/beegfs/iconst01/spec2017/Mcf.trace.gz
INITIAL
TRACE STRING: /mnt/beegfs/iconst01/spec2017/Mcf.trace.gz

champsim_seed used: 278

CPU 0 L1D next line prefetcher
CPU 0 L2C IP-based stride prefetcher
Initialize DRRIP state
Assign rand_sets[0]: 454  LLC: 2048
rand_sets[0]: 454
Assign rand_sets[1]: 1662  LLC: 2048
rand_sets[1]: 1662
Assign rand_sets[2]: 1921  LLC: 2048
rand_sets[2]: 1921
Assign rand_sets[3]: 1131  LLC: 2048
rand_sets[3]: 1131
Assign rand_sets[4]: 331  LLC: 2048
rand_sets[4]: 331
Assign rand_sets[5]: 1531  LLC: 2048
rand_sets[5]: 1531
Assign rand_sets[6]: 482  LLC: 2048
rand_sets[6]: 482
Assign rand_sets[7]: 1275  LLC: 2048
rand_sets[7]: 1275
Assign rand_sets[8]: 1876  LLC: 2048
rand_sets[8]: 1876
Assign rand_sets[9]: 2038  LLC: 2048
rand_sets[9]: 2038
Assign rand_sets[10]: 701  LLC: 2048
rand_sets[10]: 701
Assign rand_sets[11]: 479  LLC: 2048
rand_sets[11]: 479
Assign rand_sets[12]: 892  LLC: 2048
rand_sets[12]: 892
Assign rand_sets[13]: 1820  LLC: 2048
rand_sets[13]: 1820
Assign rand_sets[14]: 1505  LLC: 2048
rand_sets[14]: 1505
Assign rand_sets[15]: 1159  LLC: 2048
rand_sets[15]: 1159
Assign rand_sets[16]: 513  LLC: 2048
rand_sets[16]: 513
Assign rand_sets[17]: 703  LLC: 2048
rand_sets[17]: 703
Assign rand_sets[18]: 561  LLC: 2048
rand_sets[18]: 561
Assign rand_sets[19]: 990  LLC: 2048
rand_sets[19]: 990
Assign rand_sets[20]: 342  LLC: 2048
rand_sets[20]: 342
Assign rand_sets[21]: 882  LLC: 2048
rand_sets[21]: 882
Assign rand_sets[22]: 15  LLC: 2048
rand_sets[22]: 15
Assign rand_sets[23]: 71  LLC: 2048
rand_sets[23]: 71
Assign rand_sets[24]: 1127  LLC: 2048
rand_sets[24]: 1127
Assign rand_sets[25]: 1382  LLC: 2048
rand_sets[25]: 1382
Assign rand_sets[26]: 647  LLC: 2048
rand_sets[26]: 647
Assign rand_sets[27]: 857  LLC: 2048
rand_sets[27]: 857
Assign rand_sets[28]: 1450  LLC: 2048
rand_sets[28]: 1450
Assign rand_sets[29]: 1160  LLC: 2048
rand_sets[29]: 1160
Assign rand_sets[30]: 1852  LLC: 2048
rand_sets[30]: 1852
Assign rand_sets[31]: 1881  LLC: 2048
rand_sets[31]: 1881
Assign rand_sets[32]: 1770  LLC: 2048
rand_sets[32]: 1770
Assign rand_sets[33]: 1622  LLC: 2048
rand_sets[33]: 1622
Assign rand_sets[34]: 275  LLC: 2048
rand_sets[34]: 275
Assign rand_sets[35]: 635  LLC: 2048
rand_sets[35]: 635
Assign rand_sets[36]: 466  LLC: 2048
rand_sets[36]: 466
Assign rand_sets[37]: 1413  LLC: 2048
rand_sets[37]: 1413
Assign rand_sets[38]: 417  LLC: 2048
rand_sets[38]: 417
Assign rand_sets[39]: 472  LLC: 2048
rand_sets[39]: 472
Assign rand_sets[40]: 1340  LLC: 2048
rand_sets[40]: 1340
Assign rand_sets[41]: 852  LLC: 2048
rand_sets[41]: 852
Assign rand_sets[42]: 1365  LLC: 2048
rand_sets[42]: 1365
Assign rand_sets[43]: 47  LLC: 2048
rand_sets[43]: 47
Assign rand_sets[44]: 823  LLC: 2048
rand_sets[44]: 823
Assign rand_sets[45]: 686  LLC: 2048
rand_sets[45]: 686
Assign rand_sets[46]: 1637  LLC: 2048
rand_sets[46]: 1637
Assign rand_sets[47]: 1115  LLC: 2048
rand_sets[47]: 1115
Assign rand_sets[48]: 986  LLC: 2048
rand_sets[48]: 986
Assign rand_sets[49]: 258  LLC: 2048
rand_sets[49]: 258
Assign rand_sets[50]: 633  LLC: 2048
rand_sets[50]: 633
Assign rand_sets[51]: 920  LLC: 2048
rand_sets[51]: 920
Assign rand_sets[52]: 204  LLC: 2048
rand_sets[52]: 204
Assign rand_sets[53]: 227  LLC: 2048
rand_sets[53]: 227
Assign rand_sets[54]: 1818  LLC: 2048
rand_sets[54]: 1818
Assign rand_sets[55]: 886  LLC: 2048
rand_sets[55]: 886
Assign rand_sets[56]: 1422  LLC: 2048
rand_sets[56]: 1422
Assign rand_sets[57]: 607  LLC: 2048
rand_sets[57]: 607
Assign rand_sets[58]: 217  LLC: 2048
rand_sets[58]: 217
Assign rand_sets[59]: 1945  LLC: 2048
rand_sets[59]: 1945
Assign rand_sets[60]: 143  LLC: 2048
rand_sets[60]: 143
Assign rand_sets[61]: 1311  LLC: 2048
rand_sets[61]: 1311
Assign rand_sets[62]: 319  LLC: 2048
rand_sets[62]: 319
Assign rand_sets[63]: 1846  LLC: 2048
rand_sets[63]: 1846
 CLEAN-RRIP-POLICY-1: 1-3-2-2-1-7-0-2- CLEAN-RRIP-POLICY-2: 1-3-2-2-1-7-0-2-
 DIRTY-RRIP-POLICY-1: 0-3-0-2-0-7-0-2- DIRTY-RRIP-POLICY-2: 0-3-0-2-0-7-0-2-
 PSEL width: 10
Heartbeat CPU 0 instructions: 10000002 cycles: 6247736 heartbeat IPC: 1.60058 cumulative IPC: 1.60058 (Simulation time: 0 hr 0 min 12 sec) 
Heartbeat CPU 0 instructions: 20000000 cycles: 12467887 heartbeat IPC: 1.60768 cumulative IPC: 1.60412 (Simulation time: 0 hr 0 min 24 sec) 
Heartbeat CPU 0 instructions: 30000000 cycles: 18678321 heartbeat IPC: 1.61019 cumulative IPC: 1.60614 (Simulation time: 0 hr 0 min 37 sec) 
Heartbeat CPU 0 instructions: 40000000 cycles: 24888710 heartbeat IPC: 1.61021 cumulative IPC: 1.60715 (Simulation time: 0 hr 0 min 49 sec) 
Heartbeat CPU 0 instructions: 50000003 cycles: 31100864 heartbeat IPC: 1.60975 cumulative IPC: 1.60767 (Simulation time: 0 hr 1 min 2 sec) 
Heartbeat CPU 0 instructions: 60000000 cycles: 37296746 heartbeat IPC: 1.61397 cumulative IPC: 1.60872 (Simulation time: 0 hr 1 min 14 sec) 
Heartbeat CPU 0 instructions: 70000003 cycles: 43515017 heartbeat IPC: 1.60816 cumulative IPC: 1.60864 (Simulation time: 0 hr 1 min 27 sec) 
Heartbeat CPU 0 instructions: 80000000 cycles: 49745191 heartbeat IPC: 1.60509 cumulative IPC: 1.6082 (Simulation time: 0 hr 1 min 39 sec) 
Heartbeat CPU 0 instructions: 90000000 cycles: 55974002 heartbeat IPC: 1.60544 cumulative IPC: 1.60789 (Simulation time: 0 hr 1 min 51 sec) 
Heartbeat CPU 0 instructions: 100000000 cycles: 62192579 heartbeat IPC: 1.60808 cumulative IPC: 1.60791 (Simulation time: 0 hr 2 min 4 sec) 

Warmup complete CPU 0 instructions: 100000001 cycles: 62192580 (Simulation time: 0 hr 2 min 4 sec) 

Heartbeat CPU 0 instructions: 110000000 cycles: 86324234 heartbeat IPC: 0.414393 cumulative IPC: 0.414393 (Simulation time: 0 hr 2 min 27 sec) 
Heartbeat CPU 0 instructions: 120000000 cycles: 110515786 heartbeat IPC: 0.413367 cumulative IPC: 0.41388 (Simulation time: 0 hr 2 min 50 sec) 
Heartbeat CPU 0 instructions: 130000000 cycles: 134791925 heartbeat IPC: 0.411927 cumulative IPC: 0.413227 (Simulation time: 0 hr 3 min 13 sec) 
Heartbeat CPU 0 instructions: 140000000 cycles: 159029969 heartbeat IPC: 0.412575 cumulative IPC: 0.413064 (Simulation time: 0 hr 3 min 37 sec) 
Heartbeat CPU 0 instructions: 150000003 cycles: 183177689 heartbeat IPC: 0.414118 cumulative IPC: 0.413274 (Simulation time: 0 hr 4 min 0 sec) 
Heartbeat CPU 0 instructions: 160000000 cycles: 207620978 heartbeat IPC: 0.40911 cumulative IPC: 0.412574 (Simulation time: 0 hr 4 min 23 sec) 
Heartbeat CPU 0 instructions: 170000001 cycles: 231938748 heartbeat IPC: 0.411222 cumulative IPC: 0.41238 (Simulation time: 0 hr 4 min 46 sec) 
Heartbeat CPU 0 instructions: 180000000 cycles: 256246096 heartbeat IPC: 0.411398 cumulative IPC: 0.412257 (Simulation time: 0 hr 5 min 10 sec) 
Heartbeat CPU 0 instructions: 190000003 cycles: 280511042 heartbeat IPC: 0.412117 cumulative IPC: 0.412242 (Simulation time: 0 hr 5 min 33 sec) 
Heartbeat CPU 0 instructions: 200000000 cycles: 304849730 heartbeat IPC: 0.410868 cumulative IPC: 0.412104 (Simulation time: 0 hr 5 min 56 sec) 
Finished CPU 0 instructions: 100000000 cycles: 242657158 cumulative IPC: 0.412104 (Simulation time: 0 hr 5 min 56 sec) 

CPU 0 Branch Prediction Accuracy: 90.1931% MPKI: 20.4688
Number of Branches: 20871774 Number of Mispredictions: 2046882
Number of LOAD Instructions: 68600459
Number of LOAD Instructions (ROI): 68600459
Number of STORE Instructions: 18715594
Number of STORE Instructions (ROI): 18715594
Total Destination Memory Operands: 19755305
Total Destination Memory Operands (ROI): 19755305
Total Source Memory Operands: 68600459
Total Source Memory Operands (ROI): 68600459
Number of DEPENDED LOADS: 5959800
Number of DEPENDED LOADS (ROI): 5959800
Number of SQ_ADDED: 19755305
Number of SQ_ADDED (ROI): 19755305
Number of LQ_ADDED: 69011834
Number of LQ_ADDED (ROI): 69011834
Number of Instructions read from trace: 200000004

ChampSim completed all CPUs

Region of Interest Statistics

CPU 0 cumulative IPC: 0.412104 instructions: 100000000 cycles: 242657158
ITLB TOTAL     ACCESS:   19074093  HIT:   19074093  MISS:          0
ITLB LOAD      ACCESS:   19074093  HIT:   19074093  MISS:          0
ITLB RFO       ACCESS:          0  HIT:          0  MISS:          0
ITLB PREFETCH  ACCESS:          0  HIT:          0  MISS:          0
ITLB WRITEBACK ACCESS:          0  HIT:          0  MISS:          0
ITLB PREFETCH  REQUESTED:          0  ISSUED:          0  USEFUL:          0  USELESS:          0
ITLB TOTAL MSHR MERGED:          0
ITLB LOAD MSHR MERGED:          0
ITLB RFO MSHR MERGED:          0
ITLB PREFETCH MSHR MERGED:          0
ITLB WRITEBACK MSHR MERGED:          0
ITLB TOTAL ACCESSES:   19074093 HITS:   19074093 MISSES:          0
ITLB LOAD ACCESSES:   19074093 HITS:   19074093 MISSES:          0
ITLB RFO ACCESSES:          0 HITS:          0 MISSES:          0
ITLB PREFETCH ACCESSES:          0 HITS:          0 MISSES:          0
ITLB WRITEBACK ACCESSES:          0 HITS:          0 MISSES:          0
ITLB RQ ACCESS:   99999945
ITLB RQ TO_CACHE:   19074093
ITLB RQ MERGED:   80925852
ITLB RQ FORWARD:          0
ITLB WQ ACCESS:          0
ITLB WQ TO_CACHE:          0
ITLB WQ MERGED:          0
ITLB WQ FORWARD:          0
DTLB TOTAL     ACCESS:   31534466  HIT:   30767099  MISS:     767367
DTLB LOAD      ACCESS:   23686789  HIT:   23001304  MISS:     685485
DTLB RFO       ACCESS:    7847677  HIT:    7765795  MISS:      81882
DTLB PREFETCH  ACCESS:          0  HIT:          0  MISS:          0
DTLB WRITEBACK ACCESS:          0  HIT:          0  MISS:          0
DTLB PREFETCH  REQUESTED:          0  ISSUED:          0  USEFUL:          0  USELESS:          0
DTLB TOTAL MSHR MERGED:      51447
DTLB LOAD MSHR MERGED:      23429
DTLB RFO MSHR MERGED:      28018
DTLB PREFETCH MSHR MERGED:          0
DTLB WRITEBACK MSHR MERGED:          0
DTLB TOTAL ACCESSES:   31585913 HITS:   30767099 MISSES:     818814
DTLB LOAD ACCESSES:   23710218 HITS:   23001304 MISSES:     708914
DTLB RFO ACCESSES:    7875695 HITS:    7765795 MISSES:     109900
DTLB PREFETCH ACCESSES:          0 HITS:          0 MISSES:          0
DTLB WRITEBACK ACCESSES:          0 HITS:          0 MISSES:          0
DTLB RQ ACCESS:   41115475
DTLB RQ TO_CACHE:   31585913
DTLB RQ MERGED:    9529562
DTLB RQ FORWARD:          0
DTLB WQ ACCESS:          0
DTLB WQ TO_CACHE:          0
DTLB WQ MERGED:          0
DTLB WQ FORWARD:          0
L1D TOTAL     ACCESS:   56158417  HIT:   49725844  MISS:    6432573
L1D LOAD      ACCESS:   25194372  HIT:   22013297  MISS:    3181075
L1D RFO       ACCESS:    8567101  HIT:    8102370  MISS:     464731
L1D PREFETCH  ACCESS:   22396944  HIT:   19610177  MISS:    2786767
L1D WRITEBACK ACCESS:          0  HIT:          0  MISS:          0
L1D PREFETCH  REQUESTED:   25335282  ISSUED:   25027348  USEFUL:     533296  USELESS:    2253461
L1D TOTAL MSHR MERGED:    1478387
L1D LOAD MSHR MERGED:     268478
L1D RFO MSHR MERGED:     741331
L1D PREFETCH MSHR MERGED:     468578
L1D WRITEBACK MSHR MERGED:          0
L1D TOTAL ACCESSES:   57653997 HITS:   49743037 MISSES:    7910960
L1D LOAD ACCESSES:   25335282 HITS:   22013297 MISSES:    3321985
L1D RFO ACCESSES:    9308296 HITS:    8102370 MISSES:    1205926
L1D PREFETCH ACCESSES:   23010419 HITS:   19627370 MISSES:    3383049
L1D WRITEBACK ACCESSES:          0 HITS:          0 MISSES:          0
L1D RQ ACCESS:   31276692
L1D RQ TO_CACHE:   25335282
L1D RQ MERGED:    5941410
L1D RQ FORWARD:          0
L1D WQ ACCESS:    9838783
L1D WQ TO_CACHE:    9308296
L1D WQ MERGED:     530487
L1D WQ FORWARD:      17193
L1I TOTAL     ACCESS:   26536696  HIT:   26536696  MISS:          0
L1I LOAD      ACCESS:   26536696  HIT:   26536696  MISS:          0
L1I RFO       ACCESS:          0  HIT:          0  MISS:          0
L1I PREFETCH  ACCESS:          0  HIT:          0  MISS:          0
L1I WRITEBACK ACCESS:          0  HIT:          0  MISS:          0
L1I PREFETCH  REQUESTED:          0  ISSUED:          0  USEFUL:          0  USELESS:          0
L1I TOTAL MSHR MERGED:          0
L1I LOAD MSHR MERGED:          0
L1I RFO MSHR MERGED:          0
L1I PREFETCH MSHR MERGED:          0
L1I WRITEBACK MSHR MERGED:          0
L1I TOTAL ACCESSES:   26536696 HITS:   26536696 MISSES:          0
L1I LOAD ACCESSES:   26536696 HITS:   26536696 MISSES:          0
L1I RFO ACCESSES:          0 HITS:          0 MISSES:          0
L1I PREFETCH ACCESSES:          0 HITS:          0 MISSES:          0
L1I WRITEBACK ACCESSES:          0 HITS:          0 MISSES:          0
L1I RQ ACCESS:   99999945
L1I RQ TO_CACHE:   26536696
L1I RQ MERGED:   73463249
L1I RQ FORWARD:          0
L1I WQ ACCESS:          0
L1I WQ TO_CACHE:          0
L1I WQ MERGED:          0
L1I WQ FORWARD:          0
L2C TOTAL     ACCESS:    7357005  HIT:    4225927  MISS:    3131078
L2C LOAD      ACCESS:    3053499  HIT:    1741047  MISS:    1312452
L2C RFO       ACCESS:     464585  HIT:     141940  MISS:     322645
L2C PREFETCH  ACCESS:    3184257  HIT:    1688856  MISS:    1495401
L2C WRITEBACK ACCESS:     654664  HIT:     654084  MISS:        580
L2C PREFETCH  REQUESTED:     383360  ISSUED:     383360  USEFUL:     242017  USELESS:    1253483
L2C TOTAL MSHR MERGED:      43882
L2C LOAD MSHR MERGED:       5303
L2C RFO MSHR MERGED:          0
L2C PREFETCH MSHR MERGED:      38579
L2C WRITEBACK MSHR MERGED:          0
L2C TOTAL ACCESSES:    7405200 HITS:    4225954 MISSES:    3179246
L2C LOAD ACCESSES:    3053507 HITS:    1741055 MISSES:    1312452
L2C RFO ACCESSES:     464595 HITS:     141950 MISSES:     322645
L2C PREFETCH ACCESSES:    3232434 HITS:    1688865 MISSES:    1543569
L2C WRITEBACK ACCESSES:     654664 HITS:     654084 MISSES:        580
L2C RQ ACCESS:    3518102
L2C RQ TO_CACHE:    3518084
L2C RQ MERGED:          0
L2C RQ FORWARD:          0
L2C WQ ACCESS:     654664
L2C WQ TO_CACHE:     654664
L2C WQ MERGED:          0
L2C WQ FORWARD:         27
LLC TOTAL     ACCESS:    3546027  HIT:    2685632  MISS:     860395
LLC LOAD      ACCESS:    1307145  HIT:     980887  MISS:     326258
LLC RFO       ACCESS:     322620  HIT:     322351  MISS:        269
LLC PREFETCH  ACCESS:    1503236  HIT:     969459  MISS:     533777
LLC WRITEBACK ACCESS:     413026  HIT:     412935  MISS:         91
LLC PREFETCH  REQUESTED:          0  ISSUED:          0  USEFUL:     120117  USELESS:     417125
LLC TOTAL MSHR MERGED:       1508
LLC LOAD MSHR MERGED:        382
LLC RFO MSHR MERGED:          0
LLC PREFETCH MSHR MERGED:       1126
LLC WRITEBACK MSHR MERGED:          0
LLC TOTAL ACCESSES:    3547571 HITS:    2685668 MISSES:     861903
LLC LOAD ACCESSES:    1307149 HITS:     980891 MISSES:     326258
LLC RFO ACCESSES:     322645 HITS:     322376 MISSES:        269
LLC PREFETCH ACCESSES:    1504751 HITS:     969466 MISSES:     535285
LLC WRITEBACK ACCESSES:     413026 HITS:     412935 MISSES:         91
LLC 0 RQ ACCESS:    1629794
LLC 0 RQ TO_CACHE:    1629765
LLC 0 RQ MERGED:          0
LLC 0 RQ FORWARD:          0
LLC WQ ACCESS:     413026
LLC WQ TO_CACHE:     413026
LLC WQ MERGED:          0
LLC WQ FORWARD:         36
Major fault: 0 Minor fault: 20809
CPU 0 L1D next line prefetcher final stats
CPU 0 L2C PC-based stride prefetcher final stats
All Misses: 1686508
All Hits: 5236360
SD Algo Stats - Switches: 0 SRR-Repls: 418713 BRR-Repls: 0

DRAM Statistics
 CHANNEL 0
 RQ ROW_BUFFER_HIT:     618416  ROW_BUFFER_MISS:     241674
 DBUS_CONGESTED:     401518
 WQ ROW_BUFFER_HIT:         32  ROW_BUFFER_MISS:       1268  FULL:          0

 AVG_CONGESTED_CYCLE: 12
LOADS RETIRED: 34338138
INSTR RETIRED: 100000000
