
*** ChampSim Multicore Out-of-Order Simulator ***

Warmup Instructions: 100000000
Simulation Instructions: 500000000
Number of CPUs: 1
LLC sets: 2048
LLC ways: 16
Clean RRIP Policies: 1002112110021121 Dirty RRIP Policies: 2012010120120101 PSEL Width: 10 Track Set: 4294967295 PSEL Mask: 1 Demote Mask: 1120420011204200DS Algo: 0Window size: 0
Off-chip DRAM Size: 4096 MB Channels: 1 Width: 64-bit Data Rate: 1600 MT/s

CPU 0 runs /mnt/beegfs/iconst01/spec2017/Gcc.trace.gz
NOT SORTED
TRACE STRING: /mnt/beegfs/iconst01/spec2017/Gcc.trace.gz
SORTED
TRACE STRING: /mnt/beegfs/iconst01/spec2017/Gcc.trace.gz
INITIAL
TRACE STRING: /mnt/beegfs/iconst01/spec2017/Gcc.trace.gz

champsim_seed used: 269

CPU 0 L1D next line prefetcher
CPU 0 L2C IP-based stride prefetcher
Initialize DRRIP state
Assign rand_sets[0]: 454  LLC: 2048
rand_sets[0]: 454
Assign rand_sets[1]: 1662  LLC: 2048
rand_sets[1]: 1662
Assign rand_sets[2]: 1921  LLC: 2048
rand_sets[2]: 1921
Assign rand_sets[3]: 1131  LLC: 2048
rand_sets[3]: 1131
Assign rand_sets[4]: 331  LLC: 2048
rand_sets[4]: 331
Assign rand_sets[5]: 1531  LLC: 2048
rand_sets[5]: 1531
Assign rand_sets[6]: 482  LLC: 2048
rand_sets[6]: 482
Assign rand_sets[7]: 1275  LLC: 2048
rand_sets[7]: 1275
Assign rand_sets[8]: 1876  LLC: 2048
rand_sets[8]: 1876
Assign rand_sets[9]: 2038  LLC: 2048
rand_sets[9]: 2038
Assign rand_sets[10]: 701  LLC: 2048
rand_sets[10]: 701
Assign rand_sets[11]: 479  LLC: 2048
rand_sets[11]: 479
Assign rand_sets[12]: 892  LLC: 2048
rand_sets[12]: 892
Assign rand_sets[13]: 1820  LLC: 2048
rand_sets[13]: 1820
Assign rand_sets[14]: 1505  LLC: 2048
rand_sets[14]: 1505
Assign rand_sets[15]: 1159  LLC: 2048
rand_sets[15]: 1159
Assign rand_sets[16]: 513  LLC: 2048
rand_sets[16]: 513
Assign rand_sets[17]: 703  LLC: 2048
rand_sets[17]: 703
Assign rand_sets[18]: 561  LLC: 2048
rand_sets[18]: 561
Assign rand_sets[19]: 990  LLC: 2048
rand_sets[19]: 990
Assign rand_sets[20]: 342  LLC: 2048
rand_sets[20]: 342
Assign rand_sets[21]: 882  LLC: 2048
rand_sets[21]: 882
Assign rand_sets[22]: 15  LLC: 2048
rand_sets[22]: 15
Assign rand_sets[23]: 71  LLC: 2048
rand_sets[23]: 71
Assign rand_sets[24]: 1127  LLC: 2048
rand_sets[24]: 1127
Assign rand_sets[25]: 1382  LLC: 2048
rand_sets[25]: 1382
Assign rand_sets[26]: 647  LLC: 2048
rand_sets[26]: 647
Assign rand_sets[27]: 857  LLC: 2048
rand_sets[27]: 857
Assign rand_sets[28]: 1450  LLC: 2048
rand_sets[28]: 1450
Assign rand_sets[29]: 1160  LLC: 2048
rand_sets[29]: 1160
Assign rand_sets[30]: 1852  LLC: 2048
rand_sets[30]: 1852
Assign rand_sets[31]: 1881  LLC: 2048
rand_sets[31]: 1881
Assign rand_sets[32]: 1770  LLC: 2048
rand_sets[32]: 1770
Assign rand_sets[33]: 1622  LLC: 2048
rand_sets[33]: 1622
Assign rand_sets[34]: 275  LLC: 2048
rand_sets[34]: 275
Assign rand_sets[35]: 635  LLC: 2048
rand_sets[35]: 635
Assign rand_sets[36]: 466  LLC: 2048
rand_sets[36]: 466
Assign rand_sets[37]: 1413  LLC: 2048
rand_sets[37]: 1413
Assign rand_sets[38]: 417  LLC: 2048
rand_sets[38]: 417
Assign rand_sets[39]: 472  LLC: 2048
rand_sets[39]: 472
Assign rand_sets[40]: 1340  LLC: 2048
rand_sets[40]: 1340
Assign rand_sets[41]: 852  LLC: 2048
rand_sets[41]: 852
Assign rand_sets[42]: 1365  LLC: 2048
rand_sets[42]: 1365
Assign rand_sets[43]: 47  LLC: 2048
rand_sets[43]: 47
Assign rand_sets[44]: 823  LLC: 2048
rand_sets[44]: 823
Assign rand_sets[45]: 686  LLC: 2048
rand_sets[45]: 686
Assign rand_sets[46]: 1637  LLC: 2048
rand_sets[46]: 1637
Assign rand_sets[47]: 1115  LLC: 2048
rand_sets[47]: 1115
Assign rand_sets[48]: 986  LLC: 2048
rand_sets[48]: 986
Assign rand_sets[49]: 258  LLC: 2048
rand_sets[49]: 258
Assign rand_sets[50]: 633  LLC: 2048
rand_sets[50]: 633
Assign rand_sets[51]: 920  LLC: 2048
rand_sets[51]: 920
Assign rand_sets[52]: 204  LLC: 2048
rand_sets[52]: 204
Assign rand_sets[53]: 227  LLC: 2048
rand_sets[53]: 227
Assign rand_sets[54]: 1818  LLC: 2048
rand_sets[54]: 1818
Assign rand_sets[55]: 886  LLC: 2048
rand_sets[55]: 886
Assign rand_sets[56]: 1422  LLC: 2048
rand_sets[56]: 1422
Assign rand_sets[57]: 607  LLC: 2048
rand_sets[57]: 607
Assign rand_sets[58]: 217  LLC: 2048
rand_sets[58]: 217
Assign rand_sets[59]: 1945  LLC: 2048
rand_sets[59]: 1945
Assign rand_sets[60]: 143  LLC: 2048
rand_sets[60]: 143
Assign rand_sets[61]: 1311  LLC: 2048
rand_sets[61]: 1311
Assign rand_sets[62]: 319  LLC: 2048
rand_sets[62]: 319
Assign rand_sets[63]: 1846  LLC: 2048
rand_sets[63]: 1846
 CLEAN-RRIP-POLICY-1: 1-0-0-2-1-1-2-1- CLEAN-RRIP-POLICY-2: 1-0-0-2-1-1-2-1-
 DIRTY-RRIP-POLICY-1: 2-0-1-2-0-1-0-1- DIRTY-RRIP-POLICY-2: 2-0-1-2-0-1-0-1-
 PSEL width: 10
Heartbeat CPU 0 instructions: 10000001 cycles: 7315921 heartbeat IPC: 1.36688 cumulative IPC: 1.36688 (Simulation time: 0 hr 0 min 17 sec) 
Heartbeat CPU 0 instructions: 20000000 cycles: 14308591 heartbeat IPC: 1.43007 cumulative IPC: 1.39776 (Simulation time: 0 hr 0 min 33 sec) 
Heartbeat CPU 0 instructions: 30000001 cycles: 21022643 heartbeat IPC: 1.48941 cumulative IPC: 1.42703 (Simulation time: 0 hr 0 min 51 sec) 
Heartbeat CPU 0 instructions: 40000000 cycles: 27483802 heartbeat IPC: 1.54771 cumulative IPC: 1.4554 (Simulation time: 0 hr 1 min 9 sec) 
Heartbeat CPU 0 instructions: 50000001 cycles: 33586144 heartbeat IPC: 1.63872 cumulative IPC: 1.48871 (Simulation time: 0 hr 1 min 26 sec) 
Heartbeat CPU 0 instructions: 60000000 cycles: 40067732 heartbeat IPC: 1.54283 cumulative IPC: 1.49746 (Simulation time: 0 hr 1 min 44 sec) 
Heartbeat CPU 0 instructions: 70000000 cycles: 47109326 heartbeat IPC: 1.42013 cumulative IPC: 1.48591 (Simulation time: 0 hr 2 min 2 sec) 
Heartbeat CPU 0 instructions: 80000000 cycles: 54200689 heartbeat IPC: 1.41017 cumulative IPC: 1.476 (Simulation time: 0 hr 2 min 18 sec) 
Heartbeat CPU 0 instructions: 90000003 cycles: 61206630 heartbeat IPC: 1.42736 cumulative IPC: 1.47043 (Simulation time: 0 hr 2 min 35 sec) 
Heartbeat CPU 0 instructions: 100000000 cycles: 68375887 heartbeat IPC: 1.39484 cumulative IPC: 1.4625 (Simulation time: 0 hr 2 min 52 sec) 

Warmup complete CPU 0 instructions: 100000004 cycles: 68375888 (Simulation time: 0 hr 2 min 52 sec) 

Heartbeat CPU 0 instructions: 110000003 cycles: 96359212 heartbeat IPC: 0.357356 cumulative IPC: 0.357356 (Simulation time: 0 hr 3 min 25 sec) 
Heartbeat CPU 0 instructions: 120000000 cycles: 123934366 heartbeat IPC: 0.362645 cumulative IPC: 0.359981 (Simulation time: 0 hr 3 min 58 sec) 
Heartbeat CPU 0 instructions: 130000000 cycles: 149031170 heartbeat IPC: 0.398457 cumulative IPC: 0.371953 (Simulation time: 0 hr 4 min 31 sec) 
Heartbeat CPU 0 instructions: 140000000 cycles: 179135299 heartbeat IPC: 0.33218 cumulative IPC: 0.361143 (Simulation time: 0 hr 5 min 3 sec) 
Heartbeat CPU 0 instructions: 150000000 cycles: 209365289 heartbeat IPC: 0.330797 cumulative IPC: 0.354637 (Simulation time: 0 hr 5 min 36 sec) 
Heartbeat CPU 0 instructions: 160000000 cycles: 236894168 heartbeat IPC: 0.363255 cumulative IPC: 0.356044 (Simulation time: 0 hr 6 min 8 sec) 
Heartbeat CPU 0 instructions: 170000001 cycles: 265184053 heartbeat IPC: 0.353483 cumulative IPC: 0.355676 (Simulation time: 0 hr 6 min 42 sec) 
Heartbeat CPU 0 instructions: 180000000 cycles: 293898871 heartbeat IPC: 0.348252 cumulative IPC: 0.354731 (Simulation time: 0 hr 7 min 16 sec) 
Heartbeat CPU 0 instructions: 190000002 cycles: 322308153 heartbeat IPC: 0.351998 cumulative IPC: 0.354425 (Simulation time: 0 hr 7 min 49 sec) 
Heartbeat CPU 0 instructions: 200000000 cycles: 350868297 heartbeat IPC: 0.350138 cumulative IPC: 0.353992 (Simulation time: 0 hr 8 min 23 sec) 
Heartbeat CPU 0 instructions: 210000002 cycles: 378973383 heartbeat IPC: 0.355808 cumulative IPC: 0.354156 (Simulation time: 0 hr 8 min 56 sec) 
Heartbeat CPU 0 instructions: 220000000 cycles: 408601955 heartbeat IPC: 0.337512 cumulative IPC: 0.352707 (Simulation time: 0 hr 9 min 27 sec) 
Heartbeat CPU 0 instructions: 230000000 cycles: 436412833 heartbeat IPC: 0.359572 cumulative IPC: 0.353225 (Simulation time: 0 hr 9 min 59 sec) 
Heartbeat CPU 0 instructions: 240000000 cycles: 462415230 heartbeat IPC: 0.38458 cumulative IPC: 0.355294 (Simulation time: 0 hr 10 min 30 sec) 
Heartbeat CPU 0 instructions: 250000000 cycles: 492689751 heartbeat IPC: 0.330311 cumulative IPC: 0.353512 (Simulation time: 0 hr 11 min 5 sec) 
Heartbeat CPU 0 instructions: 260000000 cycles: 519863543 heartbeat IPC: 0.368002 cumulative IPC: 0.354384 (Simulation time: 0 hr 11 min 37 sec) 
Heartbeat CPU 0 instructions: 270000003 cycles: 548532086 heartbeat IPC: 0.348814 cumulative IPC: 0.354051 (Simulation time: 0 hr 12 min 12 sec) 
Heartbeat CPU 0 instructions: 280000000 cycles: 577004615 heartbeat IPC: 0.351216 cumulative IPC: 0.353893 (Simulation time: 0 hr 12 min 46 sec) 
Heartbeat CPU 0 instructions: 290000000 cycles: 606057399 heartbeat IPC: 0.344201 cumulative IPC: 0.353369 (Simulation time: 0 hr 13 min 20 sec) 
Heartbeat CPU 0 instructions: 300000000 cycles: 636613413 heartbeat IPC: 0.327268 cumulative IPC: 0.351965 (Simulation time: 0 hr 13 min 53 sec) 
Heartbeat CPU 0 instructions: 310000001 cycles: 666313551 heartbeat IPC: 0.336699 cumulative IPC: 0.351207 (Simulation time: 0 hr 14 min 26 sec) 
Heartbeat CPU 0 instructions: 320000000 cycles: 694955916 heartbeat IPC: 0.349133 cumulative IPC: 0.351112 (Simulation time: 0 hr 14 min 58 sec) 
Heartbeat CPU 0 instructions: 330000000 cycles: 723901491 heartbeat IPC: 0.345476 cumulative IPC: 0.350863 (Simulation time: 0 hr 15 min 31 sec) 
Heartbeat CPU 0 instructions: 340000000 cycles: 753499280 heartbeat IPC: 0.337863 cumulative IPC: 0.350302 (Simulation time: 0 hr 16 min 4 sec) 
Heartbeat CPU 0 instructions: 350000003 cycles: 780702119 heartbeat IPC: 0.367609 cumulative IPC: 0.350963 (Simulation time: 0 hr 16 min 36 sec) 
Heartbeat CPU 0 instructions: 360000000 cycles: 809251699 heartbeat IPC: 0.350268 cumulative IPC: 0.350936 (Simulation time: 0 hr 17 min 6 sec) 
Heartbeat CPU 0 instructions: 370000000 cycles: 837665270 heartbeat IPC: 0.351945 cumulative IPC: 0.350973 (Simulation time: 0 hr 17 min 36 sec) 
Heartbeat CPU 0 instructions: 380000000 cycles: 866500114 heartbeat IPC: 0.346803 cumulative IPC: 0.350823 (Simulation time: 0 hr 18 min 6 sec) 
Heartbeat CPU 0 instructions: 390000001 cycles: 894320161 heartbeat IPC: 0.359453 cumulative IPC: 0.351113 (Simulation time: 0 hr 18 min 36 sec) 
Heartbeat CPU 0 instructions: 400000000 cycles: 923256442 heartbeat IPC: 0.345587 cumulative IPC: 0.350926 (Simulation time: 0 hr 19 min 6 sec) 
Heartbeat CPU 0 instructions: 410000001 cycles: 950661628 heartbeat IPC: 0.364894 cumulative IPC: 0.35136 (Simulation time: 0 hr 19 min 36 sec) 
Heartbeat CPU 0 instructions: 420000000 cycles: 978060708 heartbeat IPC: 0.364976 cumulative IPC: 0.35177 (Simulation time: 0 hr 20 min 6 sec) 
Heartbeat CPU 0 instructions: 430000002 cycles: 1005952529 heartbeat IPC: 0.358528 cumulative IPC: 0.351971 (Simulation time: 0 hr 20 min 36 sec) 
Heartbeat CPU 0 instructions: 440000000 cycles: 1035928470 heartbeat IPC: 0.333601 cumulative IPC: 0.351402 (Simulation time: 0 hr 21 min 8 sec) 
Heartbeat CPU 0 instructions: 450000002 cycles: 1065452815 heartbeat IPC: 0.338704 cumulative IPC: 0.351026 (Simulation time: 0 hr 21 min 39 sec) 
Heartbeat CPU 0 instructions: 460000000 cycles: 1093304748 heartbeat IPC: 0.359041 cumulative IPC: 0.351244 (Simulation time: 0 hr 22 min 10 sec) 
Heartbeat CPU 0 instructions: 470000000 cycles: 1121043630 heartbeat IPC: 0.360505 cumulative IPC: 0.351488 (Simulation time: 0 hr 22 min 41 sec) 
Heartbeat CPU 0 instructions: 480000000 cycles: 1149026698 heartbeat IPC: 0.357359 cumulative IPC: 0.35164 (Simulation time: 0 hr 23 min 12 sec) 
Heartbeat CPU 0 instructions: 490000000 cycles: 1176688163 heartbeat IPC: 0.361514 cumulative IPC: 0.351886 (Simulation time: 0 hr 23 min 43 sec) 
