
*** ChampSim Multicore Out-of-Order Simulator ***

Warmup Instructions: 100000000
Simulation Instructions: 500000000
Number of CPUs: 1
LLC sets: 2048
LLC ways: 16
Clean RRIP Policies: 1213230212132302 Dirty RRIP Policies: 2203130222031302 PSEL Width: 10 Track Set: 4294967295 PSEL Mask: 1 Demote Mask: 1040100010401000DS Algo: 0Window size: 0
Off-chip DRAM Size: 4096 MB Channels: 1 Width: 64-bit Data Rate: 1600 MT/s

CPU 0 runs /mnt/beegfs/iconst01/spec2017/Omnetpp.trace.gz
NOT SORTED
TRACE STRING: /mnt/beegfs/iconst01/spec2017/Omnetpp.trace.gz
SORTED
TRACE STRING: /mnt/beegfs/iconst01/spec2017/Omnetpp.trace.gz
INITIAL
TRACE STRING: /mnt/beegfs/iconst01/spec2017/Omnetpp.trace.gz

champsim_seed used: 739

CPU 0 L1D next line prefetcher
CPU 0 L2C IP-based stride prefetcher
Initialize DRRIP state
Assign rand_sets[0]: 454  LLC: 2048
rand_sets[0]: 454
Assign rand_sets[1]: 1662  LLC: 2048
rand_sets[1]: 1662
Assign rand_sets[2]: 1921  LLC: 2048
rand_sets[2]: 1921
Assign rand_sets[3]: 1131  LLC: 2048
rand_sets[3]: 1131
Assign rand_sets[4]: 331  LLC: 2048
rand_sets[4]: 331
Assign rand_sets[5]: 1531  LLC: 2048
rand_sets[5]: 1531
Assign rand_sets[6]: 482  LLC: 2048
rand_sets[6]: 482
Assign rand_sets[7]: 1275  LLC: 2048
rand_sets[7]: 1275
Assign rand_sets[8]: 1876  LLC: 2048
rand_sets[8]: 1876
Assign rand_sets[9]: 2038  LLC: 2048
rand_sets[9]: 2038
Assign rand_sets[10]: 701  LLC: 2048
rand_sets[10]: 701
Assign rand_sets[11]: 479  LLC: 2048
rand_sets[11]: 479
Assign rand_sets[12]: 892  LLC: 2048
rand_sets[12]: 892
Assign rand_sets[13]: 1820  LLC: 2048
rand_sets[13]: 1820
Assign rand_sets[14]: 1505  LLC: 2048
rand_sets[14]: 1505
Assign rand_sets[15]: 1159  LLC: 2048
rand_sets[15]: 1159
Assign rand_sets[16]: 513  LLC: 2048
rand_sets[16]: 513
Assign rand_sets[17]: 703  LLC: 2048
rand_sets[17]: 703
Assign rand_sets[18]: 561  LLC: 2048
rand_sets[18]: 561
Assign rand_sets[19]: 990  LLC: 2048
rand_sets[19]: 990
Assign rand_sets[20]: 342  LLC: 2048
rand_sets[20]: 342
Assign rand_sets[21]: 882  LLC: 2048
rand_sets[21]: 882
Assign rand_sets[22]: 15  LLC: 2048
rand_sets[22]: 15
Assign rand_sets[23]: 71  LLC: 2048
rand_sets[23]: 71
Assign rand_sets[24]: 1127  LLC: 2048
rand_sets[24]: 1127
Assign rand_sets[25]: 1382  LLC: 2048
rand_sets[25]: 1382
Assign rand_sets[26]: 647  LLC: 2048
rand_sets[26]: 647
Assign rand_sets[27]: 857  LLC: 2048
rand_sets[27]: 857
Assign rand_sets[28]: 1450  LLC: 2048
rand_sets[28]: 1450
Assign rand_sets[29]: 1160  LLC: 2048
rand_sets[29]: 1160
Assign rand_sets[30]: 1852  LLC: 2048
rand_sets[30]: 1852
Assign rand_sets[31]: 1881  LLC: 2048
rand_sets[31]: 1881
Assign rand_sets[32]: 1770  LLC: 2048
rand_sets[32]: 1770
Assign rand_sets[33]: 1622  LLC: 2048
rand_sets[33]: 1622
Assign rand_sets[34]: 275  LLC: 2048
rand_sets[34]: 275
Assign rand_sets[35]: 635  LLC: 2048
rand_sets[35]: 635
Assign rand_sets[36]: 466  LLC: 2048
rand_sets[36]: 466
Assign rand_sets[37]: 1413  LLC: 2048
rand_sets[37]: 1413
Assign rand_sets[38]: 417  LLC: 2048
rand_sets[38]: 417
Assign rand_sets[39]: 472  LLC: 2048
rand_sets[39]: 472
Assign rand_sets[40]: 1340  LLC: 2048
rand_sets[40]: 1340
Assign rand_sets[41]: 852  LLC: 2048
rand_sets[41]: 852
Assign rand_sets[42]: 1365  LLC: 2048
rand_sets[42]: 1365
Assign rand_sets[43]: 47  LLC: 2048
rand_sets[43]: 47
Assign rand_sets[44]: 823  LLC: 2048
rand_sets[44]: 823
Assign rand_sets[45]: 686  LLC: 2048
rand_sets[45]: 686
Assign rand_sets[46]: 1637  LLC: 2048
rand_sets[46]: 1637
Assign rand_sets[47]: 1115  LLC: 2048
rand_sets[47]: 1115
Assign rand_sets[48]: 986  LLC: 2048
rand_sets[48]: 986
Assign rand_sets[49]: 258  LLC: 2048
rand_sets[49]: 258
Assign rand_sets[50]: 633  LLC: 2048
rand_sets[50]: 633
Assign rand_sets[51]: 920  LLC: 2048
rand_sets[51]: 920
Assign rand_sets[52]: 204  LLC: 2048
rand_sets[52]: 204
Assign rand_sets[53]: 227  LLC: 2048
rand_sets[53]: 227
Assign rand_sets[54]: 1818  LLC: 2048
rand_sets[54]: 1818
Assign rand_sets[55]: 886  LLC: 2048
rand_sets[55]: 886
Assign rand_sets[56]: 1422  LLC: 2048
rand_sets[56]: 1422
Assign rand_sets[57]: 607  LLC: 2048
rand_sets[57]: 607
Assign rand_sets[58]: 217  LLC: 2048
rand_sets[58]: 217
Assign rand_sets[59]: 1945  LLC: 2048
rand_sets[59]: 1945
Assign rand_sets[60]: 143  LLC: 2048
rand_sets[60]: 143
Assign rand_sets[61]: 1311  LLC: 2048
rand_sets[61]: 1311
Assign rand_sets[62]: 319  LLC: 2048
rand_sets[62]: 319
Assign rand_sets[63]: 1846  LLC: 2048
rand_sets[63]: 1846
 CLEAN-RRIP-POLICY-1: 1-2-1-3-2-3-0-2- CLEAN-RRIP-POLICY-2: 1-2-1-3-2-3-0-2-
 DIRTY-RRIP-POLICY-1: 2-2-0-3-1-3-0-2- DIRTY-RRIP-POLICY-2: 2-2-0-3-1-3-0-2-
 PSEL width: 10
Heartbeat CPU 0 instructions: 10000000 cycles: 7319834 heartbeat IPC: 1.36615 cumulative IPC: 1.36615 (Simulation time: 0 hr 0 min 19 sec) 
Heartbeat CPU 0 instructions: 20000000 cycles: 14623542 heartbeat IPC: 1.36917 cumulative IPC: 1.36766 (Simulation time: 0 hr 0 min 38 sec) 
Heartbeat CPU 0 instructions: 30000003 cycles: 21924808 heartbeat IPC: 1.36963 cumulative IPC: 1.36831 (Simulation time: 0 hr 0 min 58 sec) 
Heartbeat CPU 0 instructions: 40000000 cycles: 29212975 heartbeat IPC: 1.37209 cumulative IPC: 1.36925 (Simulation time: 0 hr 1 min 17 sec) 
Heartbeat CPU 0 instructions: 50000000 cycles: 36489353 heartbeat IPC: 1.37431 cumulative IPC: 1.37026 (Simulation time: 0 hr 1 min 36 sec) 
Heartbeat CPU 0 instructions: 60000000 cycles: 43769250 heartbeat IPC: 1.37365 cumulative IPC: 1.37083 (Simulation time: 0 hr 1 min 56 sec) 
Heartbeat CPU 0 instructions: 70000001 cycles: 51054455 heartbeat IPC: 1.37265 cumulative IPC: 1.37109 (Simulation time: 0 hr 2 min 16 sec) 
Heartbeat CPU 0 instructions: 80000000 cycles: 58329406 heartbeat IPC: 1.37458 cumulative IPC: 1.37152 (Simulation time: 0 hr 2 min 35 sec) 
Heartbeat CPU 0 instructions: 90000000 cycles: 65635704 heartbeat IPC: 1.36868 cumulative IPC: 1.3712 (Simulation time: 0 hr 2 min 55 sec) 
Heartbeat CPU 0 instructions: 100000000 cycles: 72927676 heartbeat IPC: 1.37137 cumulative IPC: 1.37122 (Simulation time: 0 hr 3 min 15 sec) 

Warmup complete CPU 0 instructions: 100000002 cycles: 72927677 (Simulation time: 0 hr 3 min 15 sec) 

Heartbeat CPU 0 instructions: 110000002 cycles: 113272810 heartbeat IPC: 0.247861 cumulative IPC: 0.247861 (Simulation time: 0 hr 3 min 53 sec) 
Heartbeat CPU 0 instructions: 120000000 cycles: 153345546 heartbeat IPC: 0.249546 cumulative IPC: 0.248701 (Simulation time: 0 hr 4 min 32 sec) 
Heartbeat CPU 0 instructions: 130000002 cycles: 193654933 heartbeat IPC: 0.248081 cumulative IPC: 0.248494 (Simulation time: 0 hr 5 min 10 sec) 
Heartbeat CPU 0 instructions: 140000000 cycles: 234060290 heartbeat IPC: 0.247492 cumulative IPC: 0.248243 (Simulation time: 0 hr 5 min 49 sec) 
Heartbeat CPU 0 instructions: 150000002 cycles: 274051446 heartbeat IPC: 0.250055 cumulative IPC: 0.248603 (Simulation time: 0 hr 6 min 27 sec) 
Heartbeat CPU 0 instructions: 160000000 cycles: 314048825 heartbeat IPC: 0.250016 cumulative IPC: 0.248838 (Simulation time: 0 hr 7 min 6 sec) 
Heartbeat CPU 0 instructions: 170000001 cycles: 353338859 heartbeat IPC: 0.254517 cumulative IPC: 0.249633 (Simulation time: 0 hr 7 min 44 sec) 
Heartbeat CPU 0 instructions: 180000000 cycles: 393351203 heartbeat IPC: 0.249923 cumulative IPC: 0.24967 (Simulation time: 0 hr 8 min 22 sec) 
Heartbeat CPU 0 instructions: 190000002 cycles: 433341810 heartbeat IPC: 0.250059 cumulative IPC: 0.249713 (Simulation time: 0 hr 9 min 0 sec) 
Heartbeat CPU 0 instructions: 200000000 cycles: 474495586 heartbeat IPC: 0.242991 cumulative IPC: 0.249024 (Simulation time: 0 hr 9 min 39 sec) 
Heartbeat CPU 0 instructions: 210000003 cycles: 514530204 heartbeat IPC: 0.249784 cumulative IPC: 0.249093 (Simulation time: 0 hr 10 min 18 sec) 
Heartbeat CPU 0 instructions: 220000000 cycles: 554756775 heartbeat IPC: 0.248592 cumulative IPC: 0.249051 (Simulation time: 0 hr 10 min 56 sec) 
Heartbeat CPU 0 instructions: 230000000 cycles: 594970297 heartbeat IPC: 0.248673 cumulative IPC: 0.249022 (Simulation time: 0 hr 11 min 35 sec) 
Heartbeat CPU 0 instructions: 240000000 cycles: 634934700 heartbeat IPC: 0.250223 cumulative IPC: 0.249107 (Simulation time: 0 hr 12 min 13 sec) 
Heartbeat CPU 0 instructions: 250000000 cycles: 674949018 heartbeat IPC: 0.249911 cumulative IPC: 0.249161 (Simulation time: 0 hr 12 min 51 sec) 
Heartbeat CPU 0 instructions: 260000000 cycles: 715038411 heartbeat IPC: 0.249443 cumulative IPC: 0.249178 (Simulation time: 0 hr 13 min 29 sec) 
Heartbeat CPU 0 instructions: 270000000 cycles: 755201073 heartbeat IPC: 0.248987 cumulative IPC: 0.249167 (Simulation time: 0 hr 14 min 7 sec) 
Heartbeat CPU 0 instructions: 280000000 cycles: 795695670 heartbeat IPC: 0.246947 cumulative IPC: 0.249043 (Simulation time: 0 hr 14 min 45 sec) 
Heartbeat CPU 0 instructions: 290000001 cycles: 835432272 heartbeat IPC: 0.251657 cumulative IPC: 0.249179 (Simulation time: 0 hr 15 min 23 sec) 
Heartbeat CPU 0 instructions: 300000000 cycles: 875841371 heartbeat IPC: 0.247469 cumulative IPC: 0.249093 (Simulation time: 0 hr 16 min 0 sec) 
Heartbeat CPU 0 instructions: 310000001 cycles: 916177588 heartbeat IPC: 0.247916 cumulative IPC: 0.249036 (Simulation time: 0 hr 16 min 37 sec) 
Heartbeat CPU 0 instructions: 320000000 cycles: 956230783 heartbeat IPC: 0.249668 cumulative IPC: 0.249065 (Simulation time: 0 hr 17 min 15 sec) 
Heartbeat CPU 0 instructions: 330000000 cycles: 996262057 heartbeat IPC: 0.249805 cumulative IPC: 0.249097 (Simulation time: 0 hr 17 min 52 sec) 
Heartbeat CPU 0 instructions: 340000000 cycles: 1036859769 heartbeat IPC: 0.246319 cumulative IPC: 0.24898 (Simulation time: 0 hr 18 min 29 sec) 
Heartbeat CPU 0 instructions: 350000001 cycles: 1076970674 heartbeat IPC: 0.249309 cumulative IPC: 0.248993 (Simulation time: 0 hr 19 min 6 sec) 
Heartbeat CPU 0 instructions: 360000000 cycles: 1117386272 heartbeat IPC: 0.247429 cumulative IPC: 0.248933 (Simulation time: 0 hr 19 min 44 sec) 
Heartbeat CPU 0 instructions: 370000000 cycles: 1156950373 heartbeat IPC: 0.252754 cumulative IPC: 0.249072 (Simulation time: 0 hr 20 min 20 sec) 
Heartbeat CPU 0 instructions: 380000000 cycles: 1197363442 heartbeat IPC: 0.247445 cumulative IPC: 0.249014 (Simulation time: 0 hr 20 min 57 sec) 
Heartbeat CPU 0 instructions: 390000001 cycles: 1237302140 heartbeat IPC: 0.250384 cumulative IPC: 0.249061 (Simulation time: 0 hr 21 min 34 sec) 
Heartbeat CPU 0 instructions: 400000000 cycles: 1277352644 heartbeat IPC: 0.249685 cumulative IPC: 0.249082 (Simulation time: 0 hr 22 min 11 sec) 
Heartbeat CPU 0 instructions: 410000000 cycles: 1317252972 heartbeat IPC: 0.250625 cumulative IPC: 0.249131 (Simulation time: 0 hr 22 min 48 sec) 
Heartbeat CPU 0 instructions: 420000000 cycles: 1357188195 heartbeat IPC: 0.250406 cumulative IPC: 0.249171 (Simulation time: 0 hr 23 min 25 sec) 
Heartbeat CPU 0 instructions: 430000000 cycles: 1397162719 heartbeat IPC: 0.250159 cumulative IPC: 0.2492 (Simulation time: 0 hr 24 min 2 sec) 
Heartbeat CPU 0 instructions: 440000000 cycles: 1437199604 heartbeat IPC: 0.24977 cumulative IPC: 0.249217 (Simulation time: 0 hr 24 min 39 sec) 
Heartbeat CPU 0 instructions: 450000002 cycles: 1477099746 heartbeat IPC: 0.250626 cumulative IPC: 0.249257 (Simulation time: 0 hr 25 min 15 sec) 
Heartbeat CPU 0 instructions: 460000000 cycles: 1516418958 heartbeat IPC: 0.254329 cumulative IPC: 0.249395 (Simulation time: 0 hr 25 min 52 sec) 
Heartbeat CPU 0 instructions: 470000000 cycles: 1556605008 heartbeat IPC: 0.248843 cumulative IPC: 0.24938 (Simulation time: 0 hr 26 min 29 sec) 
Heartbeat CPU 0 instructions: 480000000 cycles: 1596430225 heartbeat IPC: 0.251097 cumulative IPC: 0.249425 (Simulation time: 0 hr 27 min 6 sec) 
Heartbeat CPU 0 instructions: 490000001 cycles: 1636392907 heartbeat IPC: 0.250233 cumulative IPC: 0.249446 (Simulation time: 0 hr 27 min 43 sec) 
Heartbeat CPU 0 instructions: 500000000 cycles: 1676571578 heartbeat IPC: 0.248888 cumulative IPC: 0.249432 (Simulation time: 0 hr 28 min 20 sec) 
Heartbeat CPU 0 instructions: 510000000 cycles: 1716240694 heartbeat IPC: 0.252085 cumulative IPC: 0.249496 (Simulation time: 0 hr 28 min 56 sec) 
Heartbeat CPU 0 instructions: 520000000 cycles: 1756624907 heartbeat IPC: 0.247622 cumulative IPC: 0.249451 (Simulation time: 0 hr 29 min 33 sec) 
Heartbeat CPU 0 instructions: 530000000 cycles: 1796482649 heartbeat IPC: 0.250892 cumulative IPC: 0.249484 (Simulation time: 0 hr 30 min 8 sec) 
Heartbeat CPU 0 instructions: 540000000 cycles: 1836096769 heartbeat IPC: 0.252435 cumulative IPC: 0.249551 (Simulation time: 0 hr 30 min 43 sec) 
Heartbeat CPU 0 instructions: 550000001 cycles: 1876419514 heartbeat IPC: 0.247999 cumulative IPC: 0.249516 (Simulation time: 0 hr 31 min 18 sec) 
Heartbeat CPU 0 instructions: 560000000 cycles: 1916807253 heartbeat IPC: 0.2476 cumulative IPC: 0.249474 (Simulation time: 0 hr 31 min 54 sec) 
Heartbeat CPU 0 instructions: 570000003 cycles: 1957184439 heartbeat IPC: 0.247665 cumulative IPC: 0.249435 (Simulation time: 0 hr 32 min 29 sec) 
Heartbeat CPU 0 instructions: 580000000 cycles: 1997375093 heartbeat IPC: 0.248814 cumulative IPC: 0.249422 (Simulation time: 0 hr 33 min 4 sec) 
Heartbeat CPU 0 instructions: 590000001 cycles: 2037943415 heartbeat IPC: 0.246498 cumulative IPC: 0.249362 (Simulation time: 0 hr 33 min 40 sec) 
Heartbeat CPU 0 instructions: 600000000 cycles: 2078326176 heartbeat IPC: 0.24763 cumulative IPC: 0.249327 (Simulation time: 0 hr 34 min 15 sec) 
Finished CPU 0 instructions: 500000000 cycles: 2005398507 cumulative IPC: 0.249327 (Simulation time: 0 hr 34 min 15 sec) 

CPU 0 Branch Prediction Accuracy: 96.2429% MPKI: 5.85335
Number of Branches: 77897976 Number of Mispredictions: 2926674
Number of LOAD Instructions: 193081861
Number of LOAD Instructions (ROI): 193081861
Number of STORE Instructions: 97310749
Number of STORE Instructions (ROI): 97310749
Total Destination Memory Operands: 106368027
Total Destination Memory Operands (ROI): 106368027
Total Source Memory Operands: 193081861
Total Source Memory Operands (ROI): 193081861
Number of DEPENDED LOADS: 6435310
Number of DEPENDED LOADS (ROI): 6435310
Number of SQ_ADDED: 106367982
Number of SQ_ADDED (ROI): 106367982
Number of LQ_ADDED: 426426680
Number of LQ_ADDED (ROI): 426426680
Number of Instructions read from trace: 600000256

ChampSim completed all CPUs

Region of Interest Statistics

CPU 0 cumulative IPC: 0.249327 instructions: 500000000 cycles: 2005398507
ITLB TOTAL     ACCESS:  151284191  HIT:  151268360  MISS:      15831
ITLB LOAD      ACCESS:  151284191  HIT:  151268360  MISS:      15831
ITLB RFO       ACCESS:          0  HIT:          0  MISS:          0
ITLB PREFETCH  ACCESS:          0  HIT:          0  MISS:          0
ITLB WRITEBACK ACCESS:          0  HIT:          0  MISS:          0
ITLB PREFETCH  REQUESTED:          0  ISSUED:          0  USEFUL:          0  USELESS:          0
ITLB TOTAL MSHR MERGED:      17601
ITLB LOAD MSHR MERGED:      17601
ITLB RFO MSHR MERGED:          0
ITLB PREFETCH MSHR MERGED:          0
ITLB WRITEBACK MSHR MERGED:          0
ITLB TOTAL ACCESSES:  151301792 HITS:  151268360 MISSES:      33432
ITLB LOAD ACCESSES:  151301792 HITS:  151268360 MISSES:      33432
ITLB RFO ACCESSES:          0 HITS:          0 MISSES:          0
ITLB PREFETCH ACCESSES:          0 HITS:          0 MISSES:          0
ITLB WRITEBACK ACCESSES:          0 HITS:          0 MISSES:          0
ITLB RQ ACCESS:  500000242
ITLB RQ TO_CACHE:  151301792
ITLB RQ MERGED:  348698450
ITLB RQ FORWARD:          0
ITLB WQ ACCESS:          0
ITLB WQ TO_CACHE:          0
ITLB WQ MERGED:          0
ITLB WQ FORWARD:          0
DTLB TOTAL     ACCESS:  199567295  HIT:  194188241  MISS:    5379054
DTLB LOAD      ACCESS:  123138945  HIT:  118120375  MISS:    5018570
DTLB RFO       ACCESS:   76428350  HIT:   76067866  MISS:     360484
DTLB PREFETCH  ACCESS:          0  HIT:          0  MISS:          0
DTLB WRITEBACK ACCESS:          0  HIT:          0  MISS:          0
DTLB PREFETCH  REQUESTED:          0  ISSUED:          0  USEFUL:          0  USELESS:          0
DTLB TOTAL MSHR MERGED:     917229
DTLB LOAD MSHR MERGED:     807359
DTLB RFO MSHR MERGED:     109870
DTLB PREFETCH MSHR MERGED:          0
DTLB WRITEBACK MSHR MERGED:          0
DTLB TOTAL ACCESSES:  200484524 HITS:  194188241 MISSES:    6296283
DTLB LOAD ACCESSES:  123946304 HITS:  118120375 MISSES:    5825929
DTLB RFO ACCESSES:   76538220 HITS:   76067866 MISSES:     470354
DTLB PREFETCH ACCESSES:          0 HITS:          0 MISSES:          0
DTLB WRITEBACK ACCESSES:          0 HITS:          0 MISSES:          0
DTLB RQ ACCESS:  243890091
DTLB RQ TO_CACHE:  200484524
DTLB RQ MERGED:   43405567
DTLB RQ FORWARD:          0
DTLB WQ ACCESS:          0
DTLB WQ TO_CACHE:          0
DTLB WQ MERGED:          0
DTLB WQ FORWARD:          0
L1D TOTAL     ACCESS:  335640479  HIT:  317544275  MISS:   18096204
L1D LOAD      ACCESS:  127704058  HIT:  118762302  MISS:    8941756
L1D RFO       ACCESS:   87093214  HIT:   86310741  MISS:     782473
L1D PREFETCH  ACCESS:  120843207  HIT:  112471232  MISS:    8371975
L1D WRITEBACK ACCESS:          0  HIT:          0  MISS:          0
L1D PREFETCH  REQUESTED:  128480621  ISSUED:  126882658  USEFUL:    1743825  USELESS:    6628162
L1D TOTAL MSHR MERGED:    3827317
L1D LOAD MSHR MERGED:     939486
L1D RFO MSHR MERGED:    1055880
L1D PREFETCH MSHR MERGED:    1831951
L1D WRITEBACK MSHR MERGED:          0
L1D TOTAL ACCESSES:  339553303 HITS:  317629782 MISSES:   21923521
L1D LOAD ACCESSES:  128481055 HITS:  118762736 MISSES:    9718319
L1D RFO ACCESSES:   88087376 HITS:   86310741 MISSES:    1776635
L1D PREFETCH ACCESSES:  122984872 HITS:  112556305 MISSES:   10428567
L1D WRITEBACK ACCESSES:          0 HITS:          0 MISSES:          0
L1D RQ ACCESS:  155258706
L1D RQ TO_CACHE:  128480621
L1D RQ MERGED:   26777651
L1D RQ FORWARD:          0
L1D WQ ACCESS:   88631385
L1D WQ TO_CACHE:   88087375
L1D WQ MERGED:     544010
L1D WQ FORWARD:      85507
L1I TOTAL     ACCESS:  175586891  HIT:  175320425  MISS:     266466
L1I LOAD      ACCESS:  175586891  HIT:  175320425  MISS:     266466
L1I RFO       ACCESS:          0  HIT:          0  MISS:          0
L1I PREFETCH  ACCESS:          0  HIT:          0  MISS:          0
L1I WRITEBACK ACCESS:          0  HIT:          0  MISS:          0
L1I PREFETCH  REQUESTED:          0  ISSUED:          0  USEFUL:          0  USELESS:          0
L1I TOTAL MSHR MERGED:     213038
L1I LOAD MSHR MERGED:     213038
L1I RFO MSHR MERGED:          0
L1I PREFETCH MSHR MERGED:          0
L1I WRITEBACK MSHR MERGED:          0
L1I TOTAL ACCESSES:  175799929 HITS:  175320425 MISSES:     479504
L1I LOAD ACCESSES:  175799929 HITS:  175320425 MISSES:     479504
L1I RFO ACCESSES:          0 HITS:          0 MISSES:          0
L1I PREFETCH ACCESSES:          0 HITS:          0 MISSES:          0
L1I WRITEBACK ACCESSES:          0 HITS:          0 MISSES:          0
L1I RQ ACCESS:  500000242
L1I RQ TO_CACHE:  175799929
L1I RQ MERGED:  324200313
L1I RQ FORWARD:          0
L1I WQ ACCESS:          0
L1I WQ TO_CACHE:          0
L1I WQ MERGED:          0
L1I WQ FORWARD:          0
L2C TOTAL     ACCESS:   23738767  HIT:   12112954  MISS:   11625813
L2C LOAD      ACCESS:    9044119  HIT:    3564650  MISS:    5479469
L2C RFO       ACCESS:     720699  HIT:     130391  MISS:     590308
L2C PREFETCH  ACCESS:    8613611  HIT:    3086278  MISS:    5527333
L2C WRITEBACK ACCESS:    5360338  HIT:    5331635  MISS:      28703
L2C PREFETCH  REQUESTED:      18034  ISSUED:      18034  USEFUL:     323014  USELESS:    5204494
L2C TOTAL MSHR MERGED:         24
L2C LOAD MSHR MERGED:          2
L2C RFO MSHR MERGED:          0
L2C PREFETCH MSHR MERGED:         22
L2C WRITEBACK MSHR MERGED:          0
L2C TOTAL ACCESSES:   23740583 HITS:   12114742 MISSES:   11625841
L2C LOAD ACCESSES:    9045299 HITS:    3565830 MISSES:    5479469
L2C RFO ACCESSES:     720755 HITS:     130447 MISSES:     590308
L2C PREFETCH ACCESSES:    8614191 HITS:    3086830 MISSES:    5527361
L2C WRITEBACK ACCESSES:    5360338 HITS:    5331635 MISSES:      28703
L2C RQ ACCESS:    9766054
L2C RQ TO_CACHE:    9764818
L2C RQ MERGED:          0
L2C RQ FORWARD:          0
L2C WQ ACCESS:    5360338
L2C WQ TO_CACHE:    5360338
L2C WQ MERGED:          0
L2C WQ FORWARD:       1788
LLC TOTAL     ACCESS:   15448755  HIT:    6594463  MISS:    8854292
LLC LOAD      ACCESS:    5479436  HIT:    2093098  MISS:    3386338
LLC RFO       ACCESS:     590306  HIT:     291928  MISS:     298378
LLC PREFETCH  ACCESS:    5527323  HIT:    1102781  MISS:    4424542
LLC WRITEBACK ACCESS:    3851690  HIT:    3106656  MISS:     745034
LLC PREFETCH  REQUESTED:          0  ISSUED:          0  USEFUL:      26160  USELESS:    4398981
LLC TOTAL MSHR MERGED:          0
LLC LOAD MSHR MERGED:          0
LLC RFO MSHR MERGED:          0
LLC PREFETCH MSHR MERGED:          0
LLC WRITEBACK MSHR MERGED:          0
LLC TOTAL ACCESSES:   15448804 HITS:    6594512 MISSES:    8854292
LLC LOAD ACCESSES:    5479467 HITS:    2093129 MISSES:    3386338
LLC RFO ACCESSES:     590308 HITS:     291930 MISSES:     298378
LLC PREFETCH ACCESSES:    5527339 HITS:    1102797 MISSES:    4424542
LLC WRITEBACK ACCESSES:    3851690 HITS:    3106656 MISSES:     745034
LLC 0 RQ ACCESS:    6069775
LLC 0 RQ TO_CACHE:    6069742
LLC 0 RQ MERGED:          0
LLC 0 RQ FORWARD:          0
LLC WQ ACCESS:    3851690
LLC WQ TO_CACHE:    3851690
LLC WQ MERGED:          0
LLC WQ FORWARD:         49
Major fault: 0 Minor fault: 44814
CPU 0 L1D next line prefetcher final stats
CPU 0 L2C PC-based stride prefetcher final stats
All Misses: 10709882
All Hits: 7911376
SD Algo Stats - Switches: 0 SRR-Repls: 3862181 BRR-Repls: 0

DRAM Statistics
 CHANNEL 0
 RQ ROW_BUFFER_HIT:    1440704  ROW_BUFFER_MISS:    6667399
 DBUS_CONGESTED:    5384090
 WQ ROW_BUFFER_HIT:     167352  ROW_BUFFER_MISS:    2029481  FULL:          0

 AVG_CONGESTED_CYCLE: 13
LOADS RETIRED: 160808997
INSTR RETIRED: 500000000
