
*** ChampSim Multicore Out-of-Order Simulator ***

Warmup Instructions: 100000000
Simulation Instructions: 500000000
Number of CPUs: 1
LLC sets: 2048
LLC ways: 16
Clean RRIP Policies: 1213230212132302 Dirty RRIP Policies: 2203130222031302 PSEL Width: 10 Track Set: 4294967295 PSEL Mask: 1 Demote Mask: 1040100010401000DS Algo: 0Window size: 0
Off-chip DRAM Size: 4096 MB Channels: 1 Width: 64-bit Data Rate: 1600 MT/s

CPU 0 runs /mnt/beegfs/iconst01/spec2017/Wrf.trace.gz
NOT SORTED
TRACE STRING: /mnt/beegfs/iconst01/spec2017/Wrf.trace.gz
SORTED
TRACE STRING: /mnt/beegfs/iconst01/spec2017/Wrf.trace.gz
INITIAL
TRACE STRING: /mnt/beegfs/iconst01/spec2017/Wrf.trace.gz

champsim_seed used: 303

CPU 0 L1D next line prefetcher
CPU 0 L2C IP-based stride prefetcher
Initialize DRRIP state
Assign rand_sets[0]: 454  LLC: 2048
rand_sets[0]: 454
Assign rand_sets[1]: 1662  LLC: 2048
rand_sets[1]: 1662
Assign rand_sets[2]: 1921  LLC: 2048
rand_sets[2]: 1921
Assign rand_sets[3]: 1131  LLC: 2048
rand_sets[3]: 1131
Assign rand_sets[4]: 331  LLC: 2048
rand_sets[4]: 331
Assign rand_sets[5]: 1531  LLC: 2048
rand_sets[5]: 1531
Assign rand_sets[6]: 482  LLC: 2048
rand_sets[6]: 482
Assign rand_sets[7]: 1275  LLC: 2048
rand_sets[7]: 1275
Assign rand_sets[8]: 1876  LLC: 2048
rand_sets[8]: 1876
Assign rand_sets[9]: 2038  LLC: 2048
rand_sets[9]: 2038
Assign rand_sets[10]: 701  LLC: 2048
rand_sets[10]: 701
Assign rand_sets[11]: 479  LLC: 2048
rand_sets[11]: 479
Assign rand_sets[12]: 892  LLC: 2048
rand_sets[12]: 892
Assign rand_sets[13]: 1820  LLC: 2048
rand_sets[13]: 1820
Assign rand_sets[14]: 1505  LLC: 2048
rand_sets[14]: 1505
Assign rand_sets[15]: 1159  LLC: 2048
rand_sets[15]: 1159
Assign rand_sets[16]: 513  LLC: 2048
rand_sets[16]: 513
Assign rand_sets[17]: 703  LLC: 2048
rand_sets[17]: 703
Assign rand_sets[18]: 561  LLC: 2048
rand_sets[18]: 561
Assign rand_sets[19]: 990  LLC: 2048
rand_sets[19]: 990
Assign rand_sets[20]: 342  LLC: 2048
rand_sets[20]: 342
Assign rand_sets[21]: 882  LLC: 2048
rand_sets[21]: 882
Assign rand_sets[22]: 15  LLC: 2048
rand_sets[22]: 15
Assign rand_sets[23]: 71  LLC: 2048
rand_sets[23]: 71
Assign rand_sets[24]: 1127  LLC: 2048
rand_sets[24]: 1127
Assign rand_sets[25]: 1382  LLC: 2048
rand_sets[25]: 1382
Assign rand_sets[26]: 647  LLC: 2048
rand_sets[26]: 647
Assign rand_sets[27]: 857  LLC: 2048
rand_sets[27]: 857
Assign rand_sets[28]: 1450  LLC: 2048
rand_sets[28]: 1450
Assign rand_sets[29]: 1160  LLC: 2048
rand_sets[29]: 1160
Assign rand_sets[30]: 1852  LLC: 2048
rand_sets[30]: 1852
Assign rand_sets[31]: 1881  LLC: 2048
rand_sets[31]: 1881
Assign rand_sets[32]: 1770  LLC: 2048
rand_sets[32]: 1770
Assign rand_sets[33]: 1622  LLC: 2048
rand_sets[33]: 1622
Assign rand_sets[34]: 275  LLC: 2048
rand_sets[34]: 275
Assign rand_sets[35]: 635  LLC: 2048
rand_sets[35]: 635
Assign rand_sets[36]: 466  LLC: 2048
rand_sets[36]: 466
Assign rand_sets[37]: 1413  LLC: 2048
rand_sets[37]: 1413
Assign rand_sets[38]: 417  LLC: 2048
rand_sets[38]: 417
Assign rand_sets[39]: 472  LLC: 2048
rand_sets[39]: 472
Assign rand_sets[40]: 1340  LLC: 2048
rand_sets[40]: 1340
Assign rand_sets[41]: 852  LLC: 2048
rand_sets[41]: 852
Assign rand_sets[42]: 1365  LLC: 2048
rand_sets[42]: 1365
Assign rand_sets[43]: 47  LLC: 2048
rand_sets[43]: 47
Assign rand_sets[44]: 823  LLC: 2048
rand_sets[44]: 823
Assign rand_sets[45]: 686  LLC: 2048
rand_sets[45]: 686
Assign rand_sets[46]: 1637  LLC: 2048
rand_sets[46]: 1637
Assign rand_sets[47]: 1115  LLC: 2048
rand_sets[47]: 1115
Assign rand_sets[48]: 986  LLC: 2048
rand_sets[48]: 986
Assign rand_sets[49]: 258  LLC: 2048
rand_sets[49]: 258
Assign rand_sets[50]: 633  LLC: 2048
rand_sets[50]: 633
Assign rand_sets[51]: 920  LLC: 2048
rand_sets[51]: 920
Assign rand_sets[52]: 204  LLC: 2048
rand_sets[52]: 204
Assign rand_sets[53]: 227  LLC: 2048
rand_sets[53]: 227
Assign rand_sets[54]: 1818  LLC: 2048
rand_sets[54]: 1818
Assign rand_sets[55]: 886  LLC: 2048
rand_sets[55]: 886
Assign rand_sets[56]: 1422  LLC: 2048
rand_sets[56]: 1422
Assign rand_sets[57]: 607  LLC: 2048
rand_sets[57]: 607
Assign rand_sets[58]: 217  LLC: 2048
rand_sets[58]: 217
Assign rand_sets[59]: 1945  LLC: 2048
rand_sets[59]: 1945
Assign rand_sets[60]: 143  LLC: 2048
rand_sets[60]: 143
Assign rand_sets[61]: 1311  LLC: 2048
rand_sets[61]: 1311
Assign rand_sets[62]: 319  LLC: 2048
rand_sets[62]: 319
Assign rand_sets[63]: 1846  LLC: 2048
rand_sets[63]: 1846
 CLEAN-RRIP-POLICY-1: 1-2-1-3-2-3-0-2- CLEAN-RRIP-POLICY-2: 1-2-1-3-2-3-0-2-
 DIRTY-RRIP-POLICY-1: 2-2-0-3-1-3-0-2- DIRTY-RRIP-POLICY-2: 2-2-0-3-1-3-0-2-
 PSEL width: 10
Heartbeat CPU 0 instructions: 10000002 cycles: 6559549 heartbeat IPC: 1.5245 cumulative IPC: 1.5245 (Simulation time: 0 hr 0 min 21 sec) 
Heartbeat CPU 0 instructions: 20000000 cycles: 12222094 heartbeat IPC: 1.76599 cumulative IPC: 1.63638 (Simulation time: 0 hr 0 min 41 sec) 
Heartbeat CPU 0 instructions: 30000003 cycles: 18203888 heartbeat IPC: 1.67174 cumulative IPC: 1.648 (Simulation time: 0 hr 1 min 1 sec) 
Heartbeat CPU 0 instructions: 40000000 cycles: 24059207 heartbeat IPC: 1.70785 cumulative IPC: 1.66257 (Simulation time: 0 hr 1 min 21 sec) 
Heartbeat CPU 0 instructions: 50000000 cycles: 29527606 heartbeat IPC: 1.82869 cumulative IPC: 1.69333 (Simulation time: 0 hr 1 min 42 sec) 
Heartbeat CPU 0 instructions: 60000000 cycles: 35640395 heartbeat IPC: 1.63591 cumulative IPC: 1.68348 (Simulation time: 0 hr 2 min 3 sec) 
Heartbeat CPU 0 instructions: 70000000 cycles: 41360052 heartbeat IPC: 1.74836 cumulative IPC: 1.69245 (Simulation time: 0 hr 2 min 23 sec) 
Heartbeat CPU 0 instructions: 80000000 cycles: 47230965 heartbeat IPC: 1.70331 cumulative IPC: 1.6938 (Simulation time: 0 hr 2 min 44 sec) 
Heartbeat CPU 0 instructions: 90000000 cycles: 52984488 heartbeat IPC: 1.73807 cumulative IPC: 1.69861 (Simulation time: 0 hr 3 min 5 sec) 
Heartbeat CPU 0 instructions: 100000000 cycles: 58537396 heartbeat IPC: 1.80086 cumulative IPC: 1.70831 (Simulation time: 0 hr 3 min 25 sec) 

Warmup complete CPU 0 instructions: 100000004 cycles: 58537398 (Simulation time: 0 hr 3 min 25 sec) 

Heartbeat CPU 0 instructions: 110000001 cycles: 72389653 heartbeat IPC: 0.721904 cumulative IPC: 0.721904 (Simulation time: 0 hr 3 min 50 sec) 
Heartbeat CPU 0 instructions: 120000000 cycles: 82950954 heartbeat IPC: 0.946853 cumulative IPC: 0.819217 (Simulation time: 0 hr 4 min 14 sec) 
Heartbeat CPU 0 instructions: 130000000 cycles: 92737914 heartbeat IPC: 1.02177 cumulative IPC: 0.87718 (Simulation time: 0 hr 4 min 36 sec) 
Heartbeat CPU 0 instructions: 140000000 cycles: 103304391 heartbeat IPC: 0.946389 cumulative IPC: 0.893515 (Simulation time: 0 hr 4 min 59 sec) 
Heartbeat CPU 0 instructions: 150000002 cycles: 114061753 heartbeat IPC: 0.929596 cumulative IPC: 0.900506 (Simulation time: 0 hr 5 min 23 sec) 
Heartbeat CPU 0 instructions: 160000000 cycles: 122946484 heartbeat IPC: 1.12553 cumulative IPC: 0.931546 (Simulation time: 0 hr 5 min 45 sec) 
Heartbeat CPU 0 instructions: 170000003 cycles: 133156609 heartbeat IPC: 0.97942 cumulative IPC: 0.938096 (Simulation time: 0 hr 6 min 7 sec) 
Heartbeat CPU 0 instructions: 180000000 cycles: 145615423 heartbeat IPC: 0.802644 cumulative IPC: 0.918716 (Simulation time: 0 hr 6 min 32 sec) 
Heartbeat CPU 0 instructions: 190000000 cycles: 160702255 heartbeat IPC: 0.66283 cumulative IPC: 0.880929 (Simulation time: 0 hr 6 min 56 sec) 
Heartbeat CPU 0 instructions: 200000000 cycles: 175751884 heartbeat IPC: 0.664468 cumulative IPC: 0.853137 (Simulation time: 0 hr 7 min 20 sec) 
Heartbeat CPU 0 instructions: 210000000 cycles: 190789141 heartbeat IPC: 0.665015 cumulative IPC: 0.831747 (Simulation time: 0 hr 7 min 44 sec) 
Heartbeat CPU 0 instructions: 220000000 cycles: 206705066 heartbeat IPC: 0.628302 cumulative IPC: 0.809893 (Simulation time: 0 hr 8 min 10 sec) 
Heartbeat CPU 0 instructions: 230000003 cycles: 225288571 heartbeat IPC: 0.538112 cumulative IPC: 0.779605 (Simulation time: 0 hr 8 min 39 sec) 
Heartbeat CPU 0 instructions: 240000000 cycles: 234501750 heartbeat IPC: 1.0854 cumulative IPC: 0.795616 (Simulation time: 0 hr 9 min 1 sec) 
Heartbeat CPU 0 instructions: 250000000 cycles: 243215234 heartbeat IPC: 1.14765 cumulative IPC: 0.812225 (Simulation time: 0 hr 9 min 22 sec) 
Heartbeat CPU 0 instructions: 260000000 cycles: 252260806 heartbeat IPC: 1.10551 cumulative IPC: 0.82592 (Simulation time: 0 hr 9 min 44 sec) 
Heartbeat CPU 0 instructions: 270000000 cycles: 261803035 heartbeat IPC: 1.04797 cumulative IPC: 0.836344 (Simulation time: 0 hr 10 min 7 sec) 
Heartbeat CPU 0 instructions: 280000000 cycles: 271547802 heartbeat IPC: 1.02619 cumulative IPC: 0.845029 (Simulation time: 0 hr 10 min 30 sec) 
Heartbeat CPU 0 instructions: 290000000 cycles: 281688575 heartbeat IPC: 0.986118 cumulative IPC: 0.851441 (Simulation time: 0 hr 10 min 55 sec) 
Heartbeat CPU 0 instructions: 300000000 cycles: 290572484 heartbeat IPC: 1.12563 cumulative IPC: 0.861939 (Simulation time: 0 hr 11 min 17 sec) 
Heartbeat CPU 0 instructions: 310000002 cycles: 305035888 heartbeat IPC: 0.6914 cumulative IPC: 0.851932 (Simulation time: 0 hr 11 min 44 sec) 
Heartbeat CPU 0 instructions: 320000000 cycles: 321135635 heartbeat IPC: 0.621128 cumulative IPC: 0.837782 (Simulation time: 0 hr 12 min 12 sec) 
Heartbeat CPU 0 instructions: 330000002 cycles: 331743570 heartbeat IPC: 0.942691 cumulative IPC: 0.841855 (Simulation time: 0 hr 12 min 35 sec) 
Heartbeat CPU 0 instructions: 340000000 cycles: 342238864 heartbeat IPC: 0.952808 cumulative IPC: 0.84596 (Simulation time: 0 hr 12 min 59 sec) 
Heartbeat CPU 0 instructions: 350000002 cycles: 355325361 heartbeat IPC: 0.764147 cumulative IPC: 0.842352 (Simulation time: 0 hr 13 min 24 sec) 
Heartbeat CPU 0 instructions: 360000000 cycles: 366508195 heartbeat IPC: 0.894228 cumulative IPC: 0.844236 (Simulation time: 0 hr 13 min 48 sec) 
Heartbeat CPU 0 instructions: 370000002 cycles: 377226671 heartbeat IPC: 0.932969 cumulative IPC: 0.84722 (Simulation time: 0 hr 14 min 11 sec) 
Heartbeat CPU 0 instructions: 380000000 cycles: 387747289 heartbeat IPC: 0.950514 cumulative IPC: 0.850521 (Simulation time: 0 hr 14 min 35 sec) 
Heartbeat CPU 0 instructions: 390000003 cycles: 405222427 heartbeat IPC: 0.572242 cumulative IPC: 0.836494 (Simulation time: 0 hr 15 min 3 sec) 
Heartbeat CPU 0 instructions: 400000000 cycles: 415837685 heartbeat IPC: 0.94204 cumulative IPC: 0.83963 (Simulation time: 0 hr 15 min 26 sec) 
Heartbeat CPU 0 instructions: 410000002 cycles: 425865201 heartbeat IPC: 0.997256 cumulative IPC: 0.843933 (Simulation time: 0 hr 15 min 47 sec) 
Heartbeat CPU 0 instructions: 420000000 cycles: 435543267 heartbeat IPC: 1.03326 cumulative IPC: 0.848793 (Simulation time: 0 hr 16 min 8 sec) 
Heartbeat CPU 0 instructions: 430000001 cycles: 445320795 heartbeat IPC: 1.02275 cumulative IPC: 0.853191 (Simulation time: 0 hr 16 min 30 sec) 
Heartbeat CPU 0 instructions: 440000000 cycles: 456770735 heartbeat IPC: 0.873367 cumulative IPC: 0.853771 (Simulation time: 0 hr 16 min 52 sec) 
Heartbeat CPU 0 instructions: 450000002 cycles: 471856336 heartbeat IPC: 0.662884 cumulative IPC: 0.846804 (Simulation time: 0 hr 17 min 15 sec) 
Heartbeat CPU 0 instructions: 460000000 cycles: 486907470 heartbeat IPC: 0.664402 cumulative IPC: 0.840395 (Simulation time: 0 hr 17 min 38 sec) 
Heartbeat CPU 0 instructions: 470000003 cycles: 501957217 heartbeat IPC: 0.664463 cumulative IPC: 0.834424 (Simulation time: 0 hr 18 min 2 sec) 
Heartbeat CPU 0 instructions: 480000000 cycles: 517878400 heartbeat IPC: 0.628094 cumulative IPC: 0.827272 (Simulation time: 0 hr 18 min 27 sec) 
Heartbeat CPU 0 instructions: 490000002 cycles: 536573131 heartbeat IPC: 0.53491 cumulative IPC: 0.815839 (Simulation time: 0 hr 18 min 54 sec) 
Heartbeat CPU 0 instructions: 500000000 cycles: 545726093 heartbeat IPC: 1.09254 cumulative IPC: 0.821037 (Simulation time: 0 hr 19 min 15 sec) 
Heartbeat CPU 0 instructions: 510000002 cycles: 554510644 heartbeat IPC: 1.13836 cumulative IPC: 0.826657 (Simulation time: 0 hr 19 min 36 sec) 
Heartbeat CPU 0 instructions: 520000000 cycles: 563537231 heartbeat IPC: 1.10784 cumulative IPC: 0.831683 (Simulation time: 0 hr 19 min 57 sec) 
Heartbeat CPU 0 instructions: 530000002 cycles: 573084608 heartbeat IPC: 1.04741 cumulative IPC: 0.835686 (Simulation time: 0 hr 20 min 19 sec) 
Heartbeat CPU 0 instructions: 540000000 cycles: 582762545 heartbeat IPC: 1.03328 cumulative IPC: 0.839334 (Simulation time: 0 hr 20 min 42 sec) 
Heartbeat CPU 0 instructions: 550000002 cycles: 592932432 heartbeat IPC: 0.983295 cumulative IPC: 0.842074 (Simulation time: 0 hr 21 min 6 sec) 
Heartbeat CPU 0 instructions: 560000000 cycles: 601808661 heartbeat IPC: 1.1266 cumulative IPC: 0.846722 (Simulation time: 0 hr 21 min 27 sec) 
Heartbeat CPU 0 instructions: 570000003 cycles: 616092465 heartbeat IPC: 0.700094 cumulative IPC: 0.842966 (Simulation time: 0 hr 21 min 53 sec) 
Heartbeat CPU 0 instructions: 580000000 cycles: 632329608 heartbeat IPC: 0.615872 cumulative IPC: 0.83654 (Simulation time: 0 hr 22 min 20 sec) 
Heartbeat CPU 0 instructions: 590000002 cycles: 642529862 heartbeat IPC: 0.980368 cumulative IPC: 0.839052 (Simulation time: 0 hr 22 min 43 sec) 
Heartbeat CPU 0 instructions: 600000000 cycles: 653427302 heartbeat IPC: 0.917647 cumulative IPC: 0.840492 (Simulation time: 0 hr 23 min 6 sec) 
Finished CPU 0 instructions: 500000000 cycles: 594889923 cumulative IPC: 0.840492 (Simulation time: 0 hr 23 min 6 sec) 

CPU 0 Branch Prediction Accuracy: 99.5219% MPKI: 0.251582
Number of Branches: 26312578 Number of Mispredictions: 125791
Number of LOAD Instructions: 235643083
Number of LOAD Instructions (ROI): 235643083
Number of STORE Instructions: 37593550
Number of STORE Instructions (ROI): 37593550
Total Destination Memory Operands: 40480968
Total Destination Memory Operands (ROI): 40480968
Total Source Memory Operands: 235643083
Total Source Memory Operands (ROI): 235643083
Number of DEPENDED LOADS: 6698642
Number of DEPENDED LOADS (ROI): 6698642
Number of SQ_ADDED: 40480950
Number of SQ_ADDED (ROI): 40480950
Number of LQ_ADDED: 388969879
Number of LQ_ADDED (ROI): 388969879
Number of Instructions read from trace: 600000259

ChampSim completed all CPUs

Region of Interest Statistics

CPU 0 cumulative IPC: 0.840492 instructions: 500000000 cycles: 594889923
ITLB TOTAL     ACCESS:  109328466  HIT:  109327953  MISS:        513
ITLB LOAD      ACCESS:  109328466  HIT:  109327953  MISS:        513
ITLB RFO       ACCESS:          0  HIT:          0  MISS:          0
ITLB PREFETCH  ACCESS:          0  HIT:          0  MISS:          0
ITLB WRITEBACK ACCESS:          0  HIT:          0  MISS:          0
ITLB PREFETCH  REQUESTED:          0  ISSUED:          0  USEFUL:          0  USELESS:          0
ITLB TOTAL MSHR MERGED:        965
ITLB LOAD MSHR MERGED:        965
ITLB RFO MSHR MERGED:          0
ITLB PREFETCH MSHR MERGED:          0
ITLB WRITEBACK MSHR MERGED:          0
ITLB TOTAL ACCESSES:  109329431 HITS:  109327953 MISSES:       1478
ITLB LOAD ACCESSES:  109329431 HITS:  109327953 MISSES:       1478
ITLB RFO ACCESSES:          0 HITS:          0 MISSES:          0
ITLB PREFETCH ACCESSES:          0 HITS:          0 MISSES:          0
ITLB WRITEBACK ACCESSES:          0 HITS:          0 MISSES:          0
ITLB RQ ACCESS:  500000003
ITLB RQ TO_CACHE:  109329431
ITLB RQ MERGED:  390670572
ITLB RQ FORWARD:          0
ITLB WQ ACCESS:          0
ITLB WQ TO_CACHE:          0
ITLB WQ MERGED:          0
ITLB WQ FORWARD:          0
DTLB TOTAL     ACCESS:  130440950  HIT:  130183277  MISS:     257673
DTLB LOAD      ACCESS:  109039356  HIT:  108818531  MISS:     220825
DTLB RFO       ACCESS:   21401594  HIT:   21364746  MISS:      36848
DTLB PREFETCH  ACCESS:          0  HIT:          0  MISS:          0
DTLB WRITEBACK ACCESS:          0  HIT:          0  MISS:          0
DTLB PREFETCH  REQUESTED:          0  ISSUED:          0  USEFUL:          0  USELESS:          0
DTLB TOTAL MSHR MERGED:     122228
DTLB LOAD MSHR MERGED:      84126
DTLB RFO MSHR MERGED:      38102
DTLB PREFETCH MSHR MERGED:          0
DTLB WRITEBACK MSHR MERGED:          0
DTLB TOTAL ACCESSES:  130563178 HITS:  130183277 MISSES:     379901
DTLB LOAD ACCESSES:  109123482 HITS:  108818531 MISSES:     304951
DTLB RFO ACCESSES:   21439696 HITS:   21364746 MISSES:      74950
DTLB PREFETCH ACCESSES:          0 HITS:          0 MISSES:          0
DTLB WRITEBACK ACCESSES:          0 HITS:          0 MISSES:          0
DTLB RQ ACCESS:  218635797
DTLB RQ TO_CACHE:  130563179
DTLB RQ MERGED:   88072618
DTLB RQ FORWARD:          0
DTLB WQ ACCESS:          0
DTLB WQ TO_CACHE:          0
DTLB WQ MERGED:          0
DTLB WQ FORWARD:          0
L1D TOTAL     ACCESS:  204717090  HIT:  193645708  MISS:   11071382
L1D LOAD      ACCESS:  106318600  HIT:  103162862  MISS:    3155738
L1D RFO       ACCESS:   26965235  HIT:   25214418  MISS:    1750817
L1D PREFETCH  ACCESS:   71433255  HIT:   65268428  MISS:    6164827
L1D WRITEBACK ACCESS:          0  HIT:          0  MISS:          0
L1D PREFETCH  REQUESTED:  108930063  ISSUED:  107267333  USEFUL:    5711411  USELESS:     453410
L1D TOTAL MSHR MERGED:   18244887
L1D LOAD MSHR MERGED:    4603166
L1D RFO MSHR MERGED:    6478343
L1D PREFETCH MSHR MERGED:    7163378
L1D WRITEBACK MSHR MERGED:          0
L1D TOTAL ACCESSES:  223020232 HITS:  193703963 MISSES:   29316269
L1D LOAD ACCESSES:  108952782 HITS:  103185581 MISSES:    5767201
L1D RFO ACCESSES:   33441535 HITS:   25214418 MISSES:    8227117
L1D PREFETCH ACCESSES:   80625915 HITS:   65303964 MISSES:   15321951
L1D WRITEBACK ACCESSES:          0 HITS:          0 MISSES:          0
L1D RQ ACCESS:  184992359
L1D RQ TO_CACHE:  108930063
L1D RQ MERGED:   76039577
L1D RQ FORWARD:          0
L1D WQ ACCESS:   33643426
L1D WQ TO_CACHE:   33441534
L1D WQ MERGED:     201892
L1D WQ FORWARD:      58255
L1I TOTAL     ACCESS:  134013588  HIT:  133989010  MISS:      24578
L1I LOAD      ACCESS:  134013588  HIT:  133989010  MISS:      24578
L1I RFO       ACCESS:          0  HIT:          0  MISS:          0
L1I PREFETCH  ACCESS:          0  HIT:          0  MISS:          0
L1I WRITEBACK ACCESS:          0  HIT:          0  MISS:          0
L1I PREFETCH  REQUESTED:          0  ISSUED:          0  USEFUL:          0  USELESS:          0
L1I TOTAL MSHR MERGED:      30619
L1I LOAD MSHR MERGED:      30619
L1I RFO MSHR MERGED:          0
L1I PREFETCH MSHR MERGED:          0
L1I WRITEBACK MSHR MERGED:          0
L1I TOTAL ACCESSES:  134044207 HITS:  133989010 MISSES:      55197
L1I LOAD ACCESSES:  134044207 HITS:  133989010 MISSES:      55197
L1I RFO ACCESSES:          0 HITS:          0 MISSES:          0
L1I PREFETCH ACCESSES:          0 HITS:          0 MISSES:          0
L1I WRITEBACK ACCESSES:          0 HITS:          0 MISSES:          0
L1I RQ ACCESS:  500000005
L1I RQ TO_CACHE:  134044207
L1I RQ MERGED:  365955798
L1I RQ FORWARD:          0
L1I WQ ACCESS:          0
L1I WQ TO_CACHE:          0
L1I WQ MERGED:          0
L1I WQ FORWARD:          0
L2C TOTAL     ACCESS:   14941750  HIT:    6947227  MISS:    7994523
L2C LOAD      ACCESS:    1188418  HIT:     299753  MISS:     888665
L2C RFO       ACCESS:    1748562  HIT:     370127  MISS:    1378435
L2C PREFETCH  ACCESS:    8322890  HIT:    2604161  MISS:    5718729
L2C WRITEBACK ACCESS:    3681880  HIT:    3673186  MISS:       8694
L2C PREFETCH  REQUESTED:     389963  ISSUED:     389956  USEFUL:     114911  USELESS:    5604653
L2C TOTAL MSHR MERGED:      41708
L2C LOAD MSHR MERGED:       2352
L2C RFO MSHR MERGED:       1377
L2C PREFETCH MSHR MERGED:      37979
L2C WRITEBACK MSHR MERGED:          0
L2C TOTAL ACCESSES:   15103732 HITS:    6947926 MISSES:    8155806
L2C LOAD ACCESSES:    1188613 HITS:     299948 MISSES:     888665
L2C RFO ACCESSES:    1748774 HITS:     370339 MISSES:    1378435
L2C PREFETCH ACCESSES:    8484465 HITS:    2604453 MISSES:    5880012
L2C WRITEBACK ACCESSES:    3681880 HITS:    3673186 MISSES:       8694
L2C RQ ACCESS:    2937387
L2C RQ TO_CACHE:    2936980
L2C RQ MERGED:          0
L2C RQ FORWARD:          0
L2C WQ ACCESS:    3681880
L2C WQ TO_CACHE:    3681880
L2C WQ MERGED:          0
L2C WQ FORWARD:        699
LLC TOTAL     ACCESS:   11180301  HIT:    3049058  MISS:    8131243
LLC LOAD      ACCESS:     886308  HIT:     311213  MISS:     575095
LLC RFO       ACCESS:    1377056  HIT:     251142  MISS:    1125914
LLC PREFETCH  ACCESS:    5813010  HIT:    1178412  MISS:    4634598
LLC WRITEBACK ACCESS:    3103927  HIT:    1308291  MISS:    1795636
LLC PREFETCH  REQUESTED:          0  ISSUED:          0  USEFUL:      34455  USELESS:    4599533
LLC TOTAL MSHR MERGED:      21901
LLC LOAD MSHR MERGED:       6677
LLC RFO MSHR MERGED:        538
LLC PREFETCH MSHR MERGED:      14686
LLC WRITEBACK MSHR MERGED:          0
LLC TOTAL ACCESSES:   11202220 HITS:    3049076 MISSES:    8153144
LLC LOAD ACCESSES:     886313 HITS:     311218 MISSES:     575095
LLC RFO ACCESSES:    1377058 HITS:     251144 MISSES:    1125914
LLC PREFETCH ACCESSES:    5834922 HITS:    1178423 MISSES:    4656499
LLC WRITEBACK ACCESSES:    3103927 HITS:    1308291 MISSES:    1795636
LLC 0 RQ ACCESS:    2263371
LLC 0 RQ TO_CACHE:    2263364
LLC 0 RQ MERGED:          0
LLC 0 RQ FORWARD:          0
LLC WQ ACCESS:    3103927
LLC WQ TO_CACHE:    3103927
LLC WQ MERGED:          0
LLC WQ FORWARD:         18
Major fault: 0 Minor fault: 11519
CPU 0 L1D next line prefetcher final stats
CPU 0 L2C PC-based stride prefetcher final stats
All Misses: 10249230
All Hits: 3542110
SD Algo Stats - Switches: 0 SRR-Repls: 646563 BRR-Repls: 0

DRAM Statistics
 CHANNEL 0
 RQ ROW_BUFFER_HIT:    3861859  ROW_BUFFER_MISS:    2472891
 DBUS_CONGESTED:    4356767
 WQ ROW_BUFFER_HIT:     385381  ROW_BUFFER_MISS:    1761404  FULL:         26

 AVG_CONGESTED_CYCLE: 13
LOADS RETIRED: 190375692
INSTR RETIRED: 500000000
