
*** ChampSim Multicore Out-of-Order Simulator ***

Warmup Instructions: 100000000
Simulation Instructions: 500000000
Number of CPUs: 1
LLC sets: 2048
LLC ways: 16
Clean RRIP Policies: 1213030012130300 Dirty RRIP Policies: 2213030022130300 PSEL Width: 10 Track Set: 4294967295 PSEL Mask: 1 Demote Mask: 1340021413400214DS Algo: 0Window size: 0
Off-chip DRAM Size: 4096 MB Channels: 1 Width: 64-bit Data Rate: 1600 MT/s

CPU 0 runs /mnt/beegfs/iconst01/spec2017/x264.trace.gz
NOT SORTED
TRACE STRING: /mnt/beegfs/iconst01/spec2017/x264.trace.gz
SORTED
TRACE STRING: /mnt/beegfs/iconst01/spec2017/x264.trace.gz
INITIAL
TRACE STRING: /mnt/beegfs/iconst01/spec2017/x264.trace.gz

champsim_seed used: 276

CPU 0 L1D next line prefetcher
CPU 0 L2C IP-based stride prefetcher
Initialize DRRIP state
Assign rand_sets[0]: 454  LLC: 2048
rand_sets[0]: 454
Assign rand_sets[1]: 1662  LLC: 2048
rand_sets[1]: 1662
Assign rand_sets[2]: 1921  LLC: 2048
rand_sets[2]: 1921
Assign rand_sets[3]: 1131  LLC: 2048
rand_sets[3]: 1131
Assign rand_sets[4]: 331  LLC: 2048
rand_sets[4]: 331
Assign rand_sets[5]: 1531  LLC: 2048
rand_sets[5]: 1531
Assign rand_sets[6]: 482  LLC: 2048
rand_sets[6]: 482
Assign rand_sets[7]: 1275  LLC: 2048
rand_sets[7]: 1275
Assign rand_sets[8]: 1876  LLC: 2048
rand_sets[8]: 1876
Assign rand_sets[9]: 2038  LLC: 2048
rand_sets[9]: 2038
Assign rand_sets[10]: 701  LLC: 2048
rand_sets[10]: 701
Assign rand_sets[11]: 479  LLC: 2048
rand_sets[11]: 479
Assign rand_sets[12]: 892  LLC: 2048
rand_sets[12]: 892
Assign rand_sets[13]: 1820  LLC: 2048
rand_sets[13]: 1820
Assign rand_sets[14]: 1505  LLC: 2048
rand_sets[14]: 1505
Assign rand_sets[15]: 1159  LLC: 2048
rand_sets[15]: 1159
Assign rand_sets[16]: 513  LLC: 2048
rand_sets[16]: 513
Assign rand_sets[17]: 703  LLC: 2048
rand_sets[17]: 703
Assign rand_sets[18]: 561  LLC: 2048
rand_sets[18]: 561
Assign rand_sets[19]: 990  LLC: 2048
rand_sets[19]: 990
Assign rand_sets[20]: 342  LLC: 2048
rand_sets[20]: 342
Assign rand_sets[21]: 882  LLC: 2048
rand_sets[21]: 882
Assign rand_sets[22]: 15  LLC: 2048
rand_sets[22]: 15
Assign rand_sets[23]: 71  LLC: 2048
rand_sets[23]: 71
Assign rand_sets[24]: 1127  LLC: 2048
rand_sets[24]: 1127
Assign rand_sets[25]: 1382  LLC: 2048
rand_sets[25]: 1382
Assign rand_sets[26]: 647  LLC: 2048
rand_sets[26]: 647
Assign rand_sets[27]: 857  LLC: 2048
rand_sets[27]: 857
Assign rand_sets[28]: 1450  LLC: 2048
rand_sets[28]: 1450
Assign rand_sets[29]: 1160  LLC: 2048
rand_sets[29]: 1160
Assign rand_sets[30]: 1852  LLC: 2048
rand_sets[30]: 1852
Assign rand_sets[31]: 1881  LLC: 2048
rand_sets[31]: 1881
Assign rand_sets[32]: 1770  LLC: 2048
rand_sets[32]: 1770
Assign rand_sets[33]: 1622  LLC: 2048
rand_sets[33]: 1622
Assign rand_sets[34]: 275  LLC: 2048
rand_sets[34]: 275
Assign rand_sets[35]: 635  LLC: 2048
rand_sets[35]: 635
Assign rand_sets[36]: 466  LLC: 2048
rand_sets[36]: 466
Assign rand_sets[37]: 1413  LLC: 2048
rand_sets[37]: 1413
Assign rand_sets[38]: 417  LLC: 2048
rand_sets[38]: 417
Assign rand_sets[39]: 472  LLC: 2048
rand_sets[39]: 472
Assign rand_sets[40]: 1340  LLC: 2048
rand_sets[40]: 1340
Assign rand_sets[41]: 852  LLC: 2048
rand_sets[41]: 852
Assign rand_sets[42]: 1365  LLC: 2048
rand_sets[42]: 1365
Assign rand_sets[43]: 47  LLC: 2048
rand_sets[43]: 47
Assign rand_sets[44]: 823  LLC: 2048
rand_sets[44]: 823
Assign rand_sets[45]: 686  LLC: 2048
rand_sets[45]: 686
Assign rand_sets[46]: 1637  LLC: 2048
rand_sets[46]: 1637
Assign rand_sets[47]: 1115  LLC: 2048
rand_sets[47]: 1115
Assign rand_sets[48]: 986  LLC: 2048
rand_sets[48]: 986
Assign rand_sets[49]: 258  LLC: 2048
rand_sets[49]: 258
Assign rand_sets[50]: 633  LLC: 2048
rand_sets[50]: 633
Assign rand_sets[51]: 920  LLC: 2048
rand_sets[51]: 920
Assign rand_sets[52]: 204  LLC: 2048
rand_sets[52]: 204
Assign rand_sets[53]: 227  LLC: 2048
rand_sets[53]: 227
Assign rand_sets[54]: 1818  LLC: 2048
rand_sets[54]: 1818
Assign rand_sets[55]: 886  LLC: 2048
rand_sets[55]: 886
Assign rand_sets[56]: 1422  LLC: 2048
rand_sets[56]: 1422
Assign rand_sets[57]: 607  LLC: 2048
rand_sets[57]: 607
Assign rand_sets[58]: 217  LLC: 2048
rand_sets[58]: 217
Assign rand_sets[59]: 1945  LLC: 2048
rand_sets[59]: 1945
Assign rand_sets[60]: 143  LLC: 2048
rand_sets[60]: 143
Assign rand_sets[61]: 1311  LLC: 2048
rand_sets[61]: 1311
Assign rand_sets[62]: 319  LLC: 2048
rand_sets[62]: 319
Assign rand_sets[63]: 1846  LLC: 2048
rand_sets[63]: 1846
 CLEAN-RRIP-POLICY-1: 1-2-1-3-0-3-0-0- CLEAN-RRIP-POLICY-2: 1-2-1-3-0-3-0-0-
 DIRTY-RRIP-POLICY-1: 2-2-1-3-0-3-0-0- DIRTY-RRIP-POLICY-2: 2-2-1-3-0-3-0-0-
 PSEL width: 10
Heartbeat CPU 0 instructions: 10000000 cycles: 4124759 heartbeat IPC: 2.42438 cumulative IPC: 2.42438 (Simulation time: 0 hr 0 min 13 sec) 
Heartbeat CPU 0 instructions: 20000000 cycles: 8233863 heartbeat IPC: 2.43362 cumulative IPC: 2.42899 (Simulation time: 0 hr 0 min 26 sec) 
Heartbeat CPU 0 instructions: 30000003 cycles: 12464696 heartbeat IPC: 2.3636 cumulative IPC: 2.4068 (Simulation time: 0 hr 0 min 39 sec) 
Heartbeat CPU 0 instructions: 40000000 cycles: 16636669 heartbeat IPC: 2.39695 cumulative IPC: 2.40433 (Simulation time: 0 hr 0 min 52 sec) 
Heartbeat CPU 0 instructions: 50000000 cycles: 20699131 heartbeat IPC: 2.46156 cumulative IPC: 2.41556 (Simulation time: 0 hr 1 min 5 sec) 
Heartbeat CPU 0 instructions: 60000000 cycles: 25022625 heartbeat IPC: 2.31294 cumulative IPC: 2.39783 (Simulation time: 0 hr 1 min 18 sec) 
Heartbeat CPU 0 instructions: 70000000 cycles: 29370997 heartbeat IPC: 2.29971 cumulative IPC: 2.3833 (Simulation time: 0 hr 1 min 31 sec) 
Heartbeat CPU 0 instructions: 80000000 cycles: 33721140 heartbeat IPC: 2.29877 cumulative IPC: 2.3724 (Simulation time: 0 hr 1 min 43 sec) 
Heartbeat CPU 0 instructions: 90000002 cycles: 38032146 heartbeat IPC: 2.31964 cumulative IPC: 2.36642 (Simulation time: 0 hr 1 min 56 sec) 
Heartbeat CPU 0 instructions: 100000000 cycles: 42329081 heartbeat IPC: 2.32724 cumulative IPC: 2.36244 (Simulation time: 0 hr 2 min 9 sec) 

Warmup complete CPU 0 instructions: 100000001 cycles: 42329082 (Simulation time: 0 hr 2 min 9 sec) 

Heartbeat CPU 0 instructions: 110000001 cycles: 49386554 heartbeat IPC: 1.41694 cumulative IPC: 1.41694 (Simulation time: 0 hr 2 min 26 sec) 
Heartbeat CPU 0 instructions: 120000000 cycles: 58879258 heartbeat IPC: 1.05344 cumulative IPC: 1.20845 (Simulation time: 0 hr 2 min 45 sec) 
Heartbeat CPU 0 instructions: 130000000 cycles: 63711658 heartbeat IPC: 2.06937 cumulative IPC: 1.40301 (Simulation time: 0 hr 3 min 1 sec) 
Heartbeat CPU 0 instructions: 140000000 cycles: 68654375 heartbeat IPC: 2.02318 cumulative IPC: 1.51945 (Simulation time: 0 hr 3 min 18 sec) 
Heartbeat CPU 0 instructions: 150000002 cycles: 75478497 heartbeat IPC: 1.46539 cumulative IPC: 1.50832 (Simulation time: 0 hr 3 min 35 sec) 
Heartbeat CPU 0 instructions: 160000000 cycles: 83311927 heartbeat IPC: 1.27658 cumulative IPC: 1.46403 (Simulation time: 0 hr 3 min 52 sec) 
Heartbeat CPU 0 instructions: 170000000 cycles: 90712502 heartbeat IPC: 1.35125 cumulative IPC: 1.44678 (Simulation time: 0 hr 4 min 9 sec) 
Heartbeat CPU 0 instructions: 180000000 cycles: 98016568 heartbeat IPC: 1.3691 cumulative IPC: 1.43659 (Simulation time: 0 hr 4 min 26 sec) 
Heartbeat CPU 0 instructions: 190000002 cycles: 105184831 heartbeat IPC: 1.39504 cumulative IPC: 1.43185 (Simulation time: 0 hr 4 min 43 sec) 
Heartbeat CPU 0 instructions: 200000000 cycles: 112415620 heartbeat IPC: 1.38297 cumulative IPC: 1.42681 (Simulation time: 0 hr 4 min 59 sec) 
Heartbeat CPU 0 instructions: 210000000 cycles: 119282673 heartbeat IPC: 1.45623 cumulative IPC: 1.42943 (Simulation time: 0 hr 5 min 15 sec) 
Heartbeat CPU 0 instructions: 220000000 cycles: 126055395 heartbeat IPC: 1.47651 cumulative IPC: 1.43324 (Simulation time: 0 hr 5 min 32 sec) 
Heartbeat CPU 0 instructions: 230000003 cycles: 132780777 heartbeat IPC: 1.4869 cumulative IPC: 1.43723 (Simulation time: 0 hr 5 min 48 sec) 
Heartbeat CPU 0 instructions: 240000000 cycles: 139520938 heartbeat IPC: 1.48364 cumulative IPC: 1.44045 (Simulation time: 0 hr 6 min 4 sec) 
Heartbeat CPU 0 instructions: 250000001 cycles: 146245382 heartbeat IPC: 1.48711 cumulative IPC: 1.44347 (Simulation time: 0 hr 6 min 20 sec) 
Heartbeat CPU 0 instructions: 260000000 cycles: 152945401 heartbeat IPC: 1.49253 cumulative IPC: 1.44644 (Simulation time: 0 hr 6 min 36 sec) 
Heartbeat CPU 0 instructions: 270000001 cycles: 159916054 heartbeat IPC: 1.43459 cumulative IPC: 1.44574 (Simulation time: 0 hr 6 min 53 sec) 
Heartbeat CPU 0 instructions: 280000000 cycles: 167450431 heartbeat IPC: 1.32725 cumulative IPC: 1.4386 (Simulation time: 0 hr 7 min 9 sec) 
Heartbeat CPU 0 instructions: 290000000 cycles: 175371191 heartbeat IPC: 1.26251 cumulative IPC: 1.42812 (Simulation time: 0 hr 7 min 27 sec) 
Heartbeat CPU 0 instructions: 300000000 cycles: 183548917 heartbeat IPC: 1.22283 cumulative IPC: 1.41623 (Simulation time: 0 hr 7 min 44 sec) 
Heartbeat CPU 0 instructions: 310000002 cycles: 191858507 heartbeat IPC: 1.20343 cumulative IPC: 1.40441 (Simulation time: 0 hr 8 min 2 sec) 
Heartbeat CPU 0 instructions: 320000000 cycles: 201811838 heartbeat IPC: 1.00469 cumulative IPC: 1.37946 (Simulation time: 0 hr 8 min 21 sec) 
Heartbeat CPU 0 instructions: 330000002 cycles: 206462141 heartbeat IPC: 2.1504 cumulative IPC: 1.4013 (Simulation time: 0 hr 8 min 37 sec) 
Heartbeat CPU 0 instructions: 340000000 cycles: 211718641 heartbeat IPC: 1.90241 cumulative IPC: 1.41685 (Simulation time: 0 hr 8 min 54 sec) 
Heartbeat CPU 0 instructions: 350000000 cycles: 218918836 heartbeat IPC: 1.38885 cumulative IPC: 1.41571 (Simulation time: 0 hr 9 min 12 sec) 
Heartbeat CPU 0 instructions: 360000000 cycles: 226571121 heartbeat IPC: 1.3068 cumulative IPC: 1.41119 (Simulation time: 0 hr 9 min 29 sec) 
Heartbeat CPU 0 instructions: 370000000 cycles: 233972844 heartbeat IPC: 1.35104 cumulative IPC: 1.40886 (Simulation time: 0 hr 9 min 46 sec) 
Heartbeat CPU 0 instructions: 380000000 cycles: 241242060 heartbeat IPC: 1.37566 cumulative IPC: 1.40765 (Simulation time: 0 hr 10 min 2 sec) 
Heartbeat CPU 0 instructions: 390000000 cycles: 249352761 heartbeat IPC: 1.23294 cumulative IPC: 1.40081 (Simulation time: 0 hr 10 min 20 sec) 
Heartbeat CPU 0 instructions: 400000000 cycles: 257558232 heartbeat IPC: 1.2187 cumulative IPC: 1.39386 (Simulation time: 0 hr 10 min 37 sec) 
Heartbeat CPU 0 instructions: 410000001 cycles: 265374253 heartbeat IPC: 1.27942 cumulative IPC: 1.38985 (Simulation time: 0 hr 10 min 55 sec) 
Heartbeat CPU 0 instructions: 420000000 cycles: 273421206 heartbeat IPC: 1.24271 cumulative IPC: 1.38473 (Simulation time: 0 hr 11 min 12 sec) 
Heartbeat CPU 0 instructions: 430000001 cycles: 281674658 heartbeat IPC: 1.21161 cumulative IPC: 1.37876 (Simulation time: 0 hr 11 min 30 sec) 
Heartbeat CPU 0 instructions: 440000000 cycles: 289711954 heartbeat IPC: 1.2442 cumulative IPC: 1.37439 (Simulation time: 0 hr 11 min 47 sec) 
Heartbeat CPU 0 instructions: 450000001 cycles: 297575801 heartbeat IPC: 1.27164 cumulative IPC: 1.37122 (Simulation time: 0 hr 12 min 4 sec) 
Heartbeat CPU 0 instructions: 460000000 cycles: 307484484 heartbeat IPC: 1.00922 cumulative IPC: 1.35769 (Simulation time: 0 hr 12 min 24 sec) 
Heartbeat CPU 0 instructions: 470000002 cycles: 312125773 heartbeat IPC: 2.15457 cumulative IPC: 1.3714 (Simulation time: 0 hr 12 min 40 sec) 
Heartbeat CPU 0 instructions: 480000000 cycles: 317403092 heartbeat IPC: 1.8949 cumulative IPC: 1.38145 (Simulation time: 0 hr 12 min 56 sec) 
Heartbeat CPU 0 instructions: 490000001 cycles: 324715331 heartbeat IPC: 1.36757 cumulative IPC: 1.38109 (Simulation time: 0 hr 13 min 14 sec) 
Heartbeat CPU 0 instructions: 500000000 cycles: 333445229 heartbeat IPC: 1.14549 cumulative IPC: 1.37402 (Simulation time: 0 hr 13 min 33 sec) 
Heartbeat CPU 0 instructions: 510000002 cycles: 342176324 heartbeat IPC: 1.14533 cumulative IPC: 1.36736 (Simulation time: 0 hr 13 min 53 sec) 
Heartbeat CPU 0 instructions: 520000000 cycles: 350903711 heartbeat IPC: 1.14582 cumulative IPC: 1.3611 (Simulation time: 0 hr 14 min 12 sec) 
Heartbeat CPU 0 instructions: 530000000 cycles: 359611689 heartbeat IPC: 1.14837 cumulative IPC: 1.35526 (Simulation time: 0 hr 14 min 32 sec) 
Heartbeat CPU 0 instructions: 540000000 cycles: 367868201 heartbeat IPC: 1.21117 cumulative IPC: 1.3516 (Simulation time: 0 hr 14 min 50 sec) 
Heartbeat CPU 0 instructions: 550000000 cycles: 374907079 heartbeat IPC: 1.42068 cumulative IPC: 1.35307 (Simulation time: 0 hr 15 min 7 sec) 
Heartbeat CPU 0 instructions: 560000000 cycles: 381520177 heartbeat IPC: 1.51215 cumulative IPC: 1.35617 (Simulation time: 0 hr 15 min 24 sec) 
Heartbeat CPU 0 instructions: 570000002 cycles: 388110360 heartbeat IPC: 1.51741 cumulative IPC: 1.35924 (Simulation time: 0 hr 15 min 40 sec) 
Heartbeat CPU 0 instructions: 580000000 cycles: 394760102 heartbeat IPC: 1.50382 cumulative IPC: 1.36197 (Simulation time: 0 hr 15 min 57 sec) 
Heartbeat CPU 0 instructions: 590000002 cycles: 401454053 heartbeat IPC: 1.49389 cumulative IPC: 1.36443 (Simulation time: 0 hr 16 min 13 sec) 
Heartbeat CPU 0 instructions: 600000000 cycles: 408271926 heartbeat IPC: 1.46673 cumulative IPC: 1.36633 (Simulation time: 0 hr 16 min 30 sec) 
Finished CPU 0 instructions: 500000000 cycles: 365942852 cumulative IPC: 1.36633 (Simulation time: 0 hr 16 min 30 sec) 

CPU 0 Branch Prediction Accuracy: 93.4682% MPKI: 2.44079
Number of Branches: 18683822 Number of Mispredictions: 1220394
Number of LOAD Instructions: 142551610
Number of LOAD Instructions (ROI): 142551610
Number of STORE Instructions: 44807454
Number of STORE Instructions (ROI): 44807454
Total Destination Memory Operands: 48357071
Total Destination Memory Operands (ROI): 48357071
Total Source Memory Operands: 142551610
Total Source Memory Operands (ROI): 142551610
Number of DEPENDED LOADS: 7395073
Number of DEPENDED LOADS (ROI): 7395073
Number of SQ_ADDED: 48357051
Number of SQ_ADDED (ROI): 48357051
Number of LQ_ADDED: 157236563
Number of LQ_ADDED (ROI): 157236563
Number of Instructions read from trace: 600000256

ChampSim completed all CPUs

Region of Interest Statistics

CPU 0 cumulative IPC: 1.36633 instructions: 500000000 cycles: 365942852
ITLB TOTAL     ACCESS:   88177196  HIT:   88177127  MISS:         69
ITLB LOAD      ACCESS:   88177196  HIT:   88177127  MISS:         69
ITLB RFO       ACCESS:          0  HIT:          0  MISS:          0
ITLB PREFETCH  ACCESS:          0  HIT:          0  MISS:          0
ITLB WRITEBACK ACCESS:          0  HIT:          0  MISS:          0
ITLB PREFETCH  REQUESTED:          0  ISSUED:          0  USEFUL:          0  USELESS:          0
ITLB TOTAL MSHR MERGED:         86
ITLB LOAD MSHR MERGED:         86
ITLB RFO MSHR MERGED:          0
ITLB PREFETCH MSHR MERGED:          0
ITLB WRITEBACK MSHR MERGED:          0
ITLB TOTAL ACCESSES:   88177282 HITS:   88177127 MISSES:        155
ITLB LOAD ACCESSES:   88177282 HITS:   88177127 MISSES:        155
ITLB RFO ACCESSES:          0 HITS:          0 MISSES:          0
ITLB PREFETCH ACCESSES:          0 HITS:          0 MISSES:          0
ITLB WRITEBACK ACCESSES:          0 HITS:          0 MISSES:          0
ITLB RQ ACCESS:  500000000
ITLB RQ TO_CACHE:   88177282
ITLB RQ MERGED:  411822718
ITLB RQ FORWARD:          0
ITLB WQ ACCESS:          0
ITLB WQ TO_CACHE:          0
ITLB WQ MERGED:          0
ITLB WQ FORWARD:          0
DTLB TOTAL     ACCESS:   88203693  HIT:   88076277  MISS:     127416
DTLB LOAD      ACCESS:   59485562  HIT:   59393107  MISS:      92455
DTLB RFO       ACCESS:   28718131  HIT:   28683170  MISS:      34961
DTLB PREFETCH  ACCESS:          0  HIT:          0  MISS:          0
DTLB WRITEBACK ACCESS:          0  HIT:          0  MISS:          0
DTLB PREFETCH  REQUESTED:          0  ISSUED:          0  USEFUL:          0  USELESS:          0
DTLB TOTAL MSHR MERGED:     140906
DTLB LOAD MSHR MERGED:     107587
DTLB RFO MSHR MERGED:      33319
DTLB PREFETCH MSHR MERGED:          0
DTLB WRITEBACK MSHR MERGED:          0
DTLB TOTAL ACCESSES:   88344599 HITS:   88076277 MISSES:     268322
DTLB LOAD ACCESSES:   59593149 HITS:   59393107 MISSES:     200042
DTLB RFO ACCESSES:   28751450 HITS:   28683170 MISSES:      68280
DTLB PREFETCH ACCESSES:          0 HITS:          0 MISSES:          0
DTLB WRITEBACK ACCESSES:          0 HITS:          0 MISSES:          0
DTLB RQ ACCESS:  154558816
DTLB RQ TO_CACHE:   88344599
DTLB RQ MERGED:   66214217
DTLB RQ FORWARD:          0
DTLB WQ ACCESS:          0
DTLB WQ TO_CACHE:          0
DTLB WQ MERGED:          0
DTLB WQ FORWARD:          0
L1D TOTAL     ACCESS:  127900473  HIT:  124675105  MISS:    3225368
L1D LOAD      ACCESS:   53172355  HIT:   51976856  MISS:    1195499
L1D RFO       ACCESS:   37354247  HIT:   36739983  MISS:     614264
L1D PREFETCH  ACCESS:   37373871  HIT:   35958266  MISS:    1415605
L1D WRITEBACK ACCESS:          0  HIT:          0  MISS:          0
L1D PREFETCH  REQUESTED:   53657758  ISSUED:   52457142  USEFUL:     351936  USELESS:    1063634
L1D TOTAL MSHR MERGED:    2949090
L1D LOAD MSHR MERGED:     524284
L1D RFO MSHR MERGED:    1599766
L1D PREFETCH MSHR MERGED:     825040
L1D WRITEBACK MSHR MERGED:          0
L1D TOTAL ACCESSES:  130884298 HITS:  124709840 MISSES:    6174458
L1D LOAD ACCESSES:   53660490 HITS:   51979588 MISSES:    1680902
L1D RFO ACCESSES:   38952806 HITS:   36739983 MISSES:    2212823
L1D PREFETCH ACCESSES:   38271002 HITS:   35990269 MISSES:    2280733
L1D WRITEBACK ACCESSES:          0 HITS:          0 MISSES:          0
L1D RQ ACCESS:  113713924
L1D RQ TO_CACHE:   53657758
L1D RQ MERGED:   60053434
L1D RQ FORWARD:          0
L1D WQ ACCESS:   40844891
L1D WQ TO_CACHE:   38952806
L1D WQ MERGED:    1892085
L1D WQ FORWARD:      34735
L1I TOTAL     ACCESS:  108368632  HIT:  107809499  MISS:     559133
L1I LOAD      ACCESS:  108368632  HIT:  107809499  MISS:     559133
L1I RFO       ACCESS:          0  HIT:          0  MISS:          0
L1I PREFETCH  ACCESS:          0  HIT:          0  MISS:          0
L1I WRITEBACK ACCESS:          0  HIT:          0  MISS:          0
L1I PREFETCH  REQUESTED:          0  ISSUED:          0  USEFUL:          0  USELESS:          0
L1I TOTAL MSHR MERGED:     525807
L1I LOAD MSHR MERGED:     525807
L1I RFO MSHR MERGED:          0
L1I PREFETCH MSHR MERGED:          0
L1I WRITEBACK MSHR MERGED:          0
L1I TOTAL ACCESSES:  108894439 HITS:  107809499 MISSES:    1084940
L1I LOAD ACCESSES:  108894439 HITS:  107809499 MISSES:    1084940
L1I RFO ACCESSES:          0 HITS:          0 MISSES:          0
L1I PREFETCH ACCESSES:          0 HITS:          0 MISSES:          0
L1I WRITEBACK ACCESSES:          0 HITS:          0 MISSES:          0
L1I RQ ACCESS:  500000002
L1I RQ TO_CACHE:  108894439
L1I RQ MERGED:  391105563
L1I RQ FORWARD:          0
L1I WQ ACCESS:          0
L1I WQ TO_CACHE:          0
L1I WQ MERGED:          0
L1I WQ FORWARD:          0
L2C TOTAL     ACCESS:    4691186  HIT:    3865386  MISS:     825800
L2C LOAD      ACCESS:    1715635  HIT:    1562297  MISS:     153338
L2C RFO       ACCESS:     611618  HIT:     421139  MISS:     190479
L2C PREFETCH  ACCESS:    1661012  HIT:    1181214  MISS:     479798
L2C WRITEBACK ACCESS:     702921  HIT:     700736  MISS:       2185
L2C PREFETCH  REQUESTED:     256451  ISSUED:     256451  USEFUL:     172668  USELESS:     307796
L2C TOTAL MSHR MERGED:      13406
L2C LOAD MSHR MERGED:       4177
L2C RFO MSHR MERGED:          0
L2C PREFETCH MSHR MERGED:       9229
L2C WRITEBACK MSHR MERGED:          0
L2C TOTAL ACCESSES:    4712242 HITS:    3867012 MISSES:     845230
L2C LOAD ACCESSES:    1715751 HITS:    1562413 MISSES:     153338
L2C RFO ACCESSES:     613057 HITS:     422578 MISSES:     190479
L2C PREFETCH ACCESSES:    1680513 HITS:    1181285 MISSES:     499228
L2C WRITEBACK ACCESSES:     702921 HITS:     700736 MISSES:       2185
L2C RQ ACCESS:    2328808
L2C RQ TO_CACHE:    2327253
L2C RQ MERGED:          0
L2C RQ FORWARD:          0
L2C WQ ACCESS:     702921
L2C WQ TO_CACHE:     702921
L2C WQ MERGED:          0
L2C WQ FORWARD:       1626
LLC TOTAL     ACCESS:    1047429  HIT:     235948  MISS:     811481
LLC LOAD      ACCESS:     149157  HIT:      87329  MISS:      61828
LLC RFO       ACCESS:     190471  HIT:       7713  MISS:     182758
LLC PREFETCH  ACCESS:     486924  HIT:     103474  MISS:     383450
LLC WRITEBACK ACCESS:     220877  HIT:      37432  MISS:     183445
LLC PREFETCH  REQUESTED:          0  ISSUED:          0  USEFUL:       2064  USELESS:     381790
LLC TOTAL MSHR MERGED:       2323
LLC LOAD MSHR MERGED:        914
LLC RFO MSHR MERGED:          0
LLC PREFETCH MSHR MERGED:       1409
LLC WRITEBACK MSHR MERGED:          0
LLC TOTAL ACCESSES:    1049764 HITS:     235960 MISSES:     813804
LLC LOAD ACCESSES:     149161 HITS:      87333 MISSES:      61828
LLC RFO ACCESSES:     190479 HITS:       7721 MISSES:     182758
LLC PREFETCH ACCESSES:     489247 HITS:     103474 MISSES:     385773
LLC WRITEBACK ACCESSES:     220877 HITS:      37432 MISSES:     183445
LLC 0 RQ ACCESS:     339640
LLC 0 RQ TO_CACHE:     339628
LLC 0 RQ MERGED:          0
LLC 0 RQ FORWARD:          0
LLC WQ ACCESS:     220877
LLC WQ TO_CACHE:     220877
LLC WQ MERGED:          0
LLC WQ FORWARD:         12
Major fault: 0 Minor fault: 6811
CPU 0 L1D next line prefetcher final stats
CPU 0 L2C PC-based stride prefetcher final stats
All Misses: 952053
All Hits: 302359
SD Algo Stats - Switches: 0 SRR-Repls: 69395 BRR-Repls: 0

DRAM Statistics
 CHANNEL 0
 RQ ROW_BUFFER_HIT:     330453  ROW_BUFFER_MISS:     297478
 DBUS_CONGESTED:     437931
 WQ ROW_BUFFER_HIT:      32862  ROW_BUFFER_MISS:     183968  FULL:          0

 AVG_CONGESTED_CYCLE: 13
LOADS RETIRED: 119922929
INSTR RETIRED: 500000000
