
*** ChampSim Multicore Out-of-Order Simulator ***

Warmup Instructions: 100000000
Simulation Instructions: 500000000
Number of CPUs: 1
LLC sets: 2048
LLC ways: 16
Clean RRIP Policies: 2223230222232302 Dirty RRIP Policies: 1203131212031312 PSEL Width: 10 Track Set: 4294967295 PSEL Mask: 1 Demote Mask: 1040100010401000DS Algo: 0Window size: 0
Off-chip DRAM Size: 4096 MB Channels: 1 Width: 64-bit Data Rate: 1600 MT/s

CPU 0 runs /mnt/beegfs/iconst01/spec2017/Omnetpp.trace.gz
NOT SORTED
TRACE STRING: /mnt/beegfs/iconst01/spec2017/Omnetpp.trace.gz
SORTED
TRACE STRING: /mnt/beegfs/iconst01/spec2017/Omnetpp.trace.gz
INITIAL
TRACE STRING: /mnt/beegfs/iconst01/spec2017/Omnetpp.trace.gz

champsim_seed used: 739

CPU 0 L1D next line prefetcher
CPU 0 L2C IP-based stride prefetcher
Initialize DRRIP state
Assign rand_sets[0]: 454  LLC: 2048
rand_sets[0]: 454
Assign rand_sets[1]: 1662  LLC: 2048
rand_sets[1]: 1662
Assign rand_sets[2]: 1921  LLC: 2048
rand_sets[2]: 1921
Assign rand_sets[3]: 1131  LLC: 2048
rand_sets[3]: 1131
Assign rand_sets[4]: 331  LLC: 2048
rand_sets[4]: 331
Assign rand_sets[5]: 1531  LLC: 2048
rand_sets[5]: 1531
Assign rand_sets[6]: 482  LLC: 2048
rand_sets[6]: 482
Assign rand_sets[7]: 1275  LLC: 2048
rand_sets[7]: 1275
Assign rand_sets[8]: 1876  LLC: 2048
rand_sets[8]: 1876
Assign rand_sets[9]: 2038  LLC: 2048
rand_sets[9]: 2038
Assign rand_sets[10]: 701  LLC: 2048
rand_sets[10]: 701
Assign rand_sets[11]: 479  LLC: 2048
rand_sets[11]: 479
Assign rand_sets[12]: 892  LLC: 2048
rand_sets[12]: 892
Assign rand_sets[13]: 1820  LLC: 2048
rand_sets[13]: 1820
Assign rand_sets[14]: 1505  LLC: 2048
rand_sets[14]: 1505
Assign rand_sets[15]: 1159  LLC: 2048
rand_sets[15]: 1159
Assign rand_sets[16]: 513  LLC: 2048
rand_sets[16]: 513
Assign rand_sets[17]: 703  LLC: 2048
rand_sets[17]: 703
Assign rand_sets[18]: 561  LLC: 2048
rand_sets[18]: 561
Assign rand_sets[19]: 990  LLC: 2048
rand_sets[19]: 990
Assign rand_sets[20]: 342  LLC: 2048
rand_sets[20]: 342
Assign rand_sets[21]: 882  LLC: 2048
rand_sets[21]: 882
Assign rand_sets[22]: 15  LLC: 2048
rand_sets[22]: 15
Assign rand_sets[23]: 71  LLC: 2048
rand_sets[23]: 71
Assign rand_sets[24]: 1127  LLC: 2048
rand_sets[24]: 1127
Assign rand_sets[25]: 1382  LLC: 2048
rand_sets[25]: 1382
Assign rand_sets[26]: 647  LLC: 2048
rand_sets[26]: 647
Assign rand_sets[27]: 857  LLC: 2048
rand_sets[27]: 857
Assign rand_sets[28]: 1450  LLC: 2048
rand_sets[28]: 1450
Assign rand_sets[29]: 1160  LLC: 2048
rand_sets[29]: 1160
Assign rand_sets[30]: 1852  LLC: 2048
rand_sets[30]: 1852
Assign rand_sets[31]: 1881  LLC: 2048
rand_sets[31]: 1881
Assign rand_sets[32]: 1770  LLC: 2048
rand_sets[32]: 1770
Assign rand_sets[33]: 1622  LLC: 2048
rand_sets[33]: 1622
Assign rand_sets[34]: 275  LLC: 2048
rand_sets[34]: 275
Assign rand_sets[35]: 635  LLC: 2048
rand_sets[35]: 635
Assign rand_sets[36]: 466  LLC: 2048
rand_sets[36]: 466
Assign rand_sets[37]: 1413  LLC: 2048
rand_sets[37]: 1413
Assign rand_sets[38]: 417  LLC: 2048
rand_sets[38]: 417
Assign rand_sets[39]: 472  LLC: 2048
rand_sets[39]: 472
Assign rand_sets[40]: 1340  LLC: 2048
rand_sets[40]: 1340
Assign rand_sets[41]: 852  LLC: 2048
rand_sets[41]: 852
Assign rand_sets[42]: 1365  LLC: 2048
rand_sets[42]: 1365
Assign rand_sets[43]: 47  LLC: 2048
rand_sets[43]: 47
Assign rand_sets[44]: 823  LLC: 2048
rand_sets[44]: 823
Assign rand_sets[45]: 686  LLC: 2048
rand_sets[45]: 686
Assign rand_sets[46]: 1637  LLC: 2048
rand_sets[46]: 1637
Assign rand_sets[47]: 1115  LLC: 2048
rand_sets[47]: 1115
Assign rand_sets[48]: 986  LLC: 2048
rand_sets[48]: 986
Assign rand_sets[49]: 258  LLC: 2048
rand_sets[49]: 258
Assign rand_sets[50]: 633  LLC: 2048
rand_sets[50]: 633
Assign rand_sets[51]: 920  LLC: 2048
rand_sets[51]: 920
Assign rand_sets[52]: 204  LLC: 2048
rand_sets[52]: 204
Assign rand_sets[53]: 227  LLC: 2048
rand_sets[53]: 227
Assign rand_sets[54]: 1818  LLC: 2048
rand_sets[54]: 1818
Assign rand_sets[55]: 886  LLC: 2048
rand_sets[55]: 886
Assign rand_sets[56]: 1422  LLC: 2048
rand_sets[56]: 1422
Assign rand_sets[57]: 607  LLC: 2048
rand_sets[57]: 607
Assign rand_sets[58]: 217  LLC: 2048
rand_sets[58]: 217
Assign rand_sets[59]: 1945  LLC: 2048
rand_sets[59]: 1945
Assign rand_sets[60]: 143  LLC: 2048
rand_sets[60]: 143
Assign rand_sets[61]: 1311  LLC: 2048
rand_sets[61]: 1311
Assign rand_sets[62]: 319  LLC: 2048
rand_sets[62]: 319
Assign rand_sets[63]: 1846  LLC: 2048
rand_sets[63]: 1846
 CLEAN-RRIP-POLICY-1: 2-2-2-3-2-3-0-2- CLEAN-RRIP-POLICY-2: 2-2-2-3-2-3-0-2-
 DIRTY-RRIP-POLICY-1: 1-2-0-3-1-3-1-2- DIRTY-RRIP-POLICY-2: 1-2-0-3-1-3-1-2-
 PSEL width: 10
Heartbeat CPU 0 instructions: 10000000 cycles: 7319779 heartbeat IPC: 1.36616 cumulative IPC: 1.36616 (Simulation time: 0 hr 0 min 19 sec) 
Heartbeat CPU 0 instructions: 20000000 cycles: 14623507 heartbeat IPC: 1.36916 cumulative IPC: 1.36766 (Simulation time: 0 hr 0 min 39 sec) 
Heartbeat CPU 0 instructions: 30000003 cycles: 21924738 heartbeat IPC: 1.36963 cumulative IPC: 1.36832 (Simulation time: 0 hr 0 min 59 sec) 
Heartbeat CPU 0 instructions: 40000000 cycles: 29212819 heartbeat IPC: 1.3721 cumulative IPC: 1.36926 (Simulation time: 0 hr 1 min 19 sec) 
Heartbeat CPU 0 instructions: 50000000 cycles: 36489213 heartbeat IPC: 1.37431 cumulative IPC: 1.37027 (Simulation time: 0 hr 1 min 39 sec) 
Heartbeat CPU 0 instructions: 60000000 cycles: 43769040 heartbeat IPC: 1.37366 cumulative IPC: 1.37083 (Simulation time: 0 hr 1 min 59 sec) 
Heartbeat CPU 0 instructions: 70000001 cycles: 51054168 heartbeat IPC: 1.37266 cumulative IPC: 1.37109 (Simulation time: 0 hr 2 min 20 sec) 
Heartbeat CPU 0 instructions: 80000000 cycles: 58328959 heartbeat IPC: 1.37461 cumulative IPC: 1.37153 (Simulation time: 0 hr 2 min 40 sec) 
Heartbeat CPU 0 instructions: 90000000 cycles: 65635266 heartbeat IPC: 1.36868 cumulative IPC: 1.37121 (Simulation time: 0 hr 3 min 0 sec) 
Heartbeat CPU 0 instructions: 100000000 cycles: 72927294 heartbeat IPC: 1.37136 cumulative IPC: 1.37123 (Simulation time: 0 hr 3 min 20 sec) 

Warmup complete CPU 0 instructions: 100000002 cycles: 72927295 (Simulation time: 0 hr 3 min 20 sec) 

Heartbeat CPU 0 instructions: 110000002 cycles: 113347683 heartbeat IPC: 0.2474 cumulative IPC: 0.2474 (Simulation time: 0 hr 4 min 1 sec) 
Heartbeat CPU 0 instructions: 120000000 cycles: 153483733 heartbeat IPC: 0.249153 cumulative IPC: 0.248273 (Simulation time: 0 hr 4 min 42 sec) 
Heartbeat CPU 0 instructions: 130000002 cycles: 193857627 heartbeat IPC: 0.247685 cumulative IPC: 0.248077 (Simulation time: 0 hr 5 min 23 sec) 
Heartbeat CPU 0 instructions: 140000000 cycles: 234342617 heartbeat IPC: 0.247005 cumulative IPC: 0.247808 (Simulation time: 0 hr 6 min 4 sec) 
Heartbeat CPU 0 instructions: 150000002 cycles: 274378929 heartbeat IPC: 0.249773 cumulative IPC: 0.248199 (Simulation time: 0 hr 6 min 45 sec) 
Heartbeat CPU 0 instructions: 160000000 cycles: 314434704 heartbeat IPC: 0.249652 cumulative IPC: 0.24844 (Simulation time: 0 hr 7 min 25 sec) 
Heartbeat CPU 0 instructions: 170000001 cycles: 353752583 heartbeat IPC: 0.254337 cumulative IPC: 0.249265 (Simulation time: 0 hr 8 min 5 sec) 
Heartbeat CPU 0 instructions: 180000000 cycles: 393785631 heartbeat IPC: 0.249794 cumulative IPC: 0.249331 (Simulation time: 0 hr 8 min 45 sec) 
Heartbeat CPU 0 instructions: 190000002 cycles: 433799644 heartbeat IPC: 0.249913 cumulative IPC: 0.249396 (Simulation time: 0 hr 9 min 25 sec) 
Heartbeat CPU 0 instructions: 200000000 cycles: 475042794 heartbeat IPC: 0.242464 cumulative IPC: 0.248685 (Simulation time: 0 hr 10 min 6 sec) 
Heartbeat CPU 0 instructions: 210000003 cycles: 515139816 heartbeat IPC: 0.249395 cumulative IPC: 0.248749 (Simulation time: 0 hr 10 min 47 sec) 
Heartbeat CPU 0 instructions: 220000000 cycles: 555447519 heartbeat IPC: 0.248091 cumulative IPC: 0.248694 (Simulation time: 0 hr 11 min 27 sec) 
Heartbeat CPU 0 instructions: 230000000 cycles: 595729470 heartbeat IPC: 0.24825 cumulative IPC: 0.24866 (Simulation time: 0 hr 12 min 8 sec) 
Heartbeat CPU 0 instructions: 240000000 cycles: 635720118 heartbeat IPC: 0.250058 cumulative IPC: 0.248759 (Simulation time: 0 hr 12 min 47 sec) 
Heartbeat CPU 0 instructions: 250000000 cycles: 675744199 heartbeat IPC: 0.24985 cumulative IPC: 0.248832 (Simulation time: 0 hr 13 min 27 sec) 
Heartbeat CPU 0 instructions: 260000000 cycles: 715908666 heartbeat IPC: 0.248976 cumulative IPC: 0.248841 (Simulation time: 0 hr 14 min 7 sec) 
Heartbeat CPU 0 instructions: 270000000 cycles: 756105582 heartbeat IPC: 0.248775 cumulative IPC: 0.248837 (Simulation time: 0 hr 14 min 46 sec) 
Heartbeat CPU 0 instructions: 280000000 cycles: 796692069 heartbeat IPC: 0.246387 cumulative IPC: 0.2487 (Simulation time: 0 hr 15 min 26 sec) 
Heartbeat CPU 0 instructions: 290000001 cycles: 836510924 heartbeat IPC: 0.251137 cumulative IPC: 0.248827 (Simulation time: 0 hr 16 min 6 sec) 
Heartbeat CPU 0 instructions: 300000000 cycles: 876917513 heartbeat IPC: 0.247484 cumulative IPC: 0.248759 (Simulation time: 0 hr 16 min 45 sec) 
Heartbeat CPU 0 instructions: 310000000 cycles: 917317795 heartbeat IPC: 0.247523 cumulative IPC: 0.2487 (Simulation time: 0 hr 17 min 24 sec) 
Heartbeat CPU 0 instructions: 320000000 cycles: 957436752 heartbeat IPC: 0.249259 cumulative IPC: 0.248725 (Simulation time: 0 hr 18 min 2 sec) 
Heartbeat CPU 0 instructions: 330000000 cycles: 997563148 heartbeat IPC: 0.249213 cumulative IPC: 0.248747 (Simulation time: 0 hr 18 min 41 sec) 
Heartbeat CPU 0 instructions: 340000000 cycles: 1038279046 heartbeat IPC: 0.245604 cumulative IPC: 0.248614 (Simulation time: 0 hr 19 min 20 sec) 
Heartbeat CPU 0 instructions: 350000001 cycles: 1078477791 heartbeat IPC: 0.248764 cumulative IPC: 0.24862 (Simulation time: 0 hr 19 min 59 sec) 
Heartbeat CPU 0 instructions: 360000000 cycles: 1118948345 heartbeat IPC: 0.247093 cumulative IPC: 0.248561 (Simulation time: 0 hr 20 min 37 sec) 
Heartbeat CPU 0 instructions: 370000000 cycles: 1158493206 heartbeat IPC: 0.252877 cumulative IPC: 0.248718 (Simulation time: 0 hr 21 min 15 sec) 
Heartbeat CPU 0 instructions: 380000000 cycles: 1198949751 heartbeat IPC: 0.247179 cumulative IPC: 0.248663 (Simulation time: 0 hr 21 min 54 sec) 
Heartbeat CPU 0 instructions: 390000001 cycles: 1238953524 heartbeat IPC: 0.249976 cumulative IPC: 0.248708 (Simulation time: 0 hr 22 min 32 sec) 
Heartbeat CPU 0 instructions: 400000000 cycles: 1279051957 heartbeat IPC: 0.249386 cumulative IPC: 0.248731 (Simulation time: 0 hr 23 min 11 sec) 
Heartbeat CPU 0 instructions: 410000000 cycles: 1318978616 heartbeat IPC: 0.250459 cumulative IPC: 0.248786 (Simulation time: 0 hr 23 min 49 sec) 
Heartbeat CPU 0 instructions: 420000000 cycles: 1358974940 heartbeat IPC: 0.250023 cumulative IPC: 0.248824 (Simulation time: 0 hr 24 min 27 sec) 
Heartbeat CPU 0 instructions: 430000000 cycles: 1399016835 heartbeat IPC: 0.249738 cumulative IPC: 0.248852 (Simulation time: 0 hr 25 min 6 sec) 
Heartbeat CPU 0 instructions: 440000000 cycles: 1439072078 heartbeat IPC: 0.249655 cumulative IPC: 0.248876 (Simulation time: 0 hr 25 min 44 sec) 
Heartbeat CPU 0 instructions: 450000002 cycles: 1478991650 heartbeat IPC: 0.250504 cumulative IPC: 0.248922 (Simulation time: 0 hr 26 min 22 sec) 
Heartbeat CPU 0 instructions: 460000000 cycles: 1518368102 heartbeat IPC: 0.253959 cumulative IPC: 0.249059 (Simulation time: 0 hr 27 min 1 sec) 
Heartbeat CPU 0 instructions: 470000000 cycles: 1558575784 heartbeat IPC: 0.248709 cumulative IPC: 0.249049 (Simulation time: 0 hr 27 min 39 sec) 
Heartbeat CPU 0 instructions: 480000000 cycles: 1598451824 heartbeat IPC: 0.250777 cumulative IPC: 0.249095 (Simulation time: 0 hr 28 min 18 sec) 
Heartbeat CPU 0 instructions: 490000001 cycles: 1638478397 heartbeat IPC: 0.249834 cumulative IPC: 0.249114 (Simulation time: 0 hr 28 min 56 sec) 
Heartbeat CPU 0 instructions: 500000000 cycles: 1678717857 heartbeat IPC: 0.248512 cumulative IPC: 0.249098 (Simulation time: 0 hr 29 min 35 sec) 
Heartbeat CPU 0 instructions: 510000000 cycles: 1718412353 heartbeat IPC: 0.251924 cumulative IPC: 0.249167 (Simulation time: 0 hr 30 min 12 sec) 
Heartbeat CPU 0 instructions: 520000000 cycles: 1758845917 heartbeat IPC: 0.247319 cumulative IPC: 0.249122 (Simulation time: 0 hr 30 min 50 sec) 
Heartbeat CPU 0 instructions: 530000000 cycles: 1798753712 heartbeat IPC: 0.250578 cumulative IPC: 0.249156 (Simulation time: 0 hr 31 min 27 sec) 
Heartbeat CPU 0 instructions: 540000000 cycles: 1838422955 heartbeat IPC: 0.252084 cumulative IPC: 0.249222 (Simulation time: 0 hr 32 min 3 sec) 
Heartbeat CPU 0 instructions: 550000001 cycles: 1878823041 heartbeat IPC: 0.247524 cumulative IPC: 0.249184 (Simulation time: 0 hr 32 min 40 sec) 
Heartbeat CPU 0 instructions: 560000000 cycles: 1919313756 heartbeat IPC: 0.24697 cumulative IPC: 0.249135 (Simulation time: 0 hr 33 min 17 sec) 
Heartbeat CPU 0 instructions: 570000003 cycles: 1959773199 heartbeat IPC: 0.247161 cumulative IPC: 0.249093 (Simulation time: 0 hr 33 min 53 sec) 
Heartbeat CPU 0 instructions: 580000000 cycles: 2000057710 heartbeat IPC: 0.248234 cumulative IPC: 0.249075 (Simulation time: 0 hr 34 min 30 sec) 
Heartbeat CPU 0 instructions: 590000001 cycles: 2040786226 heartbeat IPC: 0.245528 cumulative IPC: 0.249002 (Simulation time: 0 hr 35 min 6 sec) 
Heartbeat CPU 0 instructions: 600000000 cycles: 2081254198 heartbeat IPC: 0.247109 cumulative IPC: 0.248963 (Simulation time: 0 hr 35 min 43 sec) 
Finished CPU 0 instructions: 500000000 cycles: 2008326911 cumulative IPC: 0.248963 (Simulation time: 0 hr 35 min 43 sec) 

CPU 0 Branch Prediction Accuracy: 96.2429% MPKI: 5.85335
Number of Branches: 77897976 Number of Mispredictions: 2926674
Number of LOAD Instructions: 193081861
Number of LOAD Instructions (ROI): 193081861
Number of STORE Instructions: 97310749
Number of STORE Instructions (ROI): 97310749
Total Destination Memory Operands: 106368027
Total Destination Memory Operands (ROI): 106368027
Total Source Memory Operands: 193081861
Total Source Memory Operands (ROI): 193081861
Number of DEPENDED LOADS: 6423837
Number of DEPENDED LOADS (ROI): 6423837
Number of SQ_ADDED: 106367982
Number of SQ_ADDED (ROI): 106367982
Number of LQ_ADDED: 427276845
Number of LQ_ADDED (ROI): 427276845
Number of Instructions read from trace: 600000256

ChampSim completed all CPUs

Region of Interest Statistics

CPU 0 cumulative IPC: 0.248963 instructions: 500000000 cycles: 2008326911
ITLB TOTAL     ACCESS:  151321097  HIT:  151305266  MISS:      15831
ITLB LOAD      ACCESS:  151321097  HIT:  151305266  MISS:      15831
ITLB RFO       ACCESS:          0  HIT:          0  MISS:          0
ITLB PREFETCH  ACCESS:          0  HIT:          0  MISS:          0
ITLB WRITEBACK ACCESS:          0  HIT:          0  MISS:          0
ITLB PREFETCH  REQUESTED:          0  ISSUED:          0  USEFUL:          0  USELESS:          0
ITLB TOTAL MSHR MERGED:      17414
ITLB LOAD MSHR MERGED:      17414
ITLB RFO MSHR MERGED:          0
ITLB PREFETCH MSHR MERGED:          0
ITLB WRITEBACK MSHR MERGED:          0
ITLB TOTAL ACCESSES:  151338511 HITS:  151305266 MISSES:      33245
ITLB LOAD ACCESSES:  151338511 HITS:  151305266 MISSES:      33245
ITLB RFO ACCESSES:          0 HITS:          0 MISSES:          0
ITLB PREFETCH ACCESSES:          0 HITS:          0 MISSES:          0
ITLB WRITEBACK ACCESSES:          0 HITS:          0 MISSES:          0
ITLB RQ ACCESS:  500000242
ITLB RQ TO_CACHE:  151338511
ITLB RQ MERGED:  348661731
ITLB RQ FORWARD:          0
ITLB WQ ACCESS:          0
ITLB WQ TO_CACHE:          0
ITLB WQ MERGED:          0
ITLB WQ FORWARD:          0
DTLB TOTAL     ACCESS:  199577250  HIT:  194198172  MISS:    5379078
DTLB LOAD      ACCESS:  123150772  HIT:  118132182  MISS:    5018590
DTLB RFO       ACCESS:   76426478  HIT:   76065990  MISS:     360488
DTLB PREFETCH  ACCESS:          0  HIT:          0  MISS:          0
DTLB WRITEBACK ACCESS:          0  HIT:          0  MISS:          0
DTLB PREFETCH  REQUESTED:          0  ISSUED:          0  USEFUL:          0  USELESS:          0
DTLB TOTAL MSHR MERGED:     917696
DTLB LOAD MSHR MERGED:     807606
DTLB RFO MSHR MERGED:     110090
DTLB PREFETCH MSHR MERGED:          0
DTLB WRITEBACK MSHR MERGED:          0
DTLB TOTAL ACCESSES:  200494946 HITS:  194198172 MISSES:    6296774
DTLB LOAD ACCESSES:  123958378 HITS:  118132182 MISSES:    5826196
DTLB RFO ACCESSES:   76536568 HITS:   76065990 MISSES:     470578
DTLB PREFETCH ACCESSES:          0 HITS:          0 MISSES:          0
DTLB WRITEBACK ACCESSES:          0 HITS:          0 MISSES:          0
DTLB RQ ACCESS:  243901742
DTLB RQ TO_CACHE:  200494946
DTLB RQ MERGED:   43406796
DTLB RQ FORWARD:          0
DTLB WQ ACCESS:          0
DTLB WQ TO_CACHE:          0
DTLB WQ MERGED:          0
DTLB WQ FORWARD:          0
L1D TOTAL     ACCESS:  335674788  HIT:  317578790  MISS:   18095998
L1D LOAD      ACCESS:  127715523  HIT:  118773604  MISS:    8941919
L1D RFO       ACCESS:   87098129  HIT:   86320127  MISS:     778002
L1D PREFETCH  ACCESS:  120861136  HIT:  112485059  MISS:    8376077
L1D WRITEBACK ACCESS:          0  HIT:          0  MISS:          0
L1D PREFETCH  REQUESTED:  128492364  ISSUED:  126894401  USEFUL:    1744219  USELESS:    6631870
L1D TOTAL MSHR MERGED:    3814548
L1D LOAD MSHR MERGED:     939687
L1D RFO MSHR MERGED:    1046594
L1D PREFETCH MSHR MERGED:    1828267
L1D WRITEBACK MSHR MERGED:          0
L1D TOTAL ACCESSES:  339575307 HITS:  317664761 MISSES:   21910546
L1D LOAD ACCESSES:  128492806 HITS:  118774046 MISSES:    9718760
L1D RFO ACCESSES:   88087239 HITS:   86320127 MISSES:    1767112
L1D PREFETCH ACCESSES:  122995262 HITS:  112570588 MISSES:   10424674
L1D WRITEBACK ACCESSES:          0 HITS:          0 MISSES:          0
L1D RQ ACCESS:  155270357
L1D RQ TO_CACHE:  128492364
L1D RQ MERGED:   26777551
L1D RQ FORWARD:          0
L1D WQ ACCESS:   88631385
L1D WQ TO_CACHE:   88087238
L1D WQ MERGED:     544147
L1D WQ FORWARD:      85971
L1I TOTAL     ACCESS:  175621234  HIT:  175354770  MISS:     266464
L1I LOAD      ACCESS:  175621234  HIT:  175354770  MISS:     266464
L1I RFO       ACCESS:          0  HIT:          0  MISS:          0
L1I PREFETCH  ACCESS:          0  HIT:          0  MISS:          0
L1I WRITEBACK ACCESS:          0  HIT:          0  MISS:          0
L1I PREFETCH  REQUESTED:          0  ISSUED:          0  USEFUL:          0  USELESS:          0
L1I TOTAL MSHR MERGED:     212962
L1I LOAD MSHR MERGED:     212962
L1I RFO MSHR MERGED:          0
L1I PREFETCH MSHR MERGED:          0
L1I WRITEBACK MSHR MERGED:          0
L1I TOTAL ACCESSES:  175834196 HITS:  175354770 MISSES:     479426
L1I LOAD ACCESSES:  175834196 HITS:  175354770 MISSES:     479426
L1I RFO ACCESSES:          0 HITS:          0 MISSES:          0
L1I PREFETCH ACCESSES:          0 HITS:          0 MISSES:          0
L1I WRITEBACK ACCESSES:          0 HITS:          0 MISSES:          0
L1I RQ ACCESS:  500000242
L1I RQ TO_CACHE:  175834196
L1I RQ MERGED:  324166046
L1I RQ FORWARD:          0
L1I WQ ACCESS:          0
L1I WQ TO_CACHE:          0
L1I WQ MERGED:          0
L1I WQ FORWARD:          0
L2C TOTAL     ACCESS:   23738526  HIT:   12112740  MISS:   11625786
L2C LOAD      ACCESS:    9044358  HIT:    3564859  MISS:    5479499
L2C RFO       ACCESS:     720463  HIT:     130219  MISS:     590244
L2C PREFETCH  ACCESS:    8613405  HIT:    3086063  MISS:    5527342
L2C WRITEBACK ACCESS:    5360300  HIT:    5331599  MISS:      28701
L2C PREFETCH  REQUESTED:      18043  ISSUED:      18043  USEFUL:     323014  USELESS:    5204503
L2C TOTAL MSHR MERGED:         24
L2C LOAD MSHR MERGED:          2
L2C RFO MSHR MERGED:          0
L2C PREFETCH MSHR MERGED:         22
L2C WRITEBACK MSHR MERGED:          0
L2C TOTAL ACCESSES:   23740345 HITS:   12114529 MISSES:   11625816
L2C LOAD ACCESSES:    9045537 HITS:    3566038 MISSES:    5479499
L2C RFO ACCESSES:     720518 HITS:     130274 MISSES:     590244
L2C PREFETCH ACCESSES:    8613990 HITS:    3086618 MISSES:    5527372
L2C WRITEBACK ACCESSES:    5360300 HITS:    5331599 MISSES:      28701
L2C RQ ACCESS:    9766055
L2C RQ TO_CACHE:    9764821
L2C RQ MERGED:          0
L2C RQ FORWARD:          0
L2C WQ ACCESS:    5360300
L2C WQ TO_CACHE:    5360300
L2C WQ MERGED:          0
L2C WQ FORWARD:       1789
LLC TOTAL     ACCESS:   15448708  HIT:    6546992  MISS:    8901716
LLC LOAD      ACCESS:    5479468  HIT:    2067131  MISS:    3412337
LLC RFO       ACCESS:     590242  HIT:     290524  MISS:     299718
LLC PREFETCH  ACCESS:    5527333  HIT:    1078132  MISS:    4449201
LLC WRITEBACK ACCESS:    3851665  HIT:    3111205  MISS:     740460
LLC PREFETCH  REQUESTED:          0  ISSUED:          0  USEFUL:      23604  USELESS:    4426129
LLC TOTAL MSHR MERGED:          0
LLC LOAD MSHR MERGED:          0
LLC RFO MSHR MERGED:          0
LLC PREFETCH MSHR MERGED:          0
LLC WRITEBACK MSHR MERGED:          0
LLC TOTAL ACCESSES:   15448756 HITS:    6547040 MISSES:    8901716
LLC LOAD ACCESSES:    5479497 HITS:    2067160 MISSES:    3412337
LLC RFO ACCESSES:     590244 HITS:     290526 MISSES:     299718
LLC PREFETCH ACCESSES:    5527350 HITS:    1078149 MISSES:    4449201
LLC WRITEBACK ACCESSES:    3851665 HITS:    3111205 MISSES:     740460
LLC 0 RQ ACCESS:    6069741
LLC 0 RQ TO_CACHE:    6069710
LLC 0 RQ MERGED:          0
LLC 0 RQ FORWARD:          0
LLC WQ ACCESS:    3851665
LLC WQ TO_CACHE:    3851665
LLC WQ MERGED:          0
LLC WQ FORWARD:         48
Major fault: 0 Minor fault: 44814
CPU 0 L1D next line prefetcher final stats
CPU 0 L2C PC-based stride prefetcher final stats
All Misses: 10776857
All Hits: 7844355
SD Algo Stats - Switches: 0 SRR-Repls: 3894911 BRR-Repls: 0

DRAM Statistics
 CHANNEL 0
 RQ ROW_BUFFER_HIT:    1443445  ROW_BUFFER_MISS:    6716540
 DBUS_CONGESTED:    5422418
 WQ ROW_BUFFER_HIT:     167160  ROW_BUFFER_MISS:    2035383  FULL:          0

 AVG_CONGESTED_CYCLE: 13
LOADS RETIRED: 160808997
INSTR RETIRED: 500000000
