
*** ChampSim Multicore Out-of-Order Simulator ***

Warmup Instructions: 100000000
Simulation Instructions: 500000000
Number of CPUs: 1
LLC sets: 2048
LLC ways: 16
Clean RRIP Policies: 1213130112131301 Dirty RRIP Policies: 2213130122131301 PSEL Width: 10 Track Set: 4294967295 PSEL Mask: 1 Demote Mask: 3040101030401010DS Algo: 0Window size: 0
Off-chip DRAM Size: 4096 MB Channels: 1 Width: 64-bit Data Rate: 1600 MT/s

CPU 0 runs /mnt/beegfs/iconst01/spec2017/Fotonik3d.trace.gz
NOT SORTED
TRACE STRING: /mnt/beegfs/iconst01/spec2017/Fotonik3d.trace.gz
SORTED
TRACE STRING: /mnt/beegfs/iconst01/spec2017/Fotonik3d.trace.gz
INITIAL
TRACE STRING: /mnt/beegfs/iconst01/spec2017/Fotonik3d.trace.gz

champsim_seed used: 881

CPU 0 L1D next line prefetcher
CPU 0 L2C IP-based stride prefetcher
Initialize DRRIP state
Assign rand_sets[0]: 454  LLC: 2048
rand_sets[0]: 454
Assign rand_sets[1]: 1662  LLC: 2048
rand_sets[1]: 1662
Assign rand_sets[2]: 1921  LLC: 2048
rand_sets[2]: 1921
Assign rand_sets[3]: 1131  LLC: 2048
rand_sets[3]: 1131
Assign rand_sets[4]: 331  LLC: 2048
rand_sets[4]: 331
Assign rand_sets[5]: 1531  LLC: 2048
rand_sets[5]: 1531
Assign rand_sets[6]: 482  LLC: 2048
rand_sets[6]: 482
Assign rand_sets[7]: 1275  LLC: 2048
rand_sets[7]: 1275
Assign rand_sets[8]: 1876  LLC: 2048
rand_sets[8]: 1876
Assign rand_sets[9]: 2038  LLC: 2048
rand_sets[9]: 2038
Assign rand_sets[10]: 701  LLC: 2048
rand_sets[10]: 701
Assign rand_sets[11]: 479  LLC: 2048
rand_sets[11]: 479
Assign rand_sets[12]: 892  LLC: 2048
rand_sets[12]: 892
Assign rand_sets[13]: 1820  LLC: 2048
rand_sets[13]: 1820
Assign rand_sets[14]: 1505  LLC: 2048
rand_sets[14]: 1505
Assign rand_sets[15]: 1159  LLC: 2048
rand_sets[15]: 1159
Assign rand_sets[16]: 513  LLC: 2048
rand_sets[16]: 513
Assign rand_sets[17]: 703  LLC: 2048
rand_sets[17]: 703
Assign rand_sets[18]: 561  LLC: 2048
rand_sets[18]: 561
Assign rand_sets[19]: 990  LLC: 2048
rand_sets[19]: 990
Assign rand_sets[20]: 342  LLC: 2048
rand_sets[20]: 342
Assign rand_sets[21]: 882  LLC: 2048
rand_sets[21]: 882
Assign rand_sets[22]: 15  LLC: 2048
rand_sets[22]: 15
Assign rand_sets[23]: 71  LLC: 2048
rand_sets[23]: 71
Assign rand_sets[24]: 1127  LLC: 2048
rand_sets[24]: 1127
Assign rand_sets[25]: 1382  LLC: 2048
rand_sets[25]: 1382
Assign rand_sets[26]: 647  LLC: 2048
rand_sets[26]: 647
Assign rand_sets[27]: 857  LLC: 2048
rand_sets[27]: 857
Assign rand_sets[28]: 1450  LLC: 2048
rand_sets[28]: 1450
Assign rand_sets[29]: 1160  LLC: 2048
rand_sets[29]: 1160
Assign rand_sets[30]: 1852  LLC: 2048
rand_sets[30]: 1852
Assign rand_sets[31]: 1881  LLC: 2048
rand_sets[31]: 1881
Assign rand_sets[32]: 1770  LLC: 2048
rand_sets[32]: 1770
Assign rand_sets[33]: 1622  LLC: 2048
rand_sets[33]: 1622
Assign rand_sets[34]: 275  LLC: 2048
rand_sets[34]: 275
Assign rand_sets[35]: 635  LLC: 2048
rand_sets[35]: 635
Assign rand_sets[36]: 466  LLC: 2048
rand_sets[36]: 466
Assign rand_sets[37]: 1413  LLC: 2048
rand_sets[37]: 1413
Assign rand_sets[38]: 417  LLC: 2048
rand_sets[38]: 417
Assign rand_sets[39]: 472  LLC: 2048
rand_sets[39]: 472
Assign rand_sets[40]: 1340  LLC: 2048
rand_sets[40]: 1340
Assign rand_sets[41]: 852  LLC: 2048
rand_sets[41]: 852
Assign rand_sets[42]: 1365  LLC: 2048
rand_sets[42]: 1365
Assign rand_sets[43]: 47  LLC: 2048
rand_sets[43]: 47
Assign rand_sets[44]: 823  LLC: 2048
rand_sets[44]: 823
Assign rand_sets[45]: 686  LLC: 2048
rand_sets[45]: 686
Assign rand_sets[46]: 1637  LLC: 2048
rand_sets[46]: 1637
Assign rand_sets[47]: 1115  LLC: 2048
rand_sets[47]: 1115
Assign rand_sets[48]: 986  LLC: 2048
rand_sets[48]: 986
Assign rand_sets[49]: 258  LLC: 2048
rand_sets[49]: 258
Assign rand_sets[50]: 633  LLC: 2048
rand_sets[50]: 633
Assign rand_sets[51]: 920  LLC: 2048
rand_sets[51]: 920
Assign rand_sets[52]: 204  LLC: 2048
rand_sets[52]: 204
Assign rand_sets[53]: 227  LLC: 2048
rand_sets[53]: 227
Assign rand_sets[54]: 1818  LLC: 2048
rand_sets[54]: 1818
Assign rand_sets[55]: 886  LLC: 2048
rand_sets[55]: 886
Assign rand_sets[56]: 1422  LLC: 2048
rand_sets[56]: 1422
Assign rand_sets[57]: 607  LLC: 2048
rand_sets[57]: 607
Assign rand_sets[58]: 217  LLC: 2048
rand_sets[58]: 217
Assign rand_sets[59]: 1945  LLC: 2048
rand_sets[59]: 1945
Assign rand_sets[60]: 143  LLC: 2048
rand_sets[60]: 143
Assign rand_sets[61]: 1311  LLC: 2048
rand_sets[61]: 1311
Assign rand_sets[62]: 319  LLC: 2048
rand_sets[62]: 319
Assign rand_sets[63]: 1846  LLC: 2048
rand_sets[63]: 1846
 CLEAN-RRIP-POLICY-1: 1-2-1-3-1-3-0-1- CLEAN-RRIP-POLICY-2: 1-2-1-3-1-3-0-1-
 DIRTY-RRIP-POLICY-1: 2-2-1-3-1-3-0-1- DIRTY-RRIP-POLICY-2: 2-2-1-3-1-3-0-1-
 PSEL width: 10
Heartbeat CPU 0 instructions: 10000002 cycles: 7306710 heartbeat IPC: 1.36861 cumulative IPC: 1.36861 (Simulation time: 0 hr 0 min 25 sec) 
Heartbeat CPU 0 instructions: 20000000 cycles: 14613515 heartbeat IPC: 1.36859 cumulative IPC: 1.3686 (Simulation time: 0 hr 0 min 51 sec) 
Heartbeat CPU 0 instructions: 30000001 cycles: 21920181 heartbeat IPC: 1.36861 cumulative IPC: 1.3686 (Simulation time: 0 hr 1 min 16 sec) 
Heartbeat CPU 0 instructions: 40000000 cycles: 29226731 heartbeat IPC: 1.36863 cumulative IPC: 1.36861 (Simulation time: 0 hr 1 min 40 sec) 
Heartbeat CPU 0 instructions: 50000001 cycles: 36533268 heartbeat IPC: 1.36864 cumulative IPC: 1.36862 (Simulation time: 0 hr 2 min 5 sec) 
Heartbeat CPU 0 instructions: 60000000 cycles: 43840059 heartbeat IPC: 1.36859 cumulative IPC: 1.36861 (Simulation time: 0 hr 2 min 30 sec) 
Heartbeat CPU 0 instructions: 70000002 cycles: 51146653 heartbeat IPC: 1.36863 cumulative IPC: 1.36861 (Simulation time: 0 hr 2 min 56 sec) 
Heartbeat CPU 0 instructions: 80000000 cycles: 58453246 heartbeat IPC: 1.36863 cumulative IPC: 1.36862 (Simulation time: 0 hr 3 min 21 sec) 
Heartbeat CPU 0 instructions: 90000003 cycles: 65763617 heartbeat IPC: 1.36792 cumulative IPC: 1.36854 (Simulation time: 0 hr 3 min 46 sec) 
Heartbeat CPU 0 instructions: 100000000 cycles: 73074039 heartbeat IPC: 1.36791 cumulative IPC: 1.36848 (Simulation time: 0 hr 4 min 11 sec) 

Warmup complete CPU 0 instructions: 100000002 cycles: 73074051 (Simulation time: 0 hr 4 min 11 sec) 

Heartbeat CPU 0 instructions: 110000001 cycles: 85473479 heartbeat IPC: 0.806488 cumulative IPC: 0.806489 (Simulation time: 0 hr 4 min 41 sec) 
Heartbeat CPU 0 instructions: 120000000 cycles: 97806732 heartbeat IPC: 0.810816 cumulative IPC: 0.808647 (Simulation time: 0 hr 5 min 11 sec) 
Heartbeat CPU 0 instructions: 130000000 cycles: 110196411 heartbeat IPC: 0.807123 cumulative IPC: 0.808138 (Simulation time: 0 hr 5 min 41 sec) 
Heartbeat CPU 0 instructions: 140000000 cycles: 122551183 heartbeat IPC: 0.809404 cumulative IPC: 0.808454 (Simulation time: 0 hr 6 min 11 sec) 
Heartbeat CPU 0 instructions: 150000000 cycles: 134881125 heartbeat IPC: 0.811034 cumulative IPC: 0.808969 (Simulation time: 0 hr 6 min 41 sec) 
Heartbeat CPU 0 instructions: 160000000 cycles: 147236885 heartbeat IPC: 0.809339 cumulative IPC: 0.809031 (Simulation time: 0 hr 7 min 11 sec) 
Heartbeat CPU 0 instructions: 170000001 cycles: 159595957 heartbeat IPC: 0.809122 cumulative IPC: 0.809044 (Simulation time: 0 hr 7 min 41 sec) 
Heartbeat CPU 0 instructions: 180000000 cycles: 171954399 heartbeat IPC: 0.809163 cumulative IPC: 0.809059 (Simulation time: 0 hr 8 min 11 sec) 
Heartbeat CPU 0 instructions: 190000000 cycles: 184348688 heartbeat IPC: 0.806823 cumulative IPC: 0.80881 (Simulation time: 0 hr 8 min 41 sec) 
Heartbeat CPU 0 instructions: 200000000 cycles: 196710477 heartbeat IPC: 0.808944 cumulative IPC: 0.808823 (Simulation time: 0 hr 9 min 11 sec) 
Heartbeat CPU 0 instructions: 210000002 cycles: 209098260 heartbeat IPC: 0.807247 cumulative IPC: 0.80868 (Simulation time: 0 hr 9 min 41 sec) 
Heartbeat CPU 0 instructions: 220000000 cycles: 221496493 heartbeat IPC: 0.806566 cumulative IPC: 0.808503 (Simulation time: 0 hr 10 min 11 sec) 
Heartbeat CPU 0 instructions: 230000002 cycles: 233846006 heartbeat IPC: 0.809749 cumulative IPC: 0.808599 (Simulation time: 0 hr 10 min 42 sec) 
Heartbeat CPU 0 instructions: 240000000 cycles: 246960237 heartbeat IPC: 0.76253 cumulative IPC: 0.805124 (Simulation time: 0 hr 11 min 12 sec) 
Heartbeat CPU 0 instructions: 250000001 cycles: 264147100 heartbeat IPC: 0.58184 cumulative IPC: 0.78504 (Simulation time: 0 hr 11 min 45 sec) 
Heartbeat CPU 0 instructions: 260000000 cycles: 281260062 heartbeat IPC: 0.584352 cumulative IPC: 0.768543 (Simulation time: 0 hr 12 min 18 sec) 
Heartbeat CPU 0 instructions: 270000000 cycles: 298454012 heartbeat IPC: 0.5816 cumulative IPC: 0.754282 (Simulation time: 0 hr 12 min 51 sec) 
Heartbeat CPU 0 instructions: 280000000 cycles: 315605325 heartbeat IPC: 0.583046 cumulative IPC: 0.742172 (Simulation time: 0 hr 13 min 23 sec) 
Heartbeat CPU 0 instructions: 290000000 cycles: 343992652 heartbeat IPC: 0.35227 cumulative IPC: 0.701318 (Simulation time: 0 hr 14 min 4 sec) 
Heartbeat CPU 0 instructions: 300000000 cycles: 380941045 heartbeat IPC: 0.270648 cumulative IPC: 0.649631 (Simulation time: 0 hr 14 min 50 sec) 
Heartbeat CPU 0 instructions: 310000000 cycles: 397463366 heartbeat IPC: 0.605242 cumulative IPC: 0.64737 (Simulation time: 0 hr 15 min 22 sec) 
Heartbeat CPU 0 instructions: 320000000 cycles: 413947643 heartbeat IPC: 0.606639 cumulative IPC: 0.645401 (Simulation time: 0 hr 15 min 53 sec) 
Heartbeat CPU 0 instructions: 330000003 cycles: 430490531 heartbeat IPC: 0.60449 cumulative IPC: 0.643507 (Simulation time: 0 hr 16 min 25 sec) 
Heartbeat CPU 0 instructions: 340000000 cycles: 446987180 heartbeat IPC: 0.606184 cumulative IPC: 0.64186 (Simulation time: 0 hr 16 min 57 sec) 
Heartbeat CPU 0 instructions: 350000001 cycles: 461767600 heartbeat IPC: 0.676571 cumulative IPC: 0.64318 (Simulation time: 0 hr 17 min 26 sec) 
Heartbeat CPU 0 instructions: 360000000 cycles: 473640255 heartbeat IPC: 0.842272 cumulative IPC: 0.649081 (Simulation time: 0 hr 17 min 54 sec) 
Heartbeat CPU 0 instructions: 370000002 cycles: 485344601 heartbeat IPC: 0.854384 cumulative IPC: 0.65491 (Simulation time: 0 hr 18 min 21 sec) 
Heartbeat CPU 0 instructions: 380000000 cycles: 497194517 heartbeat IPC: 0.843888 cumulative IPC: 0.66019 (Simulation time: 0 hr 18 min 49 sec) 
Heartbeat CPU 0 instructions: 390000003 cycles: 510484319 heartbeat IPC: 0.752457 cumulative IPC: 0.662993 (Simulation time: 0 hr 19 min 17 sec) 
Heartbeat CPU 0 instructions: 400000000 cycles: 522726786 heartbeat IPC: 0.816829 cumulative IPC: 0.667182 (Simulation time: 0 hr 19 min 46 sec) 
Heartbeat CPU 0 instructions: 410000003 cycles: 534681871 heartbeat IPC: 0.836464 cumulative IPC: 0.671566 (Simulation time: 0 hr 20 min 14 sec) 
Heartbeat CPU 0 instructions: 420000000 cycles: 547488651 heartbeat IPC: 0.780836 cumulative IPC: 0.674515 (Simulation time: 0 hr 20 min 42 sec) 
Heartbeat CPU 0 instructions: 430000003 cycles: 565964567 heartbeat IPC: 0.541245 cumulative IPC: 0.66952 (Simulation time: 0 hr 21 min 7 sec) 
Heartbeat CPU 0 instructions: 440000000 cycles: 584550781 heartbeat IPC: 0.538033 cumulative IPC: 0.664742 (Simulation time: 0 hr 21 min 33 sec) 
Heartbeat CPU 0 instructions: 450000003 cycles: 603154943 heartbeat IPC: 0.537514 cumulative IPC: 0.660277 (Simulation time: 0 hr 21 min 59 sec) 
Heartbeat CPU 0 instructions: 460000000 cycles: 621726492 heartbeat IPC: 0.538458 cumulative IPC: 0.656153 (Simulation time: 0 hr 22 min 24 sec) 
Heartbeat CPU 0 instructions: 470000003 cycles: 640321180 heartbeat IPC: 0.537788 cumulative IPC: 0.652273 (Simulation time: 0 hr 22 min 50 sec) 
Heartbeat CPU 0 instructions: 480000000 cycles: 658909970 heartbeat IPC: 0.537958 cumulative IPC: 0.648646 (Simulation time: 0 hr 23 min 15 sec) 
Heartbeat CPU 0 instructions: 490000003 cycles: 677512574 heartbeat IPC: 0.537559 cumulative IPC: 0.645227 (Simulation time: 0 hr 23 min 41 sec) 
Heartbeat CPU 0 instructions: 500000000 cycles: 696073288 heartbeat IPC: 0.538772 cumulative IPC: 0.642055 (Simulation time: 0 hr 24 min 7 sec) 
Heartbeat CPU 0 instructions: 510000003 cycles: 714650059 heartbeat IPC: 0.538307 cumulative IPC: 0.639051 (Simulation time: 0 hr 24 min 32 sec) 
Heartbeat CPU 0 instructions: 520000000 cycles: 733221105 heartbeat IPC: 0.538472 cumulative IPC: 0.636222 (Simulation time: 0 hr 24 min 58 sec) 
Heartbeat CPU 0 instructions: 530000001 cycles: 751825378 heartbeat IPC: 0.537511 cumulative IPC: 0.633516 (Simulation time: 0 hr 25 min 23 sec) 
Heartbeat CPU 0 instructions: 540000000 cycles: 770363063 heartbeat IPC: 0.539442 cumulative IPC: 0.631015 (Simulation time: 0 hr 25 min 49 sec) 
Heartbeat CPU 0 instructions: 550000001 cycles: 788875855 heartbeat IPC: 0.540167 cumulative IPC: 0.628666 (Simulation time: 0 hr 26 min 15 sec) 
Heartbeat CPU 0 instructions: 560000000 cycles: 807411721 heartbeat IPC: 0.539495 cumulative IPC: 0.626415 (Simulation time: 0 hr 26 min 40 sec) 
Heartbeat CPU 0 instructions: 570000001 cycles: 825952221 heartbeat IPC: 0.53936 cumulative IPC: 0.624271 (Simulation time: 0 hr 27 min 6 sec) 
Heartbeat CPU 0 instructions: 580000000 cycles: 844430166 heartbeat IPC: 0.541186 cumulative IPC: 0.622281 (Simulation time: 0 hr 27 min 32 sec) 
Heartbeat CPU 0 instructions: 590000001 cycles: 862941537 heartbeat IPC: 0.540209 cumulative IPC: 0.620357 (Simulation time: 0 hr 27 min 57 sec) 
Heartbeat CPU 0 instructions: 600000000 cycles: 881461523 heartbeat IPC: 0.539957 cumulative IPC: 0.618515 (Simulation time: 0 hr 28 min 23 sec) 
Finished CPU 0 instructions: 500000002 cycles: 808387486 cumulative IPC: 0.618515 (Simulation time: 0 hr 28 min 23 sec) 

CPU 0 Branch Prediction Accuracy: 99.5931% MPKI: 0.08288
Number of Branches: 10184133 Number of Mispredictions: 41440
Number of LOAD Instructions: 261155957
Number of LOAD Instructions (ROI): 261155957
Number of STORE Instructions: 57884062
Number of STORE Instructions (ROI): 57884062
Total Destination Memory Operands: 83293336
Total Destination Memory Operands (ROI): 83293336
Total Source Memory Operands: 261155957
Total Source Memory Operands (ROI): 261155957
Number of DEPENDED LOADS: 22254966
Number of DEPENDED LOADS (ROI): 22254966
Number of SQ_ADDED: 83293300
Number of SQ_ADDED (ROI): 83293300
Number of LQ_ADDED: 1762398162
Number of LQ_ADDED (ROI): 1762398162
Number of Instructions read from trace: 600000257

ChampSim completed all CPUs

Region of Interest Statistics

CPU 0 cumulative IPC: 0.618515 instructions: 500000002 cycles: 808387486
ITLB TOTAL     ACCESS:   94635528  HIT:   94635490  MISS:         38
ITLB LOAD      ACCESS:   94635528  HIT:   94635490  MISS:         38
ITLB RFO       ACCESS:          0  HIT:          0  MISS:          0
ITLB PREFETCH  ACCESS:          0  HIT:          0  MISS:          0
ITLB WRITEBACK ACCESS:          0  HIT:          0  MISS:          0
ITLB PREFETCH  REQUESTED:          0  ISSUED:          0  USEFUL:          0  USELESS:          0
ITLB TOTAL MSHR MERGED:         93
ITLB LOAD MSHR MERGED:         93
ITLB RFO MSHR MERGED:          0
ITLB PREFETCH MSHR MERGED:          0
ITLB WRITEBACK MSHR MERGED:          0
ITLB TOTAL ACCESSES:   94635621 HITS:   94635490 MISSES:        131
ITLB LOAD ACCESSES:   94635621 HITS:   94635490 MISSES:        131
ITLB RFO ACCESSES:          0 HITS:          0 MISSES:          0
ITLB PREFETCH ACCESSES:          0 HITS:          0 MISSES:          0
ITLB WRITEBACK ACCESSES:          0 HITS:          0 MISSES:          0
ITLB RQ ACCESS:  500000001
ITLB RQ TO_CACHE:   94635622
ITLB RQ MERGED:  405364379
ITLB RQ FORWARD:          0
ITLB WQ ACCESS:          0
ITLB WQ TO_CACHE:          0
ITLB WQ MERGED:          0
ITLB WQ FORWARD:          0
DTLB TOTAL     ACCESS:  149174783  HIT:  148577823  MISS:     596960
DTLB LOAD      ACCESS:  107300726  HIT:  106703777  MISS:     596949
DTLB RFO       ACCESS:   41874057  HIT:   41874046  MISS:         11
DTLB PREFETCH  ACCESS:          0  HIT:          0  MISS:          0
DTLB WRITEBACK ACCESS:          0  HIT:          0  MISS:          0
DTLB PREFETCH  REQUESTED:          0  ISSUED:          0  USEFUL:          0  USELESS:          0
DTLB TOTAL MSHR MERGED:     134279
DTLB LOAD MSHR MERGED:     134279
DTLB RFO MSHR MERGED:          0
DTLB PREFETCH MSHR MERGED:          0
DTLB WRITEBACK MSHR MERGED:          0
DTLB TOTAL ACCESSES:  149309062 HITS:  148577823 MISSES:     731239
DTLB LOAD ACCESSES:  107435005 HITS:  106703777 MISSES:     731228
DTLB RFO ACCESSES:   41874057 HITS:   41874046 MISSES:         11
DTLB PREFETCH ACCESSES:          0 HITS:          0 MISSES:          0
DTLB WRITEBACK ACCESSES:          0 HITS:          0 MISSES:          0
DTLB RQ ACCESS:  259760928
DTLB RQ TO_CACHE:  149309062
DTLB RQ MERGED:  110451866
DTLB RQ FORWARD:          0
DTLB WQ ACCESS:          0
DTLB WQ TO_CACHE:          0
DTLB WQ MERGED:          0
DTLB WQ FORWARD:          0
L1D TOTAL     ACCESS:  261031915  HIT:  245634026  MISS:   15397889
L1D LOAD      ACCESS:  118070623  HIT:  112567558  MISS:    5503065
L1D RFO       ACCESS:   68946850  HIT:   68932444  MISS:      14406
L1D PREFETCH  ACCESS:   74014442  HIT:   64134024  MISS:    9880418
L1D WRITEBACK ACCESS:          0  HIT:          0  MISS:          0
L1D PREFETCH  REQUESTED:  120658167  ISSUED:  119084283  USEFUL:    8009530  USELESS:    1870910
L1D TOTAL MSHR MERGED:   16525438
L1D LOAD MSHR MERGED:    5000675
L1D RFO MSHR MERGED:      21734
L1D PREFETCH MSHR MERGED:   11503029
L1D WRITEBACK MSHR MERGED:          0
L1D TOTAL ACCESSES:  277667515 HITS:  245744188 MISSES:   31923327
L1D LOAD ACCESSES:  120665686 HITS:  112575077 MISSES:    8090609
L1D RFO ACCESSES:   68968584 HITS:   68932444 MISSES:      36140
L1D PREFETCH ACCESSES:   88033245 HITS:   64236667 MISSES:   23796578
L1D WRITEBACK ACCESSES:          0 HITS:          0 MISSES:          0
L1D RQ ACCESS:  190686612
L1D RQ TO_CACHE:  120658167
L1D RQ MERGED:   70020926
L1D RQ FORWARD:          0
L1D WQ ACCESS:   69074336
L1D WQ TO_CACHE:   68968586
L1D WQ MERGED:     105750
L1D WQ FORWARD:     110162
L1I TOTAL     ACCESS:  121550465  HIT:  121549392  MISS:       1073
L1I LOAD      ACCESS:  121550465  HIT:  121549392  MISS:       1073
L1I RFO       ACCESS:          0  HIT:          0  MISS:          0
L1I PREFETCH  ACCESS:          0  HIT:          0  MISS:          0
L1I WRITEBACK ACCESS:          0  HIT:          0  MISS:          0
L1I PREFETCH  REQUESTED:          0  ISSUED:          0  USEFUL:          0  USELESS:          0
L1I TOTAL MSHR MERGED:       1099
L1I LOAD MSHR MERGED:       1099
L1I RFO MSHR MERGED:          0
L1I PREFETCH MSHR MERGED:          0
L1I WRITEBACK MSHR MERGED:          0
L1I TOTAL ACCESSES:  121551564 HITS:  121549392 MISSES:       2172
L1I LOAD ACCESSES:  121551564 HITS:  121549392 MISSES:       2172
L1I RFO ACCESSES:          0 HITS:          0 MISSES:          0
L1I PREFETCH ACCESSES:          0 HITS:          0 MISSES:          0
L1I WRITEBACK ACCESSES:          0 HITS:          0 MISSES:          0
L1I RQ ACCESS:  500000000
L1I RQ TO_CACHE:  121551564
L1I RQ MERGED:  378448436
L1I RQ FORWARD:          0
L1I WQ ACCESS:          0
L1I WQ TO_CACHE:          0
L1I WQ MERGED:          0
L1I WQ FORWARD:          0
L2C TOTAL     ACCESS:   22471015  HIT:    9151877  MISS:   13319138
L2C LOAD      ACCESS:    3090972  HIT:     417114  MISS:    2673858
L2C RFO       ACCESS:      14406  HIT:      13991  MISS:        415
L2C PREFETCH  ACCESS:   12735707  HIT:    2092646  MISS:   10643061
L2C WRITEBACK ACCESS:    6629930  HIT:    6628126  MISS:       1804
L2C PREFETCH  REQUESTED:     694839  ISSUED:     694839  USEFUL:     186657  USELESS:   10457202
L2C TOTAL MSHR MERGED:      71567
L2C LOAD MSHR MERGED:      22531
L2C RFO MSHR MERGED:          0
L2C PREFETCH MSHR MERGED:      49036
L2C WRITEBACK MSHR MERGED:          0
L2C TOTAL ACCESSES:   22683693 HITS:    9151927 MISSES:   13531766
L2C LOAD ACCESSES:    3091007 HITS:     417149 MISSES:    2673858
L2C RFO ACCESSES:      14406 HITS:      13991 MISSES:        415
L2C PREFETCH ACCESSES:   12948350 HITS:    2092661 MISSES:   10855689
L2C WRITEBACK ACCESSES:    6629930 HITS:    6628126 MISSES:       1804
L2C RQ ACCESS:    3105413
L2C RQ TO_CACHE:    3105378
L2C RQ MERGED:          0
L2C RQ FORWARD:          0
L2C WQ ACCESS:    6629930
L2C WQ TO_CACHE:    6629930
L2C WQ MERGED:          0
L2C WQ FORWARD:         50
LLC TOTAL     ACCESS:   20026863  HIT:    2008713  MISS:   18018150
LLC LOAD      ACCESS:    2651326  HIT:     452896  MISS:    2198430
LLC RFO       ACCESS:        415  HIT:         21  MISS:        394
LLC PREFETCH  ACCESS:   10783869  HIT:     119449  MISS:   10664420
LLC WRITEBACK ACCESS:    6591253  HIT:    1436347  MISS:    5154906
LLC PREFETCH  REQUESTED:          0  ISSUED:          0  USEFUL:      45630  USELESS:   10620084
LLC TOTAL MSHR MERGED:      21360
LLC LOAD MSHR MERGED:       9887
LLC RFO MSHR MERGED:          0
LLC PREFETCH MSHR MERGED:      11473
LLC WRITEBACK MSHR MERGED:          0
LLC TOTAL ACCESSES:   20048226 HITS:    2008715 MISSES:   18039511
LLC LOAD ACCESSES:    2651327 HITS:     452897 MISSES:    2198430
LLC RFO ACCESSES:        415 HITS:         21 MISSES:        394
LLC PREFETCH ACCESSES:   10805231 HITS:     119450 MISSES:   10685781
LLC WRITEBACK ACCESSES:    6591253 HITS:    1436347 MISSES:    5154906
LLC 0 RQ ACCESS:    2651742
LLC 0 RQ TO_CACHE:    2651741
LLC 0 RQ MERGED:          0
LLC 0 RQ FORWARD:          0
LLC WQ ACCESS:    6591254
LLC WQ TO_CACHE:    6591254
LLC WQ MERGED:          0
LLC WQ FORWARD:          2
Major fault: 0 Minor fault: 183991
CPU 0 L1D next line prefetcher final stats
CPU 0 L2C PC-based stride prefetcher final stats
All Misses: 20870926
All Hits: 2086983
SD Algo Stats - Switches: 0 SRR-Repls: 2246412 BRR-Repls: 0

DRAM Statistics
 CHANNEL 0
 RQ ROW_BUFFER_HIT:    7155090  ROW_BUFFER_MISS:    5708154
 DBUS_CONGESTED:   11332687
 WQ ROW_BUFFER_HIT:    1040115  ROW_BUFFER_MISS:    5543776  FULL:          0

 AVG_CONGESTED_CYCLE: 13
LOADS RETIRED: 204440772
INSTR RETIRED: 500000000
