
*** ChampSim Multicore Out-of-Order Simulator ***

Warmup Instructions: 100000000
Simulation Instructions: 500000000
Number of CPUs: 1
LLC sets: 2048
LLC ways: 16
Clean RRIP Policies: 1213030112130301 Dirty RRIP Policies: 2213130122131301 PSEL Width: 10 Track Set: 4294967295 PSEL Mask: 1 Demote Mask: 3330201033302010DS Algo: 0Window size: 0
Off-chip DRAM Size: 4096 MB Channels: 1 Width: 64-bit Data Rate: 1600 MT/s

CPU 0 runs /mnt/beegfs/iconst01/spec2017/x264.trace.gz
NOT SORTED
TRACE STRING: /mnt/beegfs/iconst01/spec2017/x264.trace.gz
SORTED
TRACE STRING: /mnt/beegfs/iconst01/spec2017/x264.trace.gz
INITIAL
TRACE STRING: /mnt/beegfs/iconst01/spec2017/x264.trace.gz

champsim_seed used: 276

CPU 0 L1D next line prefetcher
CPU 0 L2C IP-based stride prefetcher
Initialize DRRIP state
Assign rand_sets[0]: 454  LLC: 2048
rand_sets[0]: 454
Assign rand_sets[1]: 1662  LLC: 2048
rand_sets[1]: 1662
Assign rand_sets[2]: 1921  LLC: 2048
rand_sets[2]: 1921
Assign rand_sets[3]: 1131  LLC: 2048
rand_sets[3]: 1131
Assign rand_sets[4]: 331  LLC: 2048
rand_sets[4]: 331
Assign rand_sets[5]: 1531  LLC: 2048
rand_sets[5]: 1531
Assign rand_sets[6]: 482  LLC: 2048
rand_sets[6]: 482
Assign rand_sets[7]: 1275  LLC: 2048
rand_sets[7]: 1275
Assign rand_sets[8]: 1876  LLC: 2048
rand_sets[8]: 1876
Assign rand_sets[9]: 2038  LLC: 2048
rand_sets[9]: 2038
Assign rand_sets[10]: 701  LLC: 2048
rand_sets[10]: 701
Assign rand_sets[11]: 479  LLC: 2048
rand_sets[11]: 479
Assign rand_sets[12]: 892  LLC: 2048
rand_sets[12]: 892
Assign rand_sets[13]: 1820  LLC: 2048
rand_sets[13]: 1820
Assign rand_sets[14]: 1505  LLC: 2048
rand_sets[14]: 1505
Assign rand_sets[15]: 1159  LLC: 2048
rand_sets[15]: 1159
Assign rand_sets[16]: 513  LLC: 2048
rand_sets[16]: 513
Assign rand_sets[17]: 703  LLC: 2048
rand_sets[17]: 703
Assign rand_sets[18]: 561  LLC: 2048
rand_sets[18]: 561
Assign rand_sets[19]: 990  LLC: 2048
rand_sets[19]: 990
Assign rand_sets[20]: 342  LLC: 2048
rand_sets[20]: 342
Assign rand_sets[21]: 882  LLC: 2048
rand_sets[21]: 882
Assign rand_sets[22]: 15  LLC: 2048
rand_sets[22]: 15
Assign rand_sets[23]: 71  LLC: 2048
rand_sets[23]: 71
Assign rand_sets[24]: 1127  LLC: 2048
rand_sets[24]: 1127
Assign rand_sets[25]: 1382  LLC: 2048
rand_sets[25]: 1382
Assign rand_sets[26]: 647  LLC: 2048
rand_sets[26]: 647
Assign rand_sets[27]: 857  LLC: 2048
rand_sets[27]: 857
Assign rand_sets[28]: 1450  LLC: 2048
rand_sets[28]: 1450
Assign rand_sets[29]: 1160  LLC: 2048
rand_sets[29]: 1160
Assign rand_sets[30]: 1852  LLC: 2048
rand_sets[30]: 1852
Assign rand_sets[31]: 1881  LLC: 2048
rand_sets[31]: 1881
Assign rand_sets[32]: 1770  LLC: 2048
rand_sets[32]: 1770
Assign rand_sets[33]: 1622  LLC: 2048
rand_sets[33]: 1622
Assign rand_sets[34]: 275  LLC: 2048
rand_sets[34]: 275
Assign rand_sets[35]: 635  LLC: 2048
rand_sets[35]: 635
Assign rand_sets[36]: 466  LLC: 2048
rand_sets[36]: 466
Assign rand_sets[37]: 1413  LLC: 2048
rand_sets[37]: 1413
Assign rand_sets[38]: 417  LLC: 2048
rand_sets[38]: 417
Assign rand_sets[39]: 472  LLC: 2048
rand_sets[39]: 472
Assign rand_sets[40]: 1340  LLC: 2048
rand_sets[40]: 1340
Assign rand_sets[41]: 852  LLC: 2048
rand_sets[41]: 852
Assign rand_sets[42]: 1365  LLC: 2048
rand_sets[42]: 1365
Assign rand_sets[43]: 47  LLC: 2048
rand_sets[43]: 47
Assign rand_sets[44]: 823  LLC: 2048
rand_sets[44]: 823
Assign rand_sets[45]: 686  LLC: 2048
rand_sets[45]: 686
Assign rand_sets[46]: 1637  LLC: 2048
rand_sets[46]: 1637
Assign rand_sets[47]: 1115  LLC: 2048
rand_sets[47]: 1115
Assign rand_sets[48]: 986  LLC: 2048
rand_sets[48]: 986
Assign rand_sets[49]: 258  LLC: 2048
rand_sets[49]: 258
Assign rand_sets[50]: 633  LLC: 2048
rand_sets[50]: 633
Assign rand_sets[51]: 920  LLC: 2048
rand_sets[51]: 920
Assign rand_sets[52]: 204  LLC: 2048
rand_sets[52]: 204
Assign rand_sets[53]: 227  LLC: 2048
rand_sets[53]: 227
Assign rand_sets[54]: 1818  LLC: 2048
rand_sets[54]: 1818
Assign rand_sets[55]: 886  LLC: 2048
rand_sets[55]: 886
Assign rand_sets[56]: 1422  LLC: 2048
rand_sets[56]: 1422
Assign rand_sets[57]: 607  LLC: 2048
rand_sets[57]: 607
Assign rand_sets[58]: 217  LLC: 2048
rand_sets[58]: 217
Assign rand_sets[59]: 1945  LLC: 2048
rand_sets[59]: 1945
Assign rand_sets[60]: 143  LLC: 2048
rand_sets[60]: 143
Assign rand_sets[61]: 1311  LLC: 2048
rand_sets[61]: 1311
Assign rand_sets[62]: 319  LLC: 2048
rand_sets[62]: 319
Assign rand_sets[63]: 1846  LLC: 2048
rand_sets[63]: 1846
 CLEAN-RRIP-POLICY-1: 1-2-1-3-0-3-0-1- CLEAN-RRIP-POLICY-2: 1-2-1-3-0-3-0-1-
 DIRTY-RRIP-POLICY-1: 2-2-1-3-1-3-0-1- DIRTY-RRIP-POLICY-2: 2-2-1-3-1-3-0-1-
 PSEL width: 10
Heartbeat CPU 0 instructions: 10000000 cycles: 4124759 heartbeat IPC: 2.42438 cumulative IPC: 2.42438 (Simulation time: 0 hr 0 min 14 sec) 
Heartbeat CPU 0 instructions: 20000000 cycles: 8233863 heartbeat IPC: 2.43362 cumulative IPC: 2.42899 (Simulation time: 0 hr 0 min 27 sec) 
Heartbeat CPU 0 instructions: 30000003 cycles: 12464696 heartbeat IPC: 2.3636 cumulative IPC: 2.4068 (Simulation time: 0 hr 0 min 40 sec) 
Heartbeat CPU 0 instructions: 40000000 cycles: 16636669 heartbeat IPC: 2.39695 cumulative IPC: 2.40433 (Simulation time: 0 hr 0 min 53 sec) 
Heartbeat CPU 0 instructions: 50000000 cycles: 20699138 heartbeat IPC: 2.46156 cumulative IPC: 2.41556 (Simulation time: 0 hr 1 min 7 sec) 
Heartbeat CPU 0 instructions: 60000000 cycles: 25022629 heartbeat IPC: 2.31295 cumulative IPC: 2.39783 (Simulation time: 0 hr 1 min 21 sec) 
Heartbeat CPU 0 instructions: 70000000 cycles: 29371040 heartbeat IPC: 2.29969 cumulative IPC: 2.3833 (Simulation time: 0 hr 1 min 34 sec) 
Heartbeat CPU 0 instructions: 80000000 cycles: 33721209 heartbeat IPC: 2.29876 cumulative IPC: 2.37239 (Simulation time: 0 hr 1 min 47 sec) 
Heartbeat CPU 0 instructions: 90000002 cycles: 38032214 heartbeat IPC: 2.31965 cumulative IPC: 2.36642 (Simulation time: 0 hr 2 min 0 sec) 
Heartbeat CPU 0 instructions: 100000000 cycles: 42329157 heartbeat IPC: 2.32724 cumulative IPC: 2.36244 (Simulation time: 0 hr 2 min 14 sec) 

Warmup complete CPU 0 instructions: 100000001 cycles: 42329158 (Simulation time: 0 hr 2 min 14 sec) 

Heartbeat CPU 0 instructions: 110000001 cycles: 49401348 heartbeat IPC: 1.41399 cumulative IPC: 1.41399 (Simulation time: 0 hr 2 min 31 sec) 
Heartbeat CPU 0 instructions: 120000000 cycles: 58901835 heartbeat IPC: 1.05258 cumulative IPC: 1.20681 (Simulation time: 0 hr 2 min 50 sec) 
Heartbeat CPU 0 instructions: 130000000 cycles: 63730030 heartbeat IPC: 2.07117 cumulative IPC: 1.40181 (Simulation time: 0 hr 3 min 7 sec) 
Heartbeat CPU 0 instructions: 140000000 cycles: 68672132 heartbeat IPC: 2.02343 cumulative IPC: 1.51843 (Simulation time: 0 hr 3 min 24 sec) 
Heartbeat CPU 0 instructions: 150000002 cycles: 75496623 heartbeat IPC: 1.46531 cumulative IPC: 1.5075 (Simulation time: 0 hr 3 min 42 sec) 
Heartbeat CPU 0 instructions: 160000000 cycles: 83329173 heartbeat IPC: 1.27672 cumulative IPC: 1.46341 (Simulation time: 0 hr 4 min 0 sec) 
Heartbeat CPU 0 instructions: 170000000 cycles: 90736932 heartbeat IPC: 1.34994 cumulative IPC: 1.44605 (Simulation time: 0 hr 4 min 18 sec) 
Heartbeat CPU 0 instructions: 180000000 cycles: 98046272 heartbeat IPC: 1.36811 cumulative IPC: 1.43582 (Simulation time: 0 hr 4 min 35 sec) 
Heartbeat CPU 0 instructions: 190000002 cycles: 105215704 heartbeat IPC: 1.39481 cumulative IPC: 1.43115 (Simulation time: 0 hr 4 min 52 sec) 
Heartbeat CPU 0 instructions: 200000000 cycles: 112452892 heartbeat IPC: 1.38175 cumulative IPC: 1.42605 (Simulation time: 0 hr 5 min 10 sec) 
Heartbeat CPU 0 instructions: 210000000 cycles: 119323669 heartbeat IPC: 1.45544 cumulative IPC: 1.42867 (Simulation time: 0 hr 5 min 27 sec) 
Heartbeat CPU 0 instructions: 220000000 cycles: 126094187 heartbeat IPC: 1.47699 cumulative IPC: 1.43258 (Simulation time: 0 hr 5 min 43 sec) 
Heartbeat CPU 0 instructions: 230000003 cycles: 132819881 heartbeat IPC: 1.48684 cumulative IPC: 1.43661 (Simulation time: 0 hr 6 min 0 sec) 
Heartbeat CPU 0 instructions: 240000000 cycles: 139566503 heartbeat IPC: 1.48222 cumulative IPC: 1.43978 (Simulation time: 0 hr 6 min 17 sec) 
Heartbeat CPU 0 instructions: 250000001 cycles: 146294204 heartbeat IPC: 1.48639 cumulative IPC: 1.44279 (Simulation time: 0 hr 6 min 34 sec) 
Heartbeat CPU 0 instructions: 260000000 cycles: 152999157 heartbeat IPC: 1.49143 cumulative IPC: 1.44574 (Simulation time: 0 hr 6 min 50 sec) 
Heartbeat CPU 0 instructions: 270000001 cycles: 159975275 heartbeat IPC: 1.43346 cumulative IPC: 1.44501 (Simulation time: 0 hr 7 min 8 sec) 
Heartbeat CPU 0 instructions: 280000000 cycles: 167508527 heartbeat IPC: 1.32745 cumulative IPC: 1.43794 (Simulation time: 0 hr 7 min 25 sec) 
Heartbeat CPU 0 instructions: 290000000 cycles: 175426919 heartbeat IPC: 1.26288 cumulative IPC: 1.42752 (Simulation time: 0 hr 7 min 43 sec) 
Heartbeat CPU 0 instructions: 300000000 cycles: 183600973 heartbeat IPC: 1.22338 cumulative IPC: 1.41571 (Simulation time: 0 hr 8 min 1 sec) 
Heartbeat CPU 0 instructions: 310000002 cycles: 191901966 heartbeat IPC: 1.20468 cumulative IPC: 1.404 (Simulation time: 0 hr 8 min 20 sec) 
Heartbeat CPU 0 instructions: 320000000 cycles: 201890178 heartbeat IPC: 1.00118 cumulative IPC: 1.37878 (Simulation time: 0 hr 8 min 40 sec) 
Heartbeat CPU 0 instructions: 330000002 cycles: 206537413 heartbeat IPC: 2.15182 cumulative IPC: 1.40066 (Simulation time: 0 hr 8 min 57 sec) 
Heartbeat CPU 0 instructions: 340000000 cycles: 211798931 heartbeat IPC: 1.90059 cumulative IPC: 1.41618 (Simulation time: 0 hr 9 min 14 sec) 
Heartbeat CPU 0 instructions: 350000000 cycles: 219004688 heartbeat IPC: 1.38778 cumulative IPC: 1.41502 (Simulation time: 0 hr 9 min 32 sec) 
Heartbeat CPU 0 instructions: 360000000 cycles: 226658486 heartbeat IPC: 1.30654 cumulative IPC: 1.41052 (Simulation time: 0 hr 9 min 50 sec) 
Heartbeat CPU 0 instructions: 370000000 cycles: 234065539 heartbeat IPC: 1.35006 cumulative IPC: 1.40818 (Simulation time: 0 hr 10 min 7 sec) 
Heartbeat CPU 0 instructions: 380000000 cycles: 241340176 heartbeat IPC: 1.37464 cumulative IPC: 1.40696 (Simulation time: 0 hr 10 min 24 sec) 
Heartbeat CPU 0 instructions: 390000000 cycles: 249452347 heartbeat IPC: 1.23272 cumulative IPC: 1.40013 (Simulation time: 0 hr 10 min 43 sec) 
Heartbeat CPU 0 instructions: 400000000 cycles: 257657007 heartbeat IPC: 1.21882 cumulative IPC: 1.39322 (Simulation time: 0 hr 11 min 1 sec) 
Heartbeat CPU 0 instructions: 410000001 cycles: 265476306 heartbeat IPC: 1.27889 cumulative IPC: 1.38922 (Simulation time: 0 hr 11 min 19 sec) 
Heartbeat CPU 0 instructions: 420000000 cycles: 273522620 heartbeat IPC: 1.24281 cumulative IPC: 1.38412 (Simulation time: 0 hr 11 min 37 sec) 
Heartbeat CPU 0 instructions: 430000001 cycles: 281775989 heartbeat IPC: 1.21163 cumulative IPC: 1.37818 (Simulation time: 0 hr 11 min 55 sec) 
Heartbeat CPU 0 instructions: 440000000 cycles: 289813251 heartbeat IPC: 1.2442 cumulative IPC: 1.37383 (Simulation time: 0 hr 12 min 14 sec) 
Heartbeat CPU 0 instructions: 450000001 cycles: 297678344 heartbeat IPC: 1.27144 cumulative IPC: 1.37067 (Simulation time: 0 hr 12 min 31 sec) 
Heartbeat CPU 0 instructions: 460000000 cycles: 307606319 heartbeat IPC: 1.00725 cumulative IPC: 1.35707 (Simulation time: 0 hr 12 min 51 sec) 
Heartbeat CPU 0 instructions: 470000002 cycles: 312248819 heartbeat IPC: 2.15401 cumulative IPC: 1.37078 (Simulation time: 0 hr 13 min 8 sec) 
Heartbeat CPU 0 instructions: 480000000 cycles: 317532162 heartbeat IPC: 1.89274 cumulative IPC: 1.3808 (Simulation time: 0 hr 13 min 25 sec) 
Heartbeat CPU 0 instructions: 490000001 cycles: 324847350 heartbeat IPC: 1.36702 cumulative IPC: 1.38044 (Simulation time: 0 hr 13 min 43 sec) 
Heartbeat CPU 0 instructions: 500000000 cycles: 333579124 heartbeat IPC: 1.14524 cumulative IPC: 1.37339 (Simulation time: 0 hr 14 min 3 sec) 
Heartbeat CPU 0 instructions: 510000002 cycles: 342310196 heartbeat IPC: 1.14533 cumulative IPC: 1.36675 (Simulation time: 0 hr 14 min 23 sec) 
Heartbeat CPU 0 instructions: 520000000 cycles: 351037915 heartbeat IPC: 1.14577 cumulative IPC: 1.36051 (Simulation time: 0 hr 14 min 44 sec) 
Heartbeat CPU 0 instructions: 530000000 cycles: 359744537 heartbeat IPC: 1.14855 cumulative IPC: 1.35469 (Simulation time: 0 hr 15 min 4 sec) 
Heartbeat CPU 0 instructions: 540000000 cycles: 367998349 heartbeat IPC: 1.21156 cumulative IPC: 1.35106 (Simulation time: 0 hr 15 min 23 sec) 
Heartbeat CPU 0 instructions: 550000000 cycles: 375035989 heartbeat IPC: 1.42093 cumulative IPC: 1.35254 (Simulation time: 0 hr 15 min 41 sec) 
Heartbeat CPU 0 instructions: 560000000 cycles: 381647188 heartbeat IPC: 1.51258 cumulative IPC: 1.35566 (Simulation time: 0 hr 15 min 58 sec) 
Heartbeat CPU 0 instructions: 570000002 cycles: 388236397 heartbeat IPC: 1.51763 cumulative IPC: 1.35875 (Simulation time: 0 hr 16 min 15 sec) 
Heartbeat CPU 0 instructions: 580000000 cycles: 394878492 heartbeat IPC: 1.50555 cumulative IPC: 1.36151 (Simulation time: 0 hr 16 min 32 sec) 
Heartbeat CPU 0 instructions: 590000002 cycles: 401566380 heartbeat IPC: 1.49524 cumulative IPC: 1.364 (Simulation time: 0 hr 16 min 49 sec) 
Heartbeat CPU 0 instructions: 600000000 cycles: 408378162 heartbeat IPC: 1.46804 cumulative IPC: 1.36594 (Simulation time: 0 hr 17 min 6 sec) 
Finished CPU 0 instructions: 500000000 cycles: 366049012 cumulative IPC: 1.36594 (Simulation time: 0 hr 17 min 6 sec) 

CPU 0 Branch Prediction Accuracy: 93.4682% MPKI: 2.44079
Number of Branches: 18683822 Number of Mispredictions: 1220394
Number of LOAD Instructions: 142551610
Number of LOAD Instructions (ROI): 142551610
Number of STORE Instructions: 44807454
Number of STORE Instructions (ROI): 44807454
Total Destination Memory Operands: 48357071
Total Destination Memory Operands (ROI): 48357071
Total Source Memory Operands: 142551610
Total Source Memory Operands (ROI): 142551610
Number of DEPENDED LOADS: 7394984
Number of DEPENDED LOADS (ROI): 7394984
Number of SQ_ADDED: 48357051
Number of SQ_ADDED (ROI): 48357051
Number of LQ_ADDED: 157230580
Number of LQ_ADDED (ROI): 157230580
Number of Instructions read from trace: 600000256

ChampSim completed all CPUs

Region of Interest Statistics

CPU 0 cumulative IPC: 1.36594 instructions: 500000000 cycles: 366049012
ITLB TOTAL     ACCESS:   88178065  HIT:   88177996  MISS:         69
ITLB LOAD      ACCESS:   88178065  HIT:   88177996  MISS:         69
ITLB RFO       ACCESS:          0  HIT:          0  MISS:          0
ITLB PREFETCH  ACCESS:          0  HIT:          0  MISS:          0
ITLB WRITEBACK ACCESS:          0  HIT:          0  MISS:          0
ITLB PREFETCH  REQUESTED:          0  ISSUED:          0  USEFUL:          0  USELESS:          0
ITLB TOTAL MSHR MERGED:         85
ITLB LOAD MSHR MERGED:         85
ITLB RFO MSHR MERGED:          0
ITLB PREFETCH MSHR MERGED:          0
ITLB WRITEBACK MSHR MERGED:          0
ITLB TOTAL ACCESSES:   88178150 HITS:   88177996 MISSES:        154
ITLB LOAD ACCESSES:   88178150 HITS:   88177996 MISSES:        154
ITLB RFO ACCESSES:          0 HITS:          0 MISSES:          0
ITLB PREFETCH ACCESSES:          0 HITS:          0 MISSES:          0
ITLB WRITEBACK ACCESSES:          0 HITS:          0 MISSES:          0
ITLB RQ ACCESS:  500000000
ITLB RQ TO_CACHE:   88178150
ITLB RQ MERGED:  411821850
ITLB RQ FORWARD:          0
ITLB WQ ACCESS:          0
ITLB WQ TO_CACHE:          0
ITLB WQ MERGED:          0
ITLB WQ FORWARD:          0
DTLB TOTAL     ACCESS:   88203893  HIT:   88076478  MISS:     127415
DTLB LOAD      ACCESS:   59485749  HIT:   59393289  MISS:      92460
DTLB RFO       ACCESS:   28718144  HIT:   28683189  MISS:      34955
DTLB PREFETCH  ACCESS:          0  HIT:          0  MISS:          0
DTLB WRITEBACK ACCESS:          0  HIT:          0  MISS:          0
DTLB PREFETCH  REQUESTED:          0  ISSUED:          0  USEFUL:          0  USELESS:          0
DTLB TOTAL MSHR MERGED:     140920
DTLB LOAD MSHR MERGED:     107581
DTLB RFO MSHR MERGED:      33339
DTLB PREFETCH MSHR MERGED:          0
DTLB WRITEBACK MSHR MERGED:          0
DTLB TOTAL ACCESSES:   88344813 HITS:   88076478 MISSES:     268335
DTLB LOAD ACCESSES:   59593330 HITS:   59393289 MISSES:     200041
DTLB RFO ACCESSES:   28751483 HITS:   28683189 MISSES:      68294
DTLB PREFETCH ACCESSES:          0 HITS:          0 MISSES:          0
DTLB WRITEBACK ACCESSES:          0 HITS:          0 MISSES:          0
DTLB RQ ACCESS:  154558916
DTLB RQ TO_CACHE:   88344813
DTLB RQ MERGED:   66214103
DTLB RQ FORWARD:          0
DTLB WQ ACCESS:          0
DTLB WQ TO_CACHE:          0
DTLB WQ MERGED:          0
DTLB WQ FORWARD:          0
L1D TOTAL     ACCESS:  127893565  HIT:  124668123  MISS:    3225442
L1D LOAD      ACCESS:   53172655  HIT:   51977136  MISS:    1195519
L1D RFO       ACCESS:   37341563  HIT:   36727281  MISS:     614282
L1D PREFETCH  ACCESS:   37379347  HIT:   35963706  MISS:    1415641
L1D WRITEBACK ACCESS:          0  HIT:          0  MISS:          0
L1D PREFETCH  REQUESTED:   53658237  ISSUED:   52457668  USEFUL:     351992  USELESS:    1063614
L1D TOTAL MSHR MERGED:    2961287
L1D LOAD MSHR MERGED:     524493
L1D RFO MSHR MERGED:    1612620
L1D PREFETCH MSHR MERGED:     824174
L1D WRITEBACK MSHR MERGED:          0
L1D TOTAL ACCESSES:  130889493 HITS:  124702764 MISSES:    6186729
L1D LOAD ACCESSES:   53660879 HITS:   51979778 MISSES:    1681101
L1D RFO ACCESSES:   38952885 HITS:   36727281 MISSES:    2225604
L1D PREFETCH ACCESSES:   38275729 HITS:   35995705 MISSES:    2280024
L1D WRITEBACK ACCESSES:          0 HITS:          0 MISSES:          0
L1D RQ ACCESS:  113714024
L1D RQ TO_CACHE:   53658237
L1D RQ MERGED:   60053145
L1D RQ FORWARD:          0
L1D WQ ACCESS:   40844891
L1D WQ TO_CACHE:   38952885
L1D WQ MERGED:    1892006
L1D WQ FORWARD:      34641
L1I TOTAL     ACCESS:  108369153  HIT:  107810019  MISS:     559134
L1I LOAD      ACCESS:  108369153  HIT:  107810019  MISS:     559134
L1I RFO       ACCESS:          0  HIT:          0  MISS:          0
L1I PREFETCH  ACCESS:          0  HIT:          0  MISS:          0
L1I WRITEBACK ACCESS:          0  HIT:          0  MISS:          0
L1I PREFETCH  REQUESTED:          0  ISSUED:          0  USEFUL:          0  USELESS:          0
L1I TOTAL MSHR MERGED:     526082
L1I LOAD MSHR MERGED:     526082
L1I RFO MSHR MERGED:          0
L1I PREFETCH MSHR MERGED:          0
L1I WRITEBACK MSHR MERGED:          0
L1I TOTAL ACCESSES:  108895235 HITS:  107810019 MISSES:    1085216
L1I LOAD ACCESSES:  108895235 HITS:  107810019 MISSES:    1085216
L1I RFO ACCESSES:          0 HITS:          0 MISSES:          0
L1I PREFETCH ACCESSES:          0 HITS:          0 MISSES:          0
L1I WRITEBACK ACCESSES:          0 HITS:          0 MISSES:          0
L1I RQ ACCESS:  500000002
L1I RQ TO_CACHE:  108895235
L1I RQ MERGED:  391104767
L1I RQ FORWARD:          0
L1I WQ ACCESS:          0
L1I WQ TO_CACHE:          0
L1I WQ MERGED:          0
L1I WQ FORWARD:          0
L2C TOTAL     ACCESS:    4691373  HIT:    3865546  MISS:     825827
L2C LOAD      ACCESS:    1715630  HIT:    1562350  MISS:     153280
L2C RFO       ACCESS:     611566  HIT:     421172  MISS:     190394
L2C PREFETCH  ACCESS:    1661226  HIT:    1181261  MISS:     479965
L2C WRITEBACK ACCESS:     702951  HIT:     700763  MISS:       2188
L2C PREFETCH  REQUESTED:     256428  ISSUED:     256428  USEFUL:     172674  USELESS:     307957
L2C TOTAL MSHR MERGED:      13259
L2C LOAD MSHR MERGED:       4097
L2C RFO MSHR MERGED:          0
L2C PREFETCH MSHR MERGED:       9162
L2C WRITEBACK MSHR MERGED:          0
L2C TOTAL ACCESSES:    4712324 HITS:    3867141 MISSES:     845183
L2C LOAD ACCESSES:    1715742 HITS:    1562462 MISSES:     153280
L2C RFO ACCESSES:     612984 HITS:     422590 MISSES:     190394
L2C PREFETCH ACCESSES:    1680647 HITS:    1181326 MISSES:     499321
L2C WRITEBACK ACCESSES:     702951 HITS:     700763 MISSES:       2188
L2C RQ ACCESS:    2328726
L2C RQ TO_CACHE:    2327196
L2C RQ MERGED:          0
L2C RQ FORWARD:          0
L2C WQ ACCESS:     702951
L2C WQ TO_CACHE:     702951
L2C WQ MERGED:          0
L2C WQ FORWARD:       1595
LLC TOTAL     ACCESS:    1047629  HIT:     234652  MISS:     812977
LLC LOAD      ACCESS:     149179  HIT:      86149  MISS:      63030
LLC RFO       ACCESS:     190385  HIT:       7024  MISS:     183361
LLC PREFETCH  ACCESS:     487183  HIT:     104869  MISS:     382314
LLC WRITEBACK ACCESS:     220882  HIT:      36610  MISS:     184272
LLC PREFETCH  REQUESTED:          0  ISSUED:          0  USEFUL:       2019  USELESS:     380693
LLC TOTAL MSHR MERGED:       2179
LLC LOAD MSHR MERGED:        818
LLC RFO MSHR MERGED:          0
LLC PREFETCH MSHR MERGED:       1361
LLC WRITEBACK MSHR MERGED:          0
LLC TOTAL ACCESSES:    1049821 HITS:     234665 MISSES:     815156
LLC LOAD ACCESSES:     149183 HITS:      86153 MISSES:      63030
LLC RFO ACCESSES:     190394 HITS:       7033 MISSES:     183361
LLC PREFETCH ACCESSES:     489362 HITS:     104869 MISSES:     384493
LLC WRITEBACK ACCESSES:     220882 HITS:      36610 MISSES:     184272
LLC 0 RQ ACCESS:     339577
LLC 0 RQ TO_CACHE:     339564
LLC 0 RQ MERGED:          0
LLC 0 RQ FORWARD:          0
LLC WQ ACCESS:     220882
LLC WQ TO_CACHE:     220882
LLC WQ MERGED:          0
LLC WQ FORWARD:         13
Major fault: 0 Minor fault: 6811
CPU 0 L1D next line prefetcher final stats
CPU 0 L2C PC-based stride prefetcher final stats
All Misses: 953722
All Hits: 300890
SD Algo Stats - Switches: 0 SRR-Repls: 70655 BRR-Repls: 0

DRAM Statistics
 CHANNEL 0
 RQ ROW_BUFFER_HIT:     329820  ROW_BUFFER_MISS:     298775
 DBUS_CONGESTED:     436958
 WQ ROW_BUFFER_HIT:      30823  ROW_BUFFER_MISS:     185800  FULL:          0

 AVG_CONGESTED_CYCLE: 13
LOADS RETIRED: 119922929
INSTR RETIRED: 500000000
