
*** ChampSim Multicore Out-of-Order Simulator ***

Warmup Instructions: 100000000
Simulation Instructions: 500000000
Number of CPUs: 1
LLC sets: 2048
LLC ways: 16
Clean RRIP Policies: 1213030112130301 Dirty RRIP Policies: 2213130122131301 PSEL Width: 10 Track Set: 4294967295 PSEL Mask: 1 Demote Mask: 3330201033302010DS Algo: 0Window size: 0
Off-chip DRAM Size: 4096 MB Channels: 1 Width: 64-bit Data Rate: 1600 MT/s

CPU 0 runs /mnt/beegfs/iconst01/spec2017/Xalancbmk.trace.gz
NOT SORTED
TRACE STRING: /mnt/beegfs/iconst01/spec2017/Xalancbmk.trace.gz
SORTED
TRACE STRING: /mnt/beegfs/iconst01/spec2017/Xalancbmk.trace.gz
INITIAL
TRACE STRING: /mnt/beegfs/iconst01/spec2017/Xalancbmk.trace.gz

champsim_seed used: 913

CPU 0 L1D next line prefetcher
CPU 0 L2C IP-based stride prefetcher
Initialize DRRIP state
Assign rand_sets[0]: 454  LLC: 2048
rand_sets[0]: 454
Assign rand_sets[1]: 1662  LLC: 2048
rand_sets[1]: 1662
Assign rand_sets[2]: 1921  LLC: 2048
rand_sets[2]: 1921
Assign rand_sets[3]: 1131  LLC: 2048
rand_sets[3]: 1131
Assign rand_sets[4]: 331  LLC: 2048
rand_sets[4]: 331
Assign rand_sets[5]: 1531  LLC: 2048
rand_sets[5]: 1531
Assign rand_sets[6]: 482  LLC: 2048
rand_sets[6]: 482
Assign rand_sets[7]: 1275  LLC: 2048
rand_sets[7]: 1275
Assign rand_sets[8]: 1876  LLC: 2048
rand_sets[8]: 1876
Assign rand_sets[9]: 2038  LLC: 2048
rand_sets[9]: 2038
Assign rand_sets[10]: 701  LLC: 2048
rand_sets[10]: 701
Assign rand_sets[11]: 479  LLC: 2048
rand_sets[11]: 479
Assign rand_sets[12]: 892  LLC: 2048
rand_sets[12]: 892
Assign rand_sets[13]: 1820  LLC: 2048
rand_sets[13]: 1820
Assign rand_sets[14]: 1505  LLC: 2048
rand_sets[14]: 1505
Assign rand_sets[15]: 1159  LLC: 2048
rand_sets[15]: 1159
Assign rand_sets[16]: 513  LLC: 2048
rand_sets[16]: 513
Assign rand_sets[17]: 703  LLC: 2048
rand_sets[17]: 703
Assign rand_sets[18]: 561  LLC: 2048
rand_sets[18]: 561
Assign rand_sets[19]: 990  LLC: 2048
rand_sets[19]: 990
Assign rand_sets[20]: 342  LLC: 2048
rand_sets[20]: 342
Assign rand_sets[21]: 882  LLC: 2048
rand_sets[21]: 882
Assign rand_sets[22]: 15  LLC: 2048
rand_sets[22]: 15
Assign rand_sets[23]: 71  LLC: 2048
rand_sets[23]: 71
Assign rand_sets[24]: 1127  LLC: 2048
rand_sets[24]: 1127
Assign rand_sets[25]: 1382  LLC: 2048
rand_sets[25]: 1382
Assign rand_sets[26]: 647  LLC: 2048
rand_sets[26]: 647
Assign rand_sets[27]: 857  LLC: 2048
rand_sets[27]: 857
Assign rand_sets[28]: 1450  LLC: 2048
rand_sets[28]: 1450
Assign rand_sets[29]: 1160  LLC: 2048
rand_sets[29]: 1160
Assign rand_sets[30]: 1852  LLC: 2048
rand_sets[30]: 1852
Assign rand_sets[31]: 1881  LLC: 2048
rand_sets[31]: 1881
Assign rand_sets[32]: 1770  LLC: 2048
rand_sets[32]: 1770
Assign rand_sets[33]: 1622  LLC: 2048
rand_sets[33]: 1622
Assign rand_sets[34]: 275  LLC: 2048
rand_sets[34]: 275
Assign rand_sets[35]: 635  LLC: 2048
rand_sets[35]: 635
Assign rand_sets[36]: 466  LLC: 2048
rand_sets[36]: 466
Assign rand_sets[37]: 1413  LLC: 2048
rand_sets[37]: 1413
Assign rand_sets[38]: 417  LLC: 2048
rand_sets[38]: 417
Assign rand_sets[39]: 472  LLC: 2048
rand_sets[39]: 472
Assign rand_sets[40]: 1340  LLC: 2048
rand_sets[40]: 1340
Assign rand_sets[41]: 852  LLC: 2048
rand_sets[41]: 852
Assign rand_sets[42]: 1365  LLC: 2048
rand_sets[42]: 1365
Assign rand_sets[43]: 47  LLC: 2048
rand_sets[43]: 47
Assign rand_sets[44]: 823  LLC: 2048
rand_sets[44]: 823
Assign rand_sets[45]: 686  LLC: 2048
rand_sets[45]: 686
Assign rand_sets[46]: 1637  LLC: 2048
rand_sets[46]: 1637
Assign rand_sets[47]: 1115  LLC: 2048
rand_sets[47]: 1115
Assign rand_sets[48]: 986  LLC: 2048
rand_sets[48]: 986
Assign rand_sets[49]: 258  LLC: 2048
rand_sets[49]: 258
Assign rand_sets[50]: 633  LLC: 2048
rand_sets[50]: 633
Assign rand_sets[51]: 920  LLC: 2048
rand_sets[51]: 920
Assign rand_sets[52]: 204  LLC: 2048
rand_sets[52]: 204
Assign rand_sets[53]: 227  LLC: 2048
rand_sets[53]: 227
Assign rand_sets[54]: 1818  LLC: 2048
rand_sets[54]: 1818
Assign rand_sets[55]: 886  LLC: 2048
rand_sets[55]: 886
Assign rand_sets[56]: 1422  LLC: 2048
rand_sets[56]: 1422
Assign rand_sets[57]: 607  LLC: 2048
rand_sets[57]: 607
Assign rand_sets[58]: 217  LLC: 2048
rand_sets[58]: 217
Assign rand_sets[59]: 1945  LLC: 2048
rand_sets[59]: 1945
Assign rand_sets[60]: 143  LLC: 2048
rand_sets[60]: 143
Assign rand_sets[61]: 1311  LLC: 2048
rand_sets[61]: 1311
Assign rand_sets[62]: 319  LLC: 2048
rand_sets[62]: 319
Assign rand_sets[63]: 1846  LLC: 2048
rand_sets[63]: 1846
 CLEAN-RRIP-POLICY-1: 1-2-1-3-0-3-0-1- CLEAN-RRIP-POLICY-2: 1-2-1-3-0-3-0-1-
 DIRTY-RRIP-POLICY-1: 2-2-1-3-1-3-0-1- DIRTY-RRIP-POLICY-2: 2-2-1-3-1-3-0-1-
 PSEL width: 10
Heartbeat CPU 0 instructions: 10000003 cycles: 4586431 heartbeat IPC: 2.18035 cumulative IPC: 2.18035 (Simulation time: 0 hr 0 min 15 sec) 
Heartbeat CPU 0 instructions: 20000000 cycles: 8977330 heartbeat IPC: 2.27744 cumulative IPC: 2.22783 (Simulation time: 0 hr 0 min 29 sec) 
Heartbeat CPU 0 instructions: 30000000 cycles: 13386617 heartbeat IPC: 2.26794 cumulative IPC: 2.24104 (Simulation time: 0 hr 0 min 43 sec) 
Heartbeat CPU 0 instructions: 40000000 cycles: 18011886 heartbeat IPC: 2.16204 cumulative IPC: 2.22076 (Simulation time: 0 hr 0 min 59 sec) 
Heartbeat CPU 0 instructions: 50000002 cycles: 22423710 heartbeat IPC: 2.26664 cumulative IPC: 2.22978 (Simulation time: 0 hr 1 min 13 sec) 
Heartbeat CPU 0 instructions: 60000000 cycles: 27075478 heartbeat IPC: 2.14972 cumulative IPC: 2.21603 (Simulation time: 0 hr 1 min 29 sec) 
Heartbeat CPU 0 instructions: 70000003 cycles: 31478349 heartbeat IPC: 2.27125 cumulative IPC: 2.22375 (Simulation time: 0 hr 1 min 43 sec) 
Heartbeat CPU 0 instructions: 80000000 cycles: 35902610 heartbeat IPC: 2.26026 cumulative IPC: 2.22825 (Simulation time: 0 hr 1 min 58 sec) 
Heartbeat CPU 0 instructions: 90000002 cycles: 40359540 heartbeat IPC: 2.2437 cumulative IPC: 2.22996 (Simulation time: 0 hr 2 min 12 sec) 
Heartbeat CPU 0 instructions: 100000000 cycles: 44833773 heartbeat IPC: 2.23502 cumulative IPC: 2.23046 (Simulation time: 0 hr 2 min 27 sec) 

Warmup complete CPU 0 instructions: 100000003 cycles: 44833774 (Simulation time: 0 hr 2 min 27 sec) 

Heartbeat CPU 0 instructions: 110000000 cycles: 71358535 heartbeat IPC: 0.377006 cumulative IPC: 0.377006 (Simulation time: 0 hr 2 min 59 sec) 
Heartbeat CPU 0 instructions: 120000000 cycles: 99580001 heartbeat IPC: 0.35434 cumulative IPC: 0.365322 (Simulation time: 0 hr 3 min 32 sec) 
Heartbeat CPU 0 instructions: 130000000 cycles: 123130749 heartbeat IPC: 0.424615 cumulative IPC: 0.383157 (Simulation time: 0 hr 4 min 1 sec) 
Heartbeat CPU 0 instructions: 140000000 cycles: 145671670 heartbeat IPC: 0.443638 cumulative IPC: 0.396676 (Simulation time: 0 hr 4 min 30 sec) 
Heartbeat CPU 0 instructions: 150000000 cycles: 170074423 heartbeat IPC: 0.40979 cumulative IPC: 0.399231 (Simulation time: 0 hr 5 min 0 sec) 
Heartbeat CPU 0 instructions: 160000000 cycles: 194857043 heartbeat IPC: 0.403509 cumulative IPC: 0.399938 (Simulation time: 0 hr 5 min 31 sec) 
Heartbeat CPU 0 instructions: 170000002 cycles: 216116229 heartbeat IPC: 0.470385 cumulative IPC: 0.408682 (Simulation time: 0 hr 5 min 59 sec) 
Heartbeat CPU 0 instructions: 180000000 cycles: 239077125 heartbeat IPC: 0.435523 cumulative IPC: 0.411855 (Simulation time: 0 hr 6 min 28 sec) 
Heartbeat CPU 0 instructions: 190000000 cycles: 258143359 heartbeat IPC: 0.524487 cumulative IPC: 0.421922 (Simulation time: 0 hr 6 min 54 sec) 
Heartbeat CPU 0 instructions: 200000000 cycles: 279409146 heartbeat IPC: 0.470239 cumulative IPC: 0.426302 (Simulation time: 0 hr 7 min 22 sec) 
Heartbeat CPU 0 instructions: 210000001 cycles: 305714123 heartbeat IPC: 0.380156 cumulative IPC: 0.421649 (Simulation time: 0 hr 7 min 53 sec) 
Heartbeat CPU 0 instructions: 220000000 cycles: 331518182 heartbeat IPC: 0.387536 cumulative IPC: 0.418579 (Simulation time: 0 hr 8 min 25 sec) 
Heartbeat CPU 0 instructions: 230000000 cycles: 353744750 heartbeat IPC: 0.449912 cumulative IPC: 0.420833 (Simulation time: 0 hr 8 min 53 sec) 
Heartbeat CPU 0 instructions: 240000000 cycles: 379334695 heartbeat IPC: 0.390778 cumulative IPC: 0.418534 (Simulation time: 0 hr 9 min 24 sec) 
Heartbeat CPU 0 instructions: 250000001 cycles: 404183929 heartbeat IPC: 0.402427 cumulative IPC: 0.41742 (Simulation time: 0 hr 9 min 55 sec) 
Heartbeat CPU 0 instructions: 260000000 cycles: 425208435 heartbeat IPC: 0.475635 cumulative IPC: 0.420638 (Simulation time: 0 hr 10 min 23 sec) 
Heartbeat CPU 0 instructions: 270000000 cycles: 447186564 heartbeat IPC: 0.454998 cumulative IPC: 0.422515 (Simulation time: 0 hr 10 min 51 sec) 
Heartbeat CPU 0 instructions: 280000000 cycles: 474673100 heartbeat IPC: 0.363814 cumulative IPC: 0.418761 (Simulation time: 0 hr 11 min 23 sec) 
Heartbeat CPU 0 instructions: 290000000 cycles: 495902246 heartbeat IPC: 0.471051 cumulative IPC: 0.421222 (Simulation time: 0 hr 11 min 51 sec) 
Heartbeat CPU 0 instructions: 300000000 cycles: 516551956 heartbeat IPC: 0.484268 cumulative IPC: 0.423982 (Simulation time: 0 hr 12 min 19 sec) 
Heartbeat CPU 0 instructions: 310000000 cycles: 535846449 heartbeat IPC: 0.518283 cumulative IPC: 0.427688 (Simulation time: 0 hr 12 min 45 sec) 
Heartbeat CPU 0 instructions: 320000000 cycles: 565051014 heartbeat IPC: 0.342412 cumulative IPC: 0.4229 (Simulation time: 0 hr 13 min 18 sec) 
Heartbeat CPU 0 instructions: 330000001 cycles: 584414685 heartbeat IPC: 0.516431 cumulative IPC: 0.426257 (Simulation time: 0 hr 13 min 44 sec) 
Heartbeat CPU 0 instructions: 340000000 cycles: 603791387 heartbeat IPC: 0.516084 cumulative IPC: 0.429371 (Simulation time: 0 hr 14 min 10 sec) 
Heartbeat CPU 0 instructions: 350000001 cycles: 628617553 heartbeat IPC: 0.402801 cumulative IPC: 0.428241 (Simulation time: 0 hr 14 min 40 sec) 
Heartbeat CPU 0 instructions: 360000000 cycles: 650900515 heartbeat IPC: 0.448773 cumulative IPC: 0.428996 (Simulation time: 0 hr 15 min 8 sec) 
Heartbeat CPU 0 instructions: 370000001 cycles: 676003792 heartbeat IPC: 0.398354 cumulative IPC: 0.427777 (Simulation time: 0 hr 15 min 38 sec) 
Heartbeat CPU 0 instructions: 380000000 cycles: 698974734 heartbeat IPC: 0.435333 cumulative IPC: 0.428042 (Simulation time: 0 hr 16 min 6 sec) 
Heartbeat CPU 0 instructions: 390000000 cycles: 717733267 heartbeat IPC: 0.533091 cumulative IPC: 0.430971 (Simulation time: 0 hr 16 min 32 sec) 
Heartbeat CPU 0 instructions: 400000000 cycles: 737606603 heartbeat IPC: 0.503187 cumulative IPC: 0.433042 (Simulation time: 0 hr 16 min 58 sec) 
Heartbeat CPU 0 instructions: 410000001 cycles: 763494861 heartbeat IPC: 0.386276 cumulative IPC: 0.431358 (Simulation time: 0 hr 17 min 28 sec) 
Heartbeat CPU 0 instructions: 420000000 cycles: 788076141 heartbeat IPC: 0.406814 cumulative IPC: 0.430546 (Simulation time: 0 hr 17 min 57 sec) 
Heartbeat CPU 0 instructions: 430000002 cycles: 809437225 heartbeat IPC: 0.468141 cumulative IPC: 0.431596 (Simulation time: 0 hr 18 min 24 sec) 
Heartbeat CPU 0 instructions: 440000000 cycles: 829852419 heartbeat IPC: 0.489831 cumulative IPC: 0.433111 (Simulation time: 0 hr 18 min 50 sec) 
Heartbeat CPU 0 instructions: 450000002 cycles: 856345333 heartbeat IPC: 0.377459 cumulative IPC: 0.431294 (Simulation time: 0 hr 19 min 21 sec) 
Heartbeat CPU 0 instructions: 460000000 cycles: 882226997 heartbeat IPC: 0.386374 cumulative IPC: 0.429906 (Simulation time: 0 hr 19 min 51 sec) 
Heartbeat CPU 0 instructions: 470000002 cycles: 908096898 heartbeat IPC: 0.38655 cumulative IPC: 0.428606 (Simulation time: 0 hr 20 min 21 sec) 
Heartbeat CPU 0 instructions: 480000000 cycles: 932765413 heartbeat IPC: 0.405375 cumulative IPC: 0.427961 (Simulation time: 0 hr 20 min 50 sec) 
Heartbeat CPU 0 instructions: 490000000 cycles: 953629161 heartbeat IPC: 0.4793 cumulative IPC: 0.429139 (Simulation time: 0 hr 21 min 16 sec) 
Heartbeat CPU 0 instructions: 500000000 cycles: 978366368 heartbeat IPC: 0.404249 cumulative IPC: 0.42848 (Simulation time: 0 hr 21 min 46 sec) 
Heartbeat CPU 0 instructions: 510000000 cycles: 1003405376 heartbeat IPC: 0.399377 cumulative IPC: 0.42772 (Simulation time: 0 hr 22 min 15 sec) 
Heartbeat CPU 0 instructions: 520000000 cycles: 1024550070 heartbeat IPC: 0.472932 cumulative IPC: 0.428696 (Simulation time: 0 hr 22 min 42 sec) 
Heartbeat CPU 0 instructions: 530000003 cycles: 1050084656 heartbeat IPC: 0.391626 cumulative IPC: 0.427754 (Simulation time: 0 hr 23 min 11 sec) 
Heartbeat CPU 0 instructions: 540000000 cycles: 1072941977 heartbeat IPC: 0.437496 cumulative IPC: 0.427971 (Simulation time: 0 hr 23 min 40 sec) 
Heartbeat CPU 0 instructions: 550000000 cycles: 1098203486 heartbeat IPC: 0.395859 cumulative IPC: 0.4272 (Simulation time: 0 hr 24 min 9 sec) 
Heartbeat CPU 0 instructions: 560000000 cycles: 1121856572 heartbeat IPC: 0.422778 cumulative IPC: 0.427103 (Simulation time: 0 hr 24 min 37 sec) 
Heartbeat CPU 0 instructions: 570000002 cycles: 1145276471 heartbeat IPC: 0.426987 cumulative IPC: 0.427101 (Simulation time: 0 hr 25 min 6 sec) 
Heartbeat CPU 0 instructions: 580000000 cycles: 1166435396 heartbeat IPC: 0.472614 cumulative IPC: 0.427959 (Simulation time: 0 hr 25 min 33 sec) 
Heartbeat CPU 0 instructions: 590000001 cycles: 1190307266 heartbeat IPC: 0.418903 cumulative IPC: 0.427771 (Simulation time: 0 hr 26 min 1 sec) 
Heartbeat CPU 0 instructions: 600000000 cycles: 1209516360 heartbeat IPC: 0.520587 cumulative IPC: 0.429302 (Simulation time: 0 hr 26 min 26 sec) 
Finished CPU 0 instructions: 500000000 cycles: 1164682607 cumulative IPC: 0.429302 (Simulation time: 0 hr 26 min 26 sec) 

CPU 0 Branch Prediction Accuracy: 99.5434% MPKI: 1.33026
Number of Branches: 145676990 Number of Mispredictions: 665128
Number of LOAD Instructions: 188863207
Number of LOAD Instructions (ROI): 188863207
Number of STORE Instructions: 7332002
Number of STORE Instructions (ROI): 7332002
Total Destination Memory Operands: 10029285
Total Destination Memory Operands (ROI): 10029285
Total Source Memory Operands: 188863207
Total Source Memory Operands (ROI): 188863207
Number of DEPENDED LOADS: 291285
Number of DEPENDED LOADS (ROI): 291285
Number of SQ_ADDED: 10029285
Number of SQ_ADDED (ROI): 10029285
Number of LQ_ADDED: 200620599
Number of LQ_ADDED (ROI): 200620599
Number of Instructions read from trace: 600000010

ChampSim completed all CPUs

Region of Interest Statistics

CPU 0 cumulative IPC: 0.429302 instructions: 500000000 cycles: 1164682607
ITLB TOTAL     ACCESS:  145807395  HIT:  145767868  MISS:      39527
ITLB LOAD      ACCESS:  145807395  HIT:  145767868  MISS:      39527
ITLB RFO       ACCESS:          0  HIT:          0  MISS:          0
ITLB PREFETCH  ACCESS:          0  HIT:          0  MISS:          0
ITLB WRITEBACK ACCESS:          0  HIT:          0  MISS:          0
ITLB PREFETCH  REQUESTED:          0  ISSUED:          0  USEFUL:          0  USELESS:          0
ITLB TOTAL MSHR MERGED:      57378
ITLB LOAD MSHR MERGED:      57378
ITLB RFO MSHR MERGED:          0
ITLB PREFETCH MSHR MERGED:          0
ITLB WRITEBACK MSHR MERGED:          0
ITLB TOTAL ACCESSES:  145864773 HITS:  145767868 MISSES:      96905
ITLB LOAD ACCESSES:  145864773 HITS:  145767868 MISSES:      96905
ITLB RFO ACCESSES:          0 HITS:          0 MISSES:          0
ITLB PREFETCH ACCESSES:          0 HITS:          0 MISSES:          0
ITLB WRITEBACK ACCESSES:          0 HITS:          0 MISSES:          0
ITLB RQ ACCESS:  499999754
ITLB RQ TO_CACHE:  145864773
ITLB RQ MERGED:  354134981
ITLB RQ FORWARD:          0
ITLB WQ ACCESS:          0
ITLB WQ TO_CACHE:          0
ITLB WQ MERGED:          0
ITLB WQ FORWARD:          0
DTLB TOTAL     ACCESS:  135190208  HIT:  134021847  MISS:    1168361
DTLB LOAD      ACCESS:  127149246  HIT:  125989990  MISS:    1159256
DTLB RFO       ACCESS:    8040962  HIT:    8031857  MISS:       9105
DTLB PREFETCH  ACCESS:          0  HIT:          0  MISS:          0
DTLB WRITEBACK ACCESS:          0  HIT:          0  MISS:          0
DTLB PREFETCH  REQUESTED:          0  ISSUED:          0  USEFUL:          0  USELESS:          0
DTLB TOTAL MSHR MERGED:     581457
DTLB LOAD MSHR MERGED:     577079
DTLB RFO MSHR MERGED:       4378
DTLB PREFETCH MSHR MERGED:          0
DTLB WRITEBACK MSHR MERGED:          0
DTLB TOTAL ACCESSES:  135771665 HITS:  134021847 MISSES:    1749818
DTLB LOAD ACCESSES:  127726325 HITS:  125989990 MISSES:    1736335
DTLB RFO ACCESSES:    8045340 HITS:    8031857 MISSES:      13483
DTLB PREFETCH ACCESSES:          0 HITS:          0 MISSES:          0
DTLB WRITEBACK ACCESSES:          0 HITS:          0 MISSES:          0
DTLB RQ ACCESS:  165763052
DTLB RQ TO_CACHE:  135771665
DTLB RQ MERGED:   29991387
DTLB RQ FORWARD:          0
DTLB WQ ACCESS:          0
DTLB WQ TO_CACHE:          0
DTLB WQ MERGED:          0
DTLB WQ FORWARD:          0
L1D TOTAL     ACCESS:  156956164  HIT:  139640464  MISS:   17315700
L1D LOAD      ACCESS:   89977818  HIT:   78834351  MISS:   11143467
L1D RFO       ACCESS:    8499613  HIT:    8412469  MISS:      87144
L1D PREFETCH  ACCESS:   58478733  HIT:   52393644  MISS:    6085089
L1D WRITEBACK ACCESS:          0  HIT:          0  MISS:          0
L1D PREFETCH  REQUESTED:   93719104  ISSUED:   92851590  USEFUL:    2003663  USELESS:    4081500
L1D TOTAL MSHR MERGED:   15104814
L1D LOAD MSHR MERGED:    7140889
L1D RFO MSHR MERGED:     124926
L1D PREFETCH MSHR MERGED:    7838999
L1D WRITEBACK MSHR MERGED:          0
L1D TOTAL ACCESSES:  172061136 HITS:  139640621 MISSES:   32420515
L1D LOAD ACCESSES:   93719108 HITS:   78834355 MISSES:   14884753
L1D RFO ACCESSES:    8622706 HITS:    8412469 MISSES:     210237
L1D PREFETCH ACCESSES:   69719322 HITS:   52393797 MISSES:   17325525
L1D WRITEBACK ACCESSES:          0 HITS:          0 MISSES:          0
L1D RQ ACCESS:  157123846
L1D RQ TO_CACHE:   93719104
L1D RQ MERGED:   63404738
L1D RQ FORWARD:          0
L1D WQ ACCESS:    8639208
L1D WQ TO_CACHE:    8622706
L1D WQ MERGED:      16502
L1D WQ FORWARD:        157
L1I TOTAL     ACCESS:  178796060  HIT:  178132396  MISS:     663664
L1I LOAD      ACCESS:  178796060  HIT:  178132396  MISS:     663664
L1I RFO       ACCESS:          0  HIT:          0  MISS:          0
L1I PREFETCH  ACCESS:          0  HIT:          0  MISS:          0
L1I WRITEBACK ACCESS:          0  HIT:          0  MISS:          0
L1I PREFETCH  REQUESTED:          0  ISSUED:          0  USEFUL:          0  USELESS:          0
L1I TOTAL MSHR MERGED:     597358
L1I LOAD MSHR MERGED:     597358
L1I RFO MSHR MERGED:          0
L1I PREFETCH MSHR MERGED:          0
L1I WRITEBACK MSHR MERGED:          0
L1I TOTAL ACCESSES:  179393418 HITS:  178132396 MISSES:    1261022
L1I LOAD ACCESSES:  179393418 HITS:  178132396 MISSES:    1261022
L1I RFO ACCESSES:          0 HITS:          0 MISSES:          0
L1I PREFETCH ACCESSES:          0 HITS:          0 MISSES:          0
L1I WRITEBACK ACCESSES:          0 HITS:          0 MISSES:          0
L1I RQ ACCESS:  499999757
L1I RQ TO_CACHE:  179393418
L1I RQ MERGED:  320606339
L1I RQ FORWARD:          0
L1I WQ ACCESS:          0
L1I WQ TO_CACHE:          0
L1I WQ MERGED:          0
L1I WQ FORWARD:          0
L2C TOTAL     ACCESS:   19276732  HIT:    2057313  MISS:   17219419
L2C LOAD      ACCESS:    8407426  HIT:     951145  MISS:    7456281
L2C RFO       ACCESS:      85288  HIT:      53726  MISS:      31562
L2C PREFETCH  ACCESS:   10499009  HIT:     770243  MISS:    9728766
L2C WRITEBACK ACCESS:     285009  HIT:     282199  MISS:       2810
L2C PREFETCH  REQUESTED:    1016866  ISSUED:    1016866  USEFUL:     274777  USELESS:    9453085
L2C TOTAL MSHR MERGED:       1055
L2C LOAD MSHR MERGED:        220
L2C RFO MSHR MERGED:          1
L2C PREFETCH MSHR MERGED:        834
L2C WRITEBACK MSHR MERGED:          0
L2C TOTAL ACCESSES:   19279979 HITS:    2057504 MISSES:   17222475
L2C LOAD ACCESSES:    8407528 HITS:     951247 MISSES:    7456281
L2C RFO ACCESSES:      85311 HITS:      53749 MISSES:      31562
L2C PREFETCH ACCESSES:   10502131 HITS:     770309 MISSES:    9731822
L2C WRITEBACK ACCESSES:     285009 HITS:     282199 MISSES:       2810
L2C RQ ACCESS:    8492839
L2C RQ TO_CACHE:    8492714
L2C RQ MERGED:          0
L2C RQ FORWARD:          0
L2C WQ ACCESS:     285009
L2C WQ TO_CACHE:     285009
L2C WQ MERGED:          0
L2C WQ FORWARD:        191
LLC TOTAL     ACCESS:   17324666  HIT:    4861154  MISS:   12463512
LLC LOAD      ACCESS:    7456061  HIT:    3992319  MISS:    3463742
LLC RFO       ACCESS:      31561  HIT:      16674  MISS:      14887
LLC PREFETCH  ACCESS:    9730985  HIT:     768675  MISS:    8962310
LLC WRITEBACK ACCESS:     106059  HIT:      83486  MISS:      22573
LLC PREFETCH  REQUESTED:          0  ISSUED:          0  USEFUL:       2144  USELESS:    8959443
LLC TOTAL MSHR MERGED:          2
LLC LOAD MSHR MERGED:          0
LLC RFO MSHR MERGED:          0
LLC PREFETCH MSHR MERGED:          2
LLC WRITEBACK MSHR MERGED:          0
LLC TOTAL ACCESSES:   17324669 HITS:    4861154 MISSES:   12463515
LLC LOAD ACCESSES:    7456061 HITS:    3992319 MISSES:    3463742
LLC RFO ACCESSES:      31561 HITS:      16674 MISSES:      14887
LLC PREFETCH ACCESSES:    9730988 HITS:     768675 MISSES:    8962313
LLC WRITEBACK ACCESSES:     106059 HITS:      83486 MISSES:      22573
LLC 0 RQ ACCESS:    7487622
LLC 0 RQ TO_CACHE:    7487622
LLC 0 RQ MERGED:          0
LLC 0 RQ FORWARD:          0
LLC WQ ACCESS:     106059
LLC WQ TO_CACHE:     106059
LLC WQ MERGED:          0
LLC WQ FORWARD:          0
Major fault: 0 Minor fault: 6432
CPU 0 L1D next line prefetcher final stats
CPU 0 L2C PC-based stride prefetcher final stats
All Misses: 14696571
All Hits: 5847758
SD Algo Stats - Switches: 0 SRR-Repls: 3691741 BRR-Repls: 0

DRAM Statistics
 CHANNEL 0
 RQ ROW_BUFFER_HIT:    9403003  ROW_BUFFER_MISS:    3032439
 DBUS_CONGESTED:    5792995
 WQ ROW_BUFFER_HIT:       1406  ROW_BUFFER_MISS:      41479  FULL:          0

 AVG_CONGESTED_CYCLE: 12
LOADS RETIRED: 157382665
INSTR RETIRED: 500000000
