
*** ChampSim Multicore Out-of-Order Simulator ***

Warmup Instructions: 100000000
Simulation Instructions: 500000000
Number of CPUs: 1
LLC sets: 2048
LLC ways: 16
Clean RRIP Policies: 1213230112132301 Dirty RRIP Policies: 1213130112131301 PSEL Width: 10 Track Set: 4294967295 PSEL Mask: 1 Demote Mask: 1040100010401000DS Algo: 0Window size: 0
Off-chip DRAM Size: 4096 MB Channels: 1 Width: 64-bit Data Rate: 1600 MT/s

CPU 0 runs /mnt/beegfs/iconst01/spec2017/Mcf.trace.gz
NOT SORTED
TRACE STRING: /mnt/beegfs/iconst01/spec2017/Mcf.trace.gz
SORTED
TRACE STRING: /mnt/beegfs/iconst01/spec2017/Mcf.trace.gz
INITIAL
TRACE STRING: /mnt/beegfs/iconst01/spec2017/Mcf.trace.gz

champsim_seed used: 278

CPU 0 L1D next line prefetcher
CPU 0 L2C IP-based stride prefetcher
Initialize DRRIP state
Assign rand_sets[0]: 454  LLC: 2048
rand_sets[0]: 454
Assign rand_sets[1]: 1662  LLC: 2048
rand_sets[1]: 1662
Assign rand_sets[2]: 1921  LLC: 2048
rand_sets[2]: 1921
Assign rand_sets[3]: 1131  LLC: 2048
rand_sets[3]: 1131
Assign rand_sets[4]: 331  LLC: 2048
rand_sets[4]: 331
Assign rand_sets[5]: 1531  LLC: 2048
rand_sets[5]: 1531
Assign rand_sets[6]: 482  LLC: 2048
rand_sets[6]: 482
Assign rand_sets[7]: 1275  LLC: 2048
rand_sets[7]: 1275
Assign rand_sets[8]: 1876  LLC: 2048
rand_sets[8]: 1876
Assign rand_sets[9]: 2038  LLC: 2048
rand_sets[9]: 2038
Assign rand_sets[10]: 701  LLC: 2048
rand_sets[10]: 701
Assign rand_sets[11]: 479  LLC: 2048
rand_sets[11]: 479
Assign rand_sets[12]: 892  LLC: 2048
rand_sets[12]: 892
Assign rand_sets[13]: 1820  LLC: 2048
rand_sets[13]: 1820
Assign rand_sets[14]: 1505  LLC: 2048
rand_sets[14]: 1505
Assign rand_sets[15]: 1159  LLC: 2048
rand_sets[15]: 1159
Assign rand_sets[16]: 513  LLC: 2048
rand_sets[16]: 513
Assign rand_sets[17]: 703  LLC: 2048
rand_sets[17]: 703
Assign rand_sets[18]: 561  LLC: 2048
rand_sets[18]: 561
Assign rand_sets[19]: 990  LLC: 2048
rand_sets[19]: 990
Assign rand_sets[20]: 342  LLC: 2048
rand_sets[20]: 342
Assign rand_sets[21]: 882  LLC: 2048
rand_sets[21]: 882
Assign rand_sets[22]: 15  LLC: 2048
rand_sets[22]: 15
Assign rand_sets[23]: 71  LLC: 2048
rand_sets[23]: 71
Assign rand_sets[24]: 1127  LLC: 2048
rand_sets[24]: 1127
Assign rand_sets[25]: 1382  LLC: 2048
rand_sets[25]: 1382
Assign rand_sets[26]: 647  LLC: 2048
rand_sets[26]: 647
Assign rand_sets[27]: 857  LLC: 2048
rand_sets[27]: 857
Assign rand_sets[28]: 1450  LLC: 2048
rand_sets[28]: 1450
Assign rand_sets[29]: 1160  LLC: 2048
rand_sets[29]: 1160
Assign rand_sets[30]: 1852  LLC: 2048
rand_sets[30]: 1852
Assign rand_sets[31]: 1881  LLC: 2048
rand_sets[31]: 1881
Assign rand_sets[32]: 1770  LLC: 2048
rand_sets[32]: 1770
Assign rand_sets[33]: 1622  LLC: 2048
rand_sets[33]: 1622
Assign rand_sets[34]: 275  LLC: 2048
rand_sets[34]: 275
Assign rand_sets[35]: 635  LLC: 2048
rand_sets[35]: 635
Assign rand_sets[36]: 466  LLC: 2048
rand_sets[36]: 466
Assign rand_sets[37]: 1413  LLC: 2048
rand_sets[37]: 1413
Assign rand_sets[38]: 417  LLC: 2048
rand_sets[38]: 417
Assign rand_sets[39]: 472  LLC: 2048
rand_sets[39]: 472
Assign rand_sets[40]: 1340  LLC: 2048
rand_sets[40]: 1340
Assign rand_sets[41]: 852  LLC: 2048
rand_sets[41]: 852
Assign rand_sets[42]: 1365  LLC: 2048
rand_sets[42]: 1365
Assign rand_sets[43]: 47  LLC: 2048
rand_sets[43]: 47
Assign rand_sets[44]: 823  LLC: 2048
rand_sets[44]: 823
Assign rand_sets[45]: 686  LLC: 2048
rand_sets[45]: 686
Assign rand_sets[46]: 1637  LLC: 2048
rand_sets[46]: 1637
Assign rand_sets[47]: 1115  LLC: 2048
rand_sets[47]: 1115
Assign rand_sets[48]: 986  LLC: 2048
rand_sets[48]: 986
Assign rand_sets[49]: 258  LLC: 2048
rand_sets[49]: 258
Assign rand_sets[50]: 633  LLC: 2048
rand_sets[50]: 633
Assign rand_sets[51]: 920  LLC: 2048
rand_sets[51]: 920
Assign rand_sets[52]: 204  LLC: 2048
rand_sets[52]: 204
Assign rand_sets[53]: 227  LLC: 2048
rand_sets[53]: 227
Assign rand_sets[54]: 1818  LLC: 2048
rand_sets[54]: 1818
Assign rand_sets[55]: 886  LLC: 2048
rand_sets[55]: 886
Assign rand_sets[56]: 1422  LLC: 2048
rand_sets[56]: 1422
Assign rand_sets[57]: 607  LLC: 2048
rand_sets[57]: 607
Assign rand_sets[58]: 217  LLC: 2048
rand_sets[58]: 217
Assign rand_sets[59]: 1945  LLC: 2048
rand_sets[59]: 1945
Assign rand_sets[60]: 143  LLC: 2048
rand_sets[60]: 143
Assign rand_sets[61]: 1311  LLC: 2048
rand_sets[61]: 1311
Assign rand_sets[62]: 319  LLC: 2048
rand_sets[62]: 319
Assign rand_sets[63]: 1846  LLC: 2048
rand_sets[63]: 1846
 CLEAN-RRIP-POLICY-1: 1-2-1-3-2-3-0-1- CLEAN-RRIP-POLICY-2: 1-2-1-3-2-3-0-1-
 DIRTY-RRIP-POLICY-1: 1-2-1-3-1-3-0-1- DIRTY-RRIP-POLICY-2: 1-2-1-3-1-3-0-1-
 PSEL width: 10
Heartbeat CPU 0 instructions: 10000002 cycles: 6248357 heartbeat IPC: 1.60042 cumulative IPC: 1.60042 (Simulation time: 0 hr 0 min 13 sec) 
Heartbeat CPU 0 instructions: 20000000 cycles: 12468829 heartbeat IPC: 1.60759 cumulative IPC: 1.604 (Simulation time: 0 hr 0 min 26 sec) 
Heartbeat CPU 0 instructions: 30000000 cycles: 18678801 heartbeat IPC: 1.61031 cumulative IPC: 1.6061 (Simulation time: 0 hr 0 min 39 sec) 
Heartbeat CPU 0 instructions: 40000000 cycles: 24889105 heartbeat IPC: 1.61023 cumulative IPC: 1.60713 (Simulation time: 0 hr 0 min 51 sec) 
Heartbeat CPU 0 instructions: 50000003 cycles: 31101274 heartbeat IPC: 1.60974 cumulative IPC: 1.60765 (Simulation time: 0 hr 1 min 4 sec) 
Heartbeat CPU 0 instructions: 60000000 cycles: 37297221 heartbeat IPC: 1.61396 cumulative IPC: 1.6087 (Simulation time: 0 hr 1 min 17 sec) 
Heartbeat CPU 0 instructions: 70000003 cycles: 43515377 heartbeat IPC: 1.60819 cumulative IPC: 1.60863 (Simulation time: 0 hr 1 min 30 sec) 
Heartbeat CPU 0 instructions: 80000000 cycles: 49745587 heartbeat IPC: 1.60508 cumulative IPC: 1.60818 (Simulation time: 0 hr 1 min 43 sec) 
Heartbeat CPU 0 instructions: 90000000 cycles: 55974356 heartbeat IPC: 1.60545 cumulative IPC: 1.60788 (Simulation time: 0 hr 1 min 56 sec) 
Heartbeat CPU 0 instructions: 100000000 cycles: 62193053 heartbeat IPC: 1.60805 cumulative IPC: 1.6079 (Simulation time: 0 hr 2 min 9 sec) 

Warmup complete CPU 0 instructions: 100000001 cycles: 62193054 (Simulation time: 0 hr 2 min 9 sec) 

Heartbeat CPU 0 instructions: 110000000 cycles: 86723147 heartbeat IPC: 0.407663 cumulative IPC: 0.407663 (Simulation time: 0 hr 2 min 34 sec) 
Heartbeat CPU 0 instructions: 120000000 cycles: 111365373 heartbeat IPC: 0.405807 cumulative IPC: 0.406733 (Simulation time: 0 hr 2 min 58 sec) 
Heartbeat CPU 0 instructions: 130000000 cycles: 136086821 heartbeat IPC: 0.404507 cumulative IPC: 0.405988 (Simulation time: 0 hr 3 min 23 sec) 
Heartbeat CPU 0 instructions: 140000000 cycles: 160769430 heartbeat IPC: 0.405144 cumulative IPC: 0.405777 (Simulation time: 0 hr 3 min 48 sec) 
Heartbeat CPU 0 instructions: 150000003 cycles: 185341780 heartbeat IPC: 0.406962 cumulative IPC: 0.406013 (Simulation time: 0 hr 4 min 12 sec) 
Heartbeat CPU 0 instructions: 160000000 cycles: 210186786 heartbeat IPC: 0.402495 cumulative IPC: 0.405423 (Simulation time: 0 hr 4 min 37 sec) 
Heartbeat CPU 0 instructions: 170000001 cycles: 234898961 heartbeat IPC: 0.404659 cumulative IPC: 0.405313 (Simulation time: 0 hr 5 min 2 sec) 
Heartbeat CPU 0 instructions: 180000000 cycles: 259610270 heartbeat IPC: 0.404673 cumulative IPC: 0.405233 (Simulation time: 0 hr 5 min 27 sec) 
Heartbeat CPU 0 instructions: 190000003 cycles: 284285291 heartbeat IPC: 0.405268 cumulative IPC: 0.405237 (Simulation time: 0 hr 5 min 51 sec) 
Heartbeat CPU 0 instructions: 200000000 cycles: 309000056 heartbeat IPC: 0.404616 cumulative IPC: 0.405175 (Simulation time: 0 hr 6 min 16 sec) 
Heartbeat CPU 0 instructions: 210000003 cycles: 333779511 heartbeat IPC: 0.40356 cumulative IPC: 0.405028 (Simulation time: 0 hr 6 min 41 sec) 
Heartbeat CPU 0 instructions: 220000000 cycles: 358741326 heartbeat IPC: 0.400612 cumulative IPC: 0.404656 (Simulation time: 0 hr 7 min 6 sec) 
Heartbeat CPU 0 instructions: 230000002 cycles: 383361928 heartbeat IPC: 0.406164 cumulative IPC: 0.404771 (Simulation time: 0 hr 7 min 31 sec) 
Heartbeat CPU 0 instructions: 240000000 cycles: 408283346 heartbeat IPC: 0.401261 cumulative IPC: 0.404519 (Simulation time: 0 hr 7 min 56 sec) 
Heartbeat CPU 0 instructions: 250000000 cycles: 433027224 heartbeat IPC: 0.40414 cumulative IPC: 0.404493 (Simulation time: 0 hr 8 min 20 sec) 
Heartbeat CPU 0 instructions: 260000000 cycles: 457727356 heartbeat IPC: 0.404856 cumulative IPC: 0.404516 (Simulation time: 0 hr 8 min 45 sec) 
Heartbeat CPU 0 instructions: 270000001 cycles: 482522943 heartbeat IPC: 0.403298 cumulative IPC: 0.404444 (Simulation time: 0 hr 9 min 10 sec) 
Heartbeat CPU 0 instructions: 280000000 cycles: 507253550 heartbeat IPC: 0.404357 cumulative IPC: 0.404439 (Simulation time: 0 hr 9 min 35 sec) 
Heartbeat CPU 0 instructions: 290000001 cycles: 532062889 heartbeat IPC: 0.403074 cumulative IPC: 0.404367 (Simulation time: 0 hr 10 min 0 sec) 
Heartbeat CPU 0 instructions: 300000000 cycles: 557024316 heartbeat IPC: 0.400618 cumulative IPC: 0.404178 (Simulation time: 0 hr 10 min 25 sec) 
Heartbeat CPU 0 instructions: 310000003 cycles: 581639753 heartbeat IPC: 0.406249 cumulative IPC: 0.404276 (Simulation time: 0 hr 10 min 50 sec) 
Heartbeat CPU 0 instructions: 320000000 cycles: 606614861 heartbeat IPC: 0.400399 cumulative IPC: 0.404098 (Simulation time: 0 hr 11 min 15 sec) 
Heartbeat CPU 0 instructions: 330000003 cycles: 631344893 heartbeat IPC: 0.404367 cumulative IPC: 0.40411 (Simulation time: 0 hr 11 min 40 sec) 
Heartbeat CPU 0 instructions: 340000000 cycles: 656361220 heartbeat IPC: 0.399739 cumulative IPC: 0.403926 (Simulation time: 0 hr 12 min 5 sec) 
Heartbeat CPU 0 instructions: 350000002 cycles: 681352623 heartbeat IPC: 0.400138 cumulative IPC: 0.403773 (Simulation time: 0 hr 12 min 30 sec) 
Heartbeat CPU 0 instructions: 360000000 cycles: 706476507 heartbeat IPC: 0.398028 cumulative IPC: 0.403549 (Simulation time: 0 hr 12 min 55 sec) 
Heartbeat CPU 0 instructions: 370000000 cycles: 731381268 heartbeat IPC: 0.40153 cumulative IPC: 0.403474 (Simulation time: 0 hr 13 min 19 sec) 
Heartbeat CPU 0 instructions: 380000000 cycles: 756100659 heartbeat IPC: 0.404541 cumulative IPC: 0.403512 (Simulation time: 0 hr 13 min 44 sec) 
Heartbeat CPU 0 instructions: 390000002 cycles: 780853448 heartbeat IPC: 0.403995 cumulative IPC: 0.403529 (Simulation time: 0 hr 14 min 8 sec) 
Heartbeat CPU 0 instructions: 400000000 cycles: 805773903 heartbeat IPC: 0.401277 cumulative IPC: 0.403453 (Simulation time: 0 hr 14 min 33 sec) 
Heartbeat CPU 0 instructions: 410000002 cycles: 830594850 heartbeat IPC: 0.402886 cumulative IPC: 0.403435 (Simulation time: 0 hr 14 min 58 sec) 
Heartbeat CPU 0 instructions: 420000000 cycles: 855213756 heartbeat IPC: 0.406192 cumulative IPC: 0.40352 (Simulation time: 0 hr 15 min 23 sec) 
Heartbeat CPU 0 instructions: 430000000 cycles: 880068864 heartbeat IPC: 0.402332 cumulative IPC: 0.403484 (Simulation time: 0 hr 15 min 47 sec) 
Heartbeat CPU 0 instructions: 440000000 cycles: 904628425 heartbeat IPC: 0.407173 cumulative IPC: 0.403592 (Simulation time: 0 hr 16 min 12 sec) 
Heartbeat CPU 0 instructions: 450000000 cycles: 929609103 heartbeat IPC: 0.400309 cumulative IPC: 0.403497 (Simulation time: 0 hr 16 min 37 sec) 
Heartbeat CPU 0 instructions: 460000000 cycles: 954515961 heartbeat IPC: 0.401496 cumulative IPC: 0.403441 (Simulation time: 0 hr 17 min 3 sec) 
Heartbeat CPU 0 instructions: 470000001 cycles: 979216669 heartbeat IPC: 0.404847 cumulative IPC: 0.403479 (Simulation time: 0 hr 17 min 28 sec) 
Heartbeat CPU 0 instructions: 480000000 cycles: 1004088357 heartbeat IPC: 0.402064 cumulative IPC: 0.403442 (Simulation time: 0 hr 17 min 54 sec) 
Heartbeat CPU 0 instructions: 490000000 cycles: 1029065946 heartbeat IPC: 0.400359 cumulative IPC: 0.403362 (Simulation time: 0 hr 18 min 19 sec) 
Heartbeat CPU 0 instructions: 500000000 cycles: 1054357495 heartbeat IPC: 0.395389 cumulative IPC: 0.403159 (Simulation time: 0 hr 18 min 45 sec) 
Heartbeat CPU 0 instructions: 510000003 cycles: 1079523797 heartbeat IPC: 0.397357 cumulative IPC: 0.403015 (Simulation time: 0 hr 19 min 10 sec) 
Heartbeat CPU 0 instructions: 520000000 cycles: 1104853866 heartbeat IPC: 0.394788 cumulative IPC: 0.402816 (Simulation time: 0 hr 19 min 35 sec) 
Heartbeat CPU 0 instructions: 530000003 cycles: 1130202276 heartbeat IPC: 0.394502 cumulative IPC: 0.402618 (Simulation time: 0 hr 20 min 1 sec) 
Heartbeat CPU 0 instructions: 540000000 cycles: 1155464168 heartbeat IPC: 0.395853 cumulative IPC: 0.402462 (Simulation time: 0 hr 20 min 26 sec) 
Heartbeat CPU 0 instructions: 550000000 cycles: 1180749043 heartbeat IPC: 0.395493 cumulative IPC: 0.402304 (Simulation time: 0 hr 20 min 52 sec) 
Heartbeat CPU 0 instructions: 560000000 cycles: 1206348124 heartbeat IPC: 0.390639 cumulative IPC: 0.402043 (Simulation time: 0 hr 21 min 17 sec) 
Heartbeat CPU 0 instructions: 570000001 cycles: 1231870059 heartbeat IPC: 0.39182 cumulative IPC: 0.40182 (Simulation time: 0 hr 21 min 43 sec) 
Heartbeat CPU 0 instructions: 580000000 cycles: 1257400066 heartbeat IPC: 0.391696 cumulative IPC: 0.401604 (Simulation time: 0 hr 22 min 8 sec) 
Heartbeat CPU 0 instructions: 590000000 cycles: 1283074205 heartbeat IPC: 0.389497 cumulative IPC: 0.401349 (Simulation time: 0 hr 22 min 34 sec) 
Heartbeat CPU 0 instructions: 600000000 cycles: 1308844887 heartbeat IPC: 0.388038 cumulative IPC: 0.401074 (Simulation time: 0 hr 22 min 59 sec) 
Finished CPU 0 instructions: 500000003 cycles: 1246651846 cumulative IPC: 0.401074 (Simulation time: 0 hr 22 min 59 sec) 

CPU 0 Branch Prediction Accuracy: 91.1342% MPKI: 18.7968
Number of Branches: 106006945 Number of Mispredictions: 9398408
Number of LOAD Instructions: 207894007
Number of LOAD Instructions (ROI): 207894007
Number of STORE Instructions: 54285997
Number of STORE Instructions (ROI): 54285997
Total Destination Memory Operands: 57463404
Total Destination Memory Operands (ROI): 57463404
Total Source Memory Operands: 207894007
Total Source Memory Operands (ROI): 207894007
Number of DEPENDED LOADS: 18105848
Number of DEPENDED LOADS (ROI): 18105848
Number of SQ_ADDED: 57463404
Number of SQ_ADDED (ROI): 57463404
Number of LQ_ADDED: 209237515
Number of LQ_ADDED (ROI): 209237515
Number of Instructions read from trace: 600000039

ChampSim completed all CPUs

Region of Interest Statistics

CPU 0 cumulative IPC: 0.401074 instructions: 500000003 cycles: 1246651846
ITLB TOTAL     ACCESS:   96422364  HIT:   96422364  MISS:          0
ITLB LOAD      ACCESS:   96422364  HIT:   96422364  MISS:          0
ITLB RFO       ACCESS:          0  HIT:          0  MISS:          0
ITLB PREFETCH  ACCESS:          0  HIT:          0  MISS:          0
ITLB WRITEBACK ACCESS:          0  HIT:          0  MISS:          0
ITLB PREFETCH  REQUESTED:          0  ISSUED:          0  USEFUL:          0  USELESS:          0
ITLB TOTAL MSHR MERGED:          0
ITLB LOAD MSHR MERGED:          0
ITLB RFO MSHR MERGED:          0
ITLB PREFETCH MSHR MERGED:          0
ITLB WRITEBACK MSHR MERGED:          0
ITLB TOTAL ACCESSES:   96422364 HITS:   96422364 MISSES:          0
ITLB LOAD ACCESSES:   96422364 HITS:   96422364 MISSES:          0
ITLB RFO ACCESSES:          0 HITS:          0 MISSES:          0
ITLB PREFETCH ACCESSES:          0 HITS:          0 MISSES:          0
ITLB WRITEBACK ACCESSES:          0 HITS:          0 MISSES:          0
ITLB RQ ACCESS:  499999980
ITLB RQ TO_CACHE:   96422364
ITLB RQ MERGED:  403577616
ITLB RQ FORWARD:          0
ITLB WQ ACCESS:          0
ITLB WQ TO_CACHE:          0
ITLB WQ MERGED:          0
ITLB WQ FORWARD:          0
DTLB TOTAL     ACCESS:  155173540  HIT:  150261462  MISS:    4912078
DTLB LOAD      ACCESS:  117722942  HIT:  113332542  MISS:    4390400
DTLB RFO       ACCESS:   37450598  HIT:   36928920  MISS:     521678
DTLB PREFETCH  ACCESS:          0  HIT:          0  MISS:          0
DTLB WRITEBACK ACCESS:          0  HIT:          0  MISS:          0
DTLB PREFETCH  REQUESTED:          0  ISSUED:          0  USEFUL:          0  USELESS:          0
DTLB TOTAL MSHR MERGED:     453083
DTLB LOAD MSHR MERGED:     161590
DTLB RFO MSHR MERGED:     291493
DTLB PREFETCH MSHR MERGED:          0
DTLB WRITEBACK MSHR MERGED:          0
DTLB TOTAL ACCESSES:  155626623 HITS:  150261462 MISSES:    5365161
DTLB LOAD ACCESSES:  117884532 HITS:  113332542 MISSES:    4551990
DTLB RFO ACCESSES:   37742091 HITS:   36928920 MISSES:     813171
DTLB PREFETCH ACCESSES:          0 HITS:          0 MISSES:          0
DTLB WRITEBACK ACCESSES:          0 HITS:          0 MISSES:          0
DTLB RQ ACCESS:  205976992
DTLB RQ TO_CACHE:  155626623
DTLB RQ MERGED:   50350369
DTLB RQ FORWARD:          0
DTLB WQ ACCESS:          0
DTLB WQ TO_CACHE:          0
DTLB WQ MERGED:          0
DTLB WQ FORWARD:          0
L1D TOTAL     ACCESS:  277182420  HIT:  242359929  MISS:   34822491
L1D LOAD      ACCESS:  125415526  HIT:  107775520  MISS:   17640006
L1D RFO       ACCESS:   41136075  HIT:   38824234  MISS:    2311841
L1D PREFETCH  ACCESS:  110630819  HIT:   95760175  MISS:   14870644
L1D WRITEBACK ACCESS:          0  HIT:          0  MISS:          0
L1D PREFETCH  REQUESTED:  126271366  ISSUED:  124752139  USEFUL:    2704712  USELESS:   12165957
L1D TOTAL MSHR MERGED:    8485467
L1D LOAD MSHR MERGED:    1546865
L1D RFO MSHR MERGED:    3768504
L1D PREFETCH MSHR MERGED:    3170098
L1D WRITEBACK MSHR MERGED:          0
L1D TOTAL ACCESSES:  285755195 HITS:  242447236 MISSES:   43307959
L1D LOAD ACCESSES:  126271399 HITS:  107775553 MISSES:   18495846
L1D RFO ACCESSES:   44904084 HITS:   38824234 MISSES:    6079850
L1D PREFETCH ACCESSES:  114579712 HITS:   95847449 MISSES:   18732263
L1D WRITEBACK ACCESSES:          0 HITS:          0 MISSES:          0
L1D RQ ACCESS:  158430111
L1D RQ TO_CACHE:  126271366
L1D RQ MERGED:   32158712
L1D RQ FORWARD:          0
L1D WQ ACCESS:   47546882
L1D WQ TO_CACHE:   44904084
L1D WQ MERGED:    2642798
L1D WQ FORWARD:      87307
L1I TOTAL     ACCESS:  132832401  HIT:  132832401  MISS:          0
L1I LOAD      ACCESS:  132832401  HIT:  132832401  MISS:          0
L1I RFO       ACCESS:          0  HIT:          0  MISS:          0
L1I PREFETCH  ACCESS:          0  HIT:          0  MISS:          0
L1I WRITEBACK ACCESS:          0  HIT:          0  MISS:          0
L1I PREFETCH  REQUESTED:          0  ISSUED:          0  USEFUL:          0  USELESS:          0
L1I TOTAL MSHR MERGED:          0
L1I LOAD MSHR MERGED:          0
L1I RFO MSHR MERGED:          0
L1I PREFETCH MSHR MERGED:          0
L1I WRITEBACK MSHR MERGED:          0
L1I TOTAL ACCESSES:  132832401 HITS:  132832401 MISSES:          0
L1I LOAD ACCESSES:  132832401 HITS:  132832401 MISSES:          0
L1I RFO ACCESSES:          0 HITS:          0 MISSES:          0
L1I PREFETCH ACCESSES:          0 HITS:          0 MISSES:          0
L1I WRITEBACK ACCESSES:          0 HITS:          0 MISSES:          0
L1I RQ ACCESS:  499999980
L1I RQ TO_CACHE:  132832401
L1I RQ MERGED:  367167579
L1I RQ FORWARD:          0
L1I WQ ACCESS:          0
L1I WQ TO_CACHE:          0
L1I WQ MERGED:          0
L1I WQ FORWARD:          0
L2C TOTAL     ACCESS:   39598340  HIT:   20628999  MISS:   18969341
L2C LOAD      ACCESS:   16948922  HIT:    8568225  MISS:    8380697
L2C RFO       ACCESS:    2311292  HIT:     630841  MISS:    1680451
L2C PREFETCH  ACCESS:   17115680  HIT:    8211236  MISS:    8904444
L2C WRITEBACK ACCESS:    3222446  HIT:    3218697  MISS:       3749
L2C PREFETCH  REQUESTED:    2884578  ISSUED:    2884578  USEFUL:    1307437  USELESS:    7596748
L2C TOTAL MSHR MERGED:     533342
L2C LOAD MSHR MERGED:      90055
L2C RFO MSHR MERGED:          0
L2C PREFETCH MSHR MERGED:     443287
L2C WRITEBACK MSHR MERGED:          0
L2C TOTAL ACCESSES:   40250017 HITS:   20629163 MISSES:   19620854
L2C LOAD ACCESSES:   16948981 HITS:    8568284 MISSES:    8380697
L2C RFO ACCESSES:    2311346 HITS:     630895 MISSES:    1680451
L2C PREFETCH ACCESSES:   17767244 HITS:    8211287 MISSES:    9555957
L2C WRITEBACK ACCESSES:    3222446 HITS:    3218697 MISSES:       3749
L2C RQ ACCESS:   19260327
L2C RQ TO_CACHE:   19260214
L2C RQ MERGED:          0
L2C RQ FORWARD:          0
L2C WQ ACCESS:    3222446
L2C WQ TO_CACHE:    3222446
L2C WQ MERGED:          0
L2C WQ FORWARD:        164
LLC TOTAL     ACCESS:   21199551  HIT:   14046301  MISS:    7153250
LLC LOAD      ACCESS:    8290616  HIT:    5784735  MISS:    2505881
LLC RFO       ACCESS:    1680371  HIT:    1677503  MISS:       2868
LLC PREFETCH  ACCESS:    9052906  HIT:    4410854  MISS:    4642052
LLC WRITEBACK ACCESS:    2175658  HIT:    2173209  MISS:       2449
LLC PREFETCH  REQUESTED:          0  ISSUED:          0  USEFUL:     201018  USELESS:    4443358
LLC TOTAL MSHR MERGED:      50326
LLC LOAD MSHR MERGED:      15872
LLC RFO MSHR MERGED:          0
LLC PREFETCH MSHR MERGED:      34454
LLC WRITEBACK MSHR MERGED:          0
LLC TOTAL ACCESSES:   21250013 HITS:   14046436 MISSES:    7203577
LLC LOAD ACCESSES:    8290642 HITS:    5784761 MISSES:    2505881
LLC RFO ACCESSES:    1680451 HITS:    1677583 MISSES:       2868
LLC PREFETCH ACCESSES:    9103262 HITS:    4410883 MISSES:    4692379
LLC WRITEBACK ACCESSES:    2175658 HITS:    2173209 MISSES:       2449
LLC 0 RQ ACCESS:    9971093
LLC 0 RQ TO_CACHE:    9970987
LLC 0 RQ MERGED:          0
LLC 0 RQ FORWARD:          0
LLC WQ ACCESS:    2175659
LLC WQ TO_CACHE:    2175659
LLC WQ MERGED:          0
LLC WQ FORWARD:        135
Major fault: 0 Minor fault: 56391
CPU 0 L1D next line prefetcher final stats
CPU 0 L2C PC-based stride prefetcher final stats
All Misses: 8389979
All Hits: 16186416
SD Algo Stats - Switches: 0 SRR-Repls: 2627598 BRR-Repls: 0

DRAM Statistics
 CHANNEL 0
 RQ ROW_BUFFER_HIT:    4581946  ROW_BUFFER_MISS:    2564331
 DBUS_CONGESTED:    3309370
 WQ ROW_BUFFER_HIT:        456  ROW_BUFFER_MISS:      13469  FULL:          0

 AVG_CONGESTED_CYCLE: 12
LOADS RETIRED: 173631671
INSTR RETIRED: 500000000
