
*** ChampSim Multicore Out-of-Order Simulator ***

Warmup Instructions: 100000000
Simulation Instructions: 500000000
Number of CPUs: 1
LLC sets: 2048
LLC ways: 16
Clean RRIP Policies: 1213230112132301 Dirty RRIP Policies: 1213130112131301 PSEL Width: 10 Track Set: 4294967295 PSEL Mask: 1 Demote Mask: 1040100010401000DS Algo: 0Window size: 0
Off-chip DRAM Size: 4096 MB Channels: 1 Width: 64-bit Data Rate: 1600 MT/s

CPU 0 runs /mnt/beegfs/iconst01/spec2017/Xalancbmk.trace.gz
NOT SORTED
TRACE STRING: /mnt/beegfs/iconst01/spec2017/Xalancbmk.trace.gz
SORTED
TRACE STRING: /mnt/beegfs/iconst01/spec2017/Xalancbmk.trace.gz
INITIAL
TRACE STRING: /mnt/beegfs/iconst01/spec2017/Xalancbmk.trace.gz

champsim_seed used: 913

CPU 0 L1D next line prefetcher
CPU 0 L2C IP-based stride prefetcher
Initialize DRRIP state
Assign rand_sets[0]: 454  LLC: 2048
rand_sets[0]: 454
Assign rand_sets[1]: 1662  LLC: 2048
rand_sets[1]: 1662
Assign rand_sets[2]: 1921  LLC: 2048
rand_sets[2]: 1921
Assign rand_sets[3]: 1131  LLC: 2048
rand_sets[3]: 1131
Assign rand_sets[4]: 331  LLC: 2048
rand_sets[4]: 331
Assign rand_sets[5]: 1531  LLC: 2048
rand_sets[5]: 1531
Assign rand_sets[6]: 482  LLC: 2048
rand_sets[6]: 482
Assign rand_sets[7]: 1275  LLC: 2048
rand_sets[7]: 1275
Assign rand_sets[8]: 1876  LLC: 2048
rand_sets[8]: 1876
Assign rand_sets[9]: 2038  LLC: 2048
rand_sets[9]: 2038
Assign rand_sets[10]: 701  LLC: 2048
rand_sets[10]: 701
Assign rand_sets[11]: 479  LLC: 2048
rand_sets[11]: 479
Assign rand_sets[12]: 892  LLC: 2048
rand_sets[12]: 892
Assign rand_sets[13]: 1820  LLC: 2048
rand_sets[13]: 1820
Assign rand_sets[14]: 1505  LLC: 2048
rand_sets[14]: 1505
Assign rand_sets[15]: 1159  LLC: 2048
rand_sets[15]: 1159
Assign rand_sets[16]: 513  LLC: 2048
rand_sets[16]: 513
Assign rand_sets[17]: 703  LLC: 2048
rand_sets[17]: 703
Assign rand_sets[18]: 561  LLC: 2048
rand_sets[18]: 561
Assign rand_sets[19]: 990  LLC: 2048
rand_sets[19]: 990
Assign rand_sets[20]: 342  LLC: 2048
rand_sets[20]: 342
Assign rand_sets[21]: 882  LLC: 2048
rand_sets[21]: 882
Assign rand_sets[22]: 15  LLC: 2048
rand_sets[22]: 15
Assign rand_sets[23]: 71  LLC: 2048
rand_sets[23]: 71
Assign rand_sets[24]: 1127  LLC: 2048
rand_sets[24]: 1127
Assign rand_sets[25]: 1382  LLC: 2048
rand_sets[25]: 1382
Assign rand_sets[26]: 647  LLC: 2048
rand_sets[26]: 647
Assign rand_sets[27]: 857  LLC: 2048
rand_sets[27]: 857
Assign rand_sets[28]: 1450  LLC: 2048
rand_sets[28]: 1450
Assign rand_sets[29]: 1160  LLC: 2048
rand_sets[29]: 1160
Assign rand_sets[30]: 1852  LLC: 2048
rand_sets[30]: 1852
Assign rand_sets[31]: 1881  LLC: 2048
rand_sets[31]: 1881
Assign rand_sets[32]: 1770  LLC: 2048
rand_sets[32]: 1770
Assign rand_sets[33]: 1622  LLC: 2048
rand_sets[33]: 1622
Assign rand_sets[34]: 275  LLC: 2048
rand_sets[34]: 275
Assign rand_sets[35]: 635  LLC: 2048
rand_sets[35]: 635
Assign rand_sets[36]: 466  LLC: 2048
rand_sets[36]: 466
Assign rand_sets[37]: 1413  LLC: 2048
rand_sets[37]: 1413
Assign rand_sets[38]: 417  LLC: 2048
rand_sets[38]: 417
Assign rand_sets[39]: 472  LLC: 2048
rand_sets[39]: 472
Assign rand_sets[40]: 1340  LLC: 2048
rand_sets[40]: 1340
Assign rand_sets[41]: 852  LLC: 2048
rand_sets[41]: 852
Assign rand_sets[42]: 1365  LLC: 2048
rand_sets[42]: 1365
Assign rand_sets[43]: 47  LLC: 2048
rand_sets[43]: 47
Assign rand_sets[44]: 823  LLC: 2048
rand_sets[44]: 823
Assign rand_sets[45]: 686  LLC: 2048
rand_sets[45]: 686
Assign rand_sets[46]: 1637  LLC: 2048
rand_sets[46]: 1637
Assign rand_sets[47]: 1115  LLC: 2048
rand_sets[47]: 1115
Assign rand_sets[48]: 986  LLC: 2048
rand_sets[48]: 986
Assign rand_sets[49]: 258  LLC: 2048
rand_sets[49]: 258
Assign rand_sets[50]: 633  LLC: 2048
rand_sets[50]: 633
Assign rand_sets[51]: 920  LLC: 2048
rand_sets[51]: 920
Assign rand_sets[52]: 204  LLC: 2048
rand_sets[52]: 204
Assign rand_sets[53]: 227  LLC: 2048
rand_sets[53]: 227
Assign rand_sets[54]: 1818  LLC: 2048
rand_sets[54]: 1818
Assign rand_sets[55]: 886  LLC: 2048
rand_sets[55]: 886
Assign rand_sets[56]: 1422  LLC: 2048
rand_sets[56]: 1422
Assign rand_sets[57]: 607  LLC: 2048
rand_sets[57]: 607
Assign rand_sets[58]: 217  LLC: 2048
rand_sets[58]: 217
Assign rand_sets[59]: 1945  LLC: 2048
rand_sets[59]: 1945
Assign rand_sets[60]: 143  LLC: 2048
rand_sets[60]: 143
Assign rand_sets[61]: 1311  LLC: 2048
rand_sets[61]: 1311
Assign rand_sets[62]: 319  LLC: 2048
rand_sets[62]: 319
Assign rand_sets[63]: 1846  LLC: 2048
rand_sets[63]: 1846
 CLEAN-RRIP-POLICY-1: 1-2-1-3-2-3-0-1- CLEAN-RRIP-POLICY-2: 1-2-1-3-2-3-0-1-
 DIRTY-RRIP-POLICY-1: 1-2-1-3-1-3-0-1- DIRTY-RRIP-POLICY-2: 1-2-1-3-1-3-0-1-
 PSEL width: 10
Heartbeat CPU 0 instructions: 10000003 cycles: 4586341 heartbeat IPC: 2.18039 cumulative IPC: 2.18039 (Simulation time: 0 hr 0 min 15 sec) 
Heartbeat CPU 0 instructions: 20000000 cycles: 8977253 heartbeat IPC: 2.27743 cumulative IPC: 2.22785 (Simulation time: 0 hr 0 min 29 sec) 
Heartbeat CPU 0 instructions: 30000000 cycles: 13386658 heartbeat IPC: 2.26788 cumulative IPC: 2.24104 (Simulation time: 0 hr 0 min 43 sec) 
Heartbeat CPU 0 instructions: 40000000 cycles: 18011939 heartbeat IPC: 2.16203 cumulative IPC: 2.22075 (Simulation time: 0 hr 0 min 59 sec) 
Heartbeat CPU 0 instructions: 50000002 cycles: 22423810 heartbeat IPC: 2.26661 cumulative IPC: 2.22977 (Simulation time: 0 hr 1 min 13 sec) 
Heartbeat CPU 0 instructions: 60000000 cycles: 27075606 heartbeat IPC: 2.14971 cumulative IPC: 2.21602 (Simulation time: 0 hr 1 min 28 sec) 
Heartbeat CPU 0 instructions: 70000003 cycles: 31478518 heartbeat IPC: 2.27122 cumulative IPC: 2.22374 (Simulation time: 0 hr 1 min 42 sec) 
Heartbeat CPU 0 instructions: 80000000 cycles: 35902943 heartbeat IPC: 2.26018 cumulative IPC: 2.22823 (Simulation time: 0 hr 1 min 56 sec) 
Heartbeat CPU 0 instructions: 90000002 cycles: 40359721 heartbeat IPC: 2.24377 cumulative IPC: 2.22995 (Simulation time: 0 hr 2 min 11 sec) 
Heartbeat CPU 0 instructions: 100000000 cycles: 44833973 heartbeat IPC: 2.23501 cumulative IPC: 2.23045 (Simulation time: 0 hr 2 min 25 sec) 

Warmup complete CPU 0 instructions: 100000003 cycles: 44833974 (Simulation time: 0 hr 2 min 25 sec) 

Heartbeat CPU 0 instructions: 110000000 cycles: 71341838 heartbeat IPC: 0.377247 cumulative IPC: 0.377246 (Simulation time: 0 hr 2 min 56 sec) 
Heartbeat CPU 0 instructions: 120000000 cycles: 99569165 heartbeat IPC: 0.354267 cumulative IPC: 0.365396 (Simulation time: 0 hr 3 min 28 sec) 
Heartbeat CPU 0 instructions: 130000000 cycles: 123096941 heartbeat IPC: 0.42503 cumulative IPC: 0.383323 (Simulation time: 0 hr 3 min 56 sec) 
Heartbeat CPU 0 instructions: 140000000 cycles: 145633801 heartbeat IPC: 0.443718 cumulative IPC: 0.396826 (Simulation time: 0 hr 4 min 24 sec) 
Heartbeat CPU 0 instructions: 150000000 cycles: 170041076 heartbeat IPC: 0.409714 cumulative IPC: 0.399338 (Simulation time: 0 hr 4 min 53 sec) 
Heartbeat CPU 0 instructions: 160000000 cycles: 194815792 heartbeat IPC: 0.403637 cumulative IPC: 0.400048 (Simulation time: 0 hr 5 min 23 sec) 
Heartbeat CPU 0 instructions: 170000002 cycles: 216074539 heartbeat IPC: 0.470395 cumulative IPC: 0.408782 (Simulation time: 0 hr 5 min 50 sec) 
Heartbeat CPU 0 instructions: 180000000 cycles: 239037218 heartbeat IPC: 0.435489 cumulative IPC: 0.41194 (Simulation time: 0 hr 6 min 18 sec) 
Heartbeat CPU 0 instructions: 190000000 cycles: 258103147 heartbeat IPC: 0.524496 cumulative IPC: 0.422002 (Simulation time: 0 hr 6 min 44 sec) 
Heartbeat CPU 0 instructions: 200000000 cycles: 279374527 heartbeat IPC: 0.470115 cumulative IPC: 0.426365 (Simulation time: 0 hr 7 min 10 sec) 
Heartbeat CPU 0 instructions: 210000001 cycles: 305673167 heartbeat IPC: 0.380248 cumulative IPC: 0.421716 (Simulation time: 0 hr 7 min 41 sec) 
Heartbeat CPU 0 instructions: 220000000 cycles: 331469783 heartbeat IPC: 0.387648 cumulative IPC: 0.41865 (Simulation time: 0 hr 8 min 11 sec) 
Heartbeat CPU 0 instructions: 230000000 cycles: 353680886 heartbeat IPC: 0.450225 cumulative IPC: 0.42092 (Simulation time: 0 hr 8 min 39 sec) 
Heartbeat CPU 0 instructions: 240000000 cycles: 379253841 heartbeat IPC: 0.391038 cumulative IPC: 0.418635 (Simulation time: 0 hr 9 min 9 sec) 
Heartbeat CPU 0 instructions: 250000001 cycles: 404096370 heartbeat IPC: 0.402536 cumulative IPC: 0.417522 (Simulation time: 0 hr 9 min 39 sec) 
Heartbeat CPU 0 instructions: 260000000 cycles: 425113796 heartbeat IPC: 0.475796 cumulative IPC: 0.420743 (Simulation time: 0 hr 10 min 5 sec) 
Heartbeat CPU 0 instructions: 270000000 cycles: 447086550 heartbeat IPC: 0.455109 cumulative IPC: 0.42262 (Simulation time: 0 hr 10 min 33 sec) 
Heartbeat CPU 0 instructions: 280000000 cycles: 474558457 heartbeat IPC: 0.364008 cumulative IPC: 0.418873 (Simulation time: 0 hr 11 min 4 sec) 
Heartbeat CPU 0 instructions: 290000000 cycles: 495795675 heartbeat IPC: 0.470871 cumulative IPC: 0.421322 (Simulation time: 0 hr 11 min 31 sec) 
Heartbeat CPU 0 instructions: 300000000 cycles: 516434791 heartbeat IPC: 0.484517 cumulative IPC: 0.424087 (Simulation time: 0 hr 11 min 58 sec) 
Heartbeat CPU 0 instructions: 310000000 cycles: 535719881 heartbeat IPC: 0.518535 cumulative IPC: 0.427798 (Simulation time: 0 hr 12 min 23 sec) 
Heartbeat CPU 0 instructions: 320000000 cycles: 564899743 heartbeat IPC: 0.342702 cumulative IPC: 0.423023 (Simulation time: 0 hr 12 min 55 sec) 
Heartbeat CPU 0 instructions: 330000001 cycles: 584265829 heartbeat IPC: 0.516367 cumulative IPC: 0.426375 (Simulation time: 0 hr 13 min 21 sec) 
Heartbeat CPU 0 instructions: 340000000 cycles: 603637386 heartbeat IPC: 0.516221 cumulative IPC: 0.429489 (Simulation time: 0 hr 13 min 46 sec) 
Heartbeat CPU 0 instructions: 350000001 cycles: 628456141 heartbeat IPC: 0.402921 cumulative IPC: 0.428359 (Simulation time: 0 hr 14 min 16 sec) 
Heartbeat CPU 0 instructions: 360000000 cycles: 650725572 heartbeat IPC: 0.449046 cumulative IPC: 0.42912 (Simulation time: 0 hr 14 min 43 sec) 
Heartbeat CPU 0 instructions: 370000001 cycles: 675813781 heartbeat IPC: 0.398594 cumulative IPC: 0.427906 (Simulation time: 0 hr 15 min 13 sec) 
Heartbeat CPU 0 instructions: 380000000 cycles: 698791765 heartbeat IPC: 0.435199 cumulative IPC: 0.428162 (Simulation time: 0 hr 15 min 41 sec) 
Heartbeat CPU 0 instructions: 390000000 cycles: 717543003 heartbeat IPC: 0.533298 cumulative IPC: 0.431093 (Simulation time: 0 hr 16 min 6 sec) 
Heartbeat CPU 0 instructions: 400000000 cycles: 737417429 heartbeat IPC: 0.503159 cumulative IPC: 0.433161 (Simulation time: 0 hr 16 min 32 sec) 
Heartbeat CPU 0 instructions: 410000001 cycles: 763290001 heartbeat IPC: 0.38651 cumulative IPC: 0.431481 (Simulation time: 0 hr 17 min 1 sec) 
Heartbeat CPU 0 instructions: 420000000 cycles: 787872081 heartbeat IPC: 0.4068 cumulative IPC: 0.430664 (Simulation time: 0 hr 17 min 31 sec) 
Heartbeat CPU 0 instructions: 430000002 cycles: 809233646 heartbeat IPC: 0.468131 cumulative IPC: 0.431711 (Simulation time: 0 hr 17 min 57 sec) 
Heartbeat CPU 0 instructions: 440000000 cycles: 829649960 heartbeat IPC: 0.489804 cumulative IPC: 0.433223 (Simulation time: 0 hr 18 min 23 sec) 
Heartbeat CPU 0 instructions: 450000002 cycles: 856130066 heartbeat IPC: 0.377642 cumulative IPC: 0.431408 (Simulation time: 0 hr 18 min 54 sec) 
Heartbeat CPU 0 instructions: 460000000 cycles: 882003610 heartbeat IPC: 0.386495 cumulative IPC: 0.43002 (Simulation time: 0 hr 19 min 24 sec) 
Heartbeat CPU 0 instructions: 470000002 cycles: 907871088 heartbeat IPC: 0.386586 cumulative IPC: 0.428719 (Simulation time: 0 hr 19 min 54 sec) 
Heartbeat CPU 0 instructions: 480000000 cycles: 932530577 heartbeat IPC: 0.405523 cumulative IPC: 0.428074 (Simulation time: 0 hr 20 min 22 sec) 
Heartbeat CPU 0 instructions: 490000000 cycles: 953392190 heartbeat IPC: 0.479349 cumulative IPC: 0.429252 (Simulation time: 0 hr 20 min 49 sec) 
Heartbeat CPU 0 instructions: 500000000 cycles: 978125188 heartbeat IPC: 0.404318 cumulative IPC: 0.428591 (Simulation time: 0 hr 21 min 18 sec) 
Heartbeat CPU 0 instructions: 510000000 cycles: 1003146852 heartbeat IPC: 0.399654 cumulative IPC: 0.427835 (Simulation time: 0 hr 21 min 47 sec) 
Heartbeat CPU 0 instructions: 520000000 cycles: 1024283472 heartbeat IPC: 0.473113 cumulative IPC: 0.428812 (Simulation time: 0 hr 22 min 14 sec) 
Heartbeat CPU 0 instructions: 530000003 cycles: 1049810924 heartbeat IPC: 0.391735 cumulative IPC: 0.427871 (Simulation time: 0 hr 22 min 43 sec) 
Heartbeat CPU 0 instructions: 540000000 cycles: 1072640192 heartbeat IPC: 0.438034 cumulative IPC: 0.428096 (Simulation time: 0 hr 23 min 11 sec) 
Heartbeat CPU 0 instructions: 550000000 cycles: 1097896213 heartbeat IPC: 0.395945 cumulative IPC: 0.427325 (Simulation time: 0 hr 23 min 41 sec) 
Heartbeat CPU 0 instructions: 560000000 cycles: 1121545179 heartbeat IPC: 0.422851 cumulative IPC: 0.427227 (Simulation time: 0 hr 24 min 9 sec) 
Heartbeat CPU 0 instructions: 570000002 cycles: 1144974014 heartbeat IPC: 0.426825 cumulative IPC: 0.427218 (Simulation time: 0 hr 24 min 37 sec) 
Heartbeat CPU 0 instructions: 580000000 cycles: 1166132673 heartbeat IPC: 0.47262 cumulative IPC: 0.428075 (Simulation time: 0 hr 25 min 4 sec) 
Heartbeat CPU 0 instructions: 590000001 cycles: 1190011255 heartbeat IPC: 0.418785 cumulative IPC: 0.427881 (Simulation time: 0 hr 25 min 32 sec) 
Heartbeat CPU 0 instructions: 600000000 cycles: 1209217049 heartbeat IPC: 0.520676 cumulative IPC: 0.429412 (Simulation time: 0 hr 25 min 57 sec) 
Finished CPU 0 instructions: 500000000 cycles: 1164383096 cumulative IPC: 0.429412 (Simulation time: 0 hr 25 min 57 sec) 

CPU 0 Branch Prediction Accuracy: 99.5434% MPKI: 1.33026
Number of Branches: 145676990 Number of Mispredictions: 665128
Number of LOAD Instructions: 188863207
Number of LOAD Instructions (ROI): 188863207
Number of STORE Instructions: 7332002
Number of STORE Instructions (ROI): 7332002
Total Destination Memory Operands: 10029285
Total Destination Memory Operands (ROI): 10029285
Total Source Memory Operands: 188863207
Total Source Memory Operands (ROI): 188863207
Number of DEPENDED LOADS: 291037
Number of DEPENDED LOADS (ROI): 291037
Number of SQ_ADDED: 10029285
Number of SQ_ADDED (ROI): 10029285
Number of LQ_ADDED: 200569988
Number of LQ_ADDED (ROI): 200569988
Number of Instructions read from trace: 600000010

ChampSim completed all CPUs

Region of Interest Statistics

CPU 0 cumulative IPC: 0.429412 instructions: 500000000 cycles: 1164383096
ITLB TOTAL     ACCESS:  145808497  HIT:  145768970  MISS:      39527
ITLB LOAD      ACCESS:  145808497  HIT:  145768970  MISS:      39527
ITLB RFO       ACCESS:          0  HIT:          0  MISS:          0
ITLB PREFETCH  ACCESS:          0  HIT:          0  MISS:          0
ITLB WRITEBACK ACCESS:          0  HIT:          0  MISS:          0
ITLB PREFETCH  REQUESTED:          0  ISSUED:          0  USEFUL:          0  USELESS:          0
ITLB TOTAL MSHR MERGED:      57381
ITLB LOAD MSHR MERGED:      57381
ITLB RFO MSHR MERGED:          0
ITLB PREFETCH MSHR MERGED:          0
ITLB WRITEBACK MSHR MERGED:          0
ITLB TOTAL ACCESSES:  145865878 HITS:  145768970 MISSES:      96908
ITLB LOAD ACCESSES:  145865878 HITS:  145768970 MISSES:      96908
ITLB RFO ACCESSES:          0 HITS:          0 MISSES:          0
ITLB PREFETCH ACCESSES:          0 HITS:          0 MISSES:          0
ITLB WRITEBACK ACCESSES:          0 HITS:          0 MISSES:          0
ITLB RQ ACCESS:  499999754
ITLB RQ TO_CACHE:  145865878
ITLB RQ MERGED:  354133876
ITLB RQ FORWARD:          0
ITLB WQ ACCESS:          0
ITLB WQ TO_CACHE:          0
ITLB WQ MERGED:          0
ITLB WQ FORWARD:          0
DTLB TOTAL     ACCESS:  135189589  HIT:  134021228  MISS:    1168361
DTLB LOAD      ACCESS:  127148620  HIT:  125989363  MISS:    1159257
DTLB RFO       ACCESS:    8040969  HIT:    8031865  MISS:       9104
DTLB PREFETCH  ACCESS:          0  HIT:          0  MISS:          0
DTLB WRITEBACK ACCESS:          0  HIT:          0  MISS:          0
DTLB PREFETCH  REQUESTED:          0  ISSUED:          0  USEFUL:          0  USELESS:          0
DTLB TOTAL MSHR MERGED:     581497
DTLB LOAD MSHR MERGED:     577119
DTLB RFO MSHR MERGED:       4378
DTLB PREFETCH MSHR MERGED:          0
DTLB WRITEBACK MSHR MERGED:          0
DTLB TOTAL ACCESSES:  135771086 HITS:  134021228 MISSES:    1749858
DTLB LOAD ACCESSES:  127725739 HITS:  125989363 MISSES:    1736376
DTLB RFO ACCESSES:    8045347 HITS:    8031865 MISSES:      13482
DTLB PREFETCH ACCESSES:          0 HITS:          0 MISSES:          0
DTLB WRITEBACK ACCESSES:          0 HITS:          0 MISSES:          0
DTLB RQ ACCESS:  165763300
DTLB RQ TO_CACHE:  135771086
DTLB RQ MERGED:   29992214
DTLB RQ FORWARD:          0
DTLB WQ ACCESS:          0
DTLB WQ TO_CACHE:          0
DTLB WQ MERGED:          0
DTLB WQ FORWARD:          0
L1D TOTAL     ACCESS:  156954375  HIT:  139638686  MISS:   17315689
L1D LOAD      ACCESS:   89978634  HIT:   78835020  MISS:   11143614
L1D RFO       ACCESS:    8498903  HIT:    8411754  MISS:      87149
L1D PREFETCH  ACCESS:   58476838  HIT:   52391912  MISS:    6084926
L1D WRITEBACK ACCESS:          0  HIT:          0  MISS:          0
L1D PREFETCH  REQUESTED:   93717859  ISSUED:   92850363  USEFUL:    2003500  USELESS:    4081500
L1D TOTAL MSHR MERGED:   15105807
L1D LOAD MSHR MERGED:    7138961
L1D RFO MSHR MERGED:     125643
L1D PREFETCH MSHR MERGED:    7841203
L1D WRITEBACK MSHR MERGED:          0
L1D TOTAL ACCESSES:  172060343 HITS:  139638846 MISSES:   32421497
L1D LOAD ACCESSES:   93717862 HITS:   78835023 MISSES:   14882839
L1D RFO ACCESSES:    8622715 HITS:    8411754 MISSES:     210961
L1D PREFETCH ACCESSES:   69719766 HITS:   52392069 MISSES:   17327697
L1D WRITEBACK ACCESSES:          0 HITS:          0 MISSES:          0
L1D RQ ACCESS:  157124094
L1D RQ TO_CACHE:   93717859
L1D RQ MERGED:   63406232
L1D RQ FORWARD:          0
L1D WQ ACCESS:    8639208
L1D WQ TO_CACHE:    8622715
L1D WQ MERGED:      16493
L1D WQ FORWARD:        160
L1I TOTAL     ACCESS:  178796353  HIT:  178132684  MISS:     663669
L1I LOAD      ACCESS:  178796353  HIT:  178132684  MISS:     663669
L1I RFO       ACCESS:          0  HIT:          0  MISS:          0
L1I PREFETCH  ACCESS:          0  HIT:          0  MISS:          0
L1I WRITEBACK ACCESS:          0  HIT:          0  MISS:          0
L1I PREFETCH  REQUESTED:          0  ISSUED:          0  USEFUL:          0  USELESS:          0
L1I TOTAL MSHR MERGED:     598008
L1I LOAD MSHR MERGED:     598008
L1I RFO MSHR MERGED:          0
L1I PREFETCH MSHR MERGED:          0
L1I WRITEBACK MSHR MERGED:          0
L1I TOTAL ACCESSES:  179394361 HITS:  178132684 MISSES:    1261677
L1I LOAD ACCESSES:  179394361 HITS:  178132684 MISSES:    1261677
L1I RFO ACCESSES:          0 HITS:          0 MISSES:          0
L1I PREFETCH ACCESSES:          0 HITS:          0 MISSES:          0
L1I WRITEBACK ACCESSES:          0 HITS:          0 MISSES:          0
L1I RQ ACCESS:  499999757
L1I RQ TO_CACHE:  179394361
L1I RQ MERGED:  320605396
L1I RQ FORWARD:          0
L1I WQ ACCESS:          0
L1I WQ TO_CACHE:          0
L1I WQ MERGED:          0
L1I WQ FORWARD:          0
L2C TOTAL     ACCESS:   19276694  HIT:    2057293  MISS:   17219401
L2C LOAD      ACCESS:    8407443  HIT:     951132  MISS:    7456311
L2C RFO       ACCESS:      85294  HIT:      53731  MISS:      31563
L2C PREFETCH  ACCESS:   10498950  HIT:     770233  MISS:    9728717
L2C WRITEBACK ACCESS:     285007  HIT:     282197  MISS:       2810
L2C PREFETCH  REQUESTED:    1016881  ISSUED:    1016881  USEFUL:     274789  USELESS:    9453022
L2C TOTAL MSHR MERGED:       1062
L2C LOAD MSHR MERGED:        223
L2C RFO MSHR MERGED:          1
L2C PREFETCH MSHR MERGED:        838
L2C WRITEBACK MSHR MERGED:          0
L2C TOTAL ACCESSES:   19279988 HITS:    2057486 MISSES:   17222502
L2C LOAD ACCESSES:    8407547 HITS:     951236 MISSES:    7456311
L2C RFO ACCESSES:      85318 HITS:      53755 MISSES:      31563
L2C PREFETCH ACCESSES:   10502116 HITS:     770298 MISSES:    9731818
L2C WRITEBACK ACCESSES:     285007 HITS:     282197 MISSES:       2810
L2C RQ ACCESS:    8492865
L2C RQ TO_CACHE:    8492737
L2C RQ MERGED:          0
L2C RQ FORWARD:          0
L2C WQ ACCESS:     285007
L2C WQ TO_CACHE:     285007
L2C WQ MERGED:          0
L2C WQ FORWARD:        193
LLC TOTAL     ACCESS:   17324685  HIT:    4863097  MISS:   12461588
LLC LOAD      ACCESS:    7456088  HIT:    3995528  MISS:    3460560
LLC RFO       ACCESS:      31562  HIT:      17142  MISS:      14420
LLC PREFETCH  ACCESS:    9730978  HIT:     767013  MISS:    8963965
LLC WRITEBACK ACCESS:     106057  HIT:      83414  MISS:      22643
LLC PREFETCH  REQUESTED:          0  ISSUED:          0  USEFUL:       2028  USELESS:    8961244
LLC TOTAL MSHR MERGED:          1
LLC LOAD MSHR MERGED:          0
LLC RFO MSHR MERGED:          0
LLC PREFETCH MSHR MERGED:          1
LLC WRITEBACK MSHR MERGED:          0
LLC TOTAL ACCESSES:   17324687 HITS:    4863097 MISSES:   12461590
LLC LOAD ACCESSES:    7456088 HITS:    3995528 MISSES:    3460560
LLC RFO ACCESSES:      31562 HITS:      17142 MISSES:      14420
LLC PREFETCH ACCESSES:    9730980 HITS:     767013 MISSES:    8963967
LLC WRITEBACK ACCESSES:     106057 HITS:      83414 MISSES:      22643
LLC 0 RQ ACCESS:    7487650
LLC 0 RQ TO_CACHE:    7487650
LLC 0 RQ MERGED:          0
LLC 0 RQ FORWARD:          0
LLC WQ ACCESS:     106057
LLC WQ TO_CACHE:     106057
LLC WQ MERGED:          0
LLC WQ FORWARD:          0
Major fault: 0 Minor fault: 6432
CPU 0 L1D next line prefetcher final stats
CPU 0 L2C PC-based stride prefetcher final stats
All Misses: 14693602
All Hits: 5850744
SD Algo Stats - Switches: 0 SRR-Repls: 3688299 BRR-Repls: 0

DRAM Statistics
 CHANNEL 0
 RQ ROW_BUFFER_HIT:    9402386  ROW_BUFFER_MISS:    3031182
 DBUS_CONGESTED:    5788439
 WQ ROW_BUFFER_HIT:       1420  ROW_BUFFER_MISS:      38865  FULL:          0

 AVG_CONGESTED_CYCLE: 12
LOADS RETIRED: 157382665
INSTR RETIRED: 500000000
