
*** ChampSim Multicore Out-of-Order Simulator ***

Warmup Instructions: 100000000
Simulation Instructions: 500000000
Number of CPUs: 1
LLC sets: 2048
LLC ways: 16
Clean RRIP Policies: 1213230112132301 Dirty RRIP Policies: 2213031122130311 PSEL Width: 10 Track Set: 4294967295 PSEL Mask: 1 Demote Mask: 3340011133400111DS Algo: 0Window size: 0
Off-chip DRAM Size: 4096 MB Channels: 1 Width: 64-bit Data Rate: 1600 MT/s

CPU 0 runs /mnt/beegfs/iconst01/spec2017/Parest.trace.gz
NOT SORTED
TRACE STRING: /mnt/beegfs/iconst01/spec2017/Parest.trace.gz
SORTED
TRACE STRING: /mnt/beegfs/iconst01/spec2017/Parest.trace.gz
INITIAL
TRACE STRING: /mnt/beegfs/iconst01/spec2017/Parest.trace.gz

champsim_seed used: 623

CPU 0 L1D next line prefetcher
CPU 0 L2C IP-based stride prefetcher
Initialize DRRIP state
Assign rand_sets[0]: 454  LLC: 2048
rand_sets[0]: 454
Assign rand_sets[1]: 1662  LLC: 2048
rand_sets[1]: 1662
Assign rand_sets[2]: 1921  LLC: 2048
rand_sets[2]: 1921
Assign rand_sets[3]: 1131  LLC: 2048
rand_sets[3]: 1131
Assign rand_sets[4]: 331  LLC: 2048
rand_sets[4]: 331
Assign rand_sets[5]: 1531  LLC: 2048
rand_sets[5]: 1531
Assign rand_sets[6]: 482  LLC: 2048
rand_sets[6]: 482
Assign rand_sets[7]: 1275  LLC: 2048
rand_sets[7]: 1275
Assign rand_sets[8]: 1876  LLC: 2048
rand_sets[8]: 1876
Assign rand_sets[9]: 2038  LLC: 2048
rand_sets[9]: 2038
Assign rand_sets[10]: 701  LLC: 2048
rand_sets[10]: 701
Assign rand_sets[11]: 479  LLC: 2048
rand_sets[11]: 479
Assign rand_sets[12]: 892  LLC: 2048
rand_sets[12]: 892
Assign rand_sets[13]: 1820  LLC: 2048
rand_sets[13]: 1820
Assign rand_sets[14]: 1505  LLC: 2048
rand_sets[14]: 1505
Assign rand_sets[15]: 1159  LLC: 2048
rand_sets[15]: 1159
Assign rand_sets[16]: 513  LLC: 2048
rand_sets[16]: 513
Assign rand_sets[17]: 703  LLC: 2048
rand_sets[17]: 703
Assign rand_sets[18]: 561  LLC: 2048
rand_sets[18]: 561
Assign rand_sets[19]: 990  LLC: 2048
rand_sets[19]: 990
Assign rand_sets[20]: 342  LLC: 2048
rand_sets[20]: 342
Assign rand_sets[21]: 882  LLC: 2048
rand_sets[21]: 882
Assign rand_sets[22]: 15  LLC: 2048
rand_sets[22]: 15
Assign rand_sets[23]: 71  LLC: 2048
rand_sets[23]: 71
Assign rand_sets[24]: 1127  LLC: 2048
rand_sets[24]: 1127
Assign rand_sets[25]: 1382  LLC: 2048
rand_sets[25]: 1382
Assign rand_sets[26]: 647  LLC: 2048
rand_sets[26]: 647
Assign rand_sets[27]: 857  LLC: 2048
rand_sets[27]: 857
Assign rand_sets[28]: 1450  LLC: 2048
rand_sets[28]: 1450
Assign rand_sets[29]: 1160  LLC: 2048
rand_sets[29]: 1160
Assign rand_sets[30]: 1852  LLC: 2048
rand_sets[30]: 1852
Assign rand_sets[31]: 1881  LLC: 2048
rand_sets[31]: 1881
Assign rand_sets[32]: 1770  LLC: 2048
rand_sets[32]: 1770
Assign rand_sets[33]: 1622  LLC: 2048
rand_sets[33]: 1622
Assign rand_sets[34]: 275  LLC: 2048
rand_sets[34]: 275
Assign rand_sets[35]: 635  LLC: 2048
rand_sets[35]: 635
Assign rand_sets[36]: 466  LLC: 2048
rand_sets[36]: 466
Assign rand_sets[37]: 1413  LLC: 2048
rand_sets[37]: 1413
Assign rand_sets[38]: 417  LLC: 2048
rand_sets[38]: 417
Assign rand_sets[39]: 472  LLC: 2048
rand_sets[39]: 472
Assign rand_sets[40]: 1340  LLC: 2048
rand_sets[40]: 1340
Assign rand_sets[41]: 852  LLC: 2048
rand_sets[41]: 852
Assign rand_sets[42]: 1365  LLC: 2048
rand_sets[42]: 1365
Assign rand_sets[43]: 47  LLC: 2048
rand_sets[43]: 47
Assign rand_sets[44]: 823  LLC: 2048
rand_sets[44]: 823
Assign rand_sets[45]: 686  LLC: 2048
rand_sets[45]: 686
Assign rand_sets[46]: 1637  LLC: 2048
rand_sets[46]: 1637
Assign rand_sets[47]: 1115  LLC: 2048
rand_sets[47]: 1115
Assign rand_sets[48]: 986  LLC: 2048
rand_sets[48]: 986
Assign rand_sets[49]: 258  LLC: 2048
rand_sets[49]: 258
Assign rand_sets[50]: 633  LLC: 2048
rand_sets[50]: 633
Assign rand_sets[51]: 920  LLC: 2048
rand_sets[51]: 920
Assign rand_sets[52]: 204  LLC: 2048
rand_sets[52]: 204
Assign rand_sets[53]: 227  LLC: 2048
rand_sets[53]: 227
Assign rand_sets[54]: 1818  LLC: 2048
rand_sets[54]: 1818
Assign rand_sets[55]: 886  LLC: 2048
rand_sets[55]: 886
Assign rand_sets[56]: 1422  LLC: 2048
rand_sets[56]: 1422
Assign rand_sets[57]: 607  LLC: 2048
rand_sets[57]: 607
Assign rand_sets[58]: 217  LLC: 2048
rand_sets[58]: 217
Assign rand_sets[59]: 1945  LLC: 2048
rand_sets[59]: 1945
Assign rand_sets[60]: 143  LLC: 2048
rand_sets[60]: 143
Assign rand_sets[61]: 1311  LLC: 2048
rand_sets[61]: 1311
Assign rand_sets[62]: 319  LLC: 2048
rand_sets[62]: 319
Assign rand_sets[63]: 1846  LLC: 2048
rand_sets[63]: 1846
 CLEAN-RRIP-POLICY-1: 1-2-1-3-2-3-0-1- CLEAN-RRIP-POLICY-2: 1-2-1-3-2-3-0-1-
 DIRTY-RRIP-POLICY-1: 2-2-1-3-0-3-1-1- DIRTY-RRIP-POLICY-2: 2-2-1-3-0-3-1-1-
 PSEL width: 10
Heartbeat CPU 0 instructions: 10000001 cycles: 4387130 heartbeat IPC: 2.27939 cumulative IPC: 2.27939 (Simulation time: 0 hr 0 min 14 sec) 
Heartbeat CPU 0 instructions: 20000000 cycles: 8781292 heartbeat IPC: 2.27575 cumulative IPC: 2.27757 (Simulation time: 0 hr 0 min 28 sec) 
Heartbeat CPU 0 instructions: 30000003 cycles: 13213236 heartbeat IPC: 2.25635 cumulative IPC: 2.27045 (Simulation time: 0 hr 0 min 43 sec) 
Heartbeat CPU 0 instructions: 40000000 cycles: 17643889 heartbeat IPC: 2.257 cumulative IPC: 2.26707 (Simulation time: 0 hr 0 min 56 sec) 
Heartbeat CPU 0 instructions: 50000000 cycles: 22052163 heartbeat IPC: 2.26846 cumulative IPC: 2.26735 (Simulation time: 0 hr 1 min 10 sec) 
Heartbeat CPU 0 instructions: 60000000 cycles: 26457891 heartbeat IPC: 2.26977 cumulative IPC: 2.26775 (Simulation time: 0 hr 1 min 24 sec) 
Heartbeat CPU 0 instructions: 70000000 cycles: 30858754 heartbeat IPC: 2.27228 cumulative IPC: 2.2684 (Simulation time: 0 hr 1 min 38 sec) 
Heartbeat CPU 0 instructions: 80000000 cycles: 35254369 heartbeat IPC: 2.27499 cumulative IPC: 2.26922 (Simulation time: 0 hr 1 min 52 sec) 
Heartbeat CPU 0 instructions: 90000000 cycles: 39648681 heartbeat IPC: 2.27567 cumulative IPC: 2.26994 (Simulation time: 0 hr 2 min 6 sec) 
Heartbeat CPU 0 instructions: 100000000 cycles: 44046034 heartbeat IPC: 2.2741 cumulative IPC: 2.27035 (Simulation time: 0 hr 2 min 20 sec) 

Warmup complete CPU 0 instructions: 100000002 cycles: 44046044 (Simulation time: 0 hr 2 min 20 sec) 

Heartbeat CPU 0 instructions: 110000000 cycles: 54618141 heartbeat IPC: 0.945885 cumulative IPC: 0.945886 (Simulation time: 0 hr 2 min 38 sec) 
Heartbeat CPU 0 instructions: 120000000 cycles: 64329797 heartbeat IPC: 1.02969 cumulative IPC: 0.986011 (Simulation time: 0 hr 2 min 56 sec) 
Heartbeat CPU 0 instructions: 130000000 cycles: 73927513 heartbeat IPC: 1.04191 cumulative IPC: 1.00397 (Simulation time: 0 hr 3 min 14 sec) 
Heartbeat CPU 0 instructions: 140000000 cycles: 83746400 heartbeat IPC: 1.01845 cumulative IPC: 1.00755 (Simulation time: 0 hr 3 min 32 sec) 
Heartbeat CPU 0 instructions: 150000000 cycles: 94650511 heartbeat IPC: 0.917085 cumulative IPC: 0.988055 (Simulation time: 0 hr 3 min 50 sec) 
Heartbeat CPU 0 instructions: 160000000 cycles: 104725744 heartbeat IPC: 0.992533 cumulative IPC: 0.988798 (Simulation time: 0 hr 4 min 8 sec) 
Heartbeat CPU 0 instructions: 170000003 cycles: 114729464 heartbeat IPC: 0.999628 cumulative IPC: 0.990331 (Simulation time: 0 hr 4 min 26 sec) 
Heartbeat CPU 0 instructions: 180000000 cycles: 124734293 heartbeat IPC: 0.999517 cumulative IPC: 0.99147 (Simulation time: 0 hr 4 min 44 sec) 
Heartbeat CPU 0 instructions: 190000002 cycles: 134886659 heartbeat IPC: 0.984992 cumulative IPC: 0.990746 (Simulation time: 0 hr 5 min 1 sec) 
Heartbeat CPU 0 instructions: 200000000 cycles: 144643273 heartbeat IPC: 1.02495 cumulative IPC: 0.994063 (Simulation time: 0 hr 5 min 19 sec) 
Heartbeat CPU 0 instructions: 210000000 cycles: 154675033 heartbeat IPC: 0.996834 cumulative IPC: 0.994314 (Simulation time: 0 hr 5 min 37 sec) 
Heartbeat CPU 0 instructions: 220000000 cycles: 164259459 heartbeat IPC: 1.04336 cumulative IPC: 0.998225 (Simulation time: 0 hr 5 min 55 sec) 
Heartbeat CPU 0 instructions: 230000001 cycles: 176732257 heartbeat IPC: 0.801745 cumulative IPC: 0.979755 (Simulation time: 0 hr 6 min 15 sec) 
Heartbeat CPU 0 instructions: 240000000 cycles: 187321225 heartbeat IPC: 0.944379 cumulative IPC: 0.977141 (Simulation time: 0 hr 6 min 33 sec) 
Heartbeat CPU 0 instructions: 250000002 cycles: 197362843 heartbeat IPC: 0.995856 cumulative IPC: 0.978366 (Simulation time: 0 hr 6 min 50 sec) 
Heartbeat CPU 0 instructions: 260000000 cycles: 207220467 heartbeat IPC: 1.01444 cumulative IPC: 0.980546 (Simulation time: 0 hr 7 min 8 sec) 
Heartbeat CPU 0 instructions: 270000001 cycles: 217038894 heartbeat IPC: 1.01849 cumulative IPC: 0.9827 (Simulation time: 0 hr 7 min 26 sec) 
Heartbeat CPU 0 instructions: 280000000 cycles: 227097204 heartbeat IPC: 0.994203 cumulative IPC: 0.983332 (Simulation time: 0 hr 7 min 44 sec) 
Heartbeat CPU 0 instructions: 290000002 cycles: 236700386 heartbeat IPC: 1.04132 cumulative IPC: 0.986222 (Simulation time: 0 hr 8 min 1 sec) 
Heartbeat CPU 0 instructions: 300000000 cycles: 246616606 heartbeat IPC: 1.00845 cumulative IPC: 0.98731 (Simulation time: 0 hr 8 min 19 sec) 
Heartbeat CPU 0 instructions: 310000000 cycles: 256139773 heartbeat IPC: 1.05007 cumulative IPC: 0.990128 (Simulation time: 0 hr 8 min 37 sec) 
Heartbeat CPU 0 instructions: 320000000 cycles: 265709609 heartbeat IPC: 1.04495 cumulative IPC: 0.992495 (Simulation time: 0 hr 8 min 55 sec) 
Heartbeat CPU 0 instructions: 330000003 cycles: 275361328 heartbeat IPC: 1.03609 cumulative IPC: 0.994314 (Simulation time: 0 hr 9 min 13 sec) 
Heartbeat CPU 0 instructions: 340000000 cycles: 285480232 heartbeat IPC: 0.988249 cumulative IPC: 0.99406 (Simulation time: 0 hr 9 min 31 sec) 
Heartbeat CPU 0 instructions: 350000000 cycles: 295673414 heartbeat IPC: 0.981048 cumulative IPC: 0.993533 (Simulation time: 0 hr 9 min 49 sec) 
Heartbeat CPU 0 instructions: 360000000 cycles: 305526052 heartbeat IPC: 1.01496 cumulative IPC: 0.99434 (Simulation time: 0 hr 10 min 6 sec) 
Heartbeat CPU 0 instructions: 370000002 cycles: 315259291 heartbeat IPC: 1.02741 cumulative IPC: 0.995527 (Simulation time: 0 hr 10 min 24 sec) 
Heartbeat CPU 0 instructions: 380000000 cycles: 325006507 heartbeat IPC: 1.02593 cumulative IPC: 0.996581 (Simulation time: 0 hr 10 min 41 sec) 
Heartbeat CPU 0 instructions: 390000002 cycles: 334598570 heartbeat IPC: 1.04253 cumulative IPC: 0.998098 (Simulation time: 0 hr 10 min 59 sec) 
Heartbeat CPU 0 instructions: 400000000 cycles: 344488507 heartbeat IPC: 1.01113 cumulative IPC: 0.998527 (Simulation time: 0 hr 11 min 17 sec) 
Heartbeat CPU 0 instructions: 410000000 cycles: 353988325 heartbeat IPC: 1.05265 cumulative IPC: 1.00019 (Simulation time: 0 hr 11 min 35 sec) 
Heartbeat CPU 0 instructions: 420000000 cycles: 365234799 heartbeat IPC: 0.889168 cumulative IPC: 0.996299 (Simulation time: 0 hr 11 min 53 sec) 
Heartbeat CPU 0 instructions: 430000000 cycles: 376156157 heartbeat IPC: 0.915637 cumulative IPC: 0.993646 (Simulation time: 0 hr 12 min 11 sec) 
Heartbeat CPU 0 instructions: 440000000 cycles: 386247619 heartbeat IPC: 0.990937 cumulative IPC: 0.993566 (Simulation time: 0 hr 12 min 29 sec) 
Heartbeat CPU 0 instructions: 450000000 cycles: 396303897 heartbeat IPC: 0.994404 cumulative IPC: 0.99359 (Simulation time: 0 hr 12 min 47 sec) 
Heartbeat CPU 0 instructions: 460000000 cycles: 406381985 heartbeat IPC: 0.992252 cumulative IPC: 0.993553 (Simulation time: 0 hr 13 min 4 sec) 
Heartbeat CPU 0 instructions: 470000001 cycles: 416534917 heartbeat IPC: 0.984937 cumulative IPC: 0.993318 (Simulation time: 0 hr 13 min 22 sec) 
Heartbeat CPU 0 instructions: 480000000 cycles: 426261104 heartbeat IPC: 1.02815 cumulative IPC: 0.994205 (Simulation time: 0 hr 13 min 40 sec) 
Heartbeat CPU 0 instructions: 490000002 cycles: 436332282 heartbeat IPC: 0.992933 cumulative IPC: 0.994172 (Simulation time: 0 hr 13 min 57 sec) 
Heartbeat CPU 0 instructions: 500000000 cycles: 446111444 heartbeat IPC: 1.02258 cumulative IPC: 0.994863 (Simulation time: 0 hr 14 min 15 sec) 
Heartbeat CPU 0 instructions: 510000000 cycles: 455713039 heartbeat IPC: 1.04149 cumulative IPC: 0.995951 (Simulation time: 0 hr 14 min 33 sec) 
Heartbeat CPU 0 instructions: 520000000 cycles: 465467563 heartbeat IPC: 1.02517 cumulative IPC: 0.996627 (Simulation time: 0 hr 14 min 50 sec) 
Heartbeat CPU 0 instructions: 530000001 cycles: 475843509 heartbeat IPC: 0.963768 cumulative IPC: 0.995837 (Simulation time: 0 hr 15 min 8 sec) 
Heartbeat CPU 0 instructions: 540000000 cycles: 486218563 heartbeat IPC: 0.96385 cumulative IPC: 0.995087 (Simulation time: 0 hr 15 min 26 sec) 
Heartbeat CPU 0 instructions: 550000003 cycles: 496280578 heartbeat IPC: 0.993837 cumulative IPC: 0.995059 (Simulation time: 0 hr 15 min 43 sec) 
Heartbeat CPU 0 instructions: 560000000 cycles: 506212506 heartbeat IPC: 1.00685 cumulative IPC: 0.995312 (Simulation time: 0 hr 16 min 1 sec) 
Heartbeat CPU 0 instructions: 570000002 cycles: 516138276 heartbeat IPC: 1.00748 cumulative IPC: 0.995568 (Simulation time: 0 hr 16 min 18 sec) 
Heartbeat CPU 0 instructions: 580000000 cycles: 525924088 heartbeat IPC: 1.02189 cumulative IPC: 0.996103 (Simulation time: 0 hr 16 min 36 sec) 
Heartbeat CPU 0 instructions: 590000000 cycles: 535946864 heartbeat IPC: 0.997728 cumulative IPC: 0.996136 (Simulation time: 0 hr 16 min 53 sec) 
Heartbeat CPU 0 instructions: 600000000 cycles: 545655841 heartbeat IPC: 1.02997 cumulative IPC: 0.996791 (Simulation time: 0 hr 17 min 11 sec) 
Finished CPU 0 instructions: 500000000 cycles: 501609811 cumulative IPC: 0.996791 (Simulation time: 0 hr 17 min 11 sec) 

CPU 0 Branch Prediction Accuracy: 97.8526% MPKI: 2.66709
Number of Branches: 62099103 Number of Mispredictions: 1333545
Number of LOAD Instructions: 210576465
Number of LOAD Instructions (ROI): 210576465
Number of STORE Instructions: 16915507
Number of STORE Instructions (ROI): 16915507
Total Destination Memory Operands: 16918869
Total Destination Memory Operands (ROI): 16918869
Total Source Memory Operands: 210576465
Total Source Memory Operands (ROI): 210576465
Number of DEPENDED LOADS: 344592
Number of DEPENDED LOADS (ROI): 344592
Number of SQ_ADDED: 16918826
Number of SQ_ADDED (ROI): 16918826
Number of LQ_ADDED: 210609580
Number of LQ_ADDED (ROI): 210609580
Number of Instructions read from trace: 600000257

ChampSim completed all CPUs

Region of Interest Statistics

CPU 0 cumulative IPC: 0.996791 instructions: 500000000 cycles: 501609811
ITLB TOTAL     ACCESS:   76253948  HIT:   76253910  MISS:         38
ITLB LOAD      ACCESS:   76253948  HIT:   76253910  MISS:         38
ITLB RFO       ACCESS:          0  HIT:          0  MISS:          0
ITLB PREFETCH  ACCESS:          0  HIT:          0  MISS:          0
ITLB WRITEBACK ACCESS:          0  HIT:          0  MISS:          0
ITLB PREFETCH  REQUESTED:          0  ISSUED:          0  USEFUL:          0  USELESS:          0
ITLB TOTAL MSHR MERGED:         37
ITLB LOAD MSHR MERGED:         37
ITLB RFO MSHR MERGED:          0
ITLB PREFETCH MSHR MERGED:          0
ITLB WRITEBACK MSHR MERGED:          0
ITLB TOTAL ACCESSES:   76253985 HITS:   76253910 MISSES:         75
ITLB LOAD ACCESSES:   76253985 HITS:   76253910 MISSES:         75
ITLB RFO ACCESSES:          0 HITS:          0 MISSES:          0
ITLB PREFETCH ACCESSES:          0 HITS:          0 MISSES:          0
ITLB WRITEBACK ACCESSES:          0 HITS:          0 MISSES:          0
ITLB RQ ACCESS:  500000188
ITLB RQ TO_CACHE:   76253986
ITLB RQ MERGED:  423746202
ITLB RQ FORWARD:          0
ITLB WQ ACCESS:          0
ITLB WQ TO_CACHE:          0
ITLB WQ MERGED:          0
ITLB WQ FORWARD:          0
DTLB TOTAL     ACCESS:  136877584  HIT:  136674791  MISS:     202793
DTLB LOAD      ACCESS:  128814929  HIT:  128614857  MISS:     200072
DTLB RFO       ACCESS:    8062655  HIT:    8059934  MISS:       2721
DTLB PREFETCH  ACCESS:          0  HIT:          0  MISS:          0
DTLB WRITEBACK ACCESS:          0  HIT:          0  MISS:          0
DTLB PREFETCH  REQUESTED:          0  ISSUED:          0  USEFUL:          0  USELESS:          0
DTLB TOTAL MSHR MERGED:     447123
DTLB LOAD MSHR MERGED:     443573
DTLB RFO MSHR MERGED:       3550
DTLB PREFETCH MSHR MERGED:          0
DTLB WRITEBACK MSHR MERGED:          0
DTLB TOTAL ACCESSES:  137324707 HITS:  136674791 MISSES:     649916
DTLB LOAD ACCESSES:  129258502 HITS:  128614857 MISSES:     643645
DTLB RFO ACCESSES:    8066205 HITS:    8059934 MISSES:       6271
DTLB PREFETCH ACCESSES:          0 HITS:          0 MISSES:          0
DTLB WRITEBACK ACCESSES:          0 HITS:          0 MISSES:          0
DTLB RQ ACCESS:  189419977
DTLB RQ TO_CACHE:  137324707
DTLB RQ MERGED:   52095270
DTLB RQ FORWARD:          0
DTLB WQ ACCESS:          0
DTLB WQ TO_CACHE:          0
DTLB WQ MERGED:          0
DTLB WQ FORWARD:          0
L1D TOTAL     ACCESS:  125484769  HIT:  107927883  MISS:   17556886
L1D LOAD      ACCESS:   72326609  HIT:   62067191  MISS:   10259418
L1D RFO       ACCESS:   14012678  HIT:   13859840  MISS:     152838
L1D PREFETCH  ACCESS:   39145482  HIT:   32000852  MISS:    7144630
L1D WRITEBACK ACCESS:          0  HIT:          0  MISS:          0
L1D PREFETCH  REQUESTED:   85578263  ISSUED:   84256051  USEFUL:    5885369  USELESS:    1259272
L1D TOTAL MSHR MERGED:   31482660
L1D LOAD MSHR MERGED:   18407550
L1D RFO MSHR MERGED:     268282
L1D PREFETCH MSHR MERGED:   12806828
L1D WRITEBACK MSHR MERGED:          0
L1D TOTAL ACCESSES:  156967945 HITS:  107928400 MISSES:   49039545
L1D LOAD ACCESSES:   85578290 HITS:   62067218 MISSES:   23511072
L1D RFO ACCESSES:   14280933 HITS:   13859840 MISSES:     421093
L1D PREFETCH ACCESSES:   57108722 HITS:   32001342 MISSES:   25107380
L1D WRITEBACK ACCESSES:          0 HITS:          0 MISSES:          0
L1D RQ ACCESS:  175130955
L1D RQ TO_CACHE:   85578263
L1D RQ MERGED:   89552665
L1D RQ FORWARD:          0
L1D WQ ACCESS:   14289037
L1D WQ TO_CACHE:   14280933
L1D WQ MERGED:       8104
L1D WQ FORWARD:        517
L1I TOTAL     ACCESS:   93275919  HIT:   93274123  MISS:       1796
L1I LOAD      ACCESS:   93275919  HIT:   93274123  MISS:       1796
L1I RFO       ACCESS:          0  HIT:          0  MISS:          0
L1I PREFETCH  ACCESS:          0  HIT:          0  MISS:          0
L1I WRITEBACK ACCESS:          0  HIT:          0  MISS:          0
L1I PREFETCH  REQUESTED:          0  ISSUED:          0  USEFUL:          0  USELESS:          0
L1I TOTAL MSHR MERGED:       2316
L1I LOAD MSHR MERGED:       2316
L1I RFO MSHR MERGED:          0
L1I PREFETCH MSHR MERGED:          0
L1I WRITEBACK MSHR MERGED:          0
L1I TOTAL ACCESSES:   93278235 HITS:   93274123 MISSES:       4112
L1I LOAD ACCESSES:   93278235 HITS:   93274123 MISSES:       4112
L1I RFO ACCESSES:          0 HITS:          0 MISSES:          0
L1I PREFETCH ACCESSES:          0 HITS:          0 MISSES:          0
L1I WRITEBACK ACCESSES:          0 HITS:          0 MISSES:          0
L1I RQ ACCESS:  500000187
L1I RQ TO_CACHE:   93278235
L1I RQ MERGED:  406721952
L1I RQ FORWARD:          0
L1I WQ ACCESS:          0
L1I WQ TO_CACHE:          0
L1I WQ MERGED:          0
L1I WQ FORWARD:          0
L2C TOTAL     ACCESS:   20889263  HIT:    8659915  MISS:   12229348
L2C LOAD      ACCESS:    5105297  HIT:    2138477  MISS:    2966820
L2C RFO       ACCESS:     152811  HIT:       6509  MISS:     146302
L2C PREFETCH  ACCESS:   13858399  HIT:    4742281  MISS:    9116118
L2C WRITEBACK ACCESS:    1772756  HIT:    1772648  MISS:        108
L2C PREFETCH  REQUESTED:    1801574  ISSUED:    1801574  USEFUL:    1068233  USELESS:    8049494
L2C TOTAL MSHR MERGED:      97983
L2C LOAD MSHR MERGED:      23072
L2C RFO MSHR MERGED:          0
L2C PREFETCH MSHR MERGED:      74911
L2C WRITEBACK MSHR MERGED:          0
L2C TOTAL ACCESSES:   21020806 HITS:    8659953 MISSES:   12360853
L2C LOAD ACCESSES:    5105318 HITS:    2138498 MISSES:    2966820
L2C RFO ACCESSES:     152811 HITS:       6509 MISSES:     146302
L2C PREFETCH ACCESSES:   13989921 HITS:    4742298 MISSES:    9247623
L2C WRITEBACK ACCESSES:    1772756 HITS:    1772648 MISSES:        108
L2C RQ ACCESS:    5258129
L2C RQ TO_CACHE:    5258108
L2C RQ MERGED:          0
L2C RQ FORWARD:          0
L2C WQ ACCESS:    1772756
L2C WQ TO_CACHE:    1772756
L2C WQ MERGED:          0
L2C WQ FORWARD:         38
LLC TOTAL     ACCESS:   12536940  HIT:    6465508  MISS:    6071432
LLC LOAD      ACCESS:    2943723  HIT:    2444618  MISS:     499105
LLC RFO       ACCESS:     146302  HIT:      38205  MISS:     108097
LLC PREFETCH  ACCESS:    9160933  HIT:    3798886  MISS:    5362047
LLC WRITEBACK ACCESS:     285982  HIT:     183799  MISS:     102183
LLC PREFETCH  REQUESTED:          0  ISSUED:          0  USEFUL:      21547  USELESS:    5341065
LLC TOTAL MSHR MERGED:       5948
LLC LOAD MSHR MERGED:       1715
LLC RFO MSHR MERGED:          0
LLC PREFETCH MSHR MERGED:       4233
LLC WRITEBACK MSHR MERGED:          0
LLC TOTAL ACCESSES:   12542926 HITS:    6465546 MISSES:    6077380
LLC LOAD ACCESSES:    2943748 HITS:    2444643 MISSES:     499105
LLC RFO ACCESSES:     146302 HITS:      38205 MISSES:     108097
LLC PREFETCH ACCESSES:    9166894 HITS:    3798899 MISSES:    5367995
LLC WRITEBACK ACCESSES:     285982 HITS:     183799 MISSES:     102183
LLC 0 RQ ACCESS:    3090050
LLC 0 RQ TO_CACHE:    3090025
LLC 0 RQ MERGED:          0
LLC 0 RQ FORWARD:          0
LLC WQ ACCESS:     285982
LLC WQ TO_CACHE:     285982
LLC WQ MERGED:          0
LLC WQ FORWARD:         38
Major fault: 0 Minor fault: 6524
CPU 0 L1D next line prefetcher final stats
CPU 0 L2C PC-based stride prefetcher final stats
All Misses: 7889781
All Hits: 7172172
SD Algo Stats - Switches: 0 SRR-Repls: 530924 BRR-Repls: 0

DRAM Statistics
 CHANNEL 0
 RQ ROW_BUFFER_HIT:    5051780  ROW_BUFFER_MISS:     904733
 DBUS_CONGESTED:    2073654
 WQ ROW_BUFFER_HIT:      37607  ROW_BUFFER_MISS:     128315  FULL:          0

 AVG_CONGESTED_CYCLE: 12
LOADS RETIRED: 175418235
INSTR RETIRED: 500000000
