
*** ChampSim Multicore Out-of-Order Simulator ***

Warmup Instructions: 100000000
Simulation Instructions: 500000000
Number of CPUs: 1
LLC sets: 2048
LLC ways: 16
Clean RRIP Policies: 2213230222132302 Dirty RRIP Policies: 1203130212031302 PSEL Width: 10 Track Set: 4294967295 PSEL Mask: 1 Demote Mask: 40100000401000DS Algo: 0Window size: 0
Off-chip DRAM Size: 4096 MB Channels: 1 Width: 64-bit Data Rate: 1600 MT/s

CPU 0 runs /mnt/beegfs/iconst01/spec2017/cactuBSSN.trace.gz
NOT SORTED
TRACE STRING: /mnt/beegfs/iconst01/spec2017/cactuBSSN.trace.gz
SORTED
TRACE STRING: /mnt/beegfs/iconst01/spec2017/cactuBSSN.trace.gz
INITIAL
TRACE STRING: /mnt/beegfs/iconst01/spec2017/cactuBSSN.trace.gz

champsim_seed used: 838

CPU 0 L1D next line prefetcher
CPU 0 L2C IP-based stride prefetcher
Initialize DRRIP state
Assign rand_sets[0]: 454  LLC: 2048
rand_sets[0]: 454
Assign rand_sets[1]: 1662  LLC: 2048
rand_sets[1]: 1662
Assign rand_sets[2]: 1921  LLC: 2048
rand_sets[2]: 1921
Assign rand_sets[3]: 1131  LLC: 2048
rand_sets[3]: 1131
Assign rand_sets[4]: 331  LLC: 2048
rand_sets[4]: 331
Assign rand_sets[5]: 1531  LLC: 2048
rand_sets[5]: 1531
Assign rand_sets[6]: 482  LLC: 2048
rand_sets[6]: 482
Assign rand_sets[7]: 1275  LLC: 2048
rand_sets[7]: 1275
Assign rand_sets[8]: 1876  LLC: 2048
rand_sets[8]: 1876
Assign rand_sets[9]: 2038  LLC: 2048
rand_sets[9]: 2038
Assign rand_sets[10]: 701  LLC: 2048
rand_sets[10]: 701
Assign rand_sets[11]: 479  LLC: 2048
rand_sets[11]: 479
Assign rand_sets[12]: 892  LLC: 2048
rand_sets[12]: 892
Assign rand_sets[13]: 1820  LLC: 2048
rand_sets[13]: 1820
Assign rand_sets[14]: 1505  LLC: 2048
rand_sets[14]: 1505
Assign rand_sets[15]: 1159  LLC: 2048
rand_sets[15]: 1159
Assign rand_sets[16]: 513  LLC: 2048
rand_sets[16]: 513
Assign rand_sets[17]: 703  LLC: 2048
rand_sets[17]: 703
Assign rand_sets[18]: 561  LLC: 2048
rand_sets[18]: 561
Assign rand_sets[19]: 990  LLC: 2048
rand_sets[19]: 990
Assign rand_sets[20]: 342  LLC: 2048
rand_sets[20]: 342
Assign rand_sets[21]: 882  LLC: 2048
rand_sets[21]: 882
Assign rand_sets[22]: 15  LLC: 2048
rand_sets[22]: 15
Assign rand_sets[23]: 71  LLC: 2048
rand_sets[23]: 71
Assign rand_sets[24]: 1127  LLC: 2048
rand_sets[24]: 1127
Assign rand_sets[25]: 1382  LLC: 2048
rand_sets[25]: 1382
Assign rand_sets[26]: 647  LLC: 2048
rand_sets[26]: 647
Assign rand_sets[27]: 857  LLC: 2048
rand_sets[27]: 857
Assign rand_sets[28]: 1450  LLC: 2048
rand_sets[28]: 1450
Assign rand_sets[29]: 1160  LLC: 2048
rand_sets[29]: 1160
Assign rand_sets[30]: 1852  LLC: 2048
rand_sets[30]: 1852
Assign rand_sets[31]: 1881  LLC: 2048
rand_sets[31]: 1881
Assign rand_sets[32]: 1770  LLC: 2048
rand_sets[32]: 1770
Assign rand_sets[33]: 1622  LLC: 2048
rand_sets[33]: 1622
Assign rand_sets[34]: 275  LLC: 2048
rand_sets[34]: 275
Assign rand_sets[35]: 635  LLC: 2048
rand_sets[35]: 635
Assign rand_sets[36]: 466  LLC: 2048
rand_sets[36]: 466
Assign rand_sets[37]: 1413  LLC: 2048
rand_sets[37]: 1413
Assign rand_sets[38]: 417  LLC: 2048
rand_sets[38]: 417
Assign rand_sets[39]: 472  LLC: 2048
rand_sets[39]: 472
Assign rand_sets[40]: 1340  LLC: 2048
rand_sets[40]: 1340
Assign rand_sets[41]: 852  LLC: 2048
rand_sets[41]: 852
Assign rand_sets[42]: 1365  LLC: 2048
rand_sets[42]: 1365
Assign rand_sets[43]: 47  LLC: 2048
rand_sets[43]: 47
Assign rand_sets[44]: 823  LLC: 2048
rand_sets[44]: 823
Assign rand_sets[45]: 686  LLC: 2048
rand_sets[45]: 686
Assign rand_sets[46]: 1637  LLC: 2048
rand_sets[46]: 1637
Assign rand_sets[47]: 1115  LLC: 2048
rand_sets[47]: 1115
Assign rand_sets[48]: 986  LLC: 2048
rand_sets[48]: 986
Assign rand_sets[49]: 258  LLC: 2048
rand_sets[49]: 258
Assign rand_sets[50]: 633  LLC: 2048
rand_sets[50]: 633
Assign rand_sets[51]: 920  LLC: 2048
rand_sets[51]: 920
Assign rand_sets[52]: 204  LLC: 2048
rand_sets[52]: 204
Assign rand_sets[53]: 227  LLC: 2048
rand_sets[53]: 227
Assign rand_sets[54]: 1818  LLC: 2048
rand_sets[54]: 1818
Assign rand_sets[55]: 886  LLC: 2048
rand_sets[55]: 886
Assign rand_sets[56]: 1422  LLC: 2048
rand_sets[56]: 1422
Assign rand_sets[57]: 607  LLC: 2048
rand_sets[57]: 607
Assign rand_sets[58]: 217  LLC: 2048
rand_sets[58]: 217
Assign rand_sets[59]: 1945  LLC: 2048
rand_sets[59]: 1945
Assign rand_sets[60]: 143  LLC: 2048
rand_sets[60]: 143
Assign rand_sets[61]: 1311  LLC: 2048
rand_sets[61]: 1311
Assign rand_sets[62]: 319  LLC: 2048
rand_sets[62]: 319
Assign rand_sets[63]: 1846  LLC: 2048
rand_sets[63]: 1846
 CLEAN-RRIP-POLICY-1: 2-2-1-3-2-3-0-2- CLEAN-RRIP-POLICY-2: 2-2-1-3-2-3-0-2-
 DIRTY-RRIP-POLICY-1: 1-2-0-3-1-3-0-2- DIRTY-RRIP-POLICY-2: 1-2-0-3-1-3-0-2-
 PSEL width: 10
Heartbeat CPU 0 instructions: 10000000 cycles: 6588002 heartbeat IPC: 1.51791 cumulative IPC: 1.51791 (Simulation time: 0 hr 0 min 24 sec) 
Heartbeat CPU 0 instructions: 20000000 cycles: 13179589 heartbeat IPC: 1.51709 cumulative IPC: 1.5175 (Simulation time: 0 hr 0 min 49 sec) 
Heartbeat CPU 0 instructions: 30000003 cycles: 19772907 heartbeat IPC: 1.51669 cumulative IPC: 1.51723 (Simulation time: 0 hr 1 min 14 sec) 
Heartbeat CPU 0 instructions: 40000000 cycles: 26364655 heartbeat IPC: 1.51705 cumulative IPC: 1.51718 (Simulation time: 0 hr 1 min 39 sec) 
Heartbeat CPU 0 instructions: 50000001 cycles: 32957329 heartbeat IPC: 1.51684 cumulative IPC: 1.51711 (Simulation time: 0 hr 2 min 4 sec) 
Heartbeat CPU 0 instructions: 60000000 cycles: 39556140 heartbeat IPC: 1.51542 cumulative IPC: 1.51683 (Simulation time: 0 hr 2 min 30 sec) 
Heartbeat CPU 0 instructions: 70000003 cycles: 46154505 heartbeat IPC: 1.51553 cumulative IPC: 1.51665 (Simulation time: 0 hr 2 min 55 sec) 
Heartbeat CPU 0 instructions: 80000000 cycles: 52752557 heartbeat IPC: 1.5156 cumulative IPC: 1.51651 (Simulation time: 0 hr 3 min 20 sec) 
Heartbeat CPU 0 instructions: 90000002 cycles: 59348235 heartbeat IPC: 1.51614 cumulative IPC: 1.51647 (Simulation time: 0 hr 3 min 45 sec) 
Heartbeat CPU 0 instructions: 100000000 cycles: 65943294 heartbeat IPC: 1.51629 cumulative IPC: 1.51645 (Simulation time: 0 hr 4 min 10 sec) 

Warmup complete CPU 0 instructions: 100000002 cycles: 65943295 (Simulation time: 0 hr 4 min 10 sec) 

Heartbeat CPU 0 instructions: 110000000 cycles: 79187273 heartbeat IPC: 0.75506 cumulative IPC: 0.75506 (Simulation time: 0 hr 4 min 41 sec) 
Heartbeat CPU 0 instructions: 120000000 cycles: 92389307 heartbeat IPC: 0.757459 cumulative IPC: 0.756258 (Simulation time: 0 hr 5 min 11 sec) 
Heartbeat CPU 0 instructions: 130000001 cycles: 105660810 heartbeat IPC: 0.753494 cumulative IPC: 0.755334 (Simulation time: 0 hr 5 min 42 sec) 
Heartbeat CPU 0 instructions: 140000000 cycles: 118834386 heartbeat IPC: 0.759095 cumulative IPC: 0.756271 (Simulation time: 0 hr 6 min 13 sec) 
Heartbeat CPU 0 instructions: 150000001 cycles: 132021461 heartbeat IPC: 0.758318 cumulative IPC: 0.75668 (Simulation time: 0 hr 6 min 43 sec) 
Heartbeat CPU 0 instructions: 160000000 cycles: 145255400 heartbeat IPC: 0.755633 cumulative IPC: 0.756505 (Simulation time: 0 hr 7 min 14 sec) 
Heartbeat CPU 0 instructions: 170000000 cycles: 158470943 heartbeat IPC: 0.756685 cumulative IPC: 0.756531 (Simulation time: 0 hr 7 min 45 sec) 
Heartbeat CPU 0 instructions: 180000000 cycles: 171674431 heartbeat IPC: 0.757376 cumulative IPC: 0.756636 (Simulation time: 0 hr 8 min 15 sec) 
Heartbeat CPU 0 instructions: 190000000 cycles: 184837474 heartbeat IPC: 0.759703 cumulative IPC: 0.756976 (Simulation time: 0 hr 8 min 46 sec) 
Heartbeat CPU 0 instructions: 200000000 cycles: 198094100 heartbeat IPC: 0.75434 cumulative IPC: 0.756711 (Simulation time: 0 hr 9 min 17 sec) 
Heartbeat CPU 0 instructions: 210000002 cycles: 211301775 heartbeat IPC: 0.757136 cumulative IPC: 0.75675 (Simulation time: 0 hr 9 min 47 sec) 
Heartbeat CPU 0 instructions: 220000000 cycles: 224473593 heartbeat IPC: 0.759197 cumulative IPC: 0.756953 (Simulation time: 0 hr 10 min 18 sec) 
Heartbeat CPU 0 instructions: 230000003 cycles: 237716734 heartbeat IPC: 0.755108 cumulative IPC: 0.756811 (Simulation time: 0 hr 10 min 48 sec) 
Heartbeat CPU 0 instructions: 240000000 cycles: 250902695 heartbeat IPC: 0.758382 cumulative IPC: 0.756923 (Simulation time: 0 hr 11 min 19 sec) 
Heartbeat CPU 0 instructions: 250000001 cycles: 264125336 heartbeat IPC: 0.756279 cumulative IPC: 0.75688 (Simulation time: 0 hr 11 min 50 sec) 
Heartbeat CPU 0 instructions: 260000000 cycles: 277340560 heartbeat IPC: 0.756703 cumulative IPC: 0.756869 (Simulation time: 0 hr 12 min 20 sec) 
Heartbeat CPU 0 instructions: 270000003 cycles: 290583319 heartbeat IPC: 0.75513 cumulative IPC: 0.756766 (Simulation time: 0 hr 12 min 51 sec) 
Heartbeat CPU 0 instructions: 280000000 cycles: 303786773 heartbeat IPC: 0.757377 cumulative IPC: 0.7568 (Simulation time: 0 hr 13 min 21 sec) 
Heartbeat CPU 0 instructions: 290000000 cycles: 316958501 heartbeat IPC: 0.759202 cumulative IPC: 0.756926 (Simulation time: 0 hr 13 min 51 sec) 
Heartbeat CPU 0 instructions: 300000000 cycles: 330214174 heartbeat IPC: 0.754394 cumulative IPC: 0.756799 (Simulation time: 0 hr 14 min 21 sec) 
Heartbeat CPU 0 instructions: 310000001 cycles: 343390412 heartbeat IPC: 0.758942 cumulative IPC: 0.756901 (Simulation time: 0 hr 14 min 51 sec) 
Heartbeat CPU 0 instructions: 320000000 cycles: 356585424 heartbeat IPC: 0.757862 cumulative IPC: 0.756945 (Simulation time: 0 hr 15 min 22 sec) 
Heartbeat CPU 0 instructions: 330000002 cycles: 369782428 heartbeat IPC: 0.757748 cumulative IPC: 0.75698 (Simulation time: 0 hr 15 min 52 sec) 
Heartbeat CPU 0 instructions: 340000000 cycles: 383020609 heartbeat IPC: 0.755391 cumulative IPC: 0.756913 (Simulation time: 0 hr 16 min 21 sec) 
Heartbeat CPU 0 instructions: 350000000 cycles: 396267693 heartbeat IPC: 0.754883 cumulative IPC: 0.756832 (Simulation time: 0 hr 16 min 51 sec) 
Heartbeat CPU 0 instructions: 360000000 cycles: 409479799 heartbeat IPC: 0.756882 cumulative IPC: 0.756834 (Simulation time: 0 hr 17 min 20 sec) 
Heartbeat CPU 0 instructions: 370000002 cycles: 422757890 heartbeat IPC: 0.75312 cumulative IPC: 0.756696 (Simulation time: 0 hr 17 min 49 sec) 
Heartbeat CPU 0 instructions: 380000000 cycles: 435967074 heartbeat IPC: 0.757049 cumulative IPC: 0.756708 (Simulation time: 0 hr 18 min 18 sec) 
Heartbeat CPU 0 instructions: 390000000 cycles: 449148448 heartbeat IPC: 0.758646 cumulative IPC: 0.756775 (Simulation time: 0 hr 18 min 46 sec) 
Heartbeat CPU 0 instructions: 400000000 cycles: 462343524 heartbeat IPC: 0.757858 cumulative IPC: 0.756811 (Simulation time: 0 hr 19 min 15 sec) 
Heartbeat CPU 0 instructions: 410000001 cycles: 475595041 heartbeat IPC: 0.754631 cumulative IPC: 0.75674 (Simulation time: 0 hr 19 min 44 sec) 
Heartbeat CPU 0 instructions: 420000000 cycles: 488775978 heartbeat IPC: 0.758671 cumulative IPC: 0.756801 (Simulation time: 0 hr 20 min 12 sec) 
Heartbeat CPU 0 instructions: 430000001 cycles: 501958657 heartbeat IPC: 0.758571 cumulative IPC: 0.756854 (Simulation time: 0 hr 20 min 41 sec) 
Heartbeat CPU 0 instructions: 440000000 cycles: 515130113 heartbeat IPC: 0.759217 cumulative IPC: 0.756923 (Simulation time: 0 hr 21 min 10 sec) 
Heartbeat CPU 0 instructions: 450000002 cycles: 528436198 heartbeat IPC: 0.751536 cumulative IPC: 0.756768 (Simulation time: 0 hr 21 min 39 sec) 
Heartbeat CPU 0 instructions: 460000000 cycles: 541655607 heartbeat IPC: 0.756463 cumulative IPC: 0.75676 (Simulation time: 0 hr 22 min 7 sec) 
Heartbeat CPU 0 instructions: 470000003 cycles: 554851674 heartbeat IPC: 0.757802 cumulative IPC: 0.756788 (Simulation time: 0 hr 22 min 36 sec) 
Heartbeat CPU 0 instructions: 480000000 cycles: 568096347 heartbeat IPC: 0.75502 cumulative IPC: 0.756741 (Simulation time: 0 hr 23 min 5 sec) 
Heartbeat CPU 0 instructions: 490000000 cycles: 581304482 heartbeat IPC: 0.757109 cumulative IPC: 0.756751 (Simulation time: 0 hr 23 min 33 sec) 
Heartbeat CPU 0 instructions: 500000000 cycles: 594499006 heartbeat IPC: 0.75789 cumulative IPC: 0.756779 (Simulation time: 0 hr 24 min 2 sec) 
Heartbeat CPU 0 instructions: 510000001 cycles: 607670004 heartbeat IPC: 0.759244 cumulative IPC: 0.756839 (Simulation time: 0 hr 24 min 31 sec) 
Heartbeat CPU 0 instructions: 520000000 cycles: 620952858 heartbeat IPC: 0.75285 cumulative IPC: 0.756744 (Simulation time: 0 hr 24 min 59 sec) 
Heartbeat CPU 0 instructions: 530000000 cycles: 634190767 heartbeat IPC: 0.755406 cumulative IPC: 0.756713 (Simulation time: 0 hr 25 min 28 sec) 
Heartbeat CPU 0 instructions: 540000000 cycles: 647414279 heartbeat IPC: 0.756229 cumulative IPC: 0.756702 (Simulation time: 0 hr 25 min 57 sec) 
Heartbeat CPU 0 instructions: 550000002 cycles: 660671213 heartbeat IPC: 0.754322 cumulative IPC: 0.756649 (Simulation time: 0 hr 26 min 26 sec) 
Heartbeat CPU 0 instructions: 560000000 cycles: 673867347 heartbeat IPC: 0.757798 cumulative IPC: 0.756673 (Simulation time: 0 hr 26 min 54 sec) 
Heartbeat CPU 0 instructions: 570000001 cycles: 687074043 heartbeat IPC: 0.757192 cumulative IPC: 0.756684 (Simulation time: 0 hr 27 min 23 sec) 
Heartbeat CPU 0 instructions: 580000000 cycles: 700272691 heartbeat IPC: 0.757653 cumulative IPC: 0.756705 (Simulation time: 0 hr 27 min 52 sec) 
Heartbeat CPU 0 instructions: 590000003 cycles: 713507132 heartbeat IPC: 0.755605 cumulative IPC: 0.756682 (Simulation time: 0 hr 28 min 20 sec) 
Heartbeat CPU 0 instructions: 600000000 cycles: 726757837 heartbeat IPC: 0.754677 cumulative IPC: 0.756642 (Simulation time: 0 hr 28 min 49 sec) 
Finished CPU 0 instructions: 500000000 cycles: 660814552 cumulative IPC: 0.756642 (Simulation time: 0 hr 28 min 49 sec) 

CPU 0 Branch Prediction Accuracy: 99.968% MPKI: 0.002246
Number of Branches: 3513331 Number of Mispredictions: 1123
Number of LOAD Instructions: 287251172
Number of LOAD Instructions (ROI): 287251172
Number of STORE Instructions: 51060820
Number of STORE Instructions (ROI): 51060820
Total Destination Memory Operands: 51166221
Total Destination Memory Operands (ROI): 51166221
Total Source Memory Operands: 287251172
Total Source Memory Operands (ROI): 287251172
Number of DEPENDED LOADS: 9555500
Number of DEPENDED LOADS (ROI): 9555500
Number of SQ_ADDED: 51166208
Number of SQ_ADDED (ROI): 51166208
Number of LQ_ADDED: 290419964
Number of LQ_ADDED (ROI): 290419964
Number of Instructions read from trace: 600000257

ChampSim completed all CPUs

Region of Interest Statistics

CPU 0 cumulative IPC: 0.756642 instructions: 500000000 cycles: 660814552
ITLB TOTAL     ACCESS:  108950049  HIT:  108950049  MISS:          0
ITLB LOAD      ACCESS:  108950049  HIT:  108950049  MISS:          0
ITLB RFO       ACCESS:          0  HIT:          0  MISS:          0
ITLB PREFETCH  ACCESS:          0  HIT:          0  MISS:          0
ITLB WRITEBACK ACCESS:          0  HIT:          0  MISS:          0
ITLB PREFETCH  REQUESTED:          0  ISSUED:          0  USEFUL:          0  USELESS:          0
ITLB TOTAL MSHR MERGED:          0
ITLB LOAD MSHR MERGED:          0
ITLB RFO MSHR MERGED:          0
ITLB PREFETCH MSHR MERGED:          0
ITLB WRITEBACK MSHR MERGED:          0
ITLB TOTAL ACCESSES:  108950049 HITS:  108950049 MISSES:          0
ITLB LOAD ACCESSES:  108950049 HITS:  108950049 MISSES:          0
ITLB RFO ACCESSES:          0 HITS:          0 MISSES:          0
ITLB PREFETCH ACCESSES:          0 HITS:          0 MISSES:          0
ITLB WRITEBACK ACCESSES:          0 HITS:          0 MISSES:          0
ITLB RQ ACCESS:  500000001
ITLB RQ TO_CACHE:  108950049
ITLB RQ MERGED:  391049952
ITLB RQ FORWARD:          0
ITLB WQ ACCESS:          0
ITLB WQ TO_CACHE:          0
ITLB WQ MERGED:          0
ITLB WQ FORWARD:          0
DTLB TOTAL     ACCESS:  171131164  HIT:  161114842  MISS:   10016322
DTLB LOAD      ACCESS:  143471854  HIT:  135595782  MISS:    7876072
DTLB RFO       ACCESS:   27659310  HIT:   25519060  MISS:    2140250
DTLB PREFETCH  ACCESS:          0  HIT:          0  MISS:          0
DTLB WRITEBACK ACCESS:          0  HIT:          0  MISS:          0
DTLB PREFETCH  REQUESTED:          0  ISSUED:          0  USEFUL:          0  USELESS:          0
DTLB TOTAL MSHR MERGED:     360426
DTLB LOAD MSHR MERGED:     360426
DTLB RFO MSHR MERGED:          0
DTLB PREFETCH MSHR MERGED:          0
DTLB WRITEBACK MSHR MERGED:          0
DTLB TOTAL ACCESSES:  171491590 HITS:  161114842 MISSES:   10376748
DTLB LOAD ACCESSES:  143832280 HITS:  135595782 MISSES:    8236498
DTLB RFO ACCESSES:   27659310 HITS:   25519060 MISSES:    2140250
DTLB PREFETCH ACCESSES:          0 HITS:          0 MISSES:          0
DTLB WRITEBACK ACCESSES:          0 HITS:          0 MISSES:          0
DTLB RQ ACCESS:  274072317
DTLB RQ TO_CACHE:  171491590
DTLB RQ MERGED:  102580727
DTLB RQ FORWARD:          0
DTLB WQ ACCESS:          0
DTLB WQ TO_CACHE:          0
DTLB WQ MERGED:          0
DTLB WQ FORWARD:          0
L1D TOTAL     ACCESS:  350950074  HIT:  283750814  MISS:   67199260
L1D LOAD      ACCESS:  175626887  HIT:  142587660  MISS:   33039227
L1D RFO       ACCESS:   42020042  HIT:   39214521  MISS:    2805521
L1D PREFETCH  ACCESS:  133303145  HIT:  101948633  MISS:   31354512
L1D WRITEBACK ACCESS:          0  HIT:          0  MISS:          0
L1D PREFETCH  REQUESTED:  176230895  ISSUED:  175292584  USEFUL:    2180626  USELESS:   29173888
L1D TOTAL MSHR MERGED:    1482718
L1D LOAD MSHR MERGED:     703954
L1D RFO MSHR MERGED:     349032
L1D PREFETCH MSHR MERGED:     429732
L1D WRITEBACK MSHR MERGED:          0
L1D TOTAL ACCESSES:  352545416 HITS:  283863438 MISSES:   68681978
L1D LOAD ACCESSES:  176237567 HITS:  142594332 MISSES:   33643235
L1D RFO ACCESSES:   42368393 HITS:   39214521 MISSES:    3153872
L1D PREFETCH ACCESSES:  133939456 HITS:  102054585 MISSES:   31884871
L1D WRITEBACK ACCESSES:          0 HITS:          0 MISSES:          0
L1D RQ ACCESS:  231433844
L1D RQ TO_CACHE:  176230895
L1D RQ MERGED:   55196277
L1D RQ FORWARD:          0
L1D WQ ACCESS:   42638475
L1D WQ TO_CACHE:   42368393
L1D WQ MERGED:     270082
L1D WQ FORWARD:     112624
L1I TOTAL     ACCESS:  109343668  HIT:   77827964  MISS:   31515704
L1I LOAD      ACCESS:  109343668  HIT:   77827964  MISS:   31515704
L1I RFO       ACCESS:          0  HIT:          0  MISS:          0
L1I PREFETCH  ACCESS:          0  HIT:          0  MISS:          0
L1I WRITEBACK ACCESS:          0  HIT:          0  MISS:          0
L1I PREFETCH  REQUESTED:          0  ISSUED:          0  USEFUL:          0  USELESS:          0
L1I TOTAL MSHR MERGED:   30750368
L1I LOAD MSHR MERGED:   30750368
L1I RFO MSHR MERGED:          0
L1I PREFETCH MSHR MERGED:          0
L1I WRITEBACK MSHR MERGED:          0
L1I TOTAL ACCESSES:  140094038 HITS:   77827964 MISSES:   62266074
L1I LOAD ACCESSES:  140094038 HITS:   77827964 MISSES:   62266074
L1I RFO ACCESSES:          0 HITS:          0 MISSES:          0
L1I PREFETCH ACCESSES:          0 HITS:          0 MISSES:          0
L1I WRITEBACK ACCESSES:          0 HITS:          0 MISSES:          0
L1I RQ ACCESS:  500000003
L1I RQ TO_CACHE:  140094038
L1I RQ MERGED:  359905965
L1I RQ FORWARD:          0
L1I WQ ACCESS:          0
L1I WQ TO_CACHE:          0
L1I WQ MERGED:          0
L1I WQ FORWARD:          0
L2C TOTAL     ACCESS:  113699532  HIT:  110697370  MISS:    3002162
L2C LOAD      ACCESS:   64453123  HIT:   63892662  MISS:     560461
L2C RFO       ACCESS:    2802958  HIT:    2193429  MISS:     609529
L2C PREFETCH  ACCESS:   43282464  HIT:   41456562  MISS:    1825902
L2C WRITEBACK ACCESS:    3160987  HIT:    3154717  MISS:       6270
L2C PREFETCH  REQUESTED:   15134552  ISSUED:   14619872  USEFUL:    1700902  USELESS:     125006
L2C TOTAL MSHR MERGED:      12791
L2C LOAD MSHR MERGED:          0
L2C RFO MSHR MERGED:          0
L2C PREFETCH MSHR MERGED:      12791
L2C WRITEBACK MSHR MERGED:          0
L2C TOTAL ACCESSES:  113903979 HITS:  110703231 MISSES:    3200748
L2C LOAD ACCESSES:   64454986 HITS:   63894524 MISSES:     560462
L2C RFO ACCESSES:    2804840 HITS:    2195311 MISSES:     609529
L2C PREFETCH ACCESSES:   43483166 HITS:   41458679 MISSES:    2024487
L2C WRITEBACK ACCESSES:    3160987 HITS:    3154717 MISSES:       6270
L2C RQ ACCESS:   67259827
L2C RQ TO_CACHE:   67256083
L2C RQ MERGED:          0
L2C RQ FORWARD:          0
L2C WQ ACCESS:    3160987
L2C WQ TO_CACHE:    3160987
L2C WQ MERGED:          0
L2C WQ FORWARD:       5861
LLC TOTAL     ACCESS:    3712985  HIT:    1850182  MISS:    1862803
LLC LOAD      ACCESS:     560431  HIT:     496663  MISS:      63768
LLC RFO       ACCESS:     527404  HIT:     239304  MISS:     288100
LLC PREFETCH  ACCESS:    2006603  HIT:     643780  MISS:    1362823
LLC WRITEBACK ACCESS:     618547  HIT:     470435  MISS:     148112
LLC PREFETCH  REQUESTED:          0  ISSUED:          0  USEFUL:      43788  USELESS:    1312427
LLC TOTAL MSHR MERGED:       4443
LLC LOAD MSHR MERGED:          0
LLC RFO MSHR MERGED:          0
LLC PREFETCH MSHR MERGED:       4443
LLC WRITEBACK MSHR MERGED:          0
LLC TOTAL ACCESSES:    3799668 HITS:    1932422 MISSES:    1867246
LLC LOAD ACCESSES:     560461 HITS:     496693 MISSES:      63768
LLC RFO ACCESSES:     609529 HITS:     321429 MISSES:     288100
LLC PREFETCH ACCESSES:    2011131 HITS:     643865 MISSES:    1367266
LLC WRITEBACK ACCESSES:     618547 HITS:     470435 MISSES:     148112
LLC 0 RQ ACCESS:    1169991
LLC 0 RQ TO_CACHE:    1087836
LLC 0 RQ MERGED:          0
LLC 0 RQ FORWARD:          0
LLC WQ ACCESS:     618547
LLC WQ TO_CACHE:     618547
LLC WQ MERGED:          0
LLC WQ FORWARD:      82240
Major fault: 0 Minor fault: 12800
CPU 0 L1D next line prefetcher final stats
CPU 0 L2C PC-based stride prefetcher final stats
All Misses: 2262299
All Hits: 2301637
SD Algo Stats - Switches: 0 SRR-Repls: 81329 BRR-Repls: 0

DRAM Statistics
 CHANNEL 0
 RQ ROW_BUFFER_HIT:     845022  ROW_BUFFER_MISS:     869669
 DBUS_CONGESTED:     908786
 WQ ROW_BUFFER_HIT:      30718  ROW_BUFFER_MISS:     260887  FULL:          0

 AVG_CONGESTED_CYCLE: 13
LOADS RETIRED: 239375970
INSTR RETIRED: 500000000
