
*** ChampSim Multicore Out-of-Order Simulator ***

Warmup Instructions: 100000000
Simulation Instructions: 500000000
Number of CPUs: 1
LLC sets: 2048
LLC ways: 16
Clean RRIP Policies: 1122010111220101 Dirty RRIP Policies: 2112112121121121 PSEL Width: 10 Track Set: 4294967295 PSEL Mask: 1 Demote Mask: 3230141432301414DS Algo: 0Window size: 0
Off-chip DRAM Size: 4096 MB Channels: 1 Width: 64-bit Data Rate: 1600 MT/s

CPU 0 runs /mnt/beegfs/iconst01/spec2017/Gcc.trace.gz
NOT SORTED
TRACE STRING: /mnt/beegfs/iconst01/spec2017/Gcc.trace.gz
SORTED
TRACE STRING: /mnt/beegfs/iconst01/spec2017/Gcc.trace.gz
INITIAL
TRACE STRING: /mnt/beegfs/iconst01/spec2017/Gcc.trace.gz

champsim_seed used: 269

CPU 0 L1D next line prefetcher
CPU 0 L2C IP-based stride prefetcher
Initialize DRRIP state
Assign rand_sets[0]: 454  LLC: 2048
rand_sets[0]: 454
Assign rand_sets[1]: 1662  LLC: 2048
rand_sets[1]: 1662
Assign rand_sets[2]: 1921  LLC: 2048
rand_sets[2]: 1921
Assign rand_sets[3]: 1131  LLC: 2048
rand_sets[3]: 1131
Assign rand_sets[4]: 331  LLC: 2048
rand_sets[4]: 331
Assign rand_sets[5]: 1531  LLC: 2048
rand_sets[5]: 1531
Assign rand_sets[6]: 482  LLC: 2048
rand_sets[6]: 482
Assign rand_sets[7]: 1275  LLC: 2048
rand_sets[7]: 1275
Assign rand_sets[8]: 1876  LLC: 2048
rand_sets[8]: 1876
Assign rand_sets[9]: 2038  LLC: 2048
rand_sets[9]: 2038
Assign rand_sets[10]: 701  LLC: 2048
rand_sets[10]: 701
Assign rand_sets[11]: 479  LLC: 2048
rand_sets[11]: 479
Assign rand_sets[12]: 892  LLC: 2048
rand_sets[12]: 892
Assign rand_sets[13]: 1820  LLC: 2048
rand_sets[13]: 1820
Assign rand_sets[14]: 1505  LLC: 2048
rand_sets[14]: 1505
Assign rand_sets[15]: 1159  LLC: 2048
rand_sets[15]: 1159
Assign rand_sets[16]: 513  LLC: 2048
rand_sets[16]: 513
Assign rand_sets[17]: 703  LLC: 2048
rand_sets[17]: 703
Assign rand_sets[18]: 561  LLC: 2048
rand_sets[18]: 561
Assign rand_sets[19]: 990  LLC: 2048
rand_sets[19]: 990
Assign rand_sets[20]: 342  LLC: 2048
rand_sets[20]: 342
Assign rand_sets[21]: 882  LLC: 2048
rand_sets[21]: 882
Assign rand_sets[22]: 15  LLC: 2048
rand_sets[22]: 15
Assign rand_sets[23]: 71  LLC: 2048
rand_sets[23]: 71
Assign rand_sets[24]: 1127  LLC: 2048
rand_sets[24]: 1127
Assign rand_sets[25]: 1382  LLC: 2048
rand_sets[25]: 1382
Assign rand_sets[26]: 647  LLC: 2048
rand_sets[26]: 647
Assign rand_sets[27]: 857  LLC: 2048
rand_sets[27]: 857
Assign rand_sets[28]: 1450  LLC: 2048
rand_sets[28]: 1450
Assign rand_sets[29]: 1160  LLC: 2048
rand_sets[29]: 1160
Assign rand_sets[30]: 1852  LLC: 2048
rand_sets[30]: 1852
Assign rand_sets[31]: 1881  LLC: 2048
rand_sets[31]: 1881
Assign rand_sets[32]: 1770  LLC: 2048
rand_sets[32]: 1770
Assign rand_sets[33]: 1622  LLC: 2048
rand_sets[33]: 1622
Assign rand_sets[34]: 275  LLC: 2048
rand_sets[34]: 275
Assign rand_sets[35]: 635  LLC: 2048
rand_sets[35]: 635
Assign rand_sets[36]: 466  LLC: 2048
rand_sets[36]: 466
Assign rand_sets[37]: 1413  LLC: 2048
rand_sets[37]: 1413
Assign rand_sets[38]: 417  LLC: 2048
rand_sets[38]: 417
Assign rand_sets[39]: 472  LLC: 2048
rand_sets[39]: 472
Assign rand_sets[40]: 1340  LLC: 2048
rand_sets[40]: 1340
Assign rand_sets[41]: 852  LLC: 2048
rand_sets[41]: 852
Assign rand_sets[42]: 1365  LLC: 2048
rand_sets[42]: 1365
Assign rand_sets[43]: 47  LLC: 2048
rand_sets[43]: 47
Assign rand_sets[44]: 823  LLC: 2048
rand_sets[44]: 823
Assign rand_sets[45]: 686  LLC: 2048
rand_sets[45]: 686
Assign rand_sets[46]: 1637  LLC: 2048
rand_sets[46]: 1637
Assign rand_sets[47]: 1115  LLC: 2048
rand_sets[47]: 1115
Assign rand_sets[48]: 986  LLC: 2048
rand_sets[48]: 986
Assign rand_sets[49]: 258  LLC: 2048
rand_sets[49]: 258
Assign rand_sets[50]: 633  LLC: 2048
rand_sets[50]: 633
Assign rand_sets[51]: 920  LLC: 2048
rand_sets[51]: 920
Assign rand_sets[52]: 204  LLC: 2048
rand_sets[52]: 204
Assign rand_sets[53]: 227  LLC: 2048
rand_sets[53]: 227
Assign rand_sets[54]: 1818  LLC: 2048
rand_sets[54]: 1818
Assign rand_sets[55]: 886  LLC: 2048
rand_sets[55]: 886
Assign rand_sets[56]: 1422  LLC: 2048
rand_sets[56]: 1422
Assign rand_sets[57]: 607  LLC: 2048
rand_sets[57]: 607
Assign rand_sets[58]: 217  LLC: 2048
rand_sets[58]: 217
Assign rand_sets[59]: 1945  LLC: 2048
rand_sets[59]: 1945
Assign rand_sets[60]: 143  LLC: 2048
rand_sets[60]: 143
Assign rand_sets[61]: 1311  LLC: 2048
rand_sets[61]: 1311
Assign rand_sets[62]: 319  LLC: 2048
rand_sets[62]: 319
Assign rand_sets[63]: 1846  LLC: 2048
rand_sets[63]: 1846
 CLEAN-RRIP-POLICY-1: 1-1-2-2-0-1-0-1- CLEAN-RRIP-POLICY-2: 1-1-2-2-0-1-0-1-
 DIRTY-RRIP-POLICY-1: 2-1-1-2-1-1-2-1- DIRTY-RRIP-POLICY-2: 2-1-1-2-1-1-2-1-
 PSEL width: 10
Heartbeat CPU 0 instructions: 10000001 cycles: 7315918 heartbeat IPC: 1.36688 cumulative IPC: 1.36688 (Simulation time: 0 hr 0 min 15 sec) 
Heartbeat CPU 0 instructions: 20000000 cycles: 14307202 heartbeat IPC: 1.43035 cumulative IPC: 1.3979 (Simulation time: 0 hr 0 min 30 sec) 
Heartbeat CPU 0 instructions: 30000001 cycles: 21020007 heartbeat IPC: 1.48969 cumulative IPC: 1.42721 (Simulation time: 0 hr 0 min 46 sec) 
Heartbeat CPU 0 instructions: 40000000 cycles: 27481076 heartbeat IPC: 1.54773 cumulative IPC: 1.45555 (Simulation time: 0 hr 1 min 3 sec) 
Heartbeat CPU 0 instructions: 50000001 cycles: 33582704 heartbeat IPC: 1.63891 cumulative IPC: 1.48886 (Simulation time: 0 hr 1 min 19 sec) 
Heartbeat CPU 0 instructions: 60000000 cycles: 40063851 heartbeat IPC: 1.54294 cumulative IPC: 1.49761 (Simulation time: 0 hr 1 min 35 sec) 
Heartbeat CPU 0 instructions: 70000000 cycles: 47100459 heartbeat IPC: 1.42114 cumulative IPC: 1.48619 (Simulation time: 0 hr 1 min 50 sec) 
Heartbeat CPU 0 instructions: 80000000 cycles: 54189791 heartbeat IPC: 1.41057 cumulative IPC: 1.47629 (Simulation time: 0 hr 2 min 5 sec) 
Heartbeat CPU 0 instructions: 90000003 cycles: 61193930 heartbeat IPC: 1.42773 cumulative IPC: 1.47073 (Simulation time: 0 hr 2 min 20 sec) 
Heartbeat CPU 0 instructions: 100000000 cycles: 68360765 heartbeat IPC: 1.39532 cumulative IPC: 1.46283 (Simulation time: 0 hr 2 min 35 sec) 

Warmup complete CPU 0 instructions: 100000004 cycles: 68360766 (Simulation time: 0 hr 2 min 35 sec) 

Heartbeat CPU 0 instructions: 110000003 cycles: 95970419 heartbeat IPC: 0.362192 cumulative IPC: 0.362192 (Simulation time: 0 hr 3 min 5 sec) 
Heartbeat CPU 0 instructions: 120000000 cycles: 123505954 heartbeat IPC: 0.363167 cumulative IPC: 0.362679 (Simulation time: 0 hr 3 min 35 sec) 
Heartbeat CPU 0 instructions: 130000000 cycles: 148554461 heartbeat IPC: 0.399225 cumulative IPC: 0.374094 (Simulation time: 0 hr 4 min 5 sec) 
Heartbeat CPU 0 instructions: 140000000 cycles: 177893413 heartbeat IPC: 0.340844 cumulative IPC: 0.365188 (Simulation time: 0 hr 4 min 34 sec) 
Heartbeat CPU 0 instructions: 150000000 cycles: 207719612 heartbeat IPC: 0.335276 cumulative IPC: 0.358786 (Simulation time: 0 hr 5 min 4 sec) 
Heartbeat CPU 0 instructions: 160000000 cycles: 235120056 heartbeat IPC: 0.364958 cumulative IPC: 0.3598 (Simulation time: 0 hr 5 min 32 sec) 
Heartbeat CPU 0 instructions: 170000001 cycles: 263136127 heartbeat IPC: 0.356938 cumulative IPC: 0.359388 (Simulation time: 0 hr 6 min 3 sec) 
Heartbeat CPU 0 instructions: 180000000 cycles: 291525778 heartbeat IPC: 0.352241 cumulative IPC: 0.358479 (Simulation time: 0 hr 6 min 34 sec) 
Heartbeat CPU 0 instructions: 190000002 cycles: 319482180 heartbeat IPC: 0.3577 cumulative IPC: 0.358392 (Simulation time: 0 hr 7 min 4 sec) 
Heartbeat CPU 0 instructions: 200000000 cycles: 347795126 heartbeat IPC: 0.353195 cumulative IPC: 0.357866 (Simulation time: 0 hr 7 min 34 sec) 
Heartbeat CPU 0 instructions: 210000002 cycles: 375626132 heartbeat IPC: 0.359312 cumulative IPC: 0.357997 (Simulation time: 0 hr 8 min 3 sec) 
Heartbeat CPU 0 instructions: 220000000 cycles: 404614846 heartbeat IPC: 0.344962 cumulative IPC: 0.356873 (Simulation time: 0 hr 8 min 32 sec) 
Heartbeat CPU 0 instructions: 230000000 cycles: 432172479 heartbeat IPC: 0.362876 cumulative IPC: 0.357328 (Simulation time: 0 hr 9 min 1 sec) 
Heartbeat CPU 0 instructions: 240000000 cycles: 458247195 heartbeat IPC: 0.383513 cumulative IPC: 0.359079 (Simulation time: 0 hr 9 min 28 sec) 
Heartbeat CPU 0 instructions: 250000000 cycles: 488416810 heartbeat IPC: 0.331459 cumulative IPC: 0.357095 (Simulation time: 0 hr 9 min 59 sec) 
Heartbeat CPU 0 instructions: 260000000 cycles: 515586318 heartbeat IPC: 0.36806 cumulative IPC: 0.357761 (Simulation time: 0 hr 10 min 28 sec) 
Heartbeat CPU 0 instructions: 270000003 cycles: 543956384 heartbeat IPC: 0.352484 cumulative IPC: 0.357447 (Simulation time: 0 hr 10 min 58 sec) 
Heartbeat CPU 0 instructions: 280000000 cycles: 572038722 heartbeat IPC: 0.356096 cumulative IPC: 0.357371 (Simulation time: 0 hr 11 min 28 sec) 
Heartbeat CPU 0 instructions: 290000000 cycles: 600878657 heartbeat IPC: 0.346741 cumulative IPC: 0.356796 (Simulation time: 0 hr 11 min 59 sec) 
Heartbeat CPU 0 instructions: 300000000 cycles: 630563120 heartbeat IPC: 0.336877 cumulative IPC: 0.355744 (Simulation time: 0 hr 12 min 27 sec) 
Heartbeat CPU 0 instructions: 310000001 cycles: 659881125 heartbeat IPC: 0.341087 cumulative IPC: 0.355017 (Simulation time: 0 hr 12 min 56 sec) 
Heartbeat CPU 0 instructions: 320000000 cycles: 687996641 heartbeat IPC: 0.355675 cumulative IPC: 0.355047 (Simulation time: 0 hr 13 min 25 sec) 
Heartbeat CPU 0 instructions: 330000000 cycles: 716570276 heartbeat IPC: 0.349973 cumulative IPC: 0.354824 (Simulation time: 0 hr 13 min 54 sec) 
Heartbeat CPU 0 instructions: 340000000 cycles: 745807408 heartbeat IPC: 0.342031 cumulative IPC: 0.354271 (Simulation time: 0 hr 14 min 23 sec) 
Heartbeat CPU 0 instructions: 350000003 cycles: 772777395 heartbeat IPC: 0.370783 cumulative IPC: 0.354904 (Simulation time: 0 hr 14 min 52 sec) 
Heartbeat CPU 0 instructions: 360000000 cycles: 800919587 heartbeat IPC: 0.355338 cumulative IPC: 0.35492 (Simulation time: 0 hr 15 min 20 sec) 
Heartbeat CPU 0 instructions: 370000000 cycles: 829227461 heartbeat IPC: 0.353259 cumulative IPC: 0.354858 (Simulation time: 0 hr 15 min 48 sec) 
Heartbeat CPU 0 instructions: 380000000 cycles: 857838067 heartbeat IPC: 0.349521 cumulative IPC: 0.354665 (Simulation time: 0 hr 16 min 16 sec) 
Heartbeat CPU 0 instructions: 390000001 cycles: 885567255 heartbeat IPC: 0.360631 cumulative IPC: 0.354867 (Simulation time: 0 hr 16 min 43 sec) 
Heartbeat CPU 0 instructions: 400000000 cycles: 914308779 heartbeat IPC: 0.347929 cumulative IPC: 0.354632 (Simulation time: 0 hr 17 min 11 sec) 
Heartbeat CPU 0 instructions: 410000001 cycles: 941732632 heartbeat IPC: 0.364646 cumulative IPC: 0.354946 (Simulation time: 0 hr 17 min 39 sec) 
Heartbeat CPU 0 instructions: 420000000 cycles: 969176219 heartbeat IPC: 0.364384 cumulative IPC: 0.355234 (Simulation time: 0 hr 18 min 7 sec) 
Heartbeat CPU 0 instructions: 430000002 cycles: 996929505 heartbeat IPC: 0.360318 cumulative IPC: 0.355386 (Simulation time: 0 hr 18 min 35 sec) 
Heartbeat CPU 0 instructions: 440000000 cycles: 1026411855 heartbeat IPC: 0.339186 cumulative IPC: 0.354887 (Simulation time: 0 hr 19 min 2 sec) 
Heartbeat CPU 0 instructions: 450000002 cycles: 1055733390 heartbeat IPC: 0.341046 cumulative IPC: 0.354476 (Simulation time: 0 hr 19 min 29 sec) 
Heartbeat CPU 0 instructions: 460000000 cycles: 1083530567 heartbeat IPC: 0.359749 cumulative IPC: 0.35462 (Simulation time: 0 hr 19 min 57 sec) 
Heartbeat CPU 0 instructions: 470000000 cycles: 1111280535 heartbeat IPC: 0.360361 cumulative IPC: 0.354773 (Simulation time: 0 hr 20 min 24 sec) 
Heartbeat CPU 0 instructions: 480000000 cycles: 1139267230 heartbeat IPC: 0.357313 cumulative IPC: 0.35484 (Simulation time: 0 hr 20 min 51 sec) 
Heartbeat CPU 0 instructions: 490000000 cycles: 1166989630 heartbeat IPC: 0.360719 cumulative IPC: 0.354988 (Simulation time: 0 hr 21 min 18 sec) 
Heartbeat CPU 0 instructions: 500000000 cycles: 1195288534 heartbeat IPC: 0.353371 cumulative IPC: 0.354947 (Simulation time: 0 hr 21 min 45 sec) 
Heartbeat CPU 0 instructions: 510000000 cycles: 1230818201 heartbeat IPC: 0.281455 cumulative IPC: 0.352701 (Simulation time: 0 hr 22 min 16 sec) 
Heartbeat CPU 0 instructions: 520000000 cycles: 1258921134 heartbeat IPC: 0.355835 cumulative IPC: 0.352775 (Simulation time: 0 hr 22 min 44 sec) 
Heartbeat CPU 0 instructions: 530000001 cycles: 1288145756 heartbeat IPC: 0.342177 cumulative IPC: 0.352521 (Simulation time: 0 hr 23 min 12 sec) 
Heartbeat CPU 0 instructions: 540000000 cycles: 1316187758 heartbeat IPC: 0.356608 cumulative IPC: 0.352613 (Simulation time: 0 hr 23 min 40 sec) 
Heartbeat CPU 0 instructions: 550000001 cycles: 1345488087 heartbeat IPC: 0.341293 cumulative IPC: 0.352353 (Simulation time: 0 hr 24 min 10 sec) 
Heartbeat CPU 0 instructions: 560000000 cycles: 1370941689 heartbeat IPC: 0.392872 cumulative IPC: 0.353145 (Simulation time: 0 hr 24 min 37 sec) 
Heartbeat CPU 0 instructions: 570000000 cycles: 1400304811 heartbeat IPC: 0.340563 cumulative IPC: 0.352868 (Simulation time: 0 hr 25 min 6 sec) 
Heartbeat CPU 0 instructions: 580000000 cycles: 1428301030 heartbeat IPC: 0.357191 cumulative IPC: 0.352957 (Simulation time: 0 hr 25 min 34 sec) 
Heartbeat CPU 0 instructions: 590000001 cycles: 1453360298 heartbeat IPC: 0.399054 cumulative IPC: 0.353791 (Simulation time: 0 hr 26 min 1 sec) 
Heartbeat CPU 0 instructions: 600000000 cycles: 1479883293 heartbeat IPC: 0.377031 cumulative IPC: 0.354227 (Simulation time: 0 hr 26 min 29 sec) 
Finished CPU 0 instructions: 500000000 cycles: 1411522549 cumulative IPC: 0.354227 (Simulation time: 0 hr 26 min 29 sec) 

CPU 0 Branch Prediction Accuracy: 86.4311% MPKI: 26.2662
Number of Branches: 96788573 Number of Mispredictions: 13133102
Number of LOAD Instructions: 164682285
Number of LOAD Instructions (ROI): 164682285
Number of STORE Instructions: 78194750
Number of STORE Instructions (ROI): 78194750
Total Destination Memory Operands: 83268534
Total Destination Memory Operands (ROI): 83268534
Total Source Memory Operands: 164712438
Total Source Memory Operands (ROI): 164712438
Number of DEPENDED LOADS: 7074517
Number of DEPENDED LOADS (ROI): 7074517
Number of SQ_ADDED: 83268522
Number of SQ_ADDED (ROI): 83268522
Number of LQ_ADDED: 236879250
Number of LQ_ADDED (ROI): 236879250
Number of Instructions read from trace: 600000066

ChampSim completed all CPUs

Region of Interest Statistics

CPU 0 cumulative IPC: 0.354227 instructions: 500000000 cycles: 1411522549
ITLB TOTAL     ACCESS:  100497658  HIT:  100293212  MISS:     204446
ITLB LOAD      ACCESS:  100497658  HIT:  100293212  MISS:     204446
ITLB RFO       ACCESS:          0  HIT:          0  MISS:          0
ITLB PREFETCH  ACCESS:          0  HIT:          0  MISS:          0
ITLB WRITEBACK ACCESS:          0  HIT:          0  MISS:          0
ITLB PREFETCH  REQUESTED:          0  ISSUED:          0  USEFUL:          0  USELESS:          0
ITLB TOTAL MSHR MERGED:     172422
ITLB LOAD MSHR MERGED:     172422
ITLB RFO MSHR MERGED:          0
ITLB PREFETCH MSHR MERGED:          0
ITLB WRITEBACK MSHR MERGED:          0
ITLB TOTAL ACCESSES:  100670080 HITS:  100293212 MISSES:     376868
ITLB LOAD ACCESSES:  100670080 HITS:  100293212 MISSES:     376868
ITLB RFO ACCESSES:          0 HITS:          0 MISSES:          0
ITLB PREFETCH ACCESSES:          0 HITS:          0 MISSES:          0
ITLB WRITEBACK ACCESSES:          0 HITS:          0 MISSES:          0
ITLB RQ ACCESS:  500000057
ITLB RQ TO_CACHE:  100670080
ITLB RQ MERGED:  399329977
ITLB RQ FORWARD:          0
ITLB WQ ACCESS:          0
ITLB WQ TO_CACHE:          0
ITLB WQ MERGED:          0
ITLB WQ FORWARD:          0
DTLB TOTAL     ACCESS:  165320601  HIT:  164686255  MISS:     634346
DTLB LOAD      ACCESS:  106279789  HIT:  105709789  MISS:     570000
DTLB RFO       ACCESS:   59040812  HIT:   58976466  MISS:      64346
DTLB PREFETCH  ACCESS:          0  HIT:          0  MISS:          0
DTLB WRITEBACK ACCESS:          0  HIT:          0  MISS:          0
DTLB PREFETCH  REQUESTED:          0  ISSUED:          0  USEFUL:          0  USELESS:          0
DTLB TOTAL MSHR MERGED:      99842
DTLB LOAD MSHR MERGED:      59435
DTLB RFO MSHR MERGED:      40407
DTLB PREFETCH MSHR MERGED:          0
DTLB WRITEBACK MSHR MERGED:          0
DTLB TOTAL ACCESSES:  165420443 HITS:  164686255 MISSES:     734188
DTLB LOAD ACCESSES:  106339224 HITS:  105709789 MISSES:     629435
DTLB RFO ACCESSES:   59081219 HITS:   58976466 MISSES:     104753
DTLB PREFETCH ACCESSES:          0 HITS:          0 MISSES:          0
DTLB WRITEBACK ACCESSES:          0 HITS:          0 MISSES:          0
DTLB RQ ACCESS:  200296544
DTLB RQ TO_CACHE:  165420443
DTLB RQ MERGED:   34876101
DTLB RQ FORWARD:          0
DTLB WQ ACCESS:          0
DTLB WQ TO_CACHE:          0
DTLB WQ MERGED:          0
DTLB WQ FORWARD:          0
L1D TOTAL     ACCESS:  281693875  HIT:  273784795  MISS:    7909080
L1D LOAD      ACCESS:  110393995  HIT:  107110083  MISS:    3283912
L1D RFO       ACCESS:   67065252  HIT:   66172438  MISS:     892814
L1D PREFETCH  ACCESS:  104234628  HIT:  100502274  MISS:    3732354
L1D WRITEBACK ACCESS:          0  HIT:          0  MISS:          0
L1D PREFETCH  REQUESTED:  110803716  ISSUED:  109104550  USEFUL:    1653434  USELESS:    2078884
L1D TOTAL MSHR MERGED:    2983490
L1D LOAD MSHR MERGED:     513213
L1D RFO MSHR MERGED:    1921974
L1D PREFETCH MSHR MERGED:     548303
L1D WRITEBACK MSHR MERGED:          0
L1D TOTAL ACCESSES:  284705526 HITS:  273812956 MISSES:   10892570
L1D LOAD ACCESSES:  110805843 HITS:  107112210 MISSES:    3693633
L1D RFO ACCESSES:   68973188 HITS:   66172438 MISSES:    2800750
L1D PREFETCH ACCESSES:  104926495 HITS:  100528308 MISSES:    4398187
L1D WRITEBACK ACCESSES:          0 HITS:          0 MISSES:          0
L1D RQ ACCESS:  130743941
L1D RQ TO_CACHE:  110803719
L1D RQ MERGED:   19938095
L1D RQ FORWARD:          0
L1D WQ ACCESS:   69552603
L1D WQ TO_CACHE:   68973189
L1D WQ MERGED:     579414
L1D WQ FORWARD:      28161
L1I TOTAL     ACCESS:  126545360  HIT:  122306807  MISS:    4238553
L1I LOAD      ACCESS:  126545360  HIT:  122306807  MISS:    4238553
L1I RFO       ACCESS:          0  HIT:          0  MISS:          0
L1I PREFETCH  ACCESS:          0  HIT:          0  MISS:          0
L1I WRITEBACK ACCESS:          0  HIT:          0  MISS:          0
L1I PREFETCH  REQUESTED:          0  ISSUED:          0  USEFUL:          0  USELESS:          0
L1I TOTAL MSHR MERGED:    1834215
L1I LOAD MSHR MERGED:    1834215
L1I RFO MSHR MERGED:          0
L1I PREFETCH MSHR MERGED:          0
L1I WRITEBACK MSHR MERGED:          0
L1I TOTAL ACCESSES:  128379578 HITS:  122306807 MISSES:    6072771
L1I LOAD ACCESSES:  128379578 HITS:  122306807 MISSES:    6072771
L1I RFO ACCESSES:          0 HITS:          0 MISSES:          0
L1I PREFETCH ACCESSES:          0 HITS:          0 MISSES:          0
L1I WRITEBACK ACCESSES:          0 HITS:          0 MISSES:          0
L1I RQ ACCESS:  500000057
L1I RQ TO_CACHE:  128379578
L1I RQ MERGED:  371620479
L1I RQ FORWARD:          0
L1I WQ ACCESS:          0
L1I WQ TO_CACHE:          0
L1I WQ MERGED:          0
L1I WQ FORWARD:          0
L2C TOTAL     ACCESS:   14902173  HIT:   11155828  MISS:    3746345
L2C LOAD      ACCESS:    7418765  HIT:    5098047  MISS:    2320718
L2C RFO       ACCESS:     878678  HIT:     409903  MISS:     468775
L2C PREFETCH  ACCESS:    4565540  HIT:    3625947  MISS:     939593
L2C WRITEBACK ACCESS:    2039190  HIT:    2021931  MISS:      17259
L2C PREFETCH  REQUESTED:     842303  ISSUED:     842303  USEFUL:     202603  USELESS:     736695
L2C TOTAL MSHR MERGED:       9524
L2C LOAD MSHR MERGED:       1464
L2C RFO MSHR MERGED:          0
L2C PREFETCH MSHR MERGED:       8060
L2C WRITEBACK MSHR MERGED:          0
L2C TOTAL ACCESSES:   14912668 HITS:   11156274 MISSES:    3756394
L2C LOAD ACCESSES:    7418973 HITS:    5098255 MISSES:    2320718
L2C RFO ACCESSES:     878776 HITS:     410001 MISSES:     468775
L2C PREFETCH ACCESSES:    4575729 HITS:    3626087 MISSES:     949642
L2C WRITEBACK ACCESSES:    2039190 HITS:    2021931 MISSES:      17259
L2C RQ ACCESS:    8297752
L2C RQ TO_CACHE:    8297446
L2C RQ MERGED:          0
L2C RQ FORWARD:          0
L2C WQ ACCESS:    2039190
L2C WQ TO_CACHE:    2039190
L2C WQ MERGED:          0
L2C WQ FORWARD:        446
LLC TOTAL     ACCESS:    4609692  HIT:    3711068  MISS:     898624
LLC LOAD      ACCESS:    2319243  HIT:    2088304  MISS:     230939
LLC RFO       ACCESS:     468764  HIT:     304585  MISS:     164179
LLC PREFETCH  ACCESS:     941439  HIT:     523359  MISS:     418080
LLC WRITEBACK ACCESS:     880246  HIT:     794820  MISS:      85426
LLC PREFETCH  REQUESTED:          0  ISSUED:          0  USEFUL:      24167  USELESS:     395836
LLC TOTAL MSHR MERGED:        125
LLC LOAD MSHR MERGED:         40
LLC RFO MSHR MERGED:          0
LLC PREFETCH MSHR MERGED:         85
LLC WRITEBACK MSHR MERGED:          0
LLC TOTAL ACCESSES:    4609849 HITS:    3711100 MISSES:     898749
LLC LOAD ACCESSES:    2319254 HITS:    2088315 MISSES:     230939
LLC RFO ACCESSES:     468775 HITS:     304596 MISSES:     164179
LLC PREFETCH ACCESSES:     941574 HITS:     523369 MISSES:     418205
LLC WRITEBACK ACCESSES:     880246 HITS:     794820 MISSES:      85426
LLC 0 RQ ACCESS:    2788029
LLC 0 RQ TO_CACHE:    2788007
LLC 0 RQ MERGED:          0
LLC 0 RQ FORWARD:          0
LLC WQ ACCESS:     880246
LLC WQ TO_CACHE:     880246
LLC WQ MERGED:          0
LLC WQ FORWARD:         32
Major fault: 0 Minor fault: 12862
CPU 0 L1D next line prefetcher final stats
CPU 0 L2C PC-based stride prefetcher final stats
All Misses: 1039795
All Hits: 4386903
SD Algo Stats - Switches: 0 SRR-Repls: 266346 BRR-Repls: 0

DRAM Statistics
 CHANNEL 0
 RQ ROW_BUFFER_HIT:     170251  ROW_BUFFER_MISS:     639112
 DBUS_CONGESTED:     598184
 WQ ROW_BUFFER_HIT:      46265  ROW_BUFFER_MISS:     348796  FULL:          0

 AVG_CONGESTED_CYCLE: 13
LOADS RETIRED: 136549171
INSTR RETIRED: 500000000
