
*** ChampSim Multicore Out-of-Order Simulator ***

Warmup Instructions: 100000000
Simulation Instructions: 500000000
Number of CPUs: 1
LLC sets: 2048
LLC ways: 16
Clean RRIP Policies: 1213132112131321 Dirty RRIP Policies: 2203130122031301 PSEL Width: 10 Track Set: 4294967295 PSEL Mask: 1 Demote Mask: 3040201030402010DS Algo: 0Window size: 0
Off-chip DRAM Size: 4096 MB Channels: 1 Width: 64-bit Data Rate: 1600 MT/s

CPU 0 runs /mnt/beegfs/iconst01/spec2017/Mcf.trace.gz
NOT SORTED
TRACE STRING: /mnt/beegfs/iconst01/spec2017/Mcf.trace.gz
SORTED
TRACE STRING: /mnt/beegfs/iconst01/spec2017/Mcf.trace.gz
INITIAL
TRACE STRING: /mnt/beegfs/iconst01/spec2017/Mcf.trace.gz

champsim_seed used: 278

CPU 0 L1D next line prefetcher
CPU 0 L2C IP-based stride prefetcher
Initialize DRRIP state
Assign rand_sets[0]: 454  LLC: 2048
rand_sets[0]: 454
Assign rand_sets[1]: 1662  LLC: 2048
rand_sets[1]: 1662
Assign rand_sets[2]: 1921  LLC: 2048
rand_sets[2]: 1921
Assign rand_sets[3]: 1131  LLC: 2048
rand_sets[3]: 1131
Assign rand_sets[4]: 331  LLC: 2048
rand_sets[4]: 331
Assign rand_sets[5]: 1531  LLC: 2048
rand_sets[5]: 1531
Assign rand_sets[6]: 482  LLC: 2048
rand_sets[6]: 482
Assign rand_sets[7]: 1275  LLC: 2048
rand_sets[7]: 1275
Assign rand_sets[8]: 1876  LLC: 2048
rand_sets[8]: 1876
Assign rand_sets[9]: 2038  LLC: 2048
rand_sets[9]: 2038
Assign rand_sets[10]: 701  LLC: 2048
rand_sets[10]: 701
Assign rand_sets[11]: 479  LLC: 2048
rand_sets[11]: 479
Assign rand_sets[12]: 892  LLC: 2048
rand_sets[12]: 892
Assign rand_sets[13]: 1820  LLC: 2048
rand_sets[13]: 1820
Assign rand_sets[14]: 1505  LLC: 2048
rand_sets[14]: 1505
Assign rand_sets[15]: 1159  LLC: 2048
rand_sets[15]: 1159
Assign rand_sets[16]: 513  LLC: 2048
rand_sets[16]: 513
Assign rand_sets[17]: 703  LLC: 2048
rand_sets[17]: 703
Assign rand_sets[18]: 561  LLC: 2048
rand_sets[18]: 561
Assign rand_sets[19]: 990  LLC: 2048
rand_sets[19]: 990
Assign rand_sets[20]: 342  LLC: 2048
rand_sets[20]: 342
Assign rand_sets[21]: 882  LLC: 2048
rand_sets[21]: 882
Assign rand_sets[22]: 15  LLC: 2048
rand_sets[22]: 15
Assign rand_sets[23]: 71  LLC: 2048
rand_sets[23]: 71
Assign rand_sets[24]: 1127  LLC: 2048
rand_sets[24]: 1127
Assign rand_sets[25]: 1382  LLC: 2048
rand_sets[25]: 1382
Assign rand_sets[26]: 647  LLC: 2048
rand_sets[26]: 647
Assign rand_sets[27]: 857  LLC: 2048
rand_sets[27]: 857
Assign rand_sets[28]: 1450  LLC: 2048
rand_sets[28]: 1450
Assign rand_sets[29]: 1160  LLC: 2048
rand_sets[29]: 1160
Assign rand_sets[30]: 1852  LLC: 2048
rand_sets[30]: 1852
Assign rand_sets[31]: 1881  LLC: 2048
rand_sets[31]: 1881
Assign rand_sets[32]: 1770  LLC: 2048
rand_sets[32]: 1770
Assign rand_sets[33]: 1622  LLC: 2048
rand_sets[33]: 1622
Assign rand_sets[34]: 275  LLC: 2048
rand_sets[34]: 275
Assign rand_sets[35]: 635  LLC: 2048
rand_sets[35]: 635
Assign rand_sets[36]: 466  LLC: 2048
rand_sets[36]: 466
Assign rand_sets[37]: 1413  LLC: 2048
rand_sets[37]: 1413
Assign rand_sets[38]: 417  LLC: 2048
rand_sets[38]: 417
Assign rand_sets[39]: 472  LLC: 2048
rand_sets[39]: 472
Assign rand_sets[40]: 1340  LLC: 2048
rand_sets[40]: 1340
Assign rand_sets[41]: 852  LLC: 2048
rand_sets[41]: 852
Assign rand_sets[42]: 1365  LLC: 2048
rand_sets[42]: 1365
Assign rand_sets[43]: 47  LLC: 2048
rand_sets[43]: 47
Assign rand_sets[44]: 823  LLC: 2048
rand_sets[44]: 823
Assign rand_sets[45]: 686  LLC: 2048
rand_sets[45]: 686
Assign rand_sets[46]: 1637  LLC: 2048
rand_sets[46]: 1637
Assign rand_sets[47]: 1115  LLC: 2048
rand_sets[47]: 1115
Assign rand_sets[48]: 986  LLC: 2048
rand_sets[48]: 986
Assign rand_sets[49]: 258  LLC: 2048
rand_sets[49]: 258
Assign rand_sets[50]: 633  LLC: 2048
rand_sets[50]: 633
Assign rand_sets[51]: 920  LLC: 2048
rand_sets[51]: 920
Assign rand_sets[52]: 204  LLC: 2048
rand_sets[52]: 204
Assign rand_sets[53]: 227  LLC: 2048
rand_sets[53]: 227
Assign rand_sets[54]: 1818  LLC: 2048
rand_sets[54]: 1818
Assign rand_sets[55]: 886  LLC: 2048
rand_sets[55]: 886
Assign rand_sets[56]: 1422  LLC: 2048
rand_sets[56]: 1422
Assign rand_sets[57]: 607  LLC: 2048
rand_sets[57]: 607
Assign rand_sets[58]: 217  LLC: 2048
rand_sets[58]: 217
Assign rand_sets[59]: 1945  LLC: 2048
rand_sets[59]: 1945
Assign rand_sets[60]: 143  LLC: 2048
rand_sets[60]: 143
Assign rand_sets[61]: 1311  LLC: 2048
rand_sets[61]: 1311
Assign rand_sets[62]: 319  LLC: 2048
rand_sets[62]: 319
Assign rand_sets[63]: 1846  LLC: 2048
rand_sets[63]: 1846
 CLEAN-RRIP-POLICY-1: 1-2-1-3-1-3-2-1- CLEAN-RRIP-POLICY-2: 1-2-1-3-1-3-2-1-
 DIRTY-RRIP-POLICY-1: 2-2-0-3-1-3-0-1- DIRTY-RRIP-POLICY-2: 2-2-0-3-1-3-0-1-
 PSEL width: 10
Heartbeat CPU 0 instructions: 10000002 cycles: 6249225 heartbeat IPC: 1.6002 cumulative IPC: 1.6002 (Simulation time: 0 hr 0 min 12 sec) 
Heartbeat CPU 0 instructions: 20000000 cycles: 12471757 heartbeat IPC: 1.60706 cumulative IPC: 1.60362 (Simulation time: 0 hr 0 min 24 sec) 
Heartbeat CPU 0 instructions: 30000000 cycles: 18683402 heartbeat IPC: 1.60988 cumulative IPC: 1.6057 (Simulation time: 0 hr 0 min 37 sec) 
Heartbeat CPU 0 instructions: 40000000 cycles: 24895165 heartbeat IPC: 1.60985 cumulative IPC: 1.60674 (Simulation time: 0 hr 0 min 49 sec) 
Heartbeat CPU 0 instructions: 50000003 cycles: 31108645 heartbeat IPC: 1.6094 cumulative IPC: 1.60727 (Simulation time: 0 hr 1 min 1 sec) 
Heartbeat CPU 0 instructions: 60000000 cycles: 37305784 heartbeat IPC: 1.61365 cumulative IPC: 1.60833 (Simulation time: 0 hr 1 min 14 sec) 
Heartbeat CPU 0 instructions: 70000003 cycles: 43525196 heartbeat IPC: 1.60787 cumulative IPC: 1.60826 (Simulation time: 0 hr 1 min 26 sec) 
Heartbeat CPU 0 instructions: 80000000 cycles: 49756600 heartbeat IPC: 1.60477 cumulative IPC: 1.60783 (Simulation time: 0 hr 1 min 38 sec) 
Heartbeat CPU 0 instructions: 90000000 cycles: 55986518 heartbeat IPC: 1.60516 cumulative IPC: 1.60753 (Simulation time: 0 hr 1 min 51 sec) 
Heartbeat CPU 0 instructions: 100000000 cycles: 62206361 heartbeat IPC: 1.60776 cumulative IPC: 1.60755 (Simulation time: 0 hr 2 min 3 sec) 

Warmup complete CPU 0 instructions: 100000001 cycles: 62206362 (Simulation time: 0 hr 2 min 3 sec) 

Heartbeat CPU 0 instructions: 110000000 cycles: 87219457 heartbeat IPC: 0.399791 cumulative IPC: 0.399791 (Simulation time: 0 hr 2 min 27 sec) 
Heartbeat CPU 0 instructions: 120000000 cycles: 112300746 heartbeat IPC: 0.398704 cumulative IPC: 0.399246 (Simulation time: 0 hr 2 min 50 sec) 
Heartbeat CPU 0 instructions: 130000000 cycles: 137459541 heartbeat IPC: 0.397475 cumulative IPC: 0.398654 (Simulation time: 0 hr 3 min 13 sec) 
Heartbeat CPU 0 instructions: 140000000 cycles: 162579493 heartbeat IPC: 0.39809 cumulative IPC: 0.398513 (Simulation time: 0 hr 3 min 37 sec) 
Heartbeat CPU 0 instructions: 150000003 cycles: 187573918 heartbeat IPC: 0.400089 cumulative IPC: 0.398827 (Simulation time: 0 hr 4 min 0 sec) 
Heartbeat CPU 0 instructions: 160000000 cycles: 212858648 heartbeat IPC: 0.395496 cumulative IPC: 0.398268 (Simulation time: 0 hr 4 min 24 sec) 
Heartbeat CPU 0 instructions: 170000001 cycles: 238017124 heartbeat IPC: 0.39748 cumulative IPC: 0.398155 (Simulation time: 0 hr 4 min 48 sec) 
Heartbeat CPU 0 instructions: 180000000 cycles: 263172815 heartbeat IPC: 0.397524 cumulative IPC: 0.398076 (Simulation time: 0 hr 5 min 11 sec) 
Heartbeat CPU 0 instructions: 190000003 cycles: 288289953 heartbeat IPC: 0.398135 cumulative IPC: 0.398083 (Simulation time: 0 hr 5 min 35 sec) 
Heartbeat CPU 0 instructions: 200000000 cycles: 313439289 heartbeat IPC: 0.397625 cumulative IPC: 0.398037 (Simulation time: 0 hr 5 min 58 sec) 
Heartbeat CPU 0 instructions: 210000003 cycles: 338645841 heartbeat IPC: 0.396722 cumulative IPC: 0.397917 (Simulation time: 0 hr 6 min 22 sec) 
Heartbeat CPU 0 instructions: 220000000 cycles: 364079171 heartbeat IPC: 0.393185 cumulative IPC: 0.397518 (Simulation time: 0 hr 6 min 45 sec) 
Heartbeat CPU 0 instructions: 230000002 cycles: 389139755 heartbeat IPC: 0.399033 cumulative IPC: 0.397635 (Simulation time: 0 hr 7 min 9 sec) 
Heartbeat CPU 0 instructions: 240000000 cycles: 414551628 heartbeat IPC: 0.393517 cumulative IPC: 0.397338 (Simulation time: 0 hr 7 min 33 sec) 
Heartbeat CPU 0 instructions: 250000000 cycles: 439731662 heartbeat IPC: 0.39714 cumulative IPC: 0.397324 (Simulation time: 0 hr 7 min 56 sec) 
Heartbeat CPU 0 instructions: 260000000 cycles: 464897976 heartbeat IPC: 0.397357 cumulative IPC: 0.397326 (Simulation time: 0 hr 8 min 20 sec) 
Heartbeat CPU 0 instructions: 270000001 cycles: 490153110 heartbeat IPC: 0.395959 cumulative IPC: 0.397246 (Simulation time: 0 hr 8 min 44 sec) 
Heartbeat CPU 0 instructions: 280000000 cycles: 515330888 heartbeat IPC: 0.397176 cumulative IPC: 0.397242 (Simulation time: 0 hr 9 min 8 sec) 
Heartbeat CPU 0 instructions: 290000001 cycles: 540587662 heartbeat IPC: 0.395933 cumulative IPC: 0.397173 (Simulation time: 0 hr 9 min 31 sec) 
Heartbeat CPU 0 instructions: 300000000 cycles: 566020378 heartbeat IPC: 0.393194 cumulative IPC: 0.396972 (Simulation time: 0 hr 9 min 55 sec) 
Heartbeat CPU 0 instructions: 310000003 cycles: 591096038 heartbeat IPC: 0.398793 cumulative IPC: 0.397058 (Simulation time: 0 hr 10 min 19 sec) 
Heartbeat CPU 0 instructions: 320000000 cycles: 616557548 heartbeat IPC: 0.39275 cumulative IPC: 0.39686 (Simulation time: 0 hr 10 min 43 sec) 
Heartbeat CPU 0 instructions: 330000003 cycles: 641712865 heartbeat IPC: 0.39753 cumulative IPC: 0.396889 (Simulation time: 0 hr 11 min 6 sec) 
Heartbeat CPU 0 instructions: 340000000 cycles: 667195981 heartbeat IPC: 0.392417 cumulative IPC: 0.396701 (Simulation time: 0 hr 11 min 30 sec) 
Heartbeat CPU 0 instructions: 350000002 cycles: 692668893 heartbeat IPC: 0.392574 cumulative IPC: 0.396534 (Simulation time: 0 hr 11 min 54 sec) 
Heartbeat CPU 0 instructions: 360000000 cycles: 718272726 heartbeat IPC: 0.390566 cumulative IPC: 0.396301 (Simulation time: 0 hr 12 min 17 sec) 
Heartbeat CPU 0 instructions: 370000000 cycles: 743635135 heartbeat IPC: 0.394284 cumulative IPC: 0.396226 (Simulation time: 0 hr 12 min 41 sec) 
Heartbeat CPU 0 instructions: 380000000 cycles: 768821725 heartbeat IPC: 0.397037 cumulative IPC: 0.396255 (Simulation time: 0 hr 13 min 4 sec) 
Heartbeat CPU 0 instructions: 390000002 cycles: 794020356 heartbeat IPC: 0.396847 cumulative IPC: 0.396276 (Simulation time: 0 hr 13 min 28 sec) 
Heartbeat CPU 0 instructions: 400000000 cycles: 819417784 heartbeat IPC: 0.393741 cumulative IPC: 0.396191 (Simulation time: 0 hr 13 min 51 sec) 
Heartbeat CPU 0 instructions: 410000002 cycles: 844703343 heartbeat IPC: 0.395483 cumulative IPC: 0.396168 (Simulation time: 0 hr 14 min 15 sec) 
Heartbeat CPU 0 instructions: 420000000 cycles: 869789677 heartbeat IPC: 0.398623 cumulative IPC: 0.396244 (Simulation time: 0 hr 14 min 38 sec) 
Heartbeat CPU 0 instructions: 430000000 cycles: 895133043 heartbeat IPC: 0.394581 cumulative IPC: 0.396193 (Simulation time: 0 hr 15 min 2 sec) 
Heartbeat CPU 0 instructions: 440000000 cycles: 920169886 heartbeat IPC: 0.399411 cumulative IPC: 0.396287 (Simulation time: 0 hr 15 min 26 sec) 
Heartbeat CPU 0 instructions: 450000000 cycles: 945708359 heartbeat IPC: 0.391566 cumulative IPC: 0.396151 (Simulation time: 0 hr 15 min 50 sec) 
Heartbeat CPU 0 instructions: 460000000 cycles: 971144619 heartbeat IPC: 0.39314 cumulative IPC: 0.396067 (Simulation time: 0 hr 16 min 15 sec) 
Heartbeat CPU 0 instructions: 470000001 cycles: 996368013 heartbeat IPC: 0.396457 cumulative IPC: 0.396077 (Simulation time: 0 hr 16 min 39 sec) 
Heartbeat CPU 0 instructions: 480000000 cycles: 1021815323 heartbeat IPC: 0.392969 cumulative IPC: 0.395995 (Simulation time: 0 hr 17 min 4 sec) 
Heartbeat CPU 0 instructions: 490000000 cycles: 1047369483 heartbeat IPC: 0.391326 cumulative IPC: 0.395874 (Simulation time: 0 hr 17 min 28 sec) 
Heartbeat CPU 0 instructions: 500000000 cycles: 1073235950 heartbeat IPC: 0.386601 cumulative IPC: 0.395636 (Simulation time: 0 hr 17 min 53 sec) 
Heartbeat CPU 0 instructions: 510000003 cycles: 1098972179 heartbeat IPC: 0.388557 cumulative IPC: 0.395461 (Simulation time: 0 hr 18 min 17 sec) 
Heartbeat CPU 0 instructions: 520000000 cycles: 1124882732 heartbeat IPC: 0.385943 cumulative IPC: 0.395229 (Simulation time: 0 hr 18 min 42 sec) 
Heartbeat CPU 0 instructions: 530000001 cycles: 1150815051 heartbeat IPC: 0.385619 cumulative IPC: 0.395 (Simulation time: 0 hr 19 min 6 sec) 
Heartbeat CPU 0 instructions: 540000000 cycles: 1176664904 heartbeat IPC: 0.386849 cumulative IPC: 0.394811 (Simulation time: 0 hr 19 min 31 sec) 
Heartbeat CPU 0 instructions: 550000000 cycles: 1202510473 heartbeat IPC: 0.386914 cumulative IPC: 0.394632 (Simulation time: 0 hr 19 min 55 sec) 
Heartbeat CPU 0 instructions: 560000000 cycles: 1228706692 heartbeat IPC: 0.381734 cumulative IPC: 0.394342 (Simulation time: 0 hr 20 min 20 sec) 
Heartbeat CPU 0 instructions: 570000001 cycles: 1254832699 heartbeat IPC: 0.38276 cumulative IPC: 0.394088 (Simulation time: 0 hr 20 min 45 sec) 
Heartbeat CPU 0 instructions: 580000000 cycles: 1280966321 heartbeat IPC: 0.382649 cumulative IPC: 0.393843 (Simulation time: 0 hr 21 min 9 sec) 
Heartbeat CPU 0 instructions: 590000000 cycles: 1307275205 heartbeat IPC: 0.3801 cumulative IPC: 0.393553 (Simulation time: 0 hr 21 min 34 sec) 
Heartbeat CPU 0 instructions: 600000000 cycles: 1333683136 heartbeat IPC: 0.378674 cumulative IPC: 0.393244 (Simulation time: 0 hr 21 min 59 sec) 
Finished CPU 0 instructions: 500000003 cycles: 1271476787 cumulative IPC: 0.393244 (Simulation time: 0 hr 21 min 59 sec) 

CPU 0 Branch Prediction Accuracy: 91.1342% MPKI: 18.7968
Number of Branches: 106006945 Number of Mispredictions: 9398408
Number of LOAD Instructions: 207894007
Number of LOAD Instructions (ROI): 207894007
Number of STORE Instructions: 54285997
Number of STORE Instructions (ROI): 54285997
Total Destination Memory Operands: 57463404
Total Destination Memory Operands (ROI): 57463404
Total Source Memory Operands: 207894007
Total Source Memory Operands (ROI): 207894007
Number of DEPENDED LOADS: 18104359
Number of DEPENDED LOADS (ROI): 18104359
Number of SQ_ADDED: 57463404
Number of SQ_ADDED (ROI): 57463404
Number of LQ_ADDED: 209320964
Number of LQ_ADDED (ROI): 209320964
Number of Instructions read from trace: 600000039

ChampSim completed all CPUs

Region of Interest Statistics

CPU 0 cumulative IPC: 0.393244 instructions: 500000003 cycles: 1271476787
ITLB TOTAL     ACCESS:   96418766  HIT:   96418766  MISS:          0
ITLB LOAD      ACCESS:   96418766  HIT:   96418766  MISS:          0
ITLB RFO       ACCESS:          0  HIT:          0  MISS:          0
ITLB PREFETCH  ACCESS:          0  HIT:          0  MISS:          0
ITLB WRITEBACK ACCESS:          0  HIT:          0  MISS:          0
ITLB PREFETCH  REQUESTED:          0  ISSUED:          0  USEFUL:          0  USELESS:          0
ITLB TOTAL MSHR MERGED:          0
ITLB LOAD MSHR MERGED:          0
ITLB RFO MSHR MERGED:          0
ITLB PREFETCH MSHR MERGED:          0
ITLB WRITEBACK MSHR MERGED:          0
ITLB TOTAL ACCESSES:   96418766 HITS:   96418766 MISSES:          0
ITLB LOAD ACCESSES:   96418766 HITS:   96418766 MISSES:          0
ITLB RFO ACCESSES:          0 HITS:          0 MISSES:          0
ITLB PREFETCH ACCESSES:          0 HITS:          0 MISSES:          0
ITLB WRITEBACK ACCESSES:          0 HITS:          0 MISSES:          0
ITLB RQ ACCESS:  499999980
ITLB RQ TO_CACHE:   96418766
ITLB RQ MERGED:  403581214
ITLB RQ FORWARD:          0
ITLB WQ ACCESS:          0
ITLB WQ TO_CACHE:          0
ITLB WQ MERGED:          0
ITLB WQ FORWARD:          0
DTLB TOTAL     ACCESS:  155169342  HIT:  150257259  MISS:    4912083
DTLB LOAD      ACCESS:  117723211  HIT:  113332747  MISS:    4390464
DTLB RFO       ACCESS:   37446131  HIT:   36924512  MISS:     521619
DTLB PREFETCH  ACCESS:          0  HIT:          0  MISS:          0
DTLB WRITEBACK ACCESS:          0  HIT:          0  MISS:          0
DTLB PREFETCH  REQUESTED:          0  ISSUED:          0  USEFUL:          0  USELESS:          0
DTLB TOTAL MSHR MERGED:     451717
DTLB LOAD MSHR MERGED:     160145
DTLB RFO MSHR MERGED:     291572
DTLB PREFETCH MSHR MERGED:          0
DTLB WRITEBACK MSHR MERGED:          0
DTLB TOTAL ACCESSES:  155621059 HITS:  150257259 MISSES:    5363800
DTLB LOAD ACCESSES:  117883356 HITS:  113332747 MISSES:    4550609
DTLB RFO ACCESSES:   37737703 HITS:   36924512 MISSES:     813191
DTLB PREFETCH ACCESSES:          0 HITS:          0 MISSES:          0
DTLB WRITEBACK ACCESSES:          0 HITS:          0 MISSES:          0
DTLB RQ ACCESS:  205978599
DTLB RQ TO_CACHE:  155621059
DTLB RQ MERGED:   50357540
DTLB RQ FORWARD:          0
DTLB WQ ACCESS:          0
DTLB WQ TO_CACHE:          0
DTLB WQ MERGED:          0
DTLB WQ FORWARD:          0
L1D TOTAL     ACCESS:  277255387  HIT:  242432628  MISS:   34822759
L1D LOAD      ACCESS:  125441255  HIT:  107834118  MISS:   17607137
L1D RFO       ACCESS:   41138968  HIT:   38827125  MISS:    2311843
L1D PREFETCH  ACCESS:  110675164  HIT:   95771385  MISS:   14903779
L1D WRITEBACK ACCESS:          0  HIT:          0  MISS:          0
L1D PREFETCH  REQUESTED:  126277856  ISSUED:  124758576  USEFUL:    2737558  USELESS:   12166246
L1D TOTAL MSHR MERGED:    8445721
L1D LOAD MSHR MERGED:    1513098
L1D RFO MSHR MERGED:    3765782
L1D PREFETCH MSHR MERGED:    3166841
L1D WRITEBACK MSHR MERGED:          0
L1D TOTAL ACCESSES:  285788416 HITS:  242519935 MISSES:   43268481
L1D LOAD ACCESSES:  126277882 HITS:  107834144 MISSES:   18443738
L1D RFO ACCESSES:   44904254 HITS:   38827125 MISSES:    6077129
L1D PREFETCH ACCESSES:  114606280 HITS:   95858666 MISSES:   18747614
L1D WRITEBACK ACCESSES:          0 HITS:          0 MISSES:          0
L1D RQ ACCESS:  158431718
L1D RQ TO_CACHE:  126277856
L1D RQ MERGED:   32153836
L1D RQ FORWARD:          0
L1D WQ ACCESS:   47546882
L1D WQ TO_CACHE:   44904254
L1D WQ MERGED:    2642628
L1D WQ FORWARD:      87307
L1I TOTAL     ACCESS:  132829281  HIT:  132829281  MISS:          0
L1I LOAD      ACCESS:  132829281  HIT:  132829281  MISS:          0
L1I RFO       ACCESS:          0  HIT:          0  MISS:          0
L1I PREFETCH  ACCESS:          0  HIT:          0  MISS:          0
L1I WRITEBACK ACCESS:          0  HIT:          0  MISS:          0
L1I PREFETCH  REQUESTED:          0  ISSUED:          0  USEFUL:          0  USELESS:          0
L1I TOTAL MSHR MERGED:          0
L1I LOAD MSHR MERGED:          0
L1I RFO MSHR MERGED:          0
L1I PREFETCH MSHR MERGED:          0
L1I WRITEBACK MSHR MERGED:          0
L1I TOTAL ACCESSES:  132829281 HITS:  132829281 MISSES:          0
L1I LOAD ACCESSES:  132829281 HITS:  132829281 MISSES:          0
L1I RFO ACCESSES:          0 HITS:          0 MISSES:          0
L1I PREFETCH ACCESSES:          0 HITS:          0 MISSES:          0
L1I WRITEBACK ACCESSES:          0 HITS:          0 MISSES:          0
L1I RQ ACCESS:  499999980
L1I RQ TO_CACHE:  132829281
L1I RQ MERGED:  367170699
L1I RQ FORWARD:          0
L1I WQ ACCESS:          0
L1I WQ TO_CACHE:          0
L1I WQ MERGED:          0
L1I WQ FORWARD:          0
L2C TOTAL     ACCESS:   39594920  HIT:   20625547  MISS:   18969373
L2C LOAD      ACCESS:   16930578  HIT:    8567761  MISS:    8362817
L2C RFO       ACCESS:    2311301  HIT:     630833  MISS:    1680468
L2C PREFETCH  ACCESS:   17130589  HIT:    8208248  MISS:    8922341
L2C WRITEBACK ACCESS:    3222452  HIT:    3218705  MISS:       3747
L2C PREFETCH  REQUESTED:    2832127  ISSUED:    2832127  USEFUL:    1307099  USELESS:    7614972
L2C TOTAL MSHR MERGED:     506131
L2C LOAD MSHR MERGED:      75817
L2C RFO MSHR MERGED:          0
L2C PREFETCH MSHR MERGED:     430314
L2C WRITEBACK MSHR MERGED:          0
L2C TOTAL ACCESSES:   40191144 HITS:   20625707 MISSES:   19565437
L2C LOAD ACCESSES:   16930640 HITS:    8567823 MISSES:    8362817
L2C RFO ACCESSES:    2311347 HITS:     630879 MISSES:    1680468
L2C PREFETCH ACCESSES:   17726705 HITS:    8208300 MISSES:    9518405
L2C WRITEBACK ACCESSES:    3222452 HITS:    3218705 MISSES:       3747
L2C RQ ACCESS:   19241987
L2C RQ TO_CACHE:   19241879
L2C RQ MERGED:          0
L2C RQ FORWARD:          0
L2C WQ ACCESS:    3222452
L2C WQ TO_CACHE:    3222452
L2C WQ MERGED:          0
L2C WQ FORWARD:        160
LLC TOTAL     ACCESS:   21188968  HIT:   14186153  MISS:    7002815
LLC LOAD      ACCESS:    8286974  HIT:    5549320  MISS:    2737654
LLC RFO       ACCESS:    1680402  HIT:    1674176  MISS:       6226
LLC PREFETCH  ACCESS:    9045927  HIT:    4791566  MISS:    4254361
LLC WRITEBACK ACCESS:    2175665  HIT:    2171091  MISS:       4574
LLC PREFETCH  REQUESTED:          0  ISSUED:          0  USEFUL:     201599  USELESS:    4055774
LLC TOTAL MSHR MERGED:      35632
LLC LOAD MSHR MERGED:      10392
LLC RFO MSHR MERGED:          0
LLC PREFETCH MSHR MERGED:      25240
LLC WRITEBACK MSHR MERGED:          0
LLC TOTAL ACCESSES:   21224721 HITS:   14186273 MISSES:    7038448
LLC LOAD ACCESSES:    8287000 HITS:    5549346 MISSES:    2737654
LLC RFO ACCESSES:    1680468 HITS:    1674242 MISSES:       6226
LLC PREFETCH ACCESSES:    9081588 HITS:    4791594 MISSES:    4289994
LLC WRITEBACK ACCESSES:    2175665 HITS:    2171091 MISSES:       4574
LLC 0 RQ ACCESS:    9967468
LLC 0 RQ TO_CACHE:    9967376
LLC 0 RQ MERGED:          0
LLC 0 RQ FORWARD:          0
LLC WQ ACCESS:    2175666
LLC WQ TO_CACHE:    2175666
LLC WQ MERGED:          0
LLC WQ FORWARD:        120
Major fault: 0 Minor fault: 56391
CPU 0 L1D next line prefetcher final stats
CPU 0 L2C PC-based stride prefetcher final stats
All Misses: 8263759
All Hits: 16302050
SD Algo Stats - Switches: 0 SRR-Repls: 2885109 BRR-Repls: 0

DRAM Statistics
 CHANNEL 0
 RQ ROW_BUFFER_HIT:    4572142  ROW_BUFFER_MISS:    2417805
 DBUS_CONGESTED:    3219743
 WQ ROW_BUFFER_HIT:        491  ROW_BUFFER_MISS:      17126  FULL:          0

 AVG_CONGESTED_CYCLE: 12
LOADS RETIRED: 173631671
INSTR RETIRED: 500000000
