
*** ChampSim Multicore Out-of-Order Simulator ***

Warmup Instructions: 100000000
Simulation Instructions: 500000000
Number of CPUs: 1
LLC sets: 2048
LLC ways: 16
Clean RRIP Policies: 2202232022022320 Dirty RRIP Policies: 2202030022020300 PSEL Width: 10 Track Set: 4294967295 PSEL Mask: 1 Demote Mask: 441424104414241DS Algo: 0Window size: 0
Off-chip DRAM Size: 4096 MB Channels: 1 Width: 64-bit Data Rate: 1600 MT/s

CPU 0 runs /mnt/beegfs/iconst01/spec2017/Cam4.trace.gz
NOT SORTED
TRACE STRING: /mnt/beegfs/iconst01/spec2017/Cam4.trace.gz
SORTED
TRACE STRING: /mnt/beegfs/iconst01/spec2017/Cam4.trace.gz
INITIAL
TRACE STRING: /mnt/beegfs/iconst01/spec2017/Cam4.trace.gz

champsim_seed used: 325

CPU 0 L1D next line prefetcher
CPU 0 L2C IP-based stride prefetcher
Initialize DRRIP state
Assign rand_sets[0]: 454  LLC: 2048
rand_sets[0]: 454
Assign rand_sets[1]: 1662  LLC: 2048
rand_sets[1]: 1662
Assign rand_sets[2]: 1921  LLC: 2048
rand_sets[2]: 1921
Assign rand_sets[3]: 1131  LLC: 2048
rand_sets[3]: 1131
Assign rand_sets[4]: 331  LLC: 2048
rand_sets[4]: 331
Assign rand_sets[5]: 1531  LLC: 2048
rand_sets[5]: 1531
Assign rand_sets[6]: 482  LLC: 2048
rand_sets[6]: 482
Assign rand_sets[7]: 1275  LLC: 2048
rand_sets[7]: 1275
Assign rand_sets[8]: 1876  LLC: 2048
rand_sets[8]: 1876
Assign rand_sets[9]: 2038  LLC: 2048
rand_sets[9]: 2038
Assign rand_sets[10]: 701  LLC: 2048
rand_sets[10]: 701
Assign rand_sets[11]: 479  LLC: 2048
rand_sets[11]: 479
Assign rand_sets[12]: 892  LLC: 2048
rand_sets[12]: 892
Assign rand_sets[13]: 1820  LLC: 2048
rand_sets[13]: 1820
Assign rand_sets[14]: 1505  LLC: 2048
rand_sets[14]: 1505
Assign rand_sets[15]: 1159  LLC: 2048
rand_sets[15]: 1159
Assign rand_sets[16]: 513  LLC: 2048
rand_sets[16]: 513
Assign rand_sets[17]: 703  LLC: 2048
rand_sets[17]: 703
Assign rand_sets[18]: 561  LLC: 2048
rand_sets[18]: 561
Assign rand_sets[19]: 990  LLC: 2048
rand_sets[19]: 990
Assign rand_sets[20]: 342  LLC: 2048
rand_sets[20]: 342
Assign rand_sets[21]: 882  LLC: 2048
rand_sets[21]: 882
Assign rand_sets[22]: 15  LLC: 2048
rand_sets[22]: 15
Assign rand_sets[23]: 71  LLC: 2048
rand_sets[23]: 71
Assign rand_sets[24]: 1127  LLC: 2048
rand_sets[24]: 1127
Assign rand_sets[25]: 1382  LLC: 2048
rand_sets[25]: 1382
Assign rand_sets[26]: 647  LLC: 2048
rand_sets[26]: 647
Assign rand_sets[27]: 857  LLC: 2048
rand_sets[27]: 857
Assign rand_sets[28]: 1450  LLC: 2048
rand_sets[28]: 1450
Assign rand_sets[29]: 1160  LLC: 2048
rand_sets[29]: 1160
Assign rand_sets[30]: 1852  LLC: 2048
rand_sets[30]: 1852
Assign rand_sets[31]: 1881  LLC: 2048
rand_sets[31]: 1881
Assign rand_sets[32]: 1770  LLC: 2048
rand_sets[32]: 1770
Assign rand_sets[33]: 1622  LLC: 2048
rand_sets[33]: 1622
Assign rand_sets[34]: 275  LLC: 2048
rand_sets[34]: 275
Assign rand_sets[35]: 635  LLC: 2048
rand_sets[35]: 635
Assign rand_sets[36]: 466  LLC: 2048
rand_sets[36]: 466
Assign rand_sets[37]: 1413  LLC: 2048
rand_sets[37]: 1413
Assign rand_sets[38]: 417  LLC: 2048
rand_sets[38]: 417
Assign rand_sets[39]: 472  LLC: 2048
rand_sets[39]: 472
Assign rand_sets[40]: 1340  LLC: 2048
rand_sets[40]: 1340
Assign rand_sets[41]: 852  LLC: 2048
rand_sets[41]: 852
Assign rand_sets[42]: 1365  LLC: 2048
rand_sets[42]: 1365
Assign rand_sets[43]: 47  LLC: 2048
rand_sets[43]: 47
Assign rand_sets[44]: 823  LLC: 2048
rand_sets[44]: 823
Assign rand_sets[45]: 686  LLC: 2048
rand_sets[45]: 686
Assign rand_sets[46]: 1637  LLC: 2048
rand_sets[46]: 1637
Assign rand_sets[47]: 1115  LLC: 2048
rand_sets[47]: 1115
Assign rand_sets[48]: 986  LLC: 2048
rand_sets[48]: 986
Assign rand_sets[49]: 258  LLC: 2048
rand_sets[49]: 258
Assign rand_sets[50]: 633  LLC: 2048
rand_sets[50]: 633
Assign rand_sets[51]: 920  LLC: 2048
rand_sets[51]: 920
Assign rand_sets[52]: 204  LLC: 2048
rand_sets[52]: 204
Assign rand_sets[53]: 227  LLC: 2048
rand_sets[53]: 227
Assign rand_sets[54]: 1818  LLC: 2048
rand_sets[54]: 1818
Assign rand_sets[55]: 886  LLC: 2048
rand_sets[55]: 886
Assign rand_sets[56]: 1422  LLC: 2048
rand_sets[56]: 1422
Assign rand_sets[57]: 607  LLC: 2048
rand_sets[57]: 607
Assign rand_sets[58]: 217  LLC: 2048
rand_sets[58]: 217
Assign rand_sets[59]: 1945  LLC: 2048
rand_sets[59]: 1945
Assign rand_sets[60]: 143  LLC: 2048
rand_sets[60]: 143
Assign rand_sets[61]: 1311  LLC: 2048
rand_sets[61]: 1311
Assign rand_sets[62]: 319  LLC: 2048
rand_sets[62]: 319
Assign rand_sets[63]: 1846  LLC: 2048
rand_sets[63]: 1846
 CLEAN-RRIP-POLICY-1: 2-2-0-2-2-3-2-0- CLEAN-RRIP-POLICY-2: 2-2-0-2-2-3-2-0-
 DIRTY-RRIP-POLICY-1: 2-2-0-2-0-3-0-0- DIRTY-RRIP-POLICY-2: 2-2-0-2-0-3-0-0-
 PSEL width: 10
Heartbeat CPU 0 instructions: 10000000 cycles: 4859184 heartbeat IPC: 2.05796 cumulative IPC: 2.05796 (Simulation time: 0 hr 0 min 17 sec) 
Heartbeat CPU 0 instructions: 20000000 cycles: 9790761 heartbeat IPC: 2.02775 cumulative IPC: 2.04274 (Simulation time: 0 hr 0 min 34 sec) 
Heartbeat CPU 0 instructions: 30000001 cycles: 14563222 heartbeat IPC: 2.09536 cumulative IPC: 2.05998 (Simulation time: 0 hr 0 min 48 sec) 
Heartbeat CPU 0 instructions: 40000000 cycles: 19400469 heartbeat IPC: 2.06729 cumulative IPC: 2.06181 (Simulation time: 0 hr 1 min 5 sec) 
Heartbeat CPU 0 instructions: 50000000 cycles: 24257343 heartbeat IPC: 2.05894 cumulative IPC: 2.06123 (Simulation time: 0 hr 1 min 22 sec) 
Heartbeat CPU 0 instructions: 60000000 cycles: 29182840 heartbeat IPC: 2.03025 cumulative IPC: 2.056 (Simulation time: 0 hr 1 min 39 sec) 
Heartbeat CPU 0 instructions: 70000001 cycles: 33957294 heartbeat IPC: 2.09448 cumulative IPC: 2.06141 (Simulation time: 0 hr 1 min 54 sec) 
Heartbeat CPU 0 instructions: 80000000 cycles: 38793865 heartbeat IPC: 2.06758 cumulative IPC: 2.06218 (Simulation time: 0 hr 2 min 11 sec) 
Heartbeat CPU 0 instructions: 90000002 cycles: 43648198 heartbeat IPC: 2.06002 cumulative IPC: 2.06194 (Simulation time: 0 hr 2 min 28 sec) 
Heartbeat CPU 0 instructions: 100000000 cycles: 48567135 heartbeat IPC: 2.03296 cumulative IPC: 2.05901 (Simulation time: 0 hr 2 min 45 sec) 

Warmup complete CPU 0 instructions: 100000001 cycles: 48567136 (Simulation time: 0 hr 2 min 45 sec) 

Heartbeat CPU 0 instructions: 110000000 cycles: 61946095 heartbeat IPC: 0.747442 cumulative IPC: 0.747442 (Simulation time: 0 hr 3 min 8 sec) 
Heartbeat CPU 0 instructions: 120000000 cycles: 75816635 heartbeat IPC: 0.720952 cumulative IPC: 0.733958 (Simulation time: 0 hr 3 min 33 sec) 
Heartbeat CPU 0 instructions: 130000000 cycles: 89704670 heartbeat IPC: 0.720044 cumulative IPC: 0.729261 (Simulation time: 0 hr 3 min 58 sec) 
Heartbeat CPU 0 instructions: 140000000 cycles: 104054776 heartbeat IPC: 0.696859 cumulative IPC: 0.720881 (Simulation time: 0 hr 4 min 23 sec) 
Heartbeat CPU 0 instructions: 150000003 cycles: 117499035 heartbeat IPC: 0.743812 cumulative IPC: 0.725354 (Simulation time: 0 hr 4 min 46 sec) 
Heartbeat CPU 0 instructions: 160000000 cycles: 131364349 heartbeat IPC: 0.721224 cumulative IPC: 0.724662 (Simulation time: 0 hr 5 min 12 sec) 
Heartbeat CPU 0 instructions: 170000001 cycles: 145283169 heartbeat IPC: 0.718452 cumulative IPC: 0.723768 (Simulation time: 0 hr 5 min 37 sec) 
Heartbeat CPU 0 instructions: 180000000 cycles: 159616820 heartbeat IPC: 0.697659 cumulative IPC: 0.720398 (Simulation time: 0 hr 6 min 2 sec) 
Heartbeat CPU 0 instructions: 190000003 cycles: 173032114 heartbeat IPC: 0.745418 cumulative IPC: 0.723095 (Simulation time: 0 hr 6 min 25 sec) 
Heartbeat CPU 0 instructions: 200000000 cycles: 186895572 heartbeat IPC: 0.721321 cumulative IPC: 0.722917 (Simulation time: 0 hr 6 min 50 sec) 
Heartbeat CPU 0 instructions: 210000002 cycles: 200807096 heartbeat IPC: 0.718829 cumulative IPC: 0.722544 (Simulation time: 0 hr 7 min 16 sec) 
Heartbeat CPU 0 instructions: 220000000 cycles: 215138492 heartbeat IPC: 0.697769 cumulative IPC: 0.720412 (Simulation time: 0 hr 7 min 41 sec) 
Heartbeat CPU 0 instructions: 230000001 cycles: 228455558 heartbeat IPC: 0.750916 cumulative IPC: 0.72267 (Simulation time: 0 hr 8 min 4 sec) 
Heartbeat CPU 0 instructions: 240000000 cycles: 242302410 heartbeat IPC: 0.722186 cumulative IPC: 0.722636 (Simulation time: 0 hr 8 min 29 sec) 
Heartbeat CPU 0 instructions: 250000001 cycles: 256157985 heartbeat IPC: 0.721731 cumulative IPC: 0.722575 (Simulation time: 0 hr 8 min 55 sec) 
Heartbeat CPU 0 instructions: 260000000 cycles: 270378958 heartbeat IPC: 0.703187 cumulative IPC: 0.721332 (Simulation time: 0 hr 9 min 20 sec) 
Heartbeat CPU 0 instructions: 270000003 cycles: 283870278 heartbeat IPC: 0.741218 cumulative IPC: 0.722472 (Simulation time: 0 hr 9 min 43 sec) 
Heartbeat CPU 0 instructions: 280000000 cycles: 297730196 heartbeat IPC: 0.721505 cumulative IPC: 0.722418 (Simulation time: 0 hr 10 min 8 sec) 
Heartbeat CPU 0 instructions: 290000001 cycles: 311640313 heartbeat IPC: 0.718901 cumulative IPC: 0.722233 (Simulation time: 0 hr 10 min 33 sec) 
Heartbeat CPU 0 instructions: 300000000 cycles: 325804314 heartbeat IPC: 0.706015 cumulative IPC: 0.721404 (Simulation time: 0 hr 10 min 58 sec) 
Heartbeat CPU 0 instructions: 310000000 cycles: 339358738 heartbeat IPC: 0.737767 cumulative IPC: 0.722167 (Simulation time: 0 hr 11 min 21 sec) 
Heartbeat CPU 0 instructions: 320000000 cycles: 353270233 heartbeat IPC: 0.71883 cumulative IPC: 0.722014 (Simulation time: 0 hr 11 min 47 sec) 
Heartbeat CPU 0 instructions: 330000000 cycles: 367199832 heartbeat IPC: 0.717896 cumulative IPC: 0.721834 (Simulation time: 0 hr 12 min 12 sec) 
Heartbeat CPU 0 instructions: 340000000 cycles: 381340188 heartbeat IPC: 0.707196 cumulative IPC: 0.721212 (Simulation time: 0 hr 12 min 37 sec) 
Heartbeat CPU 0 instructions: 350000000 cycles: 394951224 heartbeat IPC: 0.734698 cumulative IPC: 0.721742 (Simulation time: 0 hr 13 min 0 sec) 
Heartbeat CPU 0 instructions: 360000000 cycles: 408899887 heartbeat IPC: 0.716915 cumulative IPC: 0.721555 (Simulation time: 0 hr 13 min 25 sec) 
Heartbeat CPU 0 instructions: 370000003 cycles: 422833858 heartbeat IPC: 0.717671 cumulative IPC: 0.721411 (Simulation time: 0 hr 13 min 50 sec) 
Heartbeat CPU 0 instructions: 380000000 cycles: 436940833 heartbeat IPC: 0.708869 cumulative IPC: 0.720955 (Simulation time: 0 hr 14 min 15 sec) 
Heartbeat CPU 0 instructions: 390000003 cycles: 450534713 heartbeat IPC: 0.735625 cumulative IPC: 0.721451 (Simulation time: 0 hr 14 min 38 sec) 
Heartbeat CPU 0 instructions: 400000000 cycles: 464463535 heartbeat IPC: 0.717936 cumulative IPC: 0.721334 (Simulation time: 0 hr 15 min 3 sec) 
Heartbeat CPU 0 instructions: 410000000 cycles: 478358054 heartbeat IPC: 0.719708 cumulative IPC: 0.721281 (Simulation time: 0 hr 15 min 28 sec) 
Heartbeat CPU 0 instructions: 420000000 cycles: 492455323 heartbeat IPC: 0.709357 cumulative IPC: 0.720902 (Simulation time: 0 hr 15 min 53 sec) 
Heartbeat CPU 0 instructions: 430000003 cycles: 506090548 heartbeat IPC: 0.733395 cumulative IPC: 0.721275 (Simulation time: 0 hr 16 min 16 sec) 
Heartbeat CPU 0 instructions: 440000000 cycles: 520027843 heartbeat IPC: 0.717499 cumulative IPC: 0.721163 (Simulation time: 0 hr 16 min 41 sec) 
Heartbeat CPU 0 instructions: 450000000 cycles: 533937853 heartbeat IPC: 0.718907 cumulative IPC: 0.721098 (Simulation time: 0 hr 17 min 6 sec) 
Heartbeat CPU 0 instructions: 460000000 cycles: 548011562 heartbeat IPC: 0.710545 cumulative IPC: 0.720801 (Simulation time: 0 hr 17 min 31 sec) 
Heartbeat CPU 0 instructions: 470000001 cycles: 561602081 heartbeat IPC: 0.735807 cumulative IPC: 0.721198 (Simulation time: 0 hr 17 min 54 sec) 
Heartbeat CPU 0 instructions: 480000000 cycles: 575501866 heartbeat IPC: 0.719436 cumulative IPC: 0.721152 (Simulation time: 0 hr 18 min 19 sec) 
Heartbeat CPU 0 instructions: 490000002 cycles: 589382451 heartbeat IPC: 0.720431 cumulative IPC: 0.721133 (Simulation time: 0 hr 18 min 44 sec) 
Heartbeat CPU 0 instructions: 500000000 cycles: 603458391 heartbeat IPC: 0.710432 cumulative IPC: 0.720862 (Simulation time: 0 hr 19 min 9 sec) 
Heartbeat CPU 0 instructions: 510000002 cycles: 617065694 heartbeat IPC: 0.7349 cumulative IPC: 0.721198 (Simulation time: 0 hr 19 min 32 sec) 
Heartbeat CPU 0 instructions: 520000000 cycles: 630959637 heartbeat IPC: 0.719738 cumulative IPC: 0.721163 (Simulation time: 0 hr 19 min 56 sec) 
Heartbeat CPU 0 instructions: 530000003 cycles: 644814347 heartbeat IPC: 0.721776 cumulative IPC: 0.721177 (Simulation time: 0 hr 20 min 21 sec) 
Heartbeat CPU 0 instructions: 540000000 cycles: 658907186 heartbeat IPC: 0.70958 cumulative IPC: 0.72091 (Simulation time: 0 hr 20 min 46 sec) 
Heartbeat CPU 0 instructions: 550000003 cycles: 672541367 heartbeat IPC: 0.733451 cumulative IPC: 0.721184 (Simulation time: 0 hr 21 min 9 sec) 
Heartbeat CPU 0 instructions: 560000000 cycles: 686409620 heartbeat IPC: 0.721071 cumulative IPC: 0.721181 (Simulation time: 0 hr 21 min 34 sec) 
Heartbeat CPU 0 instructions: 570000001 cycles: 700302924 heartbeat IPC: 0.719771 cumulative IPC: 0.721151 (Simulation time: 0 hr 21 min 59 sec) 
Heartbeat CPU 0 instructions: 580000000 cycles: 714423273 heartbeat IPC: 0.708198 cumulative IPC: 0.720876 (Simulation time: 0 hr 22 min 24 sec) 
Heartbeat CPU 0 instructions: 590000000 cycles: 727990724 heartbeat IPC: 0.737058 cumulative IPC: 0.7212 (Simulation time: 0 hr 22 min 47 sec) 
Heartbeat CPU 0 instructions: 600000000 cycles: 741860040 heartbeat IPC: 0.721016 cumulative IPC: 0.721196 (Simulation time: 0 hr 23 min 12 sec) 
Finished CPU 0 instructions: 500000001 cycles: 693292912 cumulative IPC: 0.721196 (Simulation time: 0 hr 23 min 12 sec) 

CPU 0 Branch Prediction Accuracy: 97.5275% MPKI: 2.1997
Number of Branches: 44482865 Number of Mispredictions: 1099852
Number of LOAD Instructions: 144955155
Number of LOAD Instructions (ROI): 144955155
Number of STORE Instructions: 55921098
Number of STORE Instructions (ROI): 55921098
Total Destination Memory Operands: 57111147
Total Destination Memory Operands (ROI): 57111147
Total Source Memory Operands: 144955155
Total Source Memory Operands (ROI): 144955155
Number of DEPENDED LOADS: 13454590
Number of DEPENDED LOADS (ROI): 13454590
Number of SQ_ADDED: 57111126
Number of SQ_ADDED (ROI): 57111126
Number of LQ_ADDED: 176722727
Number of LQ_ADDED (ROI): 176722727
Number of Instructions read from trace: 600000256

ChampSim completed all CPUs

Region of Interest Statistics

CPU 0 cumulative IPC: 0.721196 instructions: 500000001 cycles: 693292912
ITLB TOTAL     ACCESS:  136085913  HIT:  136083360  MISS:       2553
ITLB LOAD      ACCESS:  136085913  HIT:  136083360  MISS:       2553
ITLB RFO       ACCESS:          0  HIT:          0  MISS:          0
ITLB PREFETCH  ACCESS:          0  HIT:          0  MISS:          0
ITLB WRITEBACK ACCESS:          0  HIT:          0  MISS:          0
ITLB PREFETCH  REQUESTED:          0  ISSUED:          0  USEFUL:          0  USELESS:          0
ITLB TOTAL MSHR MERGED:       4403
ITLB LOAD MSHR MERGED:       4403
ITLB RFO MSHR MERGED:          0
ITLB PREFETCH MSHR MERGED:          0
ITLB WRITEBACK MSHR MERGED:          0
ITLB TOTAL ACCESSES:  136090316 HITS:  136083360 MISSES:       6956
ITLB LOAD ACCESSES:  136090316 HITS:  136083360 MISSES:       6956
ITLB RFO ACCESSES:          0 HITS:          0 MISSES:          0
ITLB PREFETCH ACCESSES:          0 HITS:          0 MISSES:          0
ITLB WRITEBACK ACCESSES:          0 HITS:          0 MISSES:          0
ITLB RQ ACCESS:  500000202
ITLB RQ TO_CACHE:  136090316
ITLB RQ MERGED:  363909886
ITLB RQ FORWARD:          0
ITLB WQ ACCESS:          0
ITLB WQ TO_CACHE:          0
ITLB WQ MERGED:          0
ITLB WQ FORWARD:          0
DTLB TOTAL     ACCESS:  111531729  HIT:  111395537  MISS:     136192
DTLB LOAD      ACCESS:   78939231  HIT:   78813608  MISS:     125623
DTLB RFO       ACCESS:   32592498  HIT:   32581929  MISS:      10569
DTLB PREFETCH  ACCESS:          0  HIT:          0  MISS:          0
DTLB WRITEBACK ACCESS:          0  HIT:          0  MISS:          0
DTLB PREFETCH  REQUESTED:          0  ISSUED:          0  USEFUL:          0  USELESS:          0
DTLB TOTAL MSHR MERGED:      63650
DTLB LOAD MSHR MERGED:      51227
DTLB RFO MSHR MERGED:      12423
DTLB PREFETCH MSHR MERGED:          0
DTLB WRITEBACK MSHR MERGED:          0
DTLB TOTAL ACCESSES:  111595379 HITS:  111395537 MISSES:     199842
DTLB LOAD ACCESSES:   78990458 HITS:   78813608 MISSES:     176850
DTLB RFO ACCESSES:   32604921 HITS:   32581929 MISSES:      22992
DTLB PREFETCH ACCESSES:          0 HITS:          0 MISSES:          0
DTLB WRITEBACK ACCESSES:          0 HITS:          0 MISSES:          0
DTLB RQ ACCESS:  157180861
DTLB RQ TO_CACHE:  111595379
DTLB RQ MERGED:   45585482
DTLB RQ FORWARD:          0
DTLB WQ ACCESS:          0
DTLB WQ TO_CACHE:          0
DTLB WQ MERGED:          0
DTLB WQ FORWARD:          0
L1D TOTAL     ACCESS:  198012577  HIT:  188171724  MISS:    9840853
L1D LOAD      ACCESS:   79909002  HIT:   75624995  MISS:    4284007
L1D RFO       ACCESS:   44429226  HIT:   43528423  MISS:     900803
L1D PREFETCH  ACCESS:   73674349  HIT:   69018306  MISS:    4656043
L1D WRITEBACK ACCESS:          0  HIT:          0  MISS:          0
L1D PREFETCH  REQUESTED:   80336019  ISSUED:   79880342  USEFUL:    1797801  USELESS:    2858151
L1D TOTAL MSHR MERGED:    2710105
L1D LOAD MSHR MERGED:     570628
L1D RFO MSHR MERGED:    1522210
L1D PREFETCH MSHR MERGED:     617267
L1D WRITEBACK MSHR MERGED:          0
L1D TOTAL ACCESSES:  200745813 HITS:  188194855 MISSES:   12550958
L1D LOAD ACCESSES:   80350554 HITS:   75639530 MISSES:    4711024
L1D RFO ACCESSES:   45948284 HITS:   43528423 MISSES:    2419861
L1D PREFETCH ACCESSES:   74446975 HITS:   69026902 MISSES:    5420073
L1D WRITEBACK ACCESSES:          0 HITS:          0 MISSES:          0
L1D RQ ACCESS:  109538891
L1D RQ TO_CACHE:   80336019
L1D RQ MERGED:   29188337
L1D RQ FORWARD:          0
L1D WQ ACCESS:   47641970
L1D WQ TO_CACHE:   45948284
L1D WQ MERGED:    1693686
L1D WQ FORWARD:      23131
L1I TOTAL     ACCESS:  161553284  HIT:  161289322  MISS:     263962
L1I LOAD      ACCESS:  161553284  HIT:  161289322  MISS:     263962
L1I RFO       ACCESS:          0  HIT:          0  MISS:          0
L1I PREFETCH  ACCESS:          0  HIT:          0  MISS:          0
L1I WRITEBACK ACCESS:          0  HIT:          0  MISS:          0
L1I PREFETCH  REQUESTED:          0  ISSUED:          0  USEFUL:          0  USELESS:          0
L1I TOTAL MSHR MERGED:     260157
L1I LOAD MSHR MERGED:     260157
L1I RFO MSHR MERGED:          0
L1I PREFETCH MSHR MERGED:          0
L1I WRITEBACK MSHR MERGED:          0
L1I TOTAL ACCESSES:  161813441 HITS:  161289322 MISSES:     524119
L1I LOAD ACCESSES:  161813441 HITS:  161289322 MISSES:     524119
L1I RFO ACCESSES:          0 HITS:          0 MISSES:          0
L1I PREFETCH ACCESSES:          0 HITS:          0 MISSES:          0
L1I WRITEBACK ACCESSES:          0 HITS:          0 MISSES:          0
L1I RQ ACCESS:  500000202
L1I RQ TO_CACHE:  161813441
L1I RQ MERGED:  338186761
L1I RQ FORWARD:          0
L1I WQ ACCESS:          0
L1I WQ TO_CACHE:          0
L1I WQ MERGED:          0
L1I WQ FORWARD:          0
L2C TOTAL     ACCESS:   11772720  HIT:   10383456  MISS:    1389264
L2C LOAD      ACCESS:    4404294  HIT:    3907889  MISS:     496405
L2C RFO       ACCESS:     897582  HIT:     536377  MISS:     361205
L2C PREFETCH  ACCESS:    5283388  HIT:    4754674  MISS:     528714
L2C WRITEBACK ACCESS:    1187456  HIT:    1184516  MISS:       2940
L2C PREFETCH  REQUESTED:     504287  ISSUED:     504287  USEFUL:     115072  USELESS:     413834
L2C TOTAL MSHR MERGED:       1986
L2C LOAD MSHR MERGED:        381
L2C RFO MSHR MERGED:          0
L2C PREFETCH MSHR MERGED:       1605
L2C WRITEBACK MSHR MERGED:          0
L2C TOTAL ACCESSES:   11776159 HITS:   10383665 MISSES:    1392494
L2C LOAD ACCESSES:    4404358 HITS:    3907953 MISSES:     496405
L2C RFO ACCESSES:     897651 HITS:     536446 MISSES:     361205
L2C PREFETCH ACCESSES:    5286694 HITS:    4754750 MISSES:     531944
L2C WRITEBACK ACCESSES:    1187456 HITS:    1184516 MISSES:       2940
L2C RQ ACCESS:    5302009
L2C RQ TO_CACHE:    5301876
L2C RQ MERGED:          0
L2C RQ FORWARD:          0
L2C WQ ACCESS:    1187456
L2C WQ TO_CACHE:    1187456
L2C WQ MERGED:          0
L2C WQ FORWARD:        209
LLC TOTAL     ACCESS:    1848203  HIT:     889902  MISS:     958301
LLC LOAD      ACCESS:     496022  HIT:     280265  MISS:     215757
LLC RFO       ACCESS:     361198  HIT:      92692  MISS:     268506
LLC PREFETCH  ACCESS:     530298  HIT:     314091  MISS:     216207
LLC WRITEBACK ACCESS:     460685  HIT:     202854  MISS:     257831
LLC PREFETCH  REQUESTED:          0  ISSUED:          0  USEFUL:      16903  USELESS:     199955
LLC TOTAL MSHR MERGED:         23
LLC LOAD MSHR MERGED:          8
LLC RFO MSHR MERGED:          0
LLC PREFETCH MSHR MERGED:         15
LLC WRITEBACK MSHR MERGED:          0
LLC TOTAL ACCESSES:    1848252 HITS:     889928 MISSES:     958324
LLC LOAD ACCESSES:     496024 HITS:     280267 MISSES:     215757
LLC RFO ACCESSES:     361205 HITS:      92699 MISSES:     268506
LLC PREFETCH ACCESSES:     530338 HITS:     314108 MISSES:     216230
LLC WRITEBACK ACCESSES:     460685 HITS:     202854 MISSES:     257831
LLC 0 RQ ACCESS:     857229
LLC 0 RQ TO_CACHE:     857220
LLC 0 RQ MERGED:          0
LLC 0 RQ FORWARD:          0
LLC WQ ACCESS:     460685
LLC WQ TO_CACHE:     460685
LLC WQ MERGED:          0
LLC WQ FORWARD:         26
Major fault: 0 Minor fault: 3073
CPU 0 L1D next line prefetcher final stats
CPU 0 L2C PC-based stride prefetcher final stats
All Misses: 1143701
All Hits: 1031197
SD Algo Stats - Switches: 0 SRR-Repls: 252831 BRR-Repls: 0

DRAM Statistics
 CHANNEL 0
 RQ ROW_BUFFER_HIT:     358858  ROW_BUFFER_MISS:     339206
 DBUS_CONGESTED:     591703
 WQ ROW_BUFFER_HIT:      84392  ROW_BUFFER_MISS:     232904  FULL:        359

 AVG_CONGESTED_CYCLE: 13
LOADS RETIRED: 120673965
INSTR RETIRED: 500000000
