
*** ChampSim Multicore Out-of-Order Simulator ***

Warmup Instructions: 100000000
Simulation Instructions: 500000000
Number of CPUs: 1
LLC sets: 2048
LLC ways: 16
Clean RRIP Policies: 2202232022022320 Dirty RRIP Policies: 2202030022020300 PSEL Width: 10 Track Set: 4294967295 PSEL Mask: 1 Demote Mask: 441424104414241DS Algo: 0Window size: 0
Off-chip DRAM Size: 4096 MB Channels: 1 Width: 64-bit Data Rate: 1600 MT/s

CPU 0 runs /mnt/beegfs/iconst01/spec2017/Mcf.trace.gz
NOT SORTED
TRACE STRING: /mnt/beegfs/iconst01/spec2017/Mcf.trace.gz
SORTED
TRACE STRING: /mnt/beegfs/iconst01/spec2017/Mcf.trace.gz
INITIAL
TRACE STRING: /mnt/beegfs/iconst01/spec2017/Mcf.trace.gz

champsim_seed used: 278

CPU 0 L1D next line prefetcher
CPU 0 L2C IP-based stride prefetcher
Initialize DRRIP state
Assign rand_sets[0]: 454  LLC: 2048
rand_sets[0]: 454
Assign rand_sets[1]: 1662  LLC: 2048
rand_sets[1]: 1662
Assign rand_sets[2]: 1921  LLC: 2048
rand_sets[2]: 1921
Assign rand_sets[3]: 1131  LLC: 2048
rand_sets[3]: 1131
Assign rand_sets[4]: 331  LLC: 2048
rand_sets[4]: 331
Assign rand_sets[5]: 1531  LLC: 2048
rand_sets[5]: 1531
Assign rand_sets[6]: 482  LLC: 2048
rand_sets[6]: 482
Assign rand_sets[7]: 1275  LLC: 2048
rand_sets[7]: 1275
Assign rand_sets[8]: 1876  LLC: 2048
rand_sets[8]: 1876
Assign rand_sets[9]: 2038  LLC: 2048
rand_sets[9]: 2038
Assign rand_sets[10]: 701  LLC: 2048
rand_sets[10]: 701
Assign rand_sets[11]: 479  LLC: 2048
rand_sets[11]: 479
Assign rand_sets[12]: 892  LLC: 2048
rand_sets[12]: 892
Assign rand_sets[13]: 1820  LLC: 2048
rand_sets[13]: 1820
Assign rand_sets[14]: 1505  LLC: 2048
rand_sets[14]: 1505
Assign rand_sets[15]: 1159  LLC: 2048
rand_sets[15]: 1159
Assign rand_sets[16]: 513  LLC: 2048
rand_sets[16]: 513
Assign rand_sets[17]: 703  LLC: 2048
rand_sets[17]: 703
Assign rand_sets[18]: 561  LLC: 2048
rand_sets[18]: 561
Assign rand_sets[19]: 990  LLC: 2048
rand_sets[19]: 990
Assign rand_sets[20]: 342  LLC: 2048
rand_sets[20]: 342
Assign rand_sets[21]: 882  LLC: 2048
rand_sets[21]: 882
Assign rand_sets[22]: 15  LLC: 2048
rand_sets[22]: 15
Assign rand_sets[23]: 71  LLC: 2048
rand_sets[23]: 71
Assign rand_sets[24]: 1127  LLC: 2048
rand_sets[24]: 1127
Assign rand_sets[25]: 1382  LLC: 2048
rand_sets[25]: 1382
Assign rand_sets[26]: 647  LLC: 2048
rand_sets[26]: 647
Assign rand_sets[27]: 857  LLC: 2048
rand_sets[27]: 857
Assign rand_sets[28]: 1450  LLC: 2048
rand_sets[28]: 1450
Assign rand_sets[29]: 1160  LLC: 2048
rand_sets[29]: 1160
Assign rand_sets[30]: 1852  LLC: 2048
rand_sets[30]: 1852
Assign rand_sets[31]: 1881  LLC: 2048
rand_sets[31]: 1881
Assign rand_sets[32]: 1770  LLC: 2048
rand_sets[32]: 1770
Assign rand_sets[33]: 1622  LLC: 2048
rand_sets[33]: 1622
Assign rand_sets[34]: 275  LLC: 2048
rand_sets[34]: 275
Assign rand_sets[35]: 635  LLC: 2048
rand_sets[35]: 635
Assign rand_sets[36]: 466  LLC: 2048
rand_sets[36]: 466
Assign rand_sets[37]: 1413  LLC: 2048
rand_sets[37]: 1413
Assign rand_sets[38]: 417  LLC: 2048
rand_sets[38]: 417
Assign rand_sets[39]: 472  LLC: 2048
rand_sets[39]: 472
Assign rand_sets[40]: 1340  LLC: 2048
rand_sets[40]: 1340
Assign rand_sets[41]: 852  LLC: 2048
rand_sets[41]: 852
Assign rand_sets[42]: 1365  LLC: 2048
rand_sets[42]: 1365
Assign rand_sets[43]: 47  LLC: 2048
rand_sets[43]: 47
Assign rand_sets[44]: 823  LLC: 2048
rand_sets[44]: 823
Assign rand_sets[45]: 686  LLC: 2048
rand_sets[45]: 686
Assign rand_sets[46]: 1637  LLC: 2048
rand_sets[46]: 1637
Assign rand_sets[47]: 1115  LLC: 2048
rand_sets[47]: 1115
Assign rand_sets[48]: 986  LLC: 2048
rand_sets[48]: 986
Assign rand_sets[49]: 258  LLC: 2048
rand_sets[49]: 258
Assign rand_sets[50]: 633  LLC: 2048
rand_sets[50]: 633
Assign rand_sets[51]: 920  LLC: 2048
rand_sets[51]: 920
Assign rand_sets[52]: 204  LLC: 2048
rand_sets[52]: 204
Assign rand_sets[53]: 227  LLC: 2048
rand_sets[53]: 227
Assign rand_sets[54]: 1818  LLC: 2048
rand_sets[54]: 1818
Assign rand_sets[55]: 886  LLC: 2048
rand_sets[55]: 886
Assign rand_sets[56]: 1422  LLC: 2048
rand_sets[56]: 1422
Assign rand_sets[57]: 607  LLC: 2048
rand_sets[57]: 607
Assign rand_sets[58]: 217  LLC: 2048
rand_sets[58]: 217
Assign rand_sets[59]: 1945  LLC: 2048
rand_sets[59]: 1945
Assign rand_sets[60]: 143  LLC: 2048
rand_sets[60]: 143
Assign rand_sets[61]: 1311  LLC: 2048
rand_sets[61]: 1311
Assign rand_sets[62]: 319  LLC: 2048
rand_sets[62]: 319
Assign rand_sets[63]: 1846  LLC: 2048
rand_sets[63]: 1846
 CLEAN-RRIP-POLICY-1: 2-2-0-2-2-3-2-0- CLEAN-RRIP-POLICY-2: 2-2-0-2-2-3-2-0-
 DIRTY-RRIP-POLICY-1: 2-2-0-2-0-3-0-0- DIRTY-RRIP-POLICY-2: 2-2-0-2-0-3-0-0-
 PSEL width: 10
Heartbeat CPU 0 instructions: 10000002 cycles: 6252205 heartbeat IPC: 1.59944 cumulative IPC: 1.59944 (Simulation time: 0 hr 0 min 12 sec) 
Heartbeat CPU 0 instructions: 20000000 cycles: 12479996 heartbeat IPC: 1.60571 cumulative IPC: 1.60256 (Simulation time: 0 hr 0 min 25 sec) 
Heartbeat CPU 0 instructions: 30000000 cycles: 18698841 heartbeat IPC: 1.60802 cumulative IPC: 1.60438 (Simulation time: 0 hr 0 min 38 sec) 
Heartbeat CPU 0 instructions: 40000000 cycles: 24917467 heartbeat IPC: 1.60807 cumulative IPC: 1.6053 (Simulation time: 0 hr 0 min 50 sec) 
Heartbeat CPU 0 instructions: 50000003 cycles: 31138533 heartbeat IPC: 1.60744 cumulative IPC: 1.60573 (Simulation time: 0 hr 1 min 3 sec) 
Heartbeat CPU 0 instructions: 60000000 cycles: 37342816 heartbeat IPC: 1.61179 cumulative IPC: 1.60673 (Simulation time: 0 hr 1 min 16 sec) 
Heartbeat CPU 0 instructions: 70000003 cycles: 43569987 heartbeat IPC: 1.60587 cumulative IPC: 1.60661 (Simulation time: 0 hr 1 min 29 sec) 
Heartbeat CPU 0 instructions: 80000000 cycles: 49808461 heartbeat IPC: 1.60296 cumulative IPC: 1.60615 (Simulation time: 0 hr 1 min 41 sec) 
Heartbeat CPU 0 instructions: 90000000 cycles: 56046010 heartbeat IPC: 1.60319 cumulative IPC: 1.60582 (Simulation time: 0 hr 1 min 54 sec) 
Heartbeat CPU 0 instructions: 100000000 cycles: 62274211 heartbeat IPC: 1.6056 cumulative IPC: 1.6058 (Simulation time: 0 hr 2 min 7 sec) 

Warmup complete CPU 0 instructions: 100000001 cycles: 62274212 (Simulation time: 0 hr 2 min 7 sec) 

Heartbeat CPU 0 instructions: 110000000 cycles: 89566625 heartbeat IPC: 0.366402 cumulative IPC: 0.366402 (Simulation time: 0 hr 2 min 32 sec) 
Heartbeat CPU 0 instructions: 120000000 cycles: 116750055 heartbeat IPC: 0.367871 cumulative IPC: 0.367135 (Simulation time: 0 hr 2 min 57 sec) 
Heartbeat CPU 0 instructions: 130000000 cycles: 144014394 heartbeat IPC: 0.366779 cumulative IPC: 0.367017 (Simulation time: 0 hr 3 min 23 sec) 
Heartbeat CPU 0 instructions: 140000000 cycles: 171134321 heartbeat IPC: 0.368733 cumulative IPC: 0.367444 (Simulation time: 0 hr 3 min 48 sec) 
Heartbeat CPU 0 instructions: 150000003 cycles: 198073043 heartbeat IPC: 0.371213 cumulative IPC: 0.368192 (Simulation time: 0 hr 4 min 13 sec) 
Heartbeat CPU 0 instructions: 160000000 cycles: 225389366 heartbeat IPC: 0.366081 cumulative IPC: 0.367838 (Simulation time: 0 hr 4 min 38 sec) 
Heartbeat CPU 0 instructions: 170000001 cycles: 252485923 heartbeat IPC: 0.369051 cumulative IPC: 0.368011 (Simulation time: 0 hr 5 min 4 sec) 
Heartbeat CPU 0 instructions: 180000000 cycles: 279581618 heartbeat IPC: 0.369062 cumulative IPC: 0.368142 (Simulation time: 0 hr 5 min 29 sec) 
Heartbeat CPU 0 instructions: 190000003 cycles: 306600646 heartbeat IPC: 0.37011 cumulative IPC: 0.36836 (Simulation time: 0 hr 5 min 54 sec) 
Heartbeat CPU 0 instructions: 200000000 cycles: 333665061 heartbeat IPC: 0.369489 cumulative IPC: 0.368472 (Simulation time: 0 hr 6 min 20 sec) 
Heartbeat CPU 0 instructions: 210000003 cycles: 360731821 heartbeat IPC: 0.369457 cumulative IPC: 0.368562 (Simulation time: 0 hr 6 min 45 sec) 
Heartbeat CPU 0 instructions: 220000000 cycles: 388126728 heartbeat IPC: 0.365031 cumulative IPC: 0.368265 (Simulation time: 0 hr 7 min 10 sec) 
Heartbeat CPU 0 instructions: 230000002 cycles: 414998289 heartbeat IPC: 0.372141 cumulative IPC: 0.36856 (Simulation time: 0 hr 7 min 36 sec) 
Heartbeat CPU 0 instructions: 240000000 cycles: 442332151 heartbeat IPC: 0.365847 cumulative IPC: 0.368365 (Simulation time: 0 hr 8 min 1 sec) 
Heartbeat CPU 0 instructions: 250000000 cycles: 469360354 heartbeat IPC: 0.369984 cumulative IPC: 0.368472 (Simulation time: 0 hr 8 min 26 sec) 
Heartbeat CPU 0 instructions: 260000000 cycles: 496374254 heartbeat IPC: 0.37018 cumulative IPC: 0.368579 (Simulation time: 0 hr 8 min 52 sec) 
Heartbeat CPU 0 instructions: 270000001 cycles: 523510912 heartbeat IPC: 0.368505 cumulative IPC: 0.368574 (Simulation time: 0 hr 9 min 17 sec) 
Heartbeat CPU 0 instructions: 280000000 cycles: 550488001 heartbeat IPC: 0.370685 cumulative IPC: 0.368691 (Simulation time: 0 hr 9 min 43 sec) 
Heartbeat CPU 0 instructions: 290000001 cycles: 577519075 heartbeat IPC: 0.369945 cumulative IPC: 0.368757 (Simulation time: 0 hr 10 min 8 sec) 
Heartbeat CPU 0 instructions: 300000000 cycles: 604836621 heartbeat IPC: 0.366065 cumulative IPC: 0.368621 (Simulation time: 0 hr 10 min 33 sec) 
Heartbeat CPU 0 instructions: 310000003 cycles: 631696845 heartbeat IPC: 0.372298 cumulative IPC: 0.368795 (Simulation time: 0 hr 10 min 59 sec) 
Heartbeat CPU 0 instructions: 320000000 cycles: 658963205 heartbeat IPC: 0.366752 cumulative IPC: 0.368701 (Simulation time: 0 hr 11 min 24 sec) 
Heartbeat CPU 0 instructions: 330000003 cycles: 685815825 heartbeat IPC: 0.372403 cumulative IPC: 0.368861 (Simulation time: 0 hr 11 min 49 sec) 
Heartbeat CPU 0 instructions: 340000000 cycles: 713131154 heartbeat IPC: 0.366095 cumulative IPC: 0.368745 (Simulation time: 0 hr 12 min 15 sec) 
Heartbeat CPU 0 instructions: 350000002 cycles: 740467524 heartbeat IPC: 0.365813 cumulative IPC: 0.368626 (Simulation time: 0 hr 12 min 40 sec) 
Heartbeat CPU 0 instructions: 360000000 cycles: 767938252 heartbeat IPC: 0.364024 cumulative IPC: 0.368447 (Simulation time: 0 hr 13 min 6 sec) 
Heartbeat CPU 0 instructions: 370000002 cycles: 795141639 heartbeat IPC: 0.367601 cumulative IPC: 0.368416 (Simulation time: 0 hr 13 min 31 sec) 
Heartbeat CPU 0 instructions: 380000000 cycles: 822159634 heartbeat IPC: 0.370124 cumulative IPC: 0.368477 (Simulation time: 0 hr 13 min 56 sec) 
Heartbeat CPU 0 instructions: 390000002 cycles: 849154597 heartbeat IPC: 0.37044 cumulative IPC: 0.368544 (Simulation time: 0 hr 14 min 21 sec) 
Heartbeat CPU 0 instructions: 400000000 cycles: 876418296 heartbeat IPC: 0.366788 cumulative IPC: 0.368485 (Simulation time: 0 hr 14 min 47 sec) 
Heartbeat CPU 0 instructions: 410000002 cycles: 903449141 heartbeat IPC: 0.369948 cumulative IPC: 0.368532 (Simulation time: 0 hr 15 min 12 sec) 
Heartbeat CPU 0 instructions: 420000000 cycles: 930272444 heartbeat IPC: 0.37281 cumulative IPC: 0.368664 (Simulation time: 0 hr 15 min 37 sec) 
Heartbeat CPU 0 instructions: 430000000 cycles: 957440624 heartbeat IPC: 0.368078 cumulative IPC: 0.368647 (Simulation time: 0 hr 16 min 3 sec) 
Heartbeat CPU 0 instructions: 440000000 cycles: 984207302 heartbeat IPC: 0.373599 cumulative IPC: 0.36879 (Simulation time: 0 hr 16 min 28 sec) 
Heartbeat CPU 0 instructions: 450000000 cycles: 1011926310 heartbeat IPC: 0.360763 cumulative IPC: 0.368556 (Simulation time: 0 hr 16 min 54 sec) 
Heartbeat CPU 0 instructions: 460000000 cycles: 1039586878 heartbeat IPC: 0.361525 cumulative IPC: 0.368357 (Simulation time: 0 hr 17 min 21 sec) 
Heartbeat CPU 0 instructions: 470000001 cycles: 1066902535 heartbeat IPC: 0.36609 cumulative IPC: 0.368295 (Simulation time: 0 hr 17 min 47 sec) 
Heartbeat CPU 0 instructions: 480000000 cycles: 1094481144 heartbeat IPC: 0.3626 cumulative IPC: 0.368143 (Simulation time: 0 hr 18 min 14 sec) 
Heartbeat CPU 0 instructions: 490000000 cycles: 1122032433 heartbeat IPC: 0.362959 cumulative IPC: 0.368008 (Simulation time: 0 hr 18 min 41 sec) 
Heartbeat CPU 0 instructions: 500000000 cycles: 1149979785 heartbeat IPC: 0.357816 cumulative IPC: 0.367747 (Simulation time: 0 hr 19 min 7 sec) 
Heartbeat CPU 0 instructions: 510000003 cycles: 1177861822 heartbeat IPC: 0.358654 cumulative IPC: 0.367519 (Simulation time: 0 hr 19 min 34 sec) 
Heartbeat CPU 0 instructions: 520000000 cycles: 1205900030 heartbeat IPC: 0.356656 cumulative IPC: 0.367253 (Simulation time: 0 hr 20 min 0 sec) 
Heartbeat CPU 0 instructions: 530000003 cycles: 1233993755 heartbeat IPC: 0.355951 cumulative IPC: 0.366982 (Simulation time: 0 hr 20 min 27 sec) 
Heartbeat CPU 0 instructions: 540000000 cycles: 1261941367 heartbeat IPC: 0.357812 cumulative IPC: 0.366768 (Simulation time: 0 hr 20 min 53 sec) 
Heartbeat CPU 0 instructions: 550000000 cycles: 1289863671 heartbeat IPC: 0.358137 cumulative IPC: 0.366572 (Simulation time: 0 hr 21 min 20 sec) 
Heartbeat CPU 0 instructions: 560000000 cycles: 1318168960 heartbeat IPC: 0.353291 cumulative IPC: 0.366273 (Simulation time: 0 hr 21 min 46 sec) 
Heartbeat CPU 0 instructions: 570000001 cycles: 1346392109 heartbeat IPC: 0.354319 cumulative IPC: 0.36601 (Simulation time: 0 hr 22 min 13 sec) 
Heartbeat CPU 0 instructions: 580000000 cycles: 1374594077 heartbeat IPC: 0.354585 cumulative IPC: 0.365764 (Simulation time: 0 hr 22 min 40 sec) 
Heartbeat CPU 0 instructions: 590000000 cycles: 1403017634 heartbeat IPC: 0.351821 cumulative IPC: 0.365469 (Simulation time: 0 hr 23 min 6 sec) 
Heartbeat CPU 0 instructions: 600000000 cycles: 1431606421 heartbeat IPC: 0.349787 cumulative IPC: 0.365141 (Simulation time: 0 hr 23 min 33 sec) 
Finished CPU 0 instructions: 500000003 cycles: 1369332222 cumulative IPC: 0.365141 (Simulation time: 0 hr 23 min 33 sec) 

CPU 0 Branch Prediction Accuracy: 91.1342% MPKI: 18.7968
Number of Branches: 106006945 Number of Mispredictions: 9398408
Number of LOAD Instructions: 207894007
Number of LOAD Instructions (ROI): 207894007
Number of STORE Instructions: 54285997
Number of STORE Instructions (ROI): 54285997
Total Destination Memory Operands: 57463404
Total Destination Memory Operands (ROI): 57463404
Total Source Memory Operands: 207894007
Total Source Memory Operands (ROI): 207894007
Number of DEPENDED LOADS: 18103736
Number of DEPENDED LOADS (ROI): 18103736
Number of SQ_ADDED: 57463404
Number of SQ_ADDED (ROI): 57463404
Number of LQ_ADDED: 210387681
Number of LQ_ADDED (ROI): 210387681
Number of Instructions read from trace: 600000039

ChampSim completed all CPUs

Region of Interest Statistics

CPU 0 cumulative IPC: 0.365141 instructions: 500000003 cycles: 1369332222
ITLB TOTAL     ACCESS:   96344957  HIT:   96344957  MISS:          0
ITLB LOAD      ACCESS:   96344957  HIT:   96344957  MISS:          0
ITLB RFO       ACCESS:          0  HIT:          0  MISS:          0
ITLB PREFETCH  ACCESS:          0  HIT:          0  MISS:          0
ITLB WRITEBACK ACCESS:          0  HIT:          0  MISS:          0
ITLB PREFETCH  REQUESTED:          0  ISSUED:          0  USEFUL:          0  USELESS:          0
ITLB TOTAL MSHR MERGED:          0
ITLB LOAD MSHR MERGED:          0
ITLB RFO MSHR MERGED:          0
ITLB PREFETCH MSHR MERGED:          0
ITLB WRITEBACK MSHR MERGED:          0
ITLB TOTAL ACCESSES:   96344957 HITS:   96344957 MISSES:          0
ITLB LOAD ACCESSES:   96344957 HITS:   96344957 MISSES:          0
ITLB RFO ACCESSES:          0 HITS:          0 MISSES:          0
ITLB PREFETCH ACCESSES:          0 HITS:          0 MISSES:          0
ITLB WRITEBACK ACCESSES:          0 HITS:          0 MISSES:          0
ITLB RQ ACCESS:  499999980
ITLB RQ TO_CACHE:   96344957
ITLB RQ MERGED:  403655023
ITLB RQ FORWARD:          0
ITLB WQ ACCESS:          0
ITLB WQ TO_CACHE:          0
ITLB WQ MERGED:          0
ITLB WQ FORWARD:          0
DTLB TOTAL     ACCESS:  155161093  HIT:  150249084  MISS:    4912009
DTLB LOAD      ACCESS:  117722335  HIT:  113331803  MISS:    4390532
DTLB RFO       ACCESS:   37438758  HIT:   36917281  MISS:     521477
DTLB PREFETCH  ACCESS:          0  HIT:          0  MISS:          0
DTLB WRITEBACK ACCESS:          0  HIT:          0  MISS:          0
DTLB PREFETCH  REQUESTED:          0  ISSUED:          0  USEFUL:          0  USELESS:          0
DTLB TOTAL MSHR MERGED:     448575
DTLB LOAD MSHR MERGED:     156592
DTLB RFO MSHR MERGED:     291983
DTLB PREFETCH MSHR MERGED:          0
DTLB WRITEBACK MSHR MERGED:          0
DTLB TOTAL ACCESSES:  155609668 HITS:  150249084 MISSES:    5360584
DTLB LOAD ACCESSES:  117878927 HITS:  113331803 MISSES:    4547124
DTLB RFO ACCESSES:   37730741 HITS:   36917281 MISSES:     813460
DTLB PREFETCH ACCESSES:          0 HITS:          0 MISSES:          0
DTLB WRITEBACK ACCESSES:          0 HITS:          0 MISSES:          0
DTLB RQ ACCESS:  205980444
DTLB RQ TO_CACHE:  155609668
DTLB RQ MERGED:   50370776
DTLB RQ FORWARD:          0
DTLB WQ ACCESS:          0
DTLB WQ TO_CACHE:          0
DTLB WQ MERGED:          0
DTLB WQ FORWARD:          0
L1D TOTAL     ACCESS:  277318808  HIT:  242495491  MISS:   34823317
L1D LOAD      ACCESS:  125475047  HIT:  107943385  MISS:   17531662
L1D RFO       ACCESS:   41125391  HIT:   38813568  MISS:    2311823
L1D PREFETCH  ACCESS:  110718370  HIT:   95738538  MISS:   14979832
L1D WRITEBACK ACCESS:          0  HIT:          0  MISS:          0
L1D PREFETCH  REQUESTED:  126275794  ISSUED:  124756442  USEFUL:    2812109  USELESS:   12167748
L1D TOTAL MSHR MERGED:    8393354
L1D LOAD MSHR MERGED:    1435274
L1D RFO MSHR MERGED:    3780598
L1D PREFETCH MSHR MERGED:    3177482
L1D WRITEBACK MSHR MERGED:          0
L1D TOTAL ACCESSES:  285799568 HITS:  242582896 MISSES:   43216672
L1D LOAD ACCESSES:  126275830 HITS:  107943421 MISSES:   18332409
L1D RFO ACCESSES:   44905490 HITS:   38813568 MISSES:    6091922
L1D PREFETCH ACCESSES:  114618248 HITS:   95825907 MISSES:   18792341
L1D WRITEBACK ACCESSES:          0 HITS:          0 MISSES:          0
L1D RQ ACCESS:  158433563
L1D RQ TO_CACHE:  126275794
L1D RQ MERGED:   32157733
L1D RQ FORWARD:          0
L1D WQ ACCESS:   47546882
L1D WQ TO_CACHE:   44905490
L1D WQ MERGED:    2641392
L1D WQ FORWARD:      87405
L1I TOTAL     ACCESS:  132739607  HIT:  132739607  MISS:          0
L1I LOAD      ACCESS:  132739607  HIT:  132739607  MISS:          0
L1I RFO       ACCESS:          0  HIT:          0  MISS:          0
L1I PREFETCH  ACCESS:          0  HIT:          0  MISS:          0
L1I WRITEBACK ACCESS:          0  HIT:          0  MISS:          0
L1I PREFETCH  REQUESTED:          0  ISSUED:          0  USEFUL:          0  USELESS:          0
L1I TOTAL MSHR MERGED:          0
L1I LOAD MSHR MERGED:          0
L1I RFO MSHR MERGED:          0
L1I PREFETCH MSHR MERGED:          0
L1I WRITEBACK MSHR MERGED:          0
L1I TOTAL ACCESSES:  132739607 HITS:  132739607 MISSES:          0
L1I LOAD ACCESSES:  132739607 HITS:  132739607 MISSES:          0
L1I RFO ACCESSES:          0 HITS:          0 MISSES:          0
L1I PREFETCH ACCESSES:          0 HITS:          0 MISSES:          0
L1I WRITEBACK ACCESSES:          0 HITS:          0 MISSES:          0
L1I RQ ACCESS:  499999980
L1I RQ TO_CACHE:  132739607
L1I RQ MERGED:  367260373
L1I RQ FORWARD:          0
L1I WQ ACCESS:          0
L1I WQ TO_CACHE:          0
L1I WQ MERGED:          0
L1I WQ FORWARD:          0
L2C TOTAL     ACCESS:   39593125  HIT:   20624315  MISS:   18968810
L2C LOAD      ACCESS:   16897069  HIT:    8566520  MISS:    8330549
L2C RFO       ACCESS:    2311280  HIT:     630824  MISS:    1680456
L2C PREFETCH  ACCESS:   17162323  HIT:    8208262  MISS:    8954061
L2C WRITEBACK ACCESS:    3222453  HIT:    3218709  MISS:       3744
L2C PREFETCH  REQUESTED:    2745802  ISSUED:    2745802  USEFUL:    1306517  USELESS:    7647259
L2C TOTAL MSHR MERGED:     458511
L2C LOAD MSHR MERGED:      52586
L2C RFO MSHR MERGED:          0
L2C PREFETCH MSHR MERGED:     405925
L2C WRITEBACK MSHR MERGED:          0
L2C TOTAL ACCESSES:   40104620 HITS:   20624471 MISSES:   19480149
L2C LOAD ACCESSES:   16897135 HITS:    8566586 MISSES:    8330549
L2C RFO ACCESSES:    2311324 HITS:     630868 MISSES:    1680456
L2C PREFETCH ACCESSES:   17673708 HITS:    8208308 MISSES:    9465400
L2C WRITEBACK ACCESSES:    3222453 HITS:    3218709 MISSES:       3744
L2C RQ ACCESS:   19208459
L2C RQ TO_CACHE:   19208349
L2C RQ MERGED:          0
L2C RQ FORWARD:          0
L2C WQ ACCESS:    3222453
L2C WQ TO_CACHE:    3222453
L2C WQ MERGED:          0
L2C WQ FORWARD:        156
LLC TOTAL     ACCESS:   21173929  HIT:   13486874  MISS:    7687055
LLC LOAD      ACCESS:    8277933  HIT:    4706104  MISS:    3571829
LLC RFO       ACCESS:    1680408  HIT:    1525745  MISS:     154663
LLC PREFETCH  ACCESS:    9039952  HIT:    5238954  MISS:    3800998
LLC WRITEBACK ACCESS:    2175636  HIT:    2016071  MISS:     159565
LLC PREFETCH  REQUESTED:          0  ISSUED:          0  USEFUL:     344938  USELESS:    3462138
LLC TOTAL MSHR MERGED:      17063
LLC LOAD MSHR MERGED:       3826
LLC RFO MSHR MERGED:          0
LLC PREFETCH MSHR MERGED:      13237
LLC WRITEBACK MSHR MERGED:          0
LLC TOTAL ACCESSES:   21191095 HITS:   13486976 MISSES:    7704119
LLC LOAD ACCESSES:    8277963 HITS:    4706134 MISSES:    3571829
LLC RFO ACCESSES:    1680456 HITS:    1525793 MISSES:     154663
LLC PREFETCH ACCESSES:    9057040 HITS:    5238978 MISSES:    3818062
LLC WRITEBACK ACCESSES:    2175636 HITS:    2016071 MISSES:     159565
LLC 0 RQ ACCESS:    9958419
LLC 0 RQ TO_CACHE:    9958341
LLC 0 RQ MERGED:          0
LLC 0 RQ FORWARD:          0
LLC WQ ACCESS:    2175637
LLC WQ TO_CACHE:    2175637
LLC WQ MERGED:          0
LLC WQ FORWARD:        102
Major fault: 0 Minor fault: 56391
CPU 0 L1D next line prefetcher final stats
CPU 0 L2C PC-based stride prefetcher final stats
All Misses: 9152432
All Hits: 15398330
SD Algo Stats - Switches: 0 SRR-Repls: 3844333 BRR-Repls: 0

DRAM Statistics
 CHANNEL 0
 RQ ROW_BUFFER_HIT:    4352565  ROW_BUFFER_MISS:    3132920
 DBUS_CONGESTED:    3507861
 WQ ROW_BUFFER_HIT:      58247  ROW_BUFFER_MISS:     293123  FULL:          0

 AVG_CONGESTED_CYCLE: 13
LOADS RETIRED: 173631671
INSTR RETIRED: 500000000
