
*** ChampSim Multicore Out-of-Order Simulator ***

Warmup Instructions: 100000000
Simulation Instructions: 500000000
Number of CPUs: 1
LLC sets: 2048
LLC ways: 16
Clean RRIP Policies: 1213230112132301 Dirty RRIP Policies: 2213130122131301 PSEL Width: 10 Track Set: 4294967295 PSEL Mask: 1 Demote Mask: 1330101013301010DS Algo: 0Window size: 0
Off-chip DRAM Size: 4096 MB Channels: 1 Width: 64-bit Data Rate: 1600 MT/s

CPU 0 runs /mnt/beegfs/iconst01/spec2017/Mcf.trace.gz
NOT SORTED
TRACE STRING: /mnt/beegfs/iconst01/spec2017/Mcf.trace.gz
SORTED
TRACE STRING: /mnt/beegfs/iconst01/spec2017/Mcf.trace.gz
INITIAL
TRACE STRING: /mnt/beegfs/iconst01/spec2017/Mcf.trace.gz

champsim_seed used: 278

CPU 0 L1D next line prefetcher
CPU 0 L2C IP-based stride prefetcher
Initialize DRRIP state
Assign rand_sets[0]: 454  LLC: 2048
rand_sets[0]: 454
Assign rand_sets[1]: 1662  LLC: 2048
rand_sets[1]: 1662
Assign rand_sets[2]: 1921  LLC: 2048
rand_sets[2]: 1921
Assign rand_sets[3]: 1131  LLC: 2048
rand_sets[3]: 1131
Assign rand_sets[4]: 331  LLC: 2048
rand_sets[4]: 331
Assign rand_sets[5]: 1531  LLC: 2048
rand_sets[5]: 1531
Assign rand_sets[6]: 482  LLC: 2048
rand_sets[6]: 482
Assign rand_sets[7]: 1275  LLC: 2048
rand_sets[7]: 1275
Assign rand_sets[8]: 1876  LLC: 2048
rand_sets[8]: 1876
Assign rand_sets[9]: 2038  LLC: 2048
rand_sets[9]: 2038
Assign rand_sets[10]: 701  LLC: 2048
rand_sets[10]: 701
Assign rand_sets[11]: 479  LLC: 2048
rand_sets[11]: 479
Assign rand_sets[12]: 892  LLC: 2048
rand_sets[12]: 892
Assign rand_sets[13]: 1820  LLC: 2048
rand_sets[13]: 1820
Assign rand_sets[14]: 1505  LLC: 2048
rand_sets[14]: 1505
Assign rand_sets[15]: 1159  LLC: 2048
rand_sets[15]: 1159
Assign rand_sets[16]: 513  LLC: 2048
rand_sets[16]: 513
Assign rand_sets[17]: 703  LLC: 2048
rand_sets[17]: 703
Assign rand_sets[18]: 561  LLC: 2048
rand_sets[18]: 561
Assign rand_sets[19]: 990  LLC: 2048
rand_sets[19]: 990
Assign rand_sets[20]: 342  LLC: 2048
rand_sets[20]: 342
Assign rand_sets[21]: 882  LLC: 2048
rand_sets[21]: 882
Assign rand_sets[22]: 15  LLC: 2048
rand_sets[22]: 15
Assign rand_sets[23]: 71  LLC: 2048
rand_sets[23]: 71
Assign rand_sets[24]: 1127  LLC: 2048
rand_sets[24]: 1127
Assign rand_sets[25]: 1382  LLC: 2048
rand_sets[25]: 1382
Assign rand_sets[26]: 647  LLC: 2048
rand_sets[26]: 647
Assign rand_sets[27]: 857  LLC: 2048
rand_sets[27]: 857
Assign rand_sets[28]: 1450  LLC: 2048
rand_sets[28]: 1450
Assign rand_sets[29]: 1160  LLC: 2048
rand_sets[29]: 1160
Assign rand_sets[30]: 1852  LLC: 2048
rand_sets[30]: 1852
Assign rand_sets[31]: 1881  LLC: 2048
rand_sets[31]: 1881
Assign rand_sets[32]: 1770  LLC: 2048
rand_sets[32]: 1770
Assign rand_sets[33]: 1622  LLC: 2048
rand_sets[33]: 1622
Assign rand_sets[34]: 275  LLC: 2048
rand_sets[34]: 275
Assign rand_sets[35]: 635  LLC: 2048
rand_sets[35]: 635
Assign rand_sets[36]: 466  LLC: 2048
rand_sets[36]: 466
Assign rand_sets[37]: 1413  LLC: 2048
rand_sets[37]: 1413
Assign rand_sets[38]: 417  LLC: 2048
rand_sets[38]: 417
Assign rand_sets[39]: 472  LLC: 2048
rand_sets[39]: 472
Assign rand_sets[40]: 1340  LLC: 2048
rand_sets[40]: 1340
Assign rand_sets[41]: 852  LLC: 2048
rand_sets[41]: 852
Assign rand_sets[42]: 1365  LLC: 2048
rand_sets[42]: 1365
Assign rand_sets[43]: 47  LLC: 2048
rand_sets[43]: 47
Assign rand_sets[44]: 823  LLC: 2048
rand_sets[44]: 823
Assign rand_sets[45]: 686  LLC: 2048
rand_sets[45]: 686
Assign rand_sets[46]: 1637  LLC: 2048
rand_sets[46]: 1637
Assign rand_sets[47]: 1115  LLC: 2048
rand_sets[47]: 1115
Assign rand_sets[48]: 986  LLC: 2048
rand_sets[48]: 986
Assign rand_sets[49]: 258  LLC: 2048
rand_sets[49]: 258
Assign rand_sets[50]: 633  LLC: 2048
rand_sets[50]: 633
Assign rand_sets[51]: 920  LLC: 2048
rand_sets[51]: 920
Assign rand_sets[52]: 204  LLC: 2048
rand_sets[52]: 204
Assign rand_sets[53]: 227  LLC: 2048
rand_sets[53]: 227
Assign rand_sets[54]: 1818  LLC: 2048
rand_sets[54]: 1818
Assign rand_sets[55]: 886  LLC: 2048
rand_sets[55]: 886
Assign rand_sets[56]: 1422  LLC: 2048
rand_sets[56]: 1422
Assign rand_sets[57]: 607  LLC: 2048
rand_sets[57]: 607
Assign rand_sets[58]: 217  LLC: 2048
rand_sets[58]: 217
Assign rand_sets[59]: 1945  LLC: 2048
rand_sets[59]: 1945
Assign rand_sets[60]: 143  LLC: 2048
rand_sets[60]: 143
Assign rand_sets[61]: 1311  LLC: 2048
rand_sets[61]: 1311
Assign rand_sets[62]: 319  LLC: 2048
rand_sets[62]: 319
Assign rand_sets[63]: 1846  LLC: 2048
rand_sets[63]: 1846
 CLEAN-RRIP-POLICY-1: 1-2-1-3-2-3-0-1- CLEAN-RRIP-POLICY-2: 1-2-1-3-2-3-0-1-
 DIRTY-RRIP-POLICY-1: 2-2-1-3-1-3-0-1- DIRTY-RRIP-POLICY-2: 2-2-1-3-1-3-0-1-
 PSEL width: 10
Heartbeat CPU 0 instructions: 10000002 cycles: 6248381 heartbeat IPC: 1.60041 cumulative IPC: 1.60041 (Simulation time: 0 hr 0 min 13 sec) 
Heartbeat CPU 0 instructions: 20000000 cycles: 12468920 heartbeat IPC: 1.60758 cumulative IPC: 1.60399 (Simulation time: 0 hr 0 min 25 sec) 
Heartbeat CPU 0 instructions: 30000000 cycles: 18678964 heartbeat IPC: 1.61029 cumulative IPC: 1.60608 (Simulation time: 0 hr 0 min 37 sec) 
Heartbeat CPU 0 instructions: 40000000 cycles: 24889305 heartbeat IPC: 1.61022 cumulative IPC: 1.60712 (Simulation time: 0 hr 0 min 49 sec) 
Heartbeat CPU 0 instructions: 50000003 cycles: 31101562 heartbeat IPC: 1.60972 cumulative IPC: 1.60764 (Simulation time: 0 hr 1 min 2 sec) 
Heartbeat CPU 0 instructions: 60000000 cycles: 37297522 heartbeat IPC: 1.61395 cumulative IPC: 1.60869 (Simulation time: 0 hr 1 min 14 sec) 
Heartbeat CPU 0 instructions: 70000003 cycles: 43515756 heartbeat IPC: 1.60817 cumulative IPC: 1.60861 (Simulation time: 0 hr 1 min 26 sec) 
Heartbeat CPU 0 instructions: 80000000 cycles: 49746018 heartbeat IPC: 1.60507 cumulative IPC: 1.60817 (Simulation time: 0 hr 1 min 39 sec) 
Heartbeat CPU 0 instructions: 90000000 cycles: 55974786 heartbeat IPC: 1.60545 cumulative IPC: 1.60787 (Simulation time: 0 hr 1 min 51 sec) 
Heartbeat CPU 0 instructions: 100000000 cycles: 62193506 heartbeat IPC: 1.60805 cumulative IPC: 1.60788 (Simulation time: 0 hr 2 min 3 sec) 

Warmup complete CPU 0 instructions: 100000001 cycles: 62193507 (Simulation time: 0 hr 2 min 3 sec) 

Heartbeat CPU 0 instructions: 110000000 cycles: 86758571 heartbeat IPC: 0.407082 cumulative IPC: 0.407082 (Simulation time: 0 hr 2 min 26 sec) 
Heartbeat CPU 0 instructions: 120000000 cycles: 111424956 heartbeat IPC: 0.40541 cumulative IPC: 0.406244 (Simulation time: 0 hr 2 min 49 sec) 
Heartbeat CPU 0 instructions: 130000000 cycles: 136165151 heartbeat IPC: 0.404201 cumulative IPC: 0.405561 (Simulation time: 0 hr 3 min 12 sec) 
Heartbeat CPU 0 instructions: 140000000 cycles: 160862482 heartbeat IPC: 0.404902 cumulative IPC: 0.405396 (Simulation time: 0 hr 3 min 35 sec) 
Heartbeat CPU 0 instructions: 150000003 cycles: 185445014 heartbeat IPC: 0.406793 cumulative IPC: 0.405675 (Simulation time: 0 hr 3 min 57 sec) 
Heartbeat CPU 0 instructions: 160000000 cycles: 210301604 heartbeat IPC: 0.402308 cumulative IPC: 0.40511 (Simulation time: 0 hr 4 min 20 sec) 
Heartbeat CPU 0 instructions: 170000001 cycles: 235024454 heartbeat IPC: 0.404484 cumulative IPC: 0.40502 (Simulation time: 0 hr 4 min 43 sec) 
Heartbeat CPU 0 instructions: 180000000 cycles: 259742543 heartbeat IPC: 0.404562 cumulative IPC: 0.404963 (Simulation time: 0 hr 5 min 6 sec) 
Heartbeat CPU 0 instructions: 190000003 cycles: 284414084 heartbeat IPC: 0.405325 cumulative IPC: 0.405003 (Simulation time: 0 hr 5 min 29 sec) 
Heartbeat CPU 0 instructions: 200000000 cycles: 309136116 heartbeat IPC: 0.404497 cumulative IPC: 0.404952 (Simulation time: 0 hr 5 min 52 sec) 
Heartbeat CPU 0 instructions: 210000003 cycles: 333913374 heartbeat IPC: 0.403596 cumulative IPC: 0.404829 (Simulation time: 0 hr 6 min 15 sec) 
Heartbeat CPU 0 instructions: 220000000 cycles: 358880384 heartbeat IPC: 0.400528 cumulative IPC: 0.404467 (Simulation time: 0 hr 6 min 38 sec) 
Heartbeat CPU 0 instructions: 230000002 cycles: 383507281 heartbeat IPC: 0.40606 cumulative IPC: 0.404589 (Simulation time: 0 hr 7 min 1 sec) 
Heartbeat CPU 0 instructions: 240000000 cycles: 408434633 heartbeat IPC: 0.401166 cumulative IPC: 0.404343 (Simulation time: 0 hr 7 min 24 sec) 
Heartbeat CPU 0 instructions: 250000000 cycles: 433179688 heartbeat IPC: 0.404121 cumulative IPC: 0.404328 (Simulation time: 0 hr 7 min 47 sec) 
Heartbeat CPU 0 instructions: 260000000 cycles: 457886733 heartbeat IPC: 0.404743 cumulative IPC: 0.404354 (Simulation time: 0 hr 8 min 10 sec) 
Heartbeat CPU 0 instructions: 270000001 cycles: 482682686 heartbeat IPC: 0.403292 cumulative IPC: 0.404291 (Simulation time: 0 hr 8 min 33 sec) 
Heartbeat CPU 0 instructions: 280000000 cycles: 507418473 heartbeat IPC: 0.404273 cumulative IPC: 0.40429 (Simulation time: 0 hr 8 min 56 sec) 
Heartbeat CPU 0 instructions: 290000001 cycles: 532232399 heartbeat IPC: 0.403 cumulative IPC: 0.404222 (Simulation time: 0 hr 9 min 19 sec) 
Heartbeat CPU 0 instructions: 300000000 cycles: 557198454 heartbeat IPC: 0.400544 cumulative IPC: 0.404036 (Simulation time: 0 hr 9 min 43 sec) 
Heartbeat CPU 0 instructions: 310000003 cycles: 581817966 heartbeat IPC: 0.406182 cumulative IPC: 0.404138 (Simulation time: 0 hr 10 min 6 sec) 
Heartbeat CPU 0 instructions: 320000000 cycles: 606800950 heartbeat IPC: 0.400272 cumulative IPC: 0.403961 (Simulation time: 0 hr 10 min 29 sec) 
Heartbeat CPU 0 instructions: 330000003 cycles: 631528036 heartbeat IPC: 0.404415 cumulative IPC: 0.40398 (Simulation time: 0 hr 10 min 52 sec) 
Heartbeat CPU 0 instructions: 340000000 cycles: 656553586 heartbeat IPC: 0.399592 cumulative IPC: 0.403796 (Simulation time: 0 hr 11 min 15 sec) 
Heartbeat CPU 0 instructions: 350000002 cycles: 681548001 heartbeat IPC: 0.400089 cumulative IPC: 0.403646 (Simulation time: 0 hr 11 min 38 sec) 
Heartbeat CPU 0 instructions: 360000000 cycles: 706674451 heartbeat IPC: 0.397987 cumulative IPC: 0.403425 (Simulation time: 0 hr 12 min 1 sec) 
Heartbeat CPU 0 instructions: 370000000 cycles: 731582885 heartbeat IPC: 0.40147 cumulative IPC: 0.403353 (Simulation time: 0 hr 12 min 25 sec) 
Heartbeat CPU 0 instructions: 380000000 cycles: 756310460 heartbeat IPC: 0.404407 cumulative IPC: 0.40339 (Simulation time: 0 hr 12 min 47 sec) 
Heartbeat CPU 0 instructions: 390000002 cycles: 781057622 heartbeat IPC: 0.404087 cumulative IPC: 0.403414 (Simulation time: 0 hr 13 min 10 sec) 
Heartbeat CPU 0 instructions: 400000000 cycles: 805968970 heartbeat IPC: 0.401423 cumulative IPC: 0.403348 (Simulation time: 0 hr 13 min 34 sec) 
Heartbeat CPU 0 instructions: 410000002 cycles: 830790024 heartbeat IPC: 0.402884 cumulative IPC: 0.403333 (Simulation time: 0 hr 13 min 57 sec) 
Heartbeat CPU 0 instructions: 420000000 cycles: 855402029 heartbeat IPC: 0.406306 cumulative IPC: 0.403425 (Simulation time: 0 hr 14 min 20 sec) 
Heartbeat CPU 0 instructions: 430000000 cycles: 880248525 heartbeat IPC: 0.402471 cumulative IPC: 0.403396 (Simulation time: 0 hr 14 min 43 sec) 
Heartbeat CPU 0 instructions: 440000000 cycles: 904801843 heartbeat IPC: 0.407277 cumulative IPC: 0.403509 (Simulation time: 0 hr 15 min 6 sec) 
Heartbeat CPU 0 instructions: 450000000 cycles: 929779678 heartbeat IPC: 0.400355 cumulative IPC: 0.403418 (Simulation time: 0 hr 15 min 30 sec) 
Heartbeat CPU 0 instructions: 460000000 cycles: 954690001 heartbeat IPC: 0.40144 cumulative IPC: 0.403363 (Simulation time: 0 hr 15 min 54 sec) 
Heartbeat CPU 0 instructions: 470000001 cycles: 979389965 heartbeat IPC: 0.404859 cumulative IPC: 0.403403 (Simulation time: 0 hr 16 min 19 sec) 
Heartbeat CPU 0 instructions: 480000000 cycles: 1004263738 heartbeat IPC: 0.40203 cumulative IPC: 0.403367 (Simulation time: 0 hr 16 min 43 sec) 
Heartbeat CPU 0 instructions: 490000000 cycles: 1029245674 heartbeat IPC: 0.400289 cumulative IPC: 0.403287 (Simulation time: 0 hr 17 min 7 sec) 
Heartbeat CPU 0 instructions: 500000000 cycles: 1054536618 heartbeat IPC: 0.395398 cumulative IPC: 0.403086 (Simulation time: 0 hr 17 min 31 sec) 
Heartbeat CPU 0 instructions: 510000003 cycles: 1079693686 heartbeat IPC: 0.397503 cumulative IPC: 0.402948 (Simulation time: 0 hr 17 min 55 sec) 
Heartbeat CPU 0 instructions: 520000000 cycles: 1105018702 heartbeat IPC: 0.394866 cumulative IPC: 0.402752 (Simulation time: 0 hr 18 min 19 sec) 
Heartbeat CPU 0 instructions: 530000003 cycles: 1130356584 heartbeat IPC: 0.394666 cumulative IPC: 0.40256 (Simulation time: 0 hr 18 min 43 sec) 
Heartbeat CPU 0 instructions: 540000000 cycles: 1155616746 heartbeat IPC: 0.39588 cumulative IPC: 0.402406 (Simulation time: 0 hr 19 min 8 sec) 
Heartbeat CPU 0 instructions: 550000000 cycles: 1180897530 heartbeat IPC: 0.395557 cumulative IPC: 0.402251 (Simulation time: 0 hr 19 min 32 sec) 
Heartbeat CPU 0 instructions: 560000000 cycles: 1206490593 heartbeat IPC: 0.390731 cumulative IPC: 0.401994 (Simulation time: 0 hr 19 min 56 sec) 
Heartbeat CPU 0 instructions: 570000001 cycles: 1232008904 heartbeat IPC: 0.391876 cumulative IPC: 0.401773 (Simulation time: 0 hr 20 min 20 sec) 
Heartbeat CPU 0 instructions: 580000000 cycles: 1257531256 heartbeat IPC: 0.391813 cumulative IPC: 0.40156 (Simulation time: 0 hr 20 min 44 sec) 
Heartbeat CPU 0 instructions: 590000000 cycles: 1283218136 heartbeat IPC: 0.389304 cumulative IPC: 0.401302 (Simulation time: 0 hr 21 min 9 sec) 
Heartbeat CPU 0 instructions: 600000000 cycles: 1308975364 heartbeat IPC: 0.388241 cumulative IPC: 0.401032 (Simulation time: 0 hr 21 min 33 sec) 
Finished CPU 0 instructions: 500000003 cycles: 1246781870 cumulative IPC: 0.401032 (Simulation time: 0 hr 21 min 33 sec) 

CPU 0 Branch Prediction Accuracy: 91.1342% MPKI: 18.7968
Number of Branches: 106006945 Number of Mispredictions: 9398408
Number of LOAD Instructions: 207894007
Number of LOAD Instructions (ROI): 207894007
Number of STORE Instructions: 54285997
Number of STORE Instructions (ROI): 54285997
Total Destination Memory Operands: 57463404
Total Destination Memory Operands (ROI): 57463404
Total Source Memory Operands: 207894007
Total Source Memory Operands (ROI): 207894007
Number of DEPENDED LOADS: 18106239
Number of DEPENDED LOADS (ROI): 18106239
Number of SQ_ADDED: 57463404
Number of SQ_ADDED (ROI): 57463404
Number of LQ_ADDED: 209238085
Number of LQ_ADDED (ROI): 209238085
Number of Instructions read from trace: 600000039

ChampSim completed all CPUs

Region of Interest Statistics

CPU 0 cumulative IPC: 0.401032 instructions: 500000003 cycles: 1246781870
ITLB TOTAL     ACCESS:   96420639  HIT:   96420639  MISS:          0
ITLB LOAD      ACCESS:   96420639  HIT:   96420639  MISS:          0
ITLB RFO       ACCESS:          0  HIT:          0  MISS:          0
ITLB PREFETCH  ACCESS:          0  HIT:          0  MISS:          0
ITLB WRITEBACK ACCESS:          0  HIT:          0  MISS:          0
ITLB PREFETCH  REQUESTED:          0  ISSUED:          0  USEFUL:          0  USELESS:          0
ITLB TOTAL MSHR MERGED:          0
ITLB LOAD MSHR MERGED:          0
ITLB RFO MSHR MERGED:          0
ITLB PREFETCH MSHR MERGED:          0
ITLB WRITEBACK MSHR MERGED:          0
ITLB TOTAL ACCESSES:   96420639 HITS:   96420639 MISSES:          0
ITLB LOAD ACCESSES:   96420639 HITS:   96420639 MISSES:          0
ITLB RFO ACCESSES:          0 HITS:          0 MISSES:          0
ITLB PREFETCH ACCESSES:          0 HITS:          0 MISSES:          0
ITLB WRITEBACK ACCESSES:          0 HITS:          0 MISSES:          0
ITLB RQ ACCESS:  499999980
ITLB RQ TO_CACHE:   96420639
ITLB RQ MERGED:  403579341
ITLB RQ FORWARD:          0
ITLB WQ ACCESS:          0
ITLB WQ TO_CACHE:          0
ITLB WQ MERGED:          0
ITLB WQ FORWARD:          0
DTLB TOTAL     ACCESS:  155172811  HIT:  150260634  MISS:    4912177
DTLB LOAD      ACCESS:  117722332  HIT:  113331848  MISS:    4390484
DTLB RFO       ACCESS:   37450479  HIT:   36928786  MISS:     521693
DTLB PREFETCH  ACCESS:          0  HIT:          0  MISS:          0
DTLB WRITEBACK ACCESS:          0  HIT:          0  MISS:          0
DTLB PREFETCH  REQUESTED:          0  ISSUED:          0  USEFUL:          0  USELESS:          0
DTLB TOTAL MSHR MERGED:     453055
DTLB LOAD MSHR MERGED:     161581
DTLB RFO MSHR MERGED:     291474
DTLB PREFETCH MSHR MERGED:          0
DTLB WRITEBACK MSHR MERGED:          0
DTLB TOTAL ACCESSES:  155625866 HITS:  150260634 MISSES:    5365232
DTLB LOAD ACCESSES:  117883913 HITS:  113331848 MISSES:    4552065
DTLB RFO ACCESSES:   37741953 HITS:   36928786 MISSES:     813167
DTLB PREFETCH ACCESSES:          0 HITS:          0 MISSES:          0
DTLB WRITEBACK ACCESSES:          0 HITS:          0 MISSES:          0
DTLB RQ ACCESS:  205976685
DTLB RQ TO_CACHE:  155625866
DTLB RQ MERGED:   50350819
DTLB RQ FORWARD:          0
DTLB WQ ACCESS:          0
DTLB WQ TO_CACHE:          0
DTLB WQ MERGED:          0
DTLB WQ FORWARD:          0
L1D TOTAL     ACCESS:  277177758  HIT:  242355330  MISS:   34822428
L1D LOAD      ACCESS:  125414575  HIT:  107774710  MISS:   17639865
L1D RFO       ACCESS:   41135839  HIT:   38823999  MISS:    2311840
L1D PREFETCH  ACCESS:  110627344  HIT:   95756621  MISS:   14870723
L1D WRITEBACK ACCESS:          0  HIT:          0  MISS:          0
L1D PREFETCH  REQUESTED:  126270917  ISSUED:  124751711  USEFUL:    2704761  USELESS:   12165988
L1D TOTAL MSHR MERGED:    8489236
L1D LOAD MSHR MERGED:    1547922
L1D RFO MSHR MERGED:    3768755
L1D PREFETCH MSHR MERGED:    3172559
L1D WRITEBACK MSHR MERGED:          0
L1D TOTAL ACCESSES:  285754299 HITS:  242442633 MISSES:   43311666
L1D LOAD ACCESSES:  126270949 HITS:  107774742 MISSES:   18496207
L1D RFO ACCESSES:   44904100 HITS:   38823999 MISSES:    6080101
L1D PREFETCH ACCESSES:  114579250 HITS:   95843892 MISSES:   18735358
L1D WRITEBACK ACCESSES:          0 HITS:          0 MISSES:          0
L1D RQ ACCESS:  158429804
L1D RQ TO_CACHE:  126270917
L1D RQ MERGED:   32158855
L1D RQ FORWARD:          0
L1D WQ ACCESS:   47546882
L1D WQ TO_CACHE:   44904100
L1D WQ MERGED:    2642782
L1D WQ FORWARD:      87303
L1I TOTAL     ACCESS:  132830277  HIT:  132830277  MISS:          0
L1I LOAD      ACCESS:  132830277  HIT:  132830277  MISS:          0
L1I RFO       ACCESS:          0  HIT:          0  MISS:          0
L1I PREFETCH  ACCESS:          0  HIT:          0  MISS:          0
L1I WRITEBACK ACCESS:          0  HIT:          0  MISS:          0
L1I PREFETCH  REQUESTED:          0  ISSUED:          0  USEFUL:          0  USELESS:          0
L1I TOTAL MSHR MERGED:          0
L1I LOAD MSHR MERGED:          0
L1I RFO MSHR MERGED:          0
L1I PREFETCH MSHR MERGED:          0
L1I WRITEBACK MSHR MERGED:          0
L1I TOTAL ACCESSES:  132830277 HITS:  132830277 MISSES:          0
L1I LOAD ACCESSES:  132830277 HITS:  132830277 MISSES:          0
L1I RFO ACCESSES:          0 HITS:          0 MISSES:          0
L1I PREFETCH ACCESSES:          0 HITS:          0 MISSES:          0
L1I WRITEBACK ACCESSES:          0 HITS:          0 MISSES:          0
L1I RQ ACCESS:  499999980
L1I RQ TO_CACHE:  132830277
L1I RQ MERGED:  367169703
L1I RQ FORWARD:          0
L1I WQ ACCESS:          0
L1I WQ TO_CACHE:          0
L1I WQ MERGED:          0
L1I WQ FORWARD:          0
L2C TOTAL     ACCESS:   39597769  HIT:   20628448  MISS:   18969321
L2C LOAD      ACCESS:   16948226  HIT:    8568008  MISS:    8380218
L2C RFO       ACCESS:    2311298  HIT:     630849  MISS:    1680449
L2C PREFETCH  ACCESS:   17115798  HIT:    8210895  MISS:    8904903
L2C WRITEBACK ACCESS:    3222447  HIT:    3218696  MISS:       3751
L2C PREFETCH  REQUESTED:    2882911  ISSUED:    2882911  USEFUL:    1307357  USELESS:    7597288
L2C TOTAL MSHR MERGED:     533380
L2C LOAD MSHR MERGED:      89714
L2C RFO MSHR MERGED:          0
L2C PREFETCH MSHR MERGED:     443666
L2C WRITEBACK MSHR MERGED:          0
L2C TOTAL ACCESSES:   40247755 HITS:   20628606 MISSES:   19619149
L2C LOAD ACCESSES:   16948285 HITS:    8568067 MISSES:    8380218
L2C RFO ACCESSES:    2311346 HITS:     630897 MISSES:    1680449
L2C PREFETCH ACCESSES:   17765677 HITS:    8210946 MISSES:    9554731
L2C WRITEBACK ACCESSES:    3222447 HITS:    3218696 MISSES:       3751
L2C RQ ACCESS:   19259631
L2C RQ TO_CACHE:   19259524
L2C RQ MERGED:          0
L2C RQ FORWARD:          0
L2C WQ ACCESS:    3222447
L2C WQ TO_CACHE:    3222447
L2C WQ MERGED:          0
L2C WQ FORWARD:        158
LLC TOTAL     ACCESS:   21199195  HIT:   14059025  MISS:    7140170
LLC LOAD      ACCESS:    8290479  HIT:    5783123  MISS:    2507356
LLC RFO       ACCESS:    1680363  HIT:    1670654  MISS:       9709
LLC PREFETCH  ACCESS:    9052693  HIT:    4436940  MISS:    4615753
LLC WRITEBACK ACCESS:    2175660  HIT:    2168308  MISS:       7352
LLC PREFETCH  REQUESTED:          0  ISSUED:          0  USEFUL:     202120  USELESS:    4416016
LLC TOTAL MSHR MERGED:      49295
LLC LOAD MSHR MERGED:      15509
LLC RFO MSHR MERGED:          0
LLC PREFETCH MSHR MERGED:      33786
LLC WRITEBACK MSHR MERGED:          0
LLC TOTAL ACCESSES:   21248633 HITS:   14059166 MISSES:    7189467
LLC LOAD ACCESSES:    8290504 HITS:    5783148 MISSES:    2507356
LLC RFO ACCESSES:    1680449 HITS:    1670740 MISSES:       9709
LLC PREFETCH ACCESSES:    9102020 HITS:    4436970 MISSES:    4665050
LLC WRITEBACK ACCESSES:    2175660 HITS:    2168308 MISSES:       7352
LLC 0 RQ ACCESS:    9970953
LLC 0 RQ TO_CACHE:    9970842
LLC 0 RQ MERGED:          0
LLC 0 RQ FORWARD:          0
LLC WQ ACCESS:    2175661
LLC WQ TO_CACHE:    2175661
LLC WQ MERGED:          0
LLC WQ FORWARD:        141
Major fault: 0 Minor fault: 56391
CPU 0 L1D next line prefetcher final stats
CPU 0 L2C PC-based stride prefetcher final stats
All Misses: 8384994
All Hits: 16191046
SD Algo Stats - Switches: 0 SRR-Repls: 2629978 BRR-Repls: 0

DRAM Statistics
 CHANNEL 0
 RQ ROW_BUFFER_HIT:    4572585  ROW_BUFFER_MISS:    2546062
 DBUS_CONGESTED:    3314877
 WQ ROW_BUFFER_HIT:        796  ROW_BUFFER_MISS:      24806  FULL:          0

 AVG_CONGESTED_CYCLE: 12
LOADS RETIRED: 173631671
INSTR RETIRED: 500000000
