
*** ChampSim Multicore Out-of-Order Simulator ***

Warmup Instructions: 100000000
Simulation Instructions: 500000000
Number of CPUs: 1
LLC sets: 2048
LLC ways: 16
Clean RRIP Policies: 1213030112130301 Dirty RRIP Policies: 2213130122131301 PSEL Width: 10 Track Set: 4294967295 PSEL Mask: 1 Demote Mask: 3340211033402110DS Algo: 0Window size: 0
Off-chip DRAM Size: 4096 MB Channels: 1 Width: 64-bit Data Rate: 1600 MT/s

CPU 0 runs /mnt/beegfs/iconst01/spec2017/Roms.trace.gz
NOT SORTED
TRACE STRING: /mnt/beegfs/iconst01/spec2017/Roms.trace.gz
SORTED
TRACE STRING: /mnt/beegfs/iconst01/spec2017/Roms.trace.gz
INITIAL
TRACE STRING: /mnt/beegfs/iconst01/spec2017/Roms.trace.gz

champsim_seed used: 417

CPU 0 L1D next line prefetcher
CPU 0 L2C IP-based stride prefetcher
Initialize DRRIP state
Assign rand_sets[0]: 454  LLC: 2048
rand_sets[0]: 454
Assign rand_sets[1]: 1662  LLC: 2048
rand_sets[1]: 1662
Assign rand_sets[2]: 1921  LLC: 2048
rand_sets[2]: 1921
Assign rand_sets[3]: 1131  LLC: 2048
rand_sets[3]: 1131
Assign rand_sets[4]: 331  LLC: 2048
rand_sets[4]: 331
Assign rand_sets[5]: 1531  LLC: 2048
rand_sets[5]: 1531
Assign rand_sets[6]: 482  LLC: 2048
rand_sets[6]: 482
Assign rand_sets[7]: 1275  LLC: 2048
rand_sets[7]: 1275
Assign rand_sets[8]: 1876  LLC: 2048
rand_sets[8]: 1876
Assign rand_sets[9]: 2038  LLC: 2048
rand_sets[9]: 2038
Assign rand_sets[10]: 701  LLC: 2048
rand_sets[10]: 701
Assign rand_sets[11]: 479  LLC: 2048
rand_sets[11]: 479
Assign rand_sets[12]: 892  LLC: 2048
rand_sets[12]: 892
Assign rand_sets[13]: 1820  LLC: 2048
rand_sets[13]: 1820
Assign rand_sets[14]: 1505  LLC: 2048
rand_sets[14]: 1505
Assign rand_sets[15]: 1159  LLC: 2048
rand_sets[15]: 1159
Assign rand_sets[16]: 513  LLC: 2048
rand_sets[16]: 513
Assign rand_sets[17]: 703  LLC: 2048
rand_sets[17]: 703
Assign rand_sets[18]: 561  LLC: 2048
rand_sets[18]: 561
Assign rand_sets[19]: 990  LLC: 2048
rand_sets[19]: 990
Assign rand_sets[20]: 342  LLC: 2048
rand_sets[20]: 342
Assign rand_sets[21]: 882  LLC: 2048
rand_sets[21]: 882
Assign rand_sets[22]: 15  LLC: 2048
rand_sets[22]: 15
Assign rand_sets[23]: 71  LLC: 2048
rand_sets[23]: 71
Assign rand_sets[24]: 1127  LLC: 2048
rand_sets[24]: 1127
Assign rand_sets[25]: 1382  LLC: 2048
rand_sets[25]: 1382
Assign rand_sets[26]: 647  LLC: 2048
rand_sets[26]: 647
Assign rand_sets[27]: 857  LLC: 2048
rand_sets[27]: 857
Assign rand_sets[28]: 1450  LLC: 2048
rand_sets[28]: 1450
Assign rand_sets[29]: 1160  LLC: 2048
rand_sets[29]: 1160
Assign rand_sets[30]: 1852  LLC: 2048
rand_sets[30]: 1852
Assign rand_sets[31]: 1881  LLC: 2048
rand_sets[31]: 1881
Assign rand_sets[32]: 1770  LLC: 2048
rand_sets[32]: 1770
Assign rand_sets[33]: 1622  LLC: 2048
rand_sets[33]: 1622
Assign rand_sets[34]: 275  LLC: 2048
rand_sets[34]: 275
Assign rand_sets[35]: 635  LLC: 2048
rand_sets[35]: 635
Assign rand_sets[36]: 466  LLC: 2048
rand_sets[36]: 466
Assign rand_sets[37]: 1413  LLC: 2048
rand_sets[37]: 1413
Assign rand_sets[38]: 417  LLC: 2048
rand_sets[38]: 417
Assign rand_sets[39]: 472  LLC: 2048
rand_sets[39]: 472
Assign rand_sets[40]: 1340  LLC: 2048
rand_sets[40]: 1340
Assign rand_sets[41]: 852  LLC: 2048
rand_sets[41]: 852
Assign rand_sets[42]: 1365  LLC: 2048
rand_sets[42]: 1365
Assign rand_sets[43]: 47  LLC: 2048
rand_sets[43]: 47
Assign rand_sets[44]: 823  LLC: 2048
rand_sets[44]: 823
Assign rand_sets[45]: 686  LLC: 2048
rand_sets[45]: 686
Assign rand_sets[46]: 1637  LLC: 2048
rand_sets[46]: 1637
Assign rand_sets[47]: 1115  LLC: 2048
rand_sets[47]: 1115
Assign rand_sets[48]: 986  LLC: 2048
rand_sets[48]: 986
Assign rand_sets[49]: 258  LLC: 2048
rand_sets[49]: 258
Assign rand_sets[50]: 633  LLC: 2048
rand_sets[50]: 633
Assign rand_sets[51]: 920  LLC: 2048
rand_sets[51]: 920
Assign rand_sets[52]: 204  LLC: 2048
rand_sets[52]: 204
Assign rand_sets[53]: 227  LLC: 2048
rand_sets[53]: 227
Assign rand_sets[54]: 1818  LLC: 2048
rand_sets[54]: 1818
Assign rand_sets[55]: 886  LLC: 2048
rand_sets[55]: 886
Assign rand_sets[56]: 1422  LLC: 2048
rand_sets[56]: 1422
Assign rand_sets[57]: 607  LLC: 2048
rand_sets[57]: 607
Assign rand_sets[58]: 217  LLC: 2048
rand_sets[58]: 217
Assign rand_sets[59]: 1945  LLC: 2048
rand_sets[59]: 1945
Assign rand_sets[60]: 143  LLC: 2048
rand_sets[60]: 143
Assign rand_sets[61]: 1311  LLC: 2048
rand_sets[61]: 1311
Assign rand_sets[62]: 319  LLC: 2048
rand_sets[62]: 319
Assign rand_sets[63]: 1846  LLC: 2048
rand_sets[63]: 1846
 CLEAN-RRIP-POLICY-1: 1-2-1-3-0-3-0-1- CLEAN-RRIP-POLICY-2: 1-2-1-3-0-3-0-1-
 DIRTY-RRIP-POLICY-1: 2-2-1-3-1-3-0-1- DIRTY-RRIP-POLICY-2: 2-2-1-3-1-3-0-1-
 PSEL width: 10
Heartbeat CPU 0 instructions: 10000000 cycles: 4688066 heartbeat IPC: 2.13308 cumulative IPC: 2.13308 (Simulation time: 0 hr 0 min 17 sec) 
Heartbeat CPU 0 instructions: 20000000 cycles: 9325334 heartbeat IPC: 2.15644 cumulative IPC: 2.1447 (Simulation time: 0 hr 0 min 33 sec) 
Heartbeat CPU 0 instructions: 30000003 cycles: 14019728 heartbeat IPC: 2.1302 cumulative IPC: 2.13984 (Simulation time: 0 hr 0 min 50 sec) 
Heartbeat CPU 0 instructions: 40000000 cycles: 18670144 heartbeat IPC: 2.15034 cumulative IPC: 2.14246 (Simulation time: 0 hr 1 min 7 sec) 
Heartbeat CPU 0 instructions: 50000003 cycles: 23323509 heartbeat IPC: 2.14898 cumulative IPC: 2.14376 (Simulation time: 0 hr 1 min 23 sec) 
Heartbeat CPU 0 instructions: 60000000 cycles: 27976115 heartbeat IPC: 2.14933 cumulative IPC: 2.14469 (Simulation time: 0 hr 1 min 40 sec) 
Heartbeat CPU 0 instructions: 70000002 cycles: 32367366 heartbeat IPC: 2.27726 cumulative IPC: 2.16267 (Simulation time: 0 hr 1 min 54 sec) 
Heartbeat CPU 0 instructions: 80000000 cycles: 36304174 heartbeat IPC: 2.54013 cumulative IPC: 2.2036 (Simulation time: 0 hr 2 min 6 sec) 
Heartbeat CPU 0 instructions: 90000000 cycles: 40249530 heartbeat IPC: 2.53463 cumulative IPC: 2.23605 (Simulation time: 0 hr 2 min 18 sec) 
Heartbeat CPU 0 instructions: 100000000 cycles: 44211971 heartbeat IPC: 2.5237 cumulative IPC: 2.26183 (Simulation time: 0 hr 2 min 30 sec) 

Warmup complete CPU 0 instructions: 100000002 cycles: 44211972 (Simulation time: 0 hr 2 min 30 sec) 

Heartbeat CPU 0 instructions: 110000000 cycles: 53473640 heartbeat IPC: 1.07972 cumulative IPC: 1.07972 (Simulation time: 0 hr 2 min 49 sec) 
Heartbeat CPU 0 instructions: 120000000 cycles: 62648902 heartbeat IPC: 1.08989 cumulative IPC: 1.08478 (Simulation time: 0 hr 3 min 8 sec) 
Heartbeat CPU 0 instructions: 130000002 cycles: 71847958 heartbeat IPC: 1.08707 cumulative IPC: 1.08554 (Simulation time: 0 hr 3 min 27 sec) 
Heartbeat CPU 0 instructions: 140000000 cycles: 80892452 heartbeat IPC: 1.10564 cumulative IPC: 1.0905 (Simulation time: 0 hr 3 min 45 sec) 
Heartbeat CPU 0 instructions: 150000003 cycles: 90091141 heartbeat IPC: 1.08711 cumulative IPC: 1.08982 (Simulation time: 0 hr 4 min 4 sec) 
Heartbeat CPU 0 instructions: 160000000 cycles: 100807199 heartbeat IPC: 0.933179 cumulative IPC: 1.06016 (Simulation time: 0 hr 4 min 25 sec) 
Heartbeat CPU 0 instructions: 170000000 cycles: 113363001 heartbeat IPC: 0.796445 cumulative IPC: 1.01228 (Simulation time: 0 hr 4 min 48 sec) 
Heartbeat CPU 0 instructions: 180000000 cycles: 125897244 heartbeat IPC: 0.797814 cumulative IPC: 0.979369 (Simulation time: 0 hr 5 min 11 sec) 
Heartbeat CPU 0 instructions: 190000000 cycles: 138706738 heartbeat IPC: 0.780671 cumulative IPC: 0.952434 (Simulation time: 0 hr 5 min 34 sec) 
Heartbeat CPU 0 instructions: 200000000 cycles: 152610145 heartbeat IPC: 0.719248 cumulative IPC: 0.922525 (Simulation time: 0 hr 5 min 57 sec) 
Heartbeat CPU 0 instructions: 210000001 cycles: 166566944 heartbeat IPC: 0.716497 cumulative IPC: 0.899024 (Simulation time: 0 hr 6 min 20 sec) 
Heartbeat CPU 0 instructions: 220000000 cycles: 180340749 heartbeat IPC: 0.726016 cumulative IPC: 0.881518 (Simulation time: 0 hr 6 min 43 sec) 
Heartbeat CPU 0 instructions: 230000000 cycles: 193932918 heartbeat IPC: 0.735718 cumulative IPC: 0.868282 (Simulation time: 0 hr 7 min 7 sec) 
Heartbeat CPU 0 instructions: 240000000 cycles: 207601639 heartbeat IPC: 0.731597 cumulative IPC: 0.856847 (Simulation time: 0 hr 7 min 31 sec) 
Heartbeat CPU 0 instructions: 250000003 cycles: 218716664 heartbeat IPC: 0.899683 cumulative IPC: 0.859576 (Simulation time: 0 hr 7 min 53 sec) 
Heartbeat CPU 0 instructions: 260000000 cycles: 226637402 heartbeat IPC: 1.26251 cumulative IPC: 0.877071 (Simulation time: 0 hr 8 min 12 sec) 
Heartbeat CPU 0 instructions: 270000003 cycles: 235181320 heartbeat IPC: 1.17042 cumulative IPC: 0.890195 (Simulation time: 0 hr 8 min 32 sec) 
Heartbeat CPU 0 instructions: 280000000 cycles: 244791018 heartbeat IPC: 1.04062 cumulative IPC: 0.897402 (Simulation time: 0 hr 8 min 52 sec) 
Heartbeat CPU 0 instructions: 290000000 cycles: 254120622 heartbeat IPC: 1.07186 cumulative IPC: 0.905156 (Simulation time: 0 hr 9 min 13 sec) 
Heartbeat CPU 0 instructions: 300000000 cycles: 263344746 heartbeat IPC: 1.08411 cumulative IPC: 0.912689 (Simulation time: 0 hr 9 min 33 sec) 
Heartbeat CPU 0 instructions: 310000000 cycles: 272576283 heartbeat IPC: 1.08324 cumulative IPC: 0.919583 (Simulation time: 0 hr 9 min 55 sec) 
Heartbeat CPU 0 instructions: 320000000 cycles: 281804509 heartbeat IPC: 1.08363 cumulative IPC: 0.925955 (Simulation time: 0 hr 10 min 16 sec) 
Heartbeat CPU 0 instructions: 330000002 cycles: 290968243 heartbeat IPC: 1.09126 cumulative IPC: 0.932094 (Simulation time: 0 hr 10 min 37 sec) 
Heartbeat CPU 0 instructions: 340000000 cycles: 301414641 heartbeat IPC: 0.957268 cumulative IPC: 0.933116 (Simulation time: 0 hr 11 min 0 sec) 
Heartbeat CPU 0 instructions: 350000001 cycles: 310447682 heartbeat IPC: 1.10705 cumulative IPC: 0.939018 (Simulation time: 0 hr 11 min 20 sec) 
Heartbeat CPU 0 instructions: 360000000 cycles: 319445891 heartbeat IPC: 1.11133 cumulative IPC: 0.944651 (Simulation time: 0 hr 11 min 41 sec) 
Heartbeat CPU 0 instructions: 370000000 cycles: 328409058 heartbeat IPC: 1.11568 cumulative IPC: 0.950045 (Simulation time: 0 hr 12 min 1 sec) 
Heartbeat CPU 0 instructions: 380000000 cycles: 337269569 heartbeat IPC: 1.1286 cumulative IPC: 0.955444 (Simulation time: 0 hr 12 min 21 sec) 
Heartbeat CPU 0 instructions: 390000001 cycles: 345947760 heartbeat IPC: 1.15231 cumulative IPC: 0.961106 (Simulation time: 0 hr 12 min 42 sec) 
Heartbeat CPU 0 instructions: 400000000 cycles: 354690083 heartbeat IPC: 1.14386 cumulative IPC: 0.966252 (Simulation time: 0 hr 13 min 2 sec) 
Heartbeat CPU 0 instructions: 410000003 cycles: 363330941 heartbeat IPC: 1.15729 cumulative IPC: 0.971425 (Simulation time: 0 hr 13 min 22 sec) 
Heartbeat CPU 0 instructions: 420000000 cycles: 372027018 heartbeat IPC: 1.14994 cumulative IPC: 0.97616 (Simulation time: 0 hr 13 min 42 sec) 
Heartbeat CPU 0 instructions: 430000001 cycles: 380611110 heartbeat IPC: 1.16495 cumulative IPC: 0.980978 (Simulation time: 0 hr 14 min 2 sec) 
Heartbeat CPU 0 instructions: 440000000 cycles: 389136723 heartbeat IPC: 1.17294 cumulative IPC: 0.985722 (Simulation time: 0 hr 14 min 22 sec) 
Heartbeat CPU 0 instructions: 450000001 cycles: 399066877 heartbeat IPC: 1.00703 cumulative IPC: 0.986319 (Simulation time: 0 hr 14 min 44 sec) 
Heartbeat CPU 0 instructions: 460000000 cycles: 407602189 heartbeat IPC: 1.1716 cumulative IPC: 0.990671 (Simulation time: 0 hr 15 min 4 sec) 
Heartbeat CPU 0 instructions: 470000003 cycles: 415993170 heartbeat IPC: 1.19176 cumulative IPC: 0.995209 (Simulation time: 0 hr 15 min 24 sec) 
Heartbeat CPU 0 instructions: 480000000 cycles: 424404008 heartbeat IPC: 1.18894 cumulative IPC: 0.999495 (Simulation time: 0 hr 15 min 43 sec) 
Heartbeat CPU 0 instructions: 490000000 cycles: 432790088 heartbeat IPC: 1.19245 cumulative IPC: 1.00366 (Simulation time: 0 hr 16 min 3 sec) 
Heartbeat CPU 0 instructions: 500000000 cycles: 441185632 heartbeat IPC: 1.19111 cumulative IPC: 1.00762 (Simulation time: 0 hr 16 min 23 sec) 
Heartbeat CPU 0 instructions: 510000001 cycles: 449533971 heartbeat IPC: 1.19784 cumulative IPC: 1.01154 (Simulation time: 0 hr 16 min 43 sec) 
Heartbeat CPU 0 instructions: 520000000 cycles: 457909573 heartbeat IPC: 1.19394 cumulative IPC: 1.01523 (Simulation time: 0 hr 17 min 3 sec) 
Heartbeat CPU 0 instructions: 530000001 cycles: 466281855 heartbeat IPC: 1.19442 cumulative IPC: 1.01879 (Simulation time: 0 hr 17 min 23 sec) 
Heartbeat CPU 0 instructions: 540000000 cycles: 474832616 heartbeat IPC: 1.16949 cumulative IPC: 1.02178 (Simulation time: 0 hr 17 min 43 sec) 
Heartbeat CPU 0 instructions: 550000001 cycles: 483423356 heartbeat IPC: 1.16404 cumulative IPC: 1.02456 (Simulation time: 0 hr 18 min 3 sec) 
Heartbeat CPU 0 instructions: 560000000 cycles: 491798506 heartbeat IPC: 1.19401 cumulative IPC: 1.02773 (Simulation time: 0 hr 18 min 23 sec) 
Heartbeat CPU 0 instructions: 570000001 cycles: 503609171 heartbeat IPC: 0.846692 cumulative IPC: 1.02308 (Simulation time: 0 hr 18 min 45 sec) 
Heartbeat CPU 0 instructions: 580000000 cycles: 515123320 heartbeat IPC: 0.868497 cumulative IPC: 1.0193 (Simulation time: 0 hr 19 min 6 sec) 
Heartbeat CPU 0 instructions: 590000001 cycles: 526834308 heartbeat IPC: 0.853899 cumulative IPC: 1.01529 (Simulation time: 0 hr 19 min 28 sec) 
Heartbeat CPU 0 instructions: 600000000 cycles: 538220545 heartbeat IPC: 0.878253 cumulative IPC: 1.01213 (Simulation time: 0 hr 19 min 50 sec) 
Finished CPU 0 instructions: 500000001 cycles: 494008586 cumulative IPC: 1.01213 (Simulation time: 0 hr 19 min 50 sec) 

CPU 0 Branch Prediction Accuracy: 99.7422% MPKI: 0.173296
Number of Branches: 33608403 Number of Mispredictions: 86648
Number of LOAD Instructions: 180215231
Number of LOAD Instructions (ROI): 180215231
Number of STORE Instructions: 36067263
Number of STORE Instructions (ROI): 36067263
Total Destination Memory Operands: 38428915
Total Destination Memory Operands (ROI): 38428915
Total Source Memory Operands: 180215231
Total Source Memory Operands (ROI): 180215231
Number of DEPENDED LOADS: 3041754
Number of DEPENDED LOADS (ROI): 3041754
Number of SQ_ADDED: 38428892
Number of SQ_ADDED (ROI): 38428892
Number of LQ_ADDED: 207878602
Number of LQ_ADDED (ROI): 207878602
Number of Instructions read from trace: 600000257

ChampSim completed all CPUs

Region of Interest Statistics

CPU 0 cumulative IPC: 1.01213 instructions: 500000001 cycles: 494008586
ITLB TOTAL     ACCESS:   92045812  HIT:   92045793  MISS:         19
ITLB LOAD      ACCESS:   92045812  HIT:   92045793  MISS:         19
ITLB RFO       ACCESS:          0  HIT:          0  MISS:          0
ITLB PREFETCH  ACCESS:          0  HIT:          0  MISS:          0
ITLB WRITEBACK ACCESS:          0  HIT:          0  MISS:          0
ITLB PREFETCH  REQUESTED:          0  ISSUED:          0  USEFUL:          0  USELESS:          0
ITLB TOTAL MSHR MERGED:         40
ITLB LOAD MSHR MERGED:         40
ITLB RFO MSHR MERGED:          0
ITLB PREFETCH MSHR MERGED:          0
ITLB WRITEBACK MSHR MERGED:          0
ITLB TOTAL ACCESSES:   92045852 HITS:   92045793 MISSES:         59
ITLB LOAD ACCESSES:   92045852 HITS:   92045793 MISSES:         59
ITLB RFO ACCESSES:          0 HITS:          0 MISSES:          0
ITLB PREFETCH ACCESSES:          0 HITS:          0 MISSES:          0
ITLB WRITEBACK ACCESSES:          0 HITS:          0 MISSES:          0
ITLB RQ ACCESS:  500000003
ITLB RQ TO_CACHE:   92045852
ITLB RQ MERGED:  407954151
ITLB RQ FORWARD:          0
ITLB WQ ACCESS:          0
ITLB WQ TO_CACHE:          0
ITLB WQ MERGED:          0
ITLB WQ FORWARD:          0
DTLB TOTAL     ACCESS:  141944980  HIT:  141578518  MISS:     366462
DTLB LOAD      ACCESS:  119332444  HIT:  119018858  MISS:     313586
DTLB RFO       ACCESS:   22612536  HIT:   22559660  MISS:      52876
DTLB PREFETCH  ACCESS:          0  HIT:          0  MISS:          0
DTLB WRITEBACK ACCESS:          0  HIT:          0  MISS:          0
DTLB PREFETCH  REQUESTED:          0  ISSUED:          0  USEFUL:          0  USELESS:          0
DTLB TOTAL MSHR MERGED:     288694
DTLB LOAD MSHR MERGED:     240150
DTLB RFO MSHR MERGED:      48544
DTLB PREFETCH MSHR MERGED:          0
DTLB WRITEBACK MSHR MERGED:          0
DTLB TOTAL ACCESSES:  142233674 HITS:  141578518 MISSES:     655156
DTLB LOAD ACCESSES:  119572594 HITS:  119018858 MISSES:     553736
DTLB RFO ACCESSES:   22661080 HITS:   22559660 MISSES:     101420
DTLB PREFETCH ACCESSES:          0 HITS:          0 MISSES:          0
DTLB WRITEBACK ACCESSES:          0 HITS:          0 MISSES:          0
DTLB RQ ACCESS:  184791223
DTLB RQ TO_CACHE:  142233674
DTLB RQ MERGED:   42557549
DTLB RQ FORWARD:          0
DTLB WQ ACCESS:          0
DTLB WQ TO_CACHE:          0
DTLB WQ MERGED:          0
DTLB WQ FORWARD:          0
L1D TOTAL     ACCESS:  187363997  HIT:  173921092  MISS:   13442905
L1D LOAD      ACCESS:  111606431  HIT:  108120186  MISS:    3486245
L1D RFO       ACCESS:   17839839  HIT:   15058079  MISS:    2781760
L1D PREFETCH  ACCESS:   57917727  HIT:   50742827  MISS:    7174900
L1D WRITEBACK ACCESS:          0  HIT:          0  MISS:          0
L1D PREFETCH  REQUESTED:  116462034  ISSUED:  115101395  USEFUL:    6965662  USELESS:     209238
L1D TOTAL MSHR MERGED:   34599646
L1D LOAD MSHR MERGED:    7785817
L1D RFO MSHR MERGED:   10412766
L1D PREFETCH MSHR MERGED:   16401063
L1D WRITEBACK MSHR MERGED:          0
L1D TOTAL ACCESSES:  221964199 HITS:  173921647 MISSES:   48042552
L1D LOAD ACCESSES:  116462201 HITS:  108120353 MISSES:    8341848
L1D RFO ACCESSES:   28252544 HITS:   15058079 MISSES:   13194465
L1D PREFETCH ACCESSES:   77249454 HITS:   50743215 MISSES:   26506239
L1D WRITEBACK ACCESSES:          0 HITS:          0 MISSES:          0
L1D RQ ACCESS:  156535157
L1D RQ TO_CACHE:  116462037
L1D RQ MERGED:   40072953
L1D RQ FORWARD:          0
L1D WQ ACCESS:   28256066
L1D WQ TO_CACHE:   28252544
L1D WQ MERGED:       3522
L1D WQ FORWARD:        555
L1I TOTAL     ACCESS:  116031139  HIT:  116030191  MISS:        948
L1I LOAD      ACCESS:  116031139  HIT:  116030191  MISS:        948
L1I RFO       ACCESS:          0  HIT:          0  MISS:          0
L1I PREFETCH  ACCESS:          0  HIT:          0  MISS:          0
L1I WRITEBACK ACCESS:          0  HIT:          0  MISS:          0
L1I PREFETCH  REQUESTED:          0  ISSUED:          0  USEFUL:          0  USELESS:          0
L1I TOTAL MSHR MERGED:       1599
L1I LOAD MSHR MERGED:       1599
L1I RFO MSHR MERGED:          0
L1I PREFETCH MSHR MERGED:          0
L1I WRITEBACK MSHR MERGED:          0
L1I TOTAL ACCESSES:  116032738 HITS:  116030191 MISSES:       2547
L1I LOAD ACCESSES:  116032738 HITS:  116030191 MISSES:       2547
L1I RFO ACCESSES:          0 HITS:          0 MISSES:          0
L1I PREFETCH ACCESSES:          0 HITS:          0 MISSES:          0
L1I WRITEBACK ACCESSES:          0 HITS:          0 MISSES:          0
L1I RQ ACCESS:  500000007
L1I RQ TO_CACHE:  116032738
L1I RQ MERGED:  383967269
L1I RQ FORWARD:          0
L1I WQ ACCESS:          0
L1I WQ TO_CACHE:          0
L1I WQ MERGED:          0
L1I WQ FORWARD:          0
L2C TOTAL     ACCESS:   16688296  HIT:    4843664  MISS:   11844632
L2C LOAD      ACCESS:     556953  HIT:      95379  MISS:     461574
L2C RFO       ACCESS:    2781699  HIT:     266438  MISS:    2515261
L2C PREFETCH  ACCESS:   10129013  HIT:    1263498  MISS:    8865515
L2C WRITEBACK ACCESS:    3220631  HIT:    3218349  MISS:       2282
L2C PREFETCH  REQUESTED:      26058  ISSUED:      26058  USEFUL:      92593  USELESS:    8771004
L2C TOTAL MSHR MERGED:        643
L2C LOAD MSHR MERGED:         16
L2C RFO MSHR MERGED:          0
L2C PREFETCH MSHR MERGED:        627
L2C WRITEBACK MSHR MERGED:          0
L2C TOTAL ACCESSES:   16689126 HITS:    4843715 MISSES:   11845411
L2C LOAD ACCESSES:     556979 HITS:      95405 MISSES:     461574
L2C RFO ACCESSES:    2781699 HITS:     266438 MISSES:    2515261
L2C PREFETCH ACCESSES:   10129817 HITS:    1263523 MISSES:    8866294
L2C WRITEBACK ACCESSES:    3220631 HITS:    3218349 MISSES:       2282
L2C RQ ACCESS:    3338678
L2C RQ TO_CACHE:    3338652
L2C RQ MERGED:          0
L2C RQ FORWARD:          0
L2C WQ ACCESS:    3220631
L2C WQ TO_CACHE:    3220631
L2C WQ MERGED:          0
L2C WQ FORWARD:         51
LLC TOTAL     ACCESS:   14742862  HIT:    6216929  MISS:    8525933
LLC LOAD      ACCESS:     461554  HIT:     249032  MISS:     212522
LLC RFO       ACCESS:    2515243  HIT:    1489119  MISS:    1026124
LLC PREFETCH  ACCESS:    8865608  HIT:    2629577  MISS:    6236031
LLC WRITEBACK ACCESS:    2900457  HIT:    1849201  MISS:    1051256
LLC PREFETCH  REQUESTED:          0  ISSUED:          0  USEFUL:       5169  USELESS:    6231725
LLC TOTAL MSHR MERGED:         12
LLC LOAD MSHR MERGED:          1
LLC RFO MSHR MERGED:          0
LLC PREFETCH MSHR MERGED:         11
LLC WRITEBACK MSHR MERGED:          0
LLC TOTAL ACCESSES:   14742935 HITS:    6216989 MISSES:    8525946
LLC LOAD ACCESSES:     461558 HITS:     249036 MISSES:     212522
LLC RFO ACCESSES:    2515261 HITS:    1489137 MISSES:    1026124
LLC PREFETCH ACCESSES:    8865659 HITS:    2629615 MISSES:    6236044
LLC WRITEBACK ACCESSES:    2900457 HITS:    1849201 MISSES:    1051256
LLC 0 RQ ACCESS:    2976819
LLC 0 RQ TO_CACHE:    2976797
LLC 0 RQ MERGED:          0
LLC 0 RQ FORWARD:          0
LLC WQ ACCESS:    2900457
LLC WQ TO_CACHE:    2900457
LLC WQ MERGED:          0
LLC WQ FORWARD:         60
Major fault: 0 Minor fault: 57518
CPU 0 L1D next line prefetcher final stats
CPU 0 L2C PC-based stride prefetcher final stats
All Misses: 9246327
All Hits: 6992716
SD Algo Stats - Switches: 0 SRR-Repls: 219899 BRR-Repls: 0

DRAM Statistics
 CHANNEL 0
 RQ ROW_BUFFER_HIT:    3844449  ROW_BUFFER_MISS:    3624117
 DBUS_CONGESTED:    3740228
 WQ ROW_BUFFER_HIT:     173549  ROW_BUFFER_MISS:    1142441  FULL:          0

 AVG_CONGESTED_CYCLE: 12
LOADS RETIRED: 157818985
INSTR RETIRED: 500000000
