
*** ChampSim Multicore Out-of-Order Simulator ***

Warmup Instructions: 100000000
Simulation Instructions: 500000000
Number of CPUs: 1
LLC sets: 2048
LLC ways: 16
Clean RRIP Policies: 1213222012132220 Dirty RRIP Policies: 2213022022130220 PSEL Width: 10 Track Set: 4294967295 PSEL Mask: 1 Demote Mask: 1340414013404140DS Algo: 0Window size: 0
Off-chip DRAM Size: 4096 MB Channels: 1 Width: 64-bit Data Rate: 1600 MT/s

CPU 0 runs /mnt/beegfs/iconst01/spec2017/Gcc.trace.gz
NOT SORTED
TRACE STRING: /mnt/beegfs/iconst01/spec2017/Gcc.trace.gz
SORTED
TRACE STRING: /mnt/beegfs/iconst01/spec2017/Gcc.trace.gz
INITIAL
TRACE STRING: /mnt/beegfs/iconst01/spec2017/Gcc.trace.gz

champsim_seed used: 269

CPU 0 L1D next line prefetcher
CPU 0 L2C IP-based stride prefetcher
Initialize DRRIP state
Assign rand_sets[0]: 454  LLC: 2048
rand_sets[0]: 454
Assign rand_sets[1]: 1662  LLC: 2048
rand_sets[1]: 1662
Assign rand_sets[2]: 1921  LLC: 2048
rand_sets[2]: 1921
Assign rand_sets[3]: 1131  LLC: 2048
rand_sets[3]: 1131
Assign rand_sets[4]: 331  LLC: 2048
rand_sets[4]: 331
Assign rand_sets[5]: 1531  LLC: 2048
rand_sets[5]: 1531
Assign rand_sets[6]: 482  LLC: 2048
rand_sets[6]: 482
Assign rand_sets[7]: 1275  LLC: 2048
rand_sets[7]: 1275
Assign rand_sets[8]: 1876  LLC: 2048
rand_sets[8]: 1876
Assign rand_sets[9]: 2038  LLC: 2048
rand_sets[9]: 2038
Assign rand_sets[10]: 701  LLC: 2048
rand_sets[10]: 701
Assign rand_sets[11]: 479  LLC: 2048
rand_sets[11]: 479
Assign rand_sets[12]: 892  LLC: 2048
rand_sets[12]: 892
Assign rand_sets[13]: 1820  LLC: 2048
rand_sets[13]: 1820
Assign rand_sets[14]: 1505  LLC: 2048
rand_sets[14]: 1505
Assign rand_sets[15]: 1159  LLC: 2048
rand_sets[15]: 1159
Assign rand_sets[16]: 513  LLC: 2048
rand_sets[16]: 513
Assign rand_sets[17]: 703  LLC: 2048
rand_sets[17]: 703
Assign rand_sets[18]: 561  LLC: 2048
rand_sets[18]: 561
Assign rand_sets[19]: 990  LLC: 2048
rand_sets[19]: 990
Assign rand_sets[20]: 342  LLC: 2048
rand_sets[20]: 342
Assign rand_sets[21]: 882  LLC: 2048
rand_sets[21]: 882
Assign rand_sets[22]: 15  LLC: 2048
rand_sets[22]: 15
Assign rand_sets[23]: 71  LLC: 2048
rand_sets[23]: 71
Assign rand_sets[24]: 1127  LLC: 2048
rand_sets[24]: 1127
Assign rand_sets[25]: 1382  LLC: 2048
rand_sets[25]: 1382
Assign rand_sets[26]: 647  LLC: 2048
rand_sets[26]: 647
Assign rand_sets[27]: 857  LLC: 2048
rand_sets[27]: 857
Assign rand_sets[28]: 1450  LLC: 2048
rand_sets[28]: 1450
Assign rand_sets[29]: 1160  LLC: 2048
rand_sets[29]: 1160
Assign rand_sets[30]: 1852  LLC: 2048
rand_sets[30]: 1852
Assign rand_sets[31]: 1881  LLC: 2048
rand_sets[31]: 1881
Assign rand_sets[32]: 1770  LLC: 2048
rand_sets[32]: 1770
Assign rand_sets[33]: 1622  LLC: 2048
rand_sets[33]: 1622
Assign rand_sets[34]: 275  LLC: 2048
rand_sets[34]: 275
Assign rand_sets[35]: 635  LLC: 2048
rand_sets[35]: 635
Assign rand_sets[36]: 466  LLC: 2048
rand_sets[36]: 466
Assign rand_sets[37]: 1413  LLC: 2048
rand_sets[37]: 1413
Assign rand_sets[38]: 417  LLC: 2048
rand_sets[38]: 417
Assign rand_sets[39]: 472  LLC: 2048
rand_sets[39]: 472
Assign rand_sets[40]: 1340  LLC: 2048
rand_sets[40]: 1340
Assign rand_sets[41]: 852  LLC: 2048
rand_sets[41]: 852
Assign rand_sets[42]: 1365  LLC: 2048
rand_sets[42]: 1365
Assign rand_sets[43]: 47  LLC: 2048
rand_sets[43]: 47
Assign rand_sets[44]: 823  LLC: 2048
rand_sets[44]: 823
Assign rand_sets[45]: 686  LLC: 2048
rand_sets[45]: 686
Assign rand_sets[46]: 1637  LLC: 2048
rand_sets[46]: 1637
Assign rand_sets[47]: 1115  LLC: 2048
rand_sets[47]: 1115
Assign rand_sets[48]: 986  LLC: 2048
rand_sets[48]: 986
Assign rand_sets[49]: 258  LLC: 2048
rand_sets[49]: 258
Assign rand_sets[50]: 633  LLC: 2048
rand_sets[50]: 633
Assign rand_sets[51]: 920  LLC: 2048
rand_sets[51]: 920
Assign rand_sets[52]: 204  LLC: 2048
rand_sets[52]: 204
Assign rand_sets[53]: 227  LLC: 2048
rand_sets[53]: 227
Assign rand_sets[54]: 1818  LLC: 2048
rand_sets[54]: 1818
Assign rand_sets[55]: 886  LLC: 2048
rand_sets[55]: 886
Assign rand_sets[56]: 1422  LLC: 2048
rand_sets[56]: 1422
Assign rand_sets[57]: 607  LLC: 2048
rand_sets[57]: 607
Assign rand_sets[58]: 217  LLC: 2048
rand_sets[58]: 217
Assign rand_sets[59]: 1945  LLC: 2048
rand_sets[59]: 1945
Assign rand_sets[60]: 143  LLC: 2048
rand_sets[60]: 143
Assign rand_sets[61]: 1311  LLC: 2048
rand_sets[61]: 1311
Assign rand_sets[62]: 319  LLC: 2048
rand_sets[62]: 319
Assign rand_sets[63]: 1846  LLC: 2048
rand_sets[63]: 1846
 CLEAN-RRIP-POLICY-1: 1-2-1-3-2-2-2-0- CLEAN-RRIP-POLICY-2: 1-2-1-3-2-2-2-0-
 DIRTY-RRIP-POLICY-1: 2-2-1-3-0-2-2-0- DIRTY-RRIP-POLICY-2: 2-2-1-3-0-2-2-0-
 PSEL width: 10
Heartbeat CPU 0 instructions: 10000001 cycles: 7315993 heartbeat IPC: 1.36687 cumulative IPC: 1.36687 (Simulation time: 0 hr 0 min 14 sec) 
Heartbeat CPU 0 instructions: 20000000 cycles: 14308243 heartbeat IPC: 1.43015 cumulative IPC: 1.3978 (Simulation time: 0 hr 0 min 28 sec) 
Heartbeat CPU 0 instructions: 30000001 cycles: 21021814 heartbeat IPC: 1.48952 cumulative IPC: 1.42709 (Simulation time: 0 hr 0 min 43 sec) 
Heartbeat CPU 0 instructions: 40000000 cycles: 27482822 heartbeat IPC: 1.54775 cumulative IPC: 1.45545 (Simulation time: 0 hr 0 min 58 sec) 
Heartbeat CPU 0 instructions: 50000001 cycles: 33584822 heartbeat IPC: 1.63881 cumulative IPC: 1.48877 (Simulation time: 0 hr 1 min 12 sec) 
Heartbeat CPU 0 instructions: 60000000 cycles: 40066156 heartbeat IPC: 1.54289 cumulative IPC: 1.49752 (Simulation time: 0 hr 1 min 27 sec) 
Heartbeat CPU 0 instructions: 70000000 cycles: 47106646 heartbeat IPC: 1.42036 cumulative IPC: 1.48599 (Simulation time: 0 hr 1 min 41 sec) 
Heartbeat CPU 0 instructions: 80000000 cycles: 54197292 heartbeat IPC: 1.41031 cumulative IPC: 1.47609 (Simulation time: 0 hr 1 min 55 sec) 
Heartbeat CPU 0 instructions: 90000003 cycles: 61202793 heartbeat IPC: 1.42745 cumulative IPC: 1.47052 (Simulation time: 0 hr 2 min 8 sec) 
Heartbeat CPU 0 instructions: 100000000 cycles: 68371165 heartbeat IPC: 1.39502 cumulative IPC: 1.4626 (Simulation time: 0 hr 2 min 22 sec) 

Warmup complete CPU 0 instructions: 100000004 cycles: 68371166 (Simulation time: 0 hr 2 min 22 sec) 

Heartbeat CPU 0 instructions: 110000003 cycles: 96273976 heartbeat IPC: 0.358387 cumulative IPC: 0.358387 (Simulation time: 0 hr 2 min 48 sec) 
Heartbeat CPU 0 instructions: 120000000 cycles: 123831257 heartbeat IPC: 0.36288 cumulative IPC: 0.36062 (Simulation time: 0 hr 3 min 14 sec) 
Heartbeat CPU 0 instructions: 130000000 cycles: 148896508 heartbeat IPC: 0.398959 cumulative IPC: 0.372553 (Simulation time: 0 hr 3 min 39 sec) 
Heartbeat CPU 0 instructions: 140000000 cycles: 178806825 heartbeat IPC: 0.334333 cumulative IPC: 0.362202 (Simulation time: 0 hr 4 min 5 sec) 
Heartbeat CPU 0 instructions: 150000000 cycles: 208937448 heartbeat IPC: 0.331888 cumulative IPC: 0.355704 (Simulation time: 0 hr 4 min 30 sec) 
Heartbeat CPU 0 instructions: 160000000 cycles: 236424390 heartbeat IPC: 0.363809 cumulative IPC: 0.35703 (Simulation time: 0 hr 4 min 55 sec) 
Heartbeat CPU 0 instructions: 170000001 cycles: 264668053 heartbeat IPC: 0.354062 cumulative IPC: 0.356603 (Simulation time: 0 hr 5 min 22 sec) 
Heartbeat CPU 0 instructions: 180000000 cycles: 293306630 heartbeat IPC: 0.349179 cumulative IPC: 0.355658 (Simulation time: 0 hr 5 min 49 sec) 
Heartbeat CPU 0 instructions: 190000002 cycles: 321575043 heartbeat IPC: 0.353752 cumulative IPC: 0.355445 (Simulation time: 0 hr 6 min 14 sec) 
Heartbeat CPU 0 instructions: 200000000 cycles: 350062248 heartbeat IPC: 0.351035 cumulative IPC: 0.354999 (Simulation time: 0 hr 6 min 41 sec) 
Heartbeat CPU 0 instructions: 210000002 cycles: 378045308 heartbeat IPC: 0.357359 cumulative IPC: 0.355212 (Simulation time: 0 hr 7 min 7 sec) 
Heartbeat CPU 0 instructions: 220000000 cycles: 407496163 heartbeat IPC: 0.339549 cumulative IPC: 0.353852 (Simulation time: 0 hr 7 min 32 sec) 
Heartbeat CPU 0 instructions: 230000000 cycles: 435252259 heartbeat IPC: 0.360281 cumulative IPC: 0.354338 (Simulation time: 0 hr 7 min 57 sec) 
Heartbeat CPU 0 instructions: 240000000 cycles: 461250909 heartbeat IPC: 0.384635 cumulative IPC: 0.356343 (Simulation time: 0 hr 8 min 21 sec) 
Heartbeat CPU 0 instructions: 250000000 cycles: 491484262 heartbeat IPC: 0.330761 cumulative IPC: 0.354515 (Simulation time: 0 hr 8 min 48 sec) 
Heartbeat CPU 0 instructions: 260000000 cycles: 518646815 heartbeat IPC: 0.368154 cumulative IPC: 0.355338 (Simulation time: 0 hr 9 min 14 sec) 
Heartbeat CPU 0 instructions: 270000003 cycles: 547292573 heartbeat IPC: 0.349092 cumulative IPC: 0.354964 (Simulation time: 0 hr 9 min 40 sec) 
Heartbeat CPU 0 instructions: 280000000 cycles: 575700408 heartbeat IPC: 0.352015 cumulative IPC: 0.354799 (Simulation time: 0 hr 10 min 7 sec) 
Heartbeat CPU 0 instructions: 290000000 cycles: 604632533 heartbeat IPC: 0.345637 cumulative IPC: 0.354305 (Simulation time: 0 hr 10 min 34 sec) 
Heartbeat CPU 0 instructions: 300000000 cycles: 634947010 heartbeat IPC: 0.329875 cumulative IPC: 0.352998 (Simulation time: 0 hr 10 min 59 sec) 
Heartbeat CPU 0 instructions: 310000001 cycles: 664550854 heartbeat IPC: 0.337794 cumulative IPC: 0.352243 (Simulation time: 0 hr 11 min 25 sec) 
Heartbeat CPU 0 instructions: 320000000 cycles: 693018792 heartbeat IPC: 0.351272 cumulative IPC: 0.352199 (Simulation time: 0 hr 11 min 50 sec) 
Heartbeat CPU 0 instructions: 330000000 cycles: 721861717 heartbeat IPC: 0.346705 cumulative IPC: 0.351956 (Simulation time: 0 hr 12 min 16 sec) 
Heartbeat CPU 0 instructions: 340000000 cycles: 751361896 heartbeat IPC: 0.338981 cumulative IPC: 0.351396 (Simulation time: 0 hr 12 min 41 sec) 
Heartbeat CPU 0 instructions: 350000003 cycles: 778453959 heartbeat IPC: 0.369112 cumulative IPC: 0.352072 (Simulation time: 0 hr 13 min 6 sec) 
Heartbeat CPU 0 instructions: 360000000 cycles: 806921145 heartbeat IPC: 0.351282 cumulative IPC: 0.352041 (Simulation time: 0 hr 13 min 31 sec) 
Heartbeat CPU 0 instructions: 370000000 cycles: 835329301 heartbeat IPC: 0.352012 cumulative IPC: 0.35204 (Simulation time: 0 hr 13 min 55 sec) 
Heartbeat CPU 0 instructions: 380000000 cycles: 864104459 heartbeat IPC: 0.347522 cumulative IPC: 0.351877 (Simulation time: 0 hr 14 min 20 sec) 
Heartbeat CPU 0 instructions: 390000001 cycles: 891855167 heartbeat IPC: 0.360351 cumulative IPC: 0.352162 (Simulation time: 0 hr 14 min 44 sec) 
Heartbeat CPU 0 instructions: 400000000 cycles: 920685756 heartbeat IPC: 0.346854 cumulative IPC: 0.351983 (Simulation time: 0 hr 15 min 8 sec) 
Heartbeat CPU 0 instructions: 410000001 cycles: 948060248 heartbeat IPC: 0.365304 cumulative IPC: 0.352397 (Simulation time: 0 hr 15 min 32 sec) 
Heartbeat CPU 0 instructions: 420000000 cycles: 975437499 heartbeat IPC: 0.365267 cumulative IPC: 0.352786 (Simulation time: 0 hr 15 min 56 sec) 
Heartbeat CPU 0 instructions: 430000002 cycles: 1003278442 heartbeat IPC: 0.359183 cumulative IPC: 0.352976 (Simulation time: 0 hr 16 min 21 sec) 
Heartbeat CPU 0 instructions: 440000000 cycles: 1033121521 heartbeat IPC: 0.335086 cumulative IPC: 0.352423 (Simulation time: 0 hr 16 min 45 sec) 
Heartbeat CPU 0 instructions: 450000002 cycles: 1062540965 heartbeat IPC: 0.339911 cumulative IPC: 0.352053 (Simulation time: 0 hr 17 min 10 sec) 
Heartbeat CPU 0 instructions: 460000000 cycles: 1090359056 heartbeat IPC: 0.359478 cumulative IPC: 0.352255 (Simulation time: 0 hr 17 min 34 sec) 
Heartbeat CPU 0 instructions: 470000000 cycles: 1118074066 heartbeat IPC: 0.360815 cumulative IPC: 0.352481 (Simulation time: 0 hr 17 min 58 sec) 
Heartbeat CPU 0 instructions: 480000000 cycles: 1146025364 heartbeat IPC: 0.357765 cumulative IPC: 0.352618 (Simulation time: 0 hr 18 min 22 sec) 
Heartbeat CPU 0 instructions: 490000000 cycles: 1173670577 heartbeat IPC: 0.361726 cumulative IPC: 0.352846 (Simulation time: 0 hr 18 min 47 sec) 
Heartbeat CPU 0 instructions: 500000000 cycles: 1202063057 heartbeat IPC: 0.352206 cumulative IPC: 0.35283 (Simulation time: 0 hr 19 min 11 sec) 
Heartbeat CPU 0 instructions: 510000000 cycles: 1236946797 heartbeat IPC: 0.286667 cumulative IPC: 0.350854 (Simulation time: 0 hr 19 min 39 sec) 
Heartbeat CPU 0 instructions: 520000000 cycles: 1265046976 heartbeat IPC: 0.35587 cumulative IPC: 0.350972 (Simulation time: 0 hr 20 min 4 sec) 
Heartbeat CPU 0 instructions: 530000001 cycles: 1294559878 heartbeat IPC: 0.338835 cumulative IPC: 0.35068 (Simulation time: 0 hr 20 min 29 sec) 
Heartbeat CPU 0 instructions: 540000000 cycles: 1322771986 heartbeat IPC: 0.354458 cumulative IPC: 0.350765 (Simulation time: 0 hr 20 min 55 sec) 
Heartbeat CPU 0 instructions: 550000001 cycles: 1352077340 heartbeat IPC: 0.341235 cumulative IPC: 0.350547 (Simulation time: 0 hr 21 min 21 sec) 
Heartbeat CPU 0 instructions: 560000000 cycles: 1377525259 heartbeat IPC: 0.392959 cumulative IPC: 0.351372 (Simulation time: 0 hr 21 min 46 sec) 
Heartbeat CPU 0 instructions: 570000000 cycles: 1407371914 heartbeat IPC: 0.335046 cumulative IPC: 0.351008 (Simulation time: 0 hr 22 min 12 sec) 
Heartbeat CPU 0 instructions: 580000000 cycles: 1435552824 heartbeat IPC: 0.35485 cumulative IPC: 0.351087 (Simulation time: 0 hr 22 min 37 sec) 
Heartbeat CPU 0 instructions: 590000001 cycles: 1460354642 heartbeat IPC: 0.403196 cumulative IPC: 0.352016 (Simulation time: 0 hr 23 min 1 sec) 
Heartbeat CPU 0 instructions: 600000000 cycles: 1486535988 heartbeat IPC: 0.381951 cumulative IPC: 0.352568 (Simulation time: 0 hr 23 min 26 sec) 
Finished CPU 0 instructions: 500000000 cycles: 1418164844 cumulative IPC: 0.352568 (Simulation time: 0 hr 23 min 26 sec) 

CPU 0 Branch Prediction Accuracy: 86.4311% MPKI: 26.2662
Number of Branches: 96788573 Number of Mispredictions: 13133102
Number of LOAD Instructions: 164682285
Number of LOAD Instructions (ROI): 164682285
Number of STORE Instructions: 78194750
Number of STORE Instructions (ROI): 78194750
Total Destination Memory Operands: 83268534
Total Destination Memory Operands (ROI): 83268534
Total Source Memory Operands: 164712438
Total Source Memory Operands (ROI): 164712438
Number of DEPENDED LOADS: 7056983
Number of DEPENDED LOADS (ROI): 7056983
Number of SQ_ADDED: 83268522
Number of SQ_ADDED (ROI): 83268522
Number of LQ_ADDED: 236728782
Number of LQ_ADDED (ROI): 236728782
Number of Instructions read from trace: 600000066

ChampSim completed all CPUs

Region of Interest Statistics

CPU 0 cumulative IPC: 0.352568 instructions: 500000000 cycles: 1418164844
ITLB TOTAL     ACCESS:  100519230  HIT:  100314784  MISS:     204446
ITLB LOAD      ACCESS:  100519230  HIT:  100314784  MISS:     204446
ITLB RFO       ACCESS:          0  HIT:          0  MISS:          0
ITLB PREFETCH  ACCESS:          0  HIT:          0  MISS:          0
ITLB WRITEBACK ACCESS:          0  HIT:          0  MISS:          0
ITLB PREFETCH  REQUESTED:          0  ISSUED:          0  USEFUL:          0  USELESS:          0
ITLB TOTAL MSHR MERGED:     172424
ITLB LOAD MSHR MERGED:     172424
ITLB RFO MSHR MERGED:          0
ITLB PREFETCH MSHR MERGED:          0
ITLB WRITEBACK MSHR MERGED:          0
ITLB TOTAL ACCESSES:  100691654 HITS:  100314784 MISSES:     376870
ITLB LOAD ACCESSES:  100691654 HITS:  100314784 MISSES:     376870
ITLB RFO ACCESSES:          0 HITS:          0 MISSES:          0
ITLB PREFETCH ACCESSES:          0 HITS:          0 MISSES:          0
ITLB WRITEBACK ACCESSES:          0 HITS:          0 MISSES:          0
ITLB RQ ACCESS:  500000057
ITLB RQ TO_CACHE:  100691654
ITLB RQ MERGED:  399308403
ITLB RQ FORWARD:          0
ITLB WQ ACCESS:          0
ITLB WQ TO_CACHE:          0
ITLB WQ MERGED:          0
ITLB WQ FORWARD:          0
DTLB TOTAL     ACCESS:  165341032  HIT:  164706681  MISS:     634351
DTLB LOAD      ACCESS:  106295411  HIT:  105725466  MISS:     569945
DTLB RFO       ACCESS:   59045621  HIT:   58981215  MISS:      64406
DTLB PREFETCH  ACCESS:          0  HIT:          0  MISS:          0
DTLB WRITEBACK ACCESS:          0  HIT:          0  MISS:          0
DTLB PREFETCH  REQUESTED:          0  ISSUED:          0  USEFUL:          0  USELESS:          0
DTLB TOTAL MSHR MERGED:      99931
DTLB LOAD MSHR MERGED:      59391
DTLB RFO MSHR MERGED:      40540
DTLB PREFETCH MSHR MERGED:          0
DTLB WRITEBACK MSHR MERGED:          0
DTLB TOTAL ACCESSES:  165440963 HITS:  164706681 MISSES:     734282
DTLB LOAD ACCESSES:  106354802 HITS:  105725466 MISSES:     629336
DTLB RFO ACCESSES:   59086161 HITS:   58981215 MISSES:     104946
DTLB PREFETCH ACCESSES:          0 HITS:          0 MISSES:          0
DTLB WRITEBACK ACCESSES:          0 HITS:          0 MISSES:          0
DTLB RQ ACCESS:  200313921
DTLB RQ TO_CACHE:  165440963
DTLB RQ MERGED:   34872958
DTLB RQ FORWARD:          0
DTLB WQ ACCESS:          0
DTLB WQ TO_CACHE:          0
DTLB WQ MERGED:          0
DTLB WQ FORWARD:          0
L1D TOTAL     ACCESS:  281851302  HIT:  273941941  MISS:    7909361
L1D LOAD      ACCESS:  110423298  HIT:  107145851  MISS:    3277447
L1D RFO       ACCESS:   67122866  HIT:   66232387  MISS:     890479
L1D PREFETCH  ACCESS:  104305138  HIT:  100563703  MISS:    3741435
L1D WRITEBACK ACCESS:          0  HIT:          0  MISS:          0
L1D PREFETCH  REQUESTED:  110821174  ISSUED:  109121854  USEFUL:    1662111  USELESS:    2079288
L1D TOTAL MSHR MERGED:    2862041
L1D LOAD MSHR MERGED:     494878
L1D RFO MSHR MERGED:    1863071
L1D PREFETCH MSHR MERGED:     504092
L1D WRITEBACK MSHR MERGED:          0
L1D TOTAL ACCESSES:  284740856 HITS:  273969454 MISSES:   10771402
L1D LOAD ACCESSES:  110822687 HITS:  107147364 MISSES:    3675323
L1D RFO ACCESSES:   68974246 HITS:   66232387 MISSES:    2741859
L1D PREFETCH ACCESSES:  104943923 HITS:  100589703 MISSES:    4354220
L1D WRITEBACK ACCESSES:          0 HITS:          0 MISSES:          0
L1D RQ ACCESS:  130761318
L1D RQ TO_CACHE:  110821177
L1D RQ MERGED:   19938628
L1D RQ FORWARD:          0
L1D WQ ACCESS:   69552603
L1D WQ TO_CACHE:   68974247
L1D WQ MERGED:     578356
L1D WQ FORWARD:      27513
L1I TOTAL     ACCESS:  126566037  HIT:  122327487  MISS:    4238550
L1I LOAD      ACCESS:  126566037  HIT:  122327487  MISS:    4238550
L1I RFO       ACCESS:          0  HIT:          0  MISS:          0
L1I PREFETCH  ACCESS:          0  HIT:          0  MISS:          0
L1I WRITEBACK ACCESS:          0  HIT:          0  MISS:          0
L1I PREFETCH  REQUESTED:          0  ISSUED:          0  USEFUL:          0  USELESS:          0
L1I TOTAL MSHR MERGED:    1835088
L1I LOAD MSHR MERGED:    1835088
L1I RFO MSHR MERGED:          0
L1I PREFETCH MSHR MERGED:          0
L1I WRITEBACK MSHR MERGED:          0
L1I TOTAL ACCESSES:  128401128 HITS:  122327487 MISSES:    6073641
L1I LOAD ACCESSES:  128401128 HITS:  122327487 MISSES:    6073641
L1I RFO ACCESSES:          0 HITS:          0 MISSES:          0
L1I PREFETCH ACCESSES:          0 HITS:          0 MISSES:          0
L1I WRITEBACK ACCESSES:          0 HITS:          0 MISSES:          0
L1I RQ ACCESS:  500000057
L1I RQ TO_CACHE:  128401128
L1I RQ MERGED:  371598929
L1I RQ FORWARD:          0
L1I WQ ACCESS:          0
L1I WQ TO_CACHE:          0
L1I WQ MERGED:          0
L1I WQ FORWARD:          0
L2C TOTAL     ACCESS:   14905372  HIT:   11158868  MISS:    3746504
L2C LOAD      ACCESS:    7418786  HIT:    5098848  MISS:    2319938
L2C RFO       ACCESS:     878693  HIT:     409907  MISS:     468786
L2C PREFETCH  ACCESS:    4568653  HIT:    3628132  MISS:     940521
L2C WRITEBACK ACCESS:    2039240  HIT:    2021981  MISS:      17259
L2C PREFETCH  REQUESTED:     842780  ISSUED:     842780  USEFUL:     203409  USELESS:     736818
L2C TOTAL MSHR MERGED:       6948
L2C LOAD MSHR MERGED:        775
L2C RFO MSHR MERGED:          0
L2C PREFETCH MSHR MERGED:       6173
L2C WRITEBACK MSHR MERGED:          0
L2C TOTAL ACCESSES:   14913208 HITS:   11159316 MISSES:    3753892
L2C LOAD ACCESSES:    7418995 HITS:    5099057 MISSES:    2319938
L2C RFO ACCESSES:     878788 HITS:     410002 MISSES:     468786
L2C PREFETCH ACCESSES:    4576185 HITS:    3628276 MISSES:     947909
L2C WRITEBACK ACCESSES:    2039240 HITS:    2021981 MISSES:      17259
L2C RQ ACCESS:    8297786
L2C RQ TO_CACHE:    8297482
L2C RQ MERGED:          0
L2C RQ FORWARD:          0
L2C WQ ACCESS:    2039240
L2C WQ TO_CACHE:    2039240
L2C WQ MERGED:          0
L2C WQ FORWARD:        448
LLC TOTAL     ACCESS:    4609837  HIT:    3919884  MISS:     689953
LLC LOAD      ACCESS:    2319148  HIT:    2001276  MISS:     317872
LLC RFO       ACCESS:     468776  HIT:     411032  MISS:      57744
LLC PREFETCH  ACCESS:     941617  HIT:     665437  MISS:     276180
LLC WRITEBACK ACCESS:     880296  HIT:     842139  MISS:      38157
LLC PREFETCH  REQUESTED:          0  ISSUED:          0  USEFUL:      15165  USELESS:     260923
LLC TOTAL MSHR MERGED:        100
LLC LOAD MSHR MERGED:         36
LLC RFO MSHR MERGED:          0
LLC PREFETCH MSHR MERGED:         64
LLC WRITEBACK MSHR MERGED:          0
LLC TOTAL ACCESSES:    4609972 HITS:    3919919 MISSES:     690053
LLC LOAD ACCESSES:    2319163 HITS:    2001291 MISSES:     317872
LLC RFO ACCESSES:     468786 HITS:     411042 MISSES:      57744
LLC PREFETCH ACCESSES:     941727 HITS:     665447 MISSES:     276280
LLC WRITEBACK ACCESSES:     880296 HITS:     842139 MISSES:      38157
LLC 0 RQ ACCESS:    2787949
LLC 0 RQ TO_CACHE:    2787924
LLC 0 RQ MERGED:          0
LLC 0 RQ FORWARD:          0
LLC WQ ACCESS:     880296
LLC WQ TO_CACHE:     880296
LLC WQ MERGED:          0
LLC WQ FORWARD:         35
Major fault: 0 Minor fault: 12862
CPU 0 L1D next line prefetcher final stats
CPU 0 L2C PC-based stride prefetcher final stats
All Misses: 822765
All Hits: 4604078
SD Algo Stats - Switches: 0 SRR-Repls: 373091 BRR-Repls: 0

DRAM Statistics
 CHANNEL 0
 RQ ROW_BUFFER_HIT:     136787  ROW_BUFFER_MISS:     513641
 DBUS_CONGESTED:     337347
 WQ ROW_BUFFER_HIT:      10894  ROW_BUFFER_MISS:     162754  FULL:          0

 AVG_CONGESTED_CYCLE: 13
LOADS RETIRED: 136549171
INSTR RETIRED: 500000000
