
*** ChampSim Multicore Out-of-Order Simulator ***

Warmup Instructions: 100000000
Simulation Instructions: 500000000
Number of CPUs: 1
LLC sets: 2048
LLC ways: 16
Clean RRIP Policies: 2013030120130301 Dirty RRIP Policies: 1003130110031301 PSEL Width: 10 Track Set: 4294967295 PSEL Mask: 1 Demote Mask: 2102201021022010DS Algo: 0Window size: 0
Off-chip DRAM Size: 4096 MB Channels: 1 Width: 64-bit Data Rate: 1600 MT/s

CPU 0 runs /mnt/beegfs/iconst01/spec2017/Fotonik3d.trace.gz
NOT SORTED
TRACE STRING: /mnt/beegfs/iconst01/spec2017/Fotonik3d.trace.gz
SORTED
TRACE STRING: /mnt/beegfs/iconst01/spec2017/Fotonik3d.trace.gz
INITIAL
TRACE STRING: /mnt/beegfs/iconst01/spec2017/Fotonik3d.trace.gz

champsim_seed used: 881

CPU 0 L1D next line prefetcher
CPU 0 L2C IP-based stride prefetcher
Initialize DRRIP state
Assign rand_sets[0]: 454  LLC: 2048
rand_sets[0]: 454
Assign rand_sets[1]: 1662  LLC: 2048
rand_sets[1]: 1662
Assign rand_sets[2]: 1921  LLC: 2048
rand_sets[2]: 1921
Assign rand_sets[3]: 1131  LLC: 2048
rand_sets[3]: 1131
Assign rand_sets[4]: 331  LLC: 2048
rand_sets[4]: 331
Assign rand_sets[5]: 1531  LLC: 2048
rand_sets[5]: 1531
Assign rand_sets[6]: 482  LLC: 2048
rand_sets[6]: 482
Assign rand_sets[7]: 1275  LLC: 2048
rand_sets[7]: 1275
Assign rand_sets[8]: 1876  LLC: 2048
rand_sets[8]: 1876
Assign rand_sets[9]: 2038  LLC: 2048
rand_sets[9]: 2038
Assign rand_sets[10]: 701  LLC: 2048
rand_sets[10]: 701
Assign rand_sets[11]: 479  LLC: 2048
rand_sets[11]: 479
Assign rand_sets[12]: 892  LLC: 2048
rand_sets[12]: 892
Assign rand_sets[13]: 1820  LLC: 2048
rand_sets[13]: 1820
Assign rand_sets[14]: 1505  LLC: 2048
rand_sets[14]: 1505
Assign rand_sets[15]: 1159  LLC: 2048
rand_sets[15]: 1159
Assign rand_sets[16]: 513  LLC: 2048
rand_sets[16]: 513
Assign rand_sets[17]: 703  LLC: 2048
rand_sets[17]: 703
Assign rand_sets[18]: 561  LLC: 2048
rand_sets[18]: 561
Assign rand_sets[19]: 990  LLC: 2048
rand_sets[19]: 990
Assign rand_sets[20]: 342  LLC: 2048
rand_sets[20]: 342
Assign rand_sets[21]: 882  LLC: 2048
rand_sets[21]: 882
Assign rand_sets[22]: 15  LLC: 2048
rand_sets[22]: 15
Assign rand_sets[23]: 71  LLC: 2048
rand_sets[23]: 71
Assign rand_sets[24]: 1127  LLC: 2048
rand_sets[24]: 1127
Assign rand_sets[25]: 1382  LLC: 2048
rand_sets[25]: 1382
Assign rand_sets[26]: 647  LLC: 2048
rand_sets[26]: 647
Assign rand_sets[27]: 857  LLC: 2048
rand_sets[27]: 857
Assign rand_sets[28]: 1450  LLC: 2048
rand_sets[28]: 1450
Assign rand_sets[29]: 1160  LLC: 2048
rand_sets[29]: 1160
Assign rand_sets[30]: 1852  LLC: 2048
rand_sets[30]: 1852
Assign rand_sets[31]: 1881  LLC: 2048
rand_sets[31]: 1881
Assign rand_sets[32]: 1770  LLC: 2048
rand_sets[32]: 1770
Assign rand_sets[33]: 1622  LLC: 2048
rand_sets[33]: 1622
Assign rand_sets[34]: 275  LLC: 2048
rand_sets[34]: 275
Assign rand_sets[35]: 635  LLC: 2048
rand_sets[35]: 635
Assign rand_sets[36]: 466  LLC: 2048
rand_sets[36]: 466
Assign rand_sets[37]: 1413  LLC: 2048
rand_sets[37]: 1413
Assign rand_sets[38]: 417  LLC: 2048
rand_sets[38]: 417
Assign rand_sets[39]: 472  LLC: 2048
rand_sets[39]: 472
Assign rand_sets[40]: 1340  LLC: 2048
rand_sets[40]: 1340
Assign rand_sets[41]: 852  LLC: 2048
rand_sets[41]: 852
Assign rand_sets[42]: 1365  LLC: 2048
rand_sets[42]: 1365
Assign rand_sets[43]: 47  LLC: 2048
rand_sets[43]: 47
Assign rand_sets[44]: 823  LLC: 2048
rand_sets[44]: 823
Assign rand_sets[45]: 686  LLC: 2048
rand_sets[45]: 686
Assign rand_sets[46]: 1637  LLC: 2048
rand_sets[46]: 1637
Assign rand_sets[47]: 1115  LLC: 2048
rand_sets[47]: 1115
Assign rand_sets[48]: 986  LLC: 2048
rand_sets[48]: 986
Assign rand_sets[49]: 258  LLC: 2048
rand_sets[49]: 258
Assign rand_sets[50]: 633  LLC: 2048
rand_sets[50]: 633
Assign rand_sets[51]: 920  LLC: 2048
rand_sets[51]: 920
Assign rand_sets[52]: 204  LLC: 2048
rand_sets[52]: 204
Assign rand_sets[53]: 227  LLC: 2048
rand_sets[53]: 227
Assign rand_sets[54]: 1818  LLC: 2048
rand_sets[54]: 1818
Assign rand_sets[55]: 886  LLC: 2048
rand_sets[55]: 886
Assign rand_sets[56]: 1422  LLC: 2048
rand_sets[56]: 1422
Assign rand_sets[57]: 607  LLC: 2048
rand_sets[57]: 607
Assign rand_sets[58]: 217  LLC: 2048
rand_sets[58]: 217
Assign rand_sets[59]: 1945  LLC: 2048
rand_sets[59]: 1945
Assign rand_sets[60]: 143  LLC: 2048
rand_sets[60]: 143
Assign rand_sets[61]: 1311  LLC: 2048
rand_sets[61]: 1311
Assign rand_sets[62]: 319  LLC: 2048
rand_sets[62]: 319
Assign rand_sets[63]: 1846  LLC: 2048
rand_sets[63]: 1846
 CLEAN-RRIP-POLICY-1: 2-0-1-3-0-3-0-1- CLEAN-RRIP-POLICY-2: 2-0-1-3-0-3-0-1-
 DIRTY-RRIP-POLICY-1: 1-0-0-3-1-3-0-1- DIRTY-RRIP-POLICY-2: 1-0-0-3-1-3-0-1-
 PSEL width: 10
Heartbeat CPU 0 instructions: 10000002 cycles: 7306845 heartbeat IPC: 1.36858 cumulative IPC: 1.36858 (Simulation time: 0 hr 0 min 25 sec) 
Heartbeat CPU 0 instructions: 20000000 cycles: 14613951 heartbeat IPC: 1.36853 cumulative IPC: 1.36856 (Simulation time: 0 hr 0 min 50 sec) 
Heartbeat CPU 0 instructions: 30000001 cycles: 21920917 heartbeat IPC: 1.36856 cumulative IPC: 1.36856 (Simulation time: 0 hr 1 min 15 sec) 
Heartbeat CPU 0 instructions: 40000000 cycles: 29227760 heartbeat IPC: 1.36858 cumulative IPC: 1.36856 (Simulation time: 0 hr 1 min 40 sec) 
Heartbeat CPU 0 instructions: 50000001 cycles: 36534555 heartbeat IPC: 1.36859 cumulative IPC: 1.36857 (Simulation time: 0 hr 2 min 4 sec) 
Heartbeat CPU 0 instructions: 60000000 cycles: 43841622 heartbeat IPC: 1.36854 cumulative IPC: 1.36856 (Simulation time: 0 hr 2 min 29 sec) 
Heartbeat CPU 0 instructions: 70000002 cycles: 51148475 heartbeat IPC: 1.36858 cumulative IPC: 1.36856 (Simulation time: 0 hr 2 min 54 sec) 
Heartbeat CPU 0 instructions: 80000000 cycles: 58455285 heartbeat IPC: 1.36859 cumulative IPC: 1.36857 (Simulation time: 0 hr 3 min 19 sec) 
Heartbeat CPU 0 instructions: 90000003 cycles: 65765944 heartbeat IPC: 1.36787 cumulative IPC: 1.36849 (Simulation time: 0 hr 3 min 44 sec) 
Heartbeat CPU 0 instructions: 100000000 cycles: 73076629 heartbeat IPC: 1.36786 cumulative IPC: 1.36843 (Simulation time: 0 hr 4 min 10 sec) 

Warmup complete CPU 0 instructions: 100000002 cycles: 73076641 (Simulation time: 0 hr 4 min 10 sec) 

Heartbeat CPU 0 instructions: 110000001 cycles: 85624597 heartbeat IPC: 0.796942 cumulative IPC: 0.796942 (Simulation time: 0 hr 4 min 40 sec) 
Heartbeat CPU 0 instructions: 120000000 cycles: 98110745 heartbeat IPC: 0.800887 cumulative IPC: 0.79891 (Simulation time: 0 hr 5 min 10 sec) 
Heartbeat CPU 0 instructions: 130000000 cycles: 110670419 heartbeat IPC: 0.796199 cumulative IPC: 0.798004 (Simulation time: 0 hr 5 min 40 sec) 
Heartbeat CPU 0 instructions: 140000000 cycles: 123188525 heartbeat IPC: 0.798843 cumulative IPC: 0.798214 (Simulation time: 0 hr 6 min 10 sec) 
Heartbeat CPU 0 instructions: 150000000 cycles: 135668383 heartbeat IPC: 0.801291 cumulative IPC: 0.798827 (Simulation time: 0 hr 6 min 40 sec) 
Heartbeat CPU 0 instructions: 160000000 cycles: 148173977 heartbeat IPC: 0.799642 cumulative IPC: 0.798963 (Simulation time: 0 hr 7 min 10 sec) 
Heartbeat CPU 0 instructions: 170000001 cycles: 160682200 heartbeat IPC: 0.799474 cumulative IPC: 0.799036 (Simulation time: 0 hr 7 min 40 sec) 
Heartbeat CPU 0 instructions: 180000000 cycles: 173201628 heartbeat IPC: 0.798758 cumulative IPC: 0.799001 (Simulation time: 0 hr 8 min 10 sec) 
Heartbeat CPU 0 instructions: 190000000 cycles: 185759752 heartbeat IPC: 0.796297 cumulative IPC: 0.7987 (Simulation time: 0 hr 8 min 40 sec) 
Heartbeat CPU 0 instructions: 200000000 cycles: 198262946 heartbeat IPC: 0.799796 cumulative IPC: 0.798809 (Simulation time: 0 hr 9 min 10 sec) 
Heartbeat CPU 0 instructions: 210000002 cycles: 210822910 heartbeat IPC: 0.796181 cumulative IPC: 0.79857 (Simulation time: 0 hr 9 min 40 sec) 
Heartbeat CPU 0 instructions: 220000000 cycles: 223380817 heartbeat IPC: 0.796311 cumulative IPC: 0.798381 (Simulation time: 0 hr 10 min 10 sec) 
Heartbeat CPU 0 instructions: 230000002 cycles: 235891254 heartbeat IPC: 0.799333 cumulative IPC: 0.798454 (Simulation time: 0 hr 10 min 40 sec) 
Heartbeat CPU 0 instructions: 240000000 cycles: 249120812 heartbeat IPC: 0.755883 cumulative IPC: 0.795255 (Simulation time: 0 hr 11 min 10 sec) 
Heartbeat CPU 0 instructions: 250000001 cycles: 267234941 heartbeat IPC: 0.552055 cumulative IPC: 0.772565 (Simulation time: 0 hr 11 min 43 sec) 
Heartbeat CPU 0 instructions: 260000000 cycles: 285322764 heartbeat IPC: 0.552858 cumulative IPC: 0.753842 (Simulation time: 0 hr 12 min 17 sec) 
Heartbeat CPU 0 instructions: 270000000 cycles: 303504924 heartbeat IPC: 0.54999 cumulative IPC: 0.737757 (Simulation time: 0 hr 12 min 50 sec) 
Heartbeat CPU 0 instructions: 280000000 cycles: 321626216 heartbeat IPC: 0.551837 cumulative IPC: 0.724202 (Simulation time: 0 hr 13 min 22 sec) 
Heartbeat CPU 0 instructions: 290000000 cycles: 351593519 heartbeat IPC: 0.333697 cumulative IPC: 0.682185 (Simulation time: 0 hr 14 min 4 sec) 
Heartbeat CPU 0 instructions: 300000000 cycles: 390306182 heartbeat IPC: 0.258313 cumulative IPC: 0.630458 (Simulation time: 0 hr 14 min 51 sec) 
Heartbeat CPU 0 instructions: 310000000 cycles: 407933374 heartbeat IPC: 0.567305 cumulative IPC: 0.627134 (Simulation time: 0 hr 15 min 24 sec) 
Heartbeat CPU 0 instructions: 320000000 cycles: 425458198 heartbeat IPC: 0.570619 cumulative IPC: 0.624323 (Simulation time: 0 hr 15 min 56 sec) 
Heartbeat CPU 0 instructions: 330000003 cycles: 443078402 heartbeat IPC: 0.567531 cumulative IPC: 0.621619 (Simulation time: 0 hr 16 min 28 sec) 
Heartbeat CPU 0 instructions: 340000000 cycles: 460617035 heartbeat IPC: 0.57017 cumulative IPC: 0.61929 (Simulation time: 0 hr 16 min 59 sec) 
Heartbeat CPU 0 instructions: 350000001 cycles: 476185312 heartbeat IPC: 0.642332 cumulative IPC: 0.62018 (Simulation time: 0 hr 17 min 29 sec) 
Heartbeat CPU 0 instructions: 360000000 cycles: 488145107 heartbeat IPC: 0.836135 cumulative IPC: 0.626403 (Simulation time: 0 hr 17 min 56 sec) 
Heartbeat CPU 0 instructions: 370000002 cycles: 499874738 heartbeat IPC: 0.852542 cumulative IPC: 0.632618 (Simulation time: 0 hr 18 min 24 sec) 
Heartbeat CPU 0 instructions: 380000000 cycles: 511787224 heartbeat IPC: 0.839455 cumulative IPC: 0.638234 (Simulation time: 0 hr 18 min 51 sec) 
Heartbeat CPU 0 instructions: 390000003 cycles: 525168782 heartbeat IPC: 0.747297 cumulative IPC: 0.641462 (Simulation time: 0 hr 19 min 19 sec) 
Heartbeat CPU 0 instructions: 400000000 cycles: 537497902 heartbeat IPC: 0.811088 cumulative IPC: 0.645965 (Simulation time: 0 hr 19 min 47 sec) 
Heartbeat CPU 0 instructions: 410000003 cycles: 549550559 heartbeat IPC: 0.829693 cumulative IPC: 0.650613 (Simulation time: 0 hr 20 min 15 sec) 
Heartbeat CPU 0 instructions: 420000000 cycles: 562451629 heartbeat IPC: 0.775129 cumulative IPC: 0.653895 (Simulation time: 0 hr 20 min 42 sec) 
Heartbeat CPU 0 instructions: 430000003 cycles: 581091857 heartbeat IPC: 0.536474 cumulative IPC: 0.649587 (Simulation time: 0 hr 21 min 8 sec) 
Heartbeat CPU 0 instructions: 440000000 cycles: 599732288 heartbeat IPC: 0.536468 cumulative IPC: 0.645583 (Simulation time: 0 hr 21 min 33 sec) 
Heartbeat CPU 0 instructions: 450000003 cycles: 618400683 heartbeat IPC: 0.535665 cumulative IPC: 0.64182 (Simulation time: 0 hr 21 min 58 sec) 
Heartbeat CPU 0 instructions: 460000000 cycles: 637038570 heartbeat IPC: 0.536541 cumulative IPC: 0.638341 (Simulation time: 0 hr 22 min 24 sec) 
Heartbeat CPU 0 instructions: 470000003 cycles: 655686194 heartbeat IPC: 0.536261 cumulative IPC: 0.635074 (Simulation time: 0 hr 22 min 49 sec) 
Heartbeat CPU 0 instructions: 480000000 cycles: 674344505 heartbeat IPC: 0.535954 cumulative IPC: 0.631998 (Simulation time: 0 hr 23 min 14 sec) 
Heartbeat CPU 0 instructions: 490000003 cycles: 693040576 heartbeat IPC: 0.534872 cumulative IPC: 0.629069 (Simulation time: 0 hr 23 min 40 sec) 
Heartbeat CPU 0 instructions: 500000000 cycles: 711650666 heartbeat IPC: 0.537343 cumulative IPC: 0.626396 (Simulation time: 0 hr 24 min 5 sec) 
Heartbeat CPU 0 instructions: 510000003 cycles: 730300147 heartbeat IPC: 0.536208 cumulative IPC: 0.623836 (Simulation time: 0 hr 24 min 30 sec) 
Heartbeat CPU 0 instructions: 520000000 cycles: 748929120 heartbeat IPC: 0.536798 cumulative IPC: 0.621437 (Simulation time: 0 hr 24 min 55 sec) 
Heartbeat CPU 0 instructions: 530000001 cycles: 767577424 heartbeat IPC: 0.536242 cumulative IPC: 0.61915 (Simulation time: 0 hr 25 min 21 sec) 
Heartbeat CPU 0 instructions: 540000000 cycles: 786172114 heartbeat IPC: 0.537788 cumulative IPC: 0.617028 (Simulation time: 0 hr 25 min 46 sec) 
Heartbeat CPU 0 instructions: 550000001 cycles: 804763450 heartbeat IPC: 0.537885 cumulative IPC: 0.615017 (Simulation time: 0 hr 26 min 11 sec) 
Heartbeat CPU 0 instructions: 560000000 cycles: 823355060 heartbeat IPC: 0.537877 cumulative IPC: 0.613106 (Simulation time: 0 hr 26 min 37 sec) 
Heartbeat CPU 0 instructions: 570000001 cycles: 841918900 heartbeat IPC: 0.538682 cumulative IPC: 0.611309 (Simulation time: 0 hr 27 min 2 sec) 
Heartbeat CPU 0 instructions: 580000000 cycles: 860432038 heartbeat IPC: 0.540157 cumulative IPC: 0.609636 (Simulation time: 0 hr 27 min 27 sec) 
Heartbeat CPU 0 instructions: 590000001 cycles: 879029511 heartbeat IPC: 0.537708 cumulative IPC: 0.607976 (Simulation time: 0 hr 27 min 53 sec) 
Heartbeat CPU 0 instructions: 600000000 cycles: 897627094 heartbeat IPC: 0.537704 cumulative IPC: 0.606391 (Simulation time: 0 hr 28 min 18 sec) 
Finished CPU 0 instructions: 500000002 cycles: 824550467 cumulative IPC: 0.606391 (Simulation time: 0 hr 28 min 18 sec) 

CPU 0 Branch Prediction Accuracy: 99.5931% MPKI: 0.08288
Number of Branches: 10184133 Number of Mispredictions: 41440
Number of LOAD Instructions: 261155957
Number of LOAD Instructions (ROI): 261155957
Number of STORE Instructions: 57884062
Number of STORE Instructions (ROI): 57884062
Total Destination Memory Operands: 83293336
Total Destination Memory Operands (ROI): 83293336
Total Source Memory Operands: 261155957
Total Source Memory Operands (ROI): 261155957
Number of DEPENDED LOADS: 22256760
Number of DEPENDED LOADS (ROI): 22256760
Number of SQ_ADDED: 83293300
Number of SQ_ADDED (ROI): 83293300
Number of LQ_ADDED: 1781678909
Number of LQ_ADDED (ROI): 1781678909
Number of Instructions read from trace: 600000257

ChampSim completed all CPUs

Region of Interest Statistics

CPU 0 cumulative IPC: 0.606391 instructions: 500000002 cycles: 824550467
ITLB TOTAL     ACCESS:   94931554  HIT:   94931516  MISS:         38
ITLB LOAD      ACCESS:   94931554  HIT:   94931516  MISS:         38
ITLB RFO       ACCESS:          0  HIT:          0  MISS:          0
ITLB PREFETCH  ACCESS:          0  HIT:          0  MISS:          0
ITLB WRITEBACK ACCESS:          0  HIT:          0  MISS:          0
ITLB PREFETCH  REQUESTED:          0  ISSUED:          0  USEFUL:          0  USELESS:          0
ITLB TOTAL MSHR MERGED:         93
ITLB LOAD MSHR MERGED:         93
ITLB RFO MSHR MERGED:          0
ITLB PREFETCH MSHR MERGED:          0
ITLB WRITEBACK MSHR MERGED:          0
ITLB TOTAL ACCESSES:   94931647 HITS:   94931516 MISSES:        131
ITLB LOAD ACCESSES:   94931647 HITS:   94931516 MISSES:        131
ITLB RFO ACCESSES:          0 HITS:          0 MISSES:          0
ITLB PREFETCH ACCESSES:          0 HITS:          0 MISSES:          0
ITLB WRITEBACK ACCESSES:          0 HITS:          0 MISSES:          0
ITLB RQ ACCESS:  500000001
ITLB RQ TO_CACHE:   94931648
ITLB RQ MERGED:  405068353
ITLB RQ FORWARD:          0
ITLB WQ ACCESS:          0
ITLB WQ TO_CACHE:          0
ITLB WQ MERGED:          0
ITLB WQ FORWARD:          0
DTLB TOTAL     ACCESS:  149257166  HIT:  148660206  MISS:     596960
DTLB LOAD      ACCESS:  107385407  HIT:  106788458  MISS:     596949
DTLB RFO       ACCESS:   41871759  HIT:   41871748  MISS:         11
DTLB PREFETCH  ACCESS:          0  HIT:          0  MISS:          0
DTLB WRITEBACK ACCESS:          0  HIT:          0  MISS:          0
DTLB PREFETCH  REQUESTED:          0  ISSUED:          0  USEFUL:          0  USELESS:          0
DTLB TOTAL MSHR MERGED:     134007
DTLB LOAD MSHR MERGED:     134007
DTLB RFO MSHR MERGED:          0
DTLB PREFETCH MSHR MERGED:          0
DTLB WRITEBACK MSHR MERGED:          0
DTLB TOTAL ACCESSES:  149391173 HITS:  148660206 MISSES:     730967
DTLB LOAD ACCESSES:  107519414 HITS:  106788458 MISSES:     730956
DTLB RFO ACCESSES:   41871759 HITS:   41871748 MISSES:         11
DTLB PREFETCH ACCESSES:          0 HITS:          0 MISSES:          0
DTLB WRITEBACK ACCESSES:          0 HITS:          0 MISSES:          0
DTLB RQ ACCESS:  259759136
DTLB RQ TO_CACHE:  149391173
DTLB RQ MERGED:  110367963
DTLB RQ FORWARD:          0
DTLB WQ ACCESS:          0
DTLB WQ TO_CACHE:          0
DTLB WQ MERGED:          0
DTLB WQ FORWARD:          0
L1D TOTAL     ACCESS:  261342820  HIT:  245899642  MISS:   15443178
L1D LOAD      ACCESS:  118081881  HIT:  112601164  MISS:    5480717
L1D RFO       ACCESS:   68946718  HIT:   68932310  MISS:      14408
L1D PREFETCH  ACCESS:   74314221  HIT:   64366168  MISS:    9948053
L1D WRITEBACK ACCESS:          0  HIT:          0  MISS:          0
L1D PREFETCH  REQUESTED:  120663349  ISSUED:  119280615  USEFUL:    8031858  USELESS:    1916217
L1D TOTAL MSHR MERGED:   16443239
L1D LOAD MSHR MERGED:    4983995
L1D RFO MSHR MERGED:      21857
L1D PREFETCH MSHR MERGED:   11437387
L1D WRITEBACK MSHR MERGED:          0
L1D TOTAL ACCESSES:  277896162 HITS:  246009745 MISSES:   31886417
L1D LOAD ACCESSES:  120670883 HITS:  112608698 MISSES:    8062185
L1D RFO ACCESSES:   68968574 HITS:   68932310 MISSES:      36264
L1D PREFETCH ACCESSES:   88256705 HITS:   64468737 MISSES:   23787968
L1D WRITEBACK ACCESSES:          0 HITS:          0 MISSES:          0
L1D RQ ACCESS:  190684820
L1D RQ TO_CACHE:  120663349
L1D RQ MERGED:   70013937
L1D RQ FORWARD:          0
L1D WQ ACCESS:   69074336
L1D WQ TO_CACHE:   68968576
L1D WQ MERGED:     105760
L1D WQ FORWARD:     110103
L1I TOTAL     ACCESS:  121801857  HIT:  121800784  MISS:       1073
L1I LOAD      ACCESS:  121801857  HIT:  121800784  MISS:       1073
L1I RFO       ACCESS:          0  HIT:          0  MISS:          0
L1I PREFETCH  ACCESS:          0  HIT:          0  MISS:          0
L1I WRITEBACK ACCESS:          0  HIT:          0  MISS:          0
L1I PREFETCH  REQUESTED:          0  ISSUED:          0  USEFUL:          0  USELESS:          0
L1I TOTAL MSHR MERGED:       1065
L1I LOAD MSHR MERGED:       1065
L1I RFO MSHR MERGED:          0
L1I PREFETCH MSHR MERGED:          0
L1I WRITEBACK MSHR MERGED:          0
L1I TOTAL ACCESSES:  121802922 HITS:  121800784 MISSES:       2138
L1I LOAD ACCESSES:  121802922 HITS:  121800784 MISSES:       2138
L1I RFO ACCESSES:          0 HITS:          0 MISSES:          0
L1I PREFETCH ACCESSES:          0 HITS:          0 MISSES:          0
L1I WRITEBACK ACCESSES:          0 HITS:          0 MISSES:          0
L1I RQ ACCESS:  500000000
L1I RQ TO_CACHE:  121802922
L1I RQ MERGED:  378197078
L1I RQ FORWARD:          0
L1I WQ ACCESS:          0
L1I WQ TO_CACHE:          0
L1I WQ MERGED:          0
L1I WQ FORWARD:          0
L2C TOTAL     ACCESS:   22506026  HIT:    9143247  MISS:   13362779
L2C LOAD      ACCESS:    3079227  HIT:     408791  MISS:    2670436
L2C RFO       ACCESS:      14407  HIT:      13991  MISS:        416
L2C PREFETCH  ACCESS:   12782441  HIT:    2092320  MISS:   10690121
L2C WRITEBACK ACCESS:    6629951  HIT:    6628145  MISS:       1806
L2C PREFETCH  REQUESTED:     674217  ISSUED:     674217  USEFUL:     182095  USELESS:   10508818
L2C TOTAL MSHR MERGED:      65418
L2C LOAD MSHR MERGED:      20687
L2C RFO MSHR MERGED:          0
L2C PREFETCH MSHR MERGED:      44731
L2C WRITEBACK MSHR MERGED:          0
L2C TOTAL ACCESSES:   22709480 HITS:    9143292 MISSES:   13566188
L2C LOAD ACCESSES:    3079263 HITS:     408827 MISSES:    2670436
L2C RFO ACCESSES:      14407 HITS:      13991 MISSES:        416
L2C PREFETCH ACCESSES:   12985859 HITS:    2092329 MISSES:   10893530
L2C WRITEBACK ACCESSES:    6629951 HITS:    6628145 MISSES:       1806
L2C RQ ACCESS:    3093670
L2C RQ TO_CACHE:    3093634
L2C RQ MERGED:          0
L2C RQ FORWARD:          0
L2C WQ ACCESS:    6629951
L2C WQ TO_CACHE:    6629951
L2C WQ MERGED:          0
L2C WQ FORWARD:         45
LLC TOTAL     ACCESS:   20068994  HIT:    1196281  MISS:   18872713
LLC LOAD      ACCESS:    2649749  HIT:     138095  MISS:    2511654
LLC RFO       ACCESS:        416  HIT:         18  MISS:        398
LLC PREFETCH  ACCESS:   10827573  HIT:      72341  MISS:   10755232
LLC WRITEBACK ACCESS:    6591256  HIT:     985827  MISS:    5605429
LLC PREFETCH  REQUESTED:          0  ISSUED:          0  USEFUL:      48300  USELESS:   10707749
LLC TOTAL MSHR MERGED:      19787
LLC LOAD MSHR MERGED:       9478
LLC RFO MSHR MERGED:          0
LLC PREFETCH MSHR MERGED:      10309
LLC WRITEBACK MSHR MERGED:          0
LLC TOTAL ACCESSES:   20088783 HITS:    1196282 MISSES:   18892501
LLC LOAD ACCESSES:    2649749 HITS:     138095 MISSES:    2511654
LLC RFO ACCESSES:        416 HITS:         18 MISSES:        398
LLC PREFETCH ACCESSES:   10847362 HITS:      72342 MISSES:   10775020
LLC WRITEBACK ACCESSES:    6591256 HITS:     985827 MISSES:    5605429
LLC 0 RQ ACCESS:    2650165
LLC 0 RQ TO_CACHE:    2650165
LLC 0 RQ MERGED:          0
LLC 0 RQ FORWARD:          0
LLC WQ ACCESS:    6591257
LLC WQ TO_CACHE:    6591257
LLC WQ MERGED:          0
LLC WQ FORWARD:          1
Major fault: 0 Minor fault: 183991
CPU 0 L1D next line prefetcher final stats
CPU 0 L2C PC-based stride prefetcher final stats
All Misses: 21757533
All Hits: 1242507
SD Algo Stats - Switches: 0 SRR-Repls: 2571201 BRR-Repls: 0

DRAM Statistics
 CHANNEL 0
 RQ ROW_BUFFER_HIT:    7358952  ROW_BUFFER_MISS:    5908331
 DBUS_CONGESTED:   11380893
 WQ ROW_BUFFER_HIT:     736361  ROW_BUFFER_MISS:    5845933  FULL:          0

 AVG_CONGESTED_CYCLE: 13
LOADS RETIRED: 204440772
INSTR RETIRED: 500000000
