
*** ChampSim Multicore Out-of-Order Simulator ***

Warmup Instructions: 100000000
Simulation Instructions: 500000000
Number of CPUs: 1
LLC sets: 2048
LLC ways: 16
Clean RRIP Policies: 1213132112131321 Dirty RRIP Policies: 1203130112031301 PSEL Width: 10 Track Set: 4294967295 PSEL Mask: 1 Demote Mask: 4003144440031444DS Algo: 0Window size: 0
Off-chip DRAM Size: 4096 MB Channels: 1 Width: 64-bit Data Rate: 1600 MT/s

CPU 0 runs /mnt/beegfs/iconst01/spec2017/Gcc.trace.gz
NOT SORTED
TRACE STRING: /mnt/beegfs/iconst01/spec2017/Gcc.trace.gz
SORTED
TRACE STRING: /mnt/beegfs/iconst01/spec2017/Gcc.trace.gz
INITIAL
TRACE STRING: /mnt/beegfs/iconst01/spec2017/Gcc.trace.gz

champsim_seed used: 269

CPU 0 L1D next line prefetcher
CPU 0 L2C IP-based stride prefetcher
Initialize DRRIP state
Assign rand_sets[0]: 454  LLC: 2048
rand_sets[0]: 454
Assign rand_sets[1]: 1662  LLC: 2048
rand_sets[1]: 1662
Assign rand_sets[2]: 1921  LLC: 2048
rand_sets[2]: 1921
Assign rand_sets[3]: 1131  LLC: 2048
rand_sets[3]: 1131
Assign rand_sets[4]: 331  LLC: 2048
rand_sets[4]: 331
Assign rand_sets[5]: 1531  LLC: 2048
rand_sets[5]: 1531
Assign rand_sets[6]: 482  LLC: 2048
rand_sets[6]: 482
Assign rand_sets[7]: 1275  LLC: 2048
rand_sets[7]: 1275
Assign rand_sets[8]: 1876  LLC: 2048
rand_sets[8]: 1876
Assign rand_sets[9]: 2038  LLC: 2048
rand_sets[9]: 2038
Assign rand_sets[10]: 701  LLC: 2048
rand_sets[10]: 701
Assign rand_sets[11]: 479  LLC: 2048
rand_sets[11]: 479
Assign rand_sets[12]: 892  LLC: 2048
rand_sets[12]: 892
Assign rand_sets[13]: 1820  LLC: 2048
rand_sets[13]: 1820
Assign rand_sets[14]: 1505  LLC: 2048
rand_sets[14]: 1505
Assign rand_sets[15]: 1159  LLC: 2048
rand_sets[15]: 1159
Assign rand_sets[16]: 513  LLC: 2048
rand_sets[16]: 513
Assign rand_sets[17]: 703  LLC: 2048
rand_sets[17]: 703
Assign rand_sets[18]: 561  LLC: 2048
rand_sets[18]: 561
Assign rand_sets[19]: 990  LLC: 2048
rand_sets[19]: 990
Assign rand_sets[20]: 342  LLC: 2048
rand_sets[20]: 342
Assign rand_sets[21]: 882  LLC: 2048
rand_sets[21]: 882
Assign rand_sets[22]: 15  LLC: 2048
rand_sets[22]: 15
Assign rand_sets[23]: 71  LLC: 2048
rand_sets[23]: 71
Assign rand_sets[24]: 1127  LLC: 2048
rand_sets[24]: 1127
Assign rand_sets[25]: 1382  LLC: 2048
rand_sets[25]: 1382
Assign rand_sets[26]: 647  LLC: 2048
rand_sets[26]: 647
Assign rand_sets[27]: 857  LLC: 2048
rand_sets[27]: 857
Assign rand_sets[28]: 1450  LLC: 2048
rand_sets[28]: 1450
Assign rand_sets[29]: 1160  LLC: 2048
rand_sets[29]: 1160
Assign rand_sets[30]: 1852  LLC: 2048
rand_sets[30]: 1852
Assign rand_sets[31]: 1881  LLC: 2048
rand_sets[31]: 1881
Assign rand_sets[32]: 1770  LLC: 2048
rand_sets[32]: 1770
Assign rand_sets[33]: 1622  LLC: 2048
rand_sets[33]: 1622
Assign rand_sets[34]: 275  LLC: 2048
rand_sets[34]: 275
Assign rand_sets[35]: 635  LLC: 2048
rand_sets[35]: 635
Assign rand_sets[36]: 466  LLC: 2048
rand_sets[36]: 466
Assign rand_sets[37]: 1413  LLC: 2048
rand_sets[37]: 1413
Assign rand_sets[38]: 417  LLC: 2048
rand_sets[38]: 417
Assign rand_sets[39]: 472  LLC: 2048
rand_sets[39]: 472
Assign rand_sets[40]: 1340  LLC: 2048
rand_sets[40]: 1340
Assign rand_sets[41]: 852  LLC: 2048
rand_sets[41]: 852
Assign rand_sets[42]: 1365  LLC: 2048
rand_sets[42]: 1365
Assign rand_sets[43]: 47  LLC: 2048
rand_sets[43]: 47
Assign rand_sets[44]: 823  LLC: 2048
rand_sets[44]: 823
Assign rand_sets[45]: 686  LLC: 2048
rand_sets[45]: 686
Assign rand_sets[46]: 1637  LLC: 2048
rand_sets[46]: 1637
Assign rand_sets[47]: 1115  LLC: 2048
rand_sets[47]: 1115
Assign rand_sets[48]: 986  LLC: 2048
rand_sets[48]: 986
Assign rand_sets[49]: 258  LLC: 2048
rand_sets[49]: 258
Assign rand_sets[50]: 633  LLC: 2048
rand_sets[50]: 633
Assign rand_sets[51]: 920  LLC: 2048
rand_sets[51]: 920
Assign rand_sets[52]: 204  LLC: 2048
rand_sets[52]: 204
Assign rand_sets[53]: 227  LLC: 2048
rand_sets[53]: 227
Assign rand_sets[54]: 1818  LLC: 2048
rand_sets[54]: 1818
Assign rand_sets[55]: 886  LLC: 2048
rand_sets[55]: 886
Assign rand_sets[56]: 1422  LLC: 2048
rand_sets[56]: 1422
Assign rand_sets[57]: 607  LLC: 2048
rand_sets[57]: 607
Assign rand_sets[58]: 217  LLC: 2048
rand_sets[58]: 217
Assign rand_sets[59]: 1945  LLC: 2048
rand_sets[59]: 1945
Assign rand_sets[60]: 143  LLC: 2048
rand_sets[60]: 143
Assign rand_sets[61]: 1311  LLC: 2048
rand_sets[61]: 1311
Assign rand_sets[62]: 319  LLC: 2048
rand_sets[62]: 319
Assign rand_sets[63]: 1846  LLC: 2048
rand_sets[63]: 1846
 CLEAN-RRIP-POLICY-1: 1-2-1-3-1-3-2-1- CLEAN-RRIP-POLICY-2: 1-2-1-3-1-3-2-1-
 DIRTY-RRIP-POLICY-1: 1-2-0-3-1-3-0-1- DIRTY-RRIP-POLICY-2: 1-2-0-3-1-3-0-1-
 PSEL width: 10
Heartbeat CPU 0 instructions: 10000001 cycles: 7315994 heartbeat IPC: 1.36687 cumulative IPC: 1.36687 (Simulation time: 0 hr 0 min 15 sec) 
Heartbeat CPU 0 instructions: 20000000 cycles: 14308141 heartbeat IPC: 1.43018 cumulative IPC: 1.39781 (Simulation time: 0 hr 0 min 31 sec) 
Heartbeat CPU 0 instructions: 30000001 cycles: 21021565 heartbeat IPC: 1.48955 cumulative IPC: 1.42711 (Simulation time: 0 hr 0 min 47 sec) 
Heartbeat CPU 0 instructions: 40000000 cycles: 27482669 heartbeat IPC: 1.54772 cumulative IPC: 1.45546 (Simulation time: 0 hr 1 min 4 sec) 
Heartbeat CPU 0 instructions: 50000001 cycles: 33584438 heartbeat IPC: 1.63887 cumulative IPC: 1.48878 (Simulation time: 0 hr 1 min 20 sec) 
Heartbeat CPU 0 instructions: 60000000 cycles: 40065634 heartbeat IPC: 1.54293 cumulative IPC: 1.49754 (Simulation time: 0 hr 1 min 37 sec) 
Heartbeat CPU 0 instructions: 70000000 cycles: 47104445 heartbeat IPC: 1.42069 cumulative IPC: 1.48606 (Simulation time: 0 hr 1 min 52 sec) 
Heartbeat CPU 0 instructions: 80000000 cycles: 54195331 heartbeat IPC: 1.41026 cumulative IPC: 1.47614 (Simulation time: 0 hr 2 min 8 sec) 
Heartbeat CPU 0 instructions: 90000003 cycles: 61200978 heartbeat IPC: 1.42742 cumulative IPC: 1.47056 (Simulation time: 0 hr 2 min 23 sec) 
Heartbeat CPU 0 instructions: 100000000 cycles: 68369743 heartbeat IPC: 1.39494 cumulative IPC: 1.46264 (Simulation time: 0 hr 2 min 38 sec) 

Warmup complete CPU 0 instructions: 100000004 cycles: 68369744 (Simulation time: 0 hr 2 min 38 sec) 

Heartbeat CPU 0 instructions: 110000003 cycles: 96424968 heartbeat IPC: 0.35644 cumulative IPC: 0.35644 (Simulation time: 0 hr 3 min 8 sec) 
Heartbeat CPU 0 instructions: 120000000 cycles: 124160294 heartbeat IPC: 0.360551 cumulative IPC: 0.358484 (Simulation time: 0 hr 3 min 39 sec) 
Heartbeat CPU 0 instructions: 130000000 cycles: 149314310 heartbeat IPC: 0.397551 cumulative IPC: 0.370624 (Simulation time: 0 hr 4 min 9 sec) 
Heartbeat CPU 0 instructions: 140000000 cycles: 179636458 heartbeat IPC: 0.329792 cumulative IPC: 0.359497 (Simulation time: 0 hr 4 min 39 sec) 
Heartbeat CPU 0 instructions: 150000000 cycles: 210110631 heartbeat IPC: 0.328147 cumulative IPC: 0.352756 (Simulation time: 0 hr 5 min 10 sec) 
Heartbeat CPU 0 instructions: 160000000 cycles: 237764959 heartbeat IPC: 0.361607 cumulative IPC: 0.354201 (Simulation time: 0 hr 5 min 39 sec) 
Heartbeat CPU 0 instructions: 170000001 cycles: 266159253 heartbeat IPC: 0.352183 cumulative IPC: 0.353912 (Simulation time: 0 hr 6 min 11 sec) 
Heartbeat CPU 0 instructions: 180000000 cycles: 295008792 heartbeat IPC: 0.346626 cumulative IPC: 0.352984 (Simulation time: 0 hr 6 min 41 sec) 
Heartbeat CPU 0 instructions: 190000002 cycles: 323469659 heartbeat IPC: 0.35136 cumulative IPC: 0.352803 (Simulation time: 0 hr 7 min 12 sec) 
Heartbeat CPU 0 instructions: 200000000 cycles: 352225587 heartbeat IPC: 0.347754 cumulative IPC: 0.352291 (Simulation time: 0 hr 7 min 43 sec) 
Heartbeat CPU 0 instructions: 210000002 cycles: 380461943 heartbeat IPC: 0.354153 cumulative IPC: 0.35246 (Simulation time: 0 hr 8 min 13 sec) 
Heartbeat CPU 0 instructions: 220000000 cycles: 410526106 heartbeat IPC: 0.332622 cumulative IPC: 0.350717 (Simulation time: 0 hr 8 min 43 sec) 
Heartbeat CPU 0 instructions: 230000000 cycles: 438564949 heartbeat IPC: 0.356648 cumulative IPC: 0.351166 (Simulation time: 0 hr 9 min 12 sec) 
Heartbeat CPU 0 instructions: 240000000 cycles: 464934710 heartbeat IPC: 0.379222 cumulative IPC: 0.353032 (Simulation time: 0 hr 9 min 41 sec) 
Heartbeat CPU 0 instructions: 250000000 cycles: 495493718 heartbeat IPC: 0.327236 cumulative IPC: 0.351186 (Simulation time: 0 hr 10 min 13 sec) 
Heartbeat CPU 0 instructions: 260000000 cycles: 522828486 heartbeat IPC: 0.365834 cumulative IPC: 0.352067 (Simulation time: 0 hr 10 min 42 sec) 
Heartbeat CPU 0 instructions: 270000003 cycles: 551652701 heartbeat IPC: 0.346931 cumulative IPC: 0.351761 (Simulation time: 0 hr 11 min 14 sec) 
Heartbeat CPU 0 instructions: 280000000 cycles: 580221649 heartbeat IPC: 0.35003 cumulative IPC: 0.351664 (Simulation time: 0 hr 11 min 45 sec) 
Heartbeat CPU 0 instructions: 290000000 cycles: 609382467 heartbeat IPC: 0.342926 cumulative IPC: 0.351193 (Simulation time: 0 hr 12 min 16 sec) 
Heartbeat CPU 0 instructions: 300000000 cycles: 640073327 heartbeat IPC: 0.32583 cumulative IPC: 0.349832 (Simulation time: 0 hr 12 min 47 sec) 
Heartbeat CPU 0 instructions: 310000001 cycles: 670067033 heartbeat IPC: 0.333403 cumulative IPC: 0.349013 (Simulation time: 0 hr 13 min 17 sec) 
Heartbeat CPU 0 instructions: 320000000 cycles: 698970549 heartbeat IPC: 0.345979 cumulative IPC: 0.348874 (Simulation time: 0 hr 13 min 47 sec) 
Heartbeat CPU 0 instructions: 330000000 cycles: 728156763 heartbeat IPC: 0.342628 cumulative IPC: 0.348597 (Simulation time: 0 hr 14 min 17 sec) 
Heartbeat CPU 0 instructions: 340000000 cycles: 758082842 heartbeat IPC: 0.334157 cumulative IPC: 0.347971 (Simulation time: 0 hr 14 min 47 sec) 
Heartbeat CPU 0 instructions: 350000003 cycles: 785437909 heartbeat IPC: 0.365563 cumulative IPC: 0.348642 (Simulation time: 0 hr 15 min 17 sec) 
Heartbeat CPU 0 instructions: 360000000 cycles: 815205244 heartbeat IPC: 0.335939 cumulative IPC: 0.348136 (Simulation time: 0 hr 15 min 46 sec) 
Heartbeat CPU 0 instructions: 370000000 cycles: 844917428 heartbeat IPC: 0.336562 cumulative IPC: 0.347693 (Simulation time: 0 hr 16 min 16 sec) 
Heartbeat CPU 0 instructions: 380000000 cycles: 874998394 heartbeat IPC: 0.332436 cumulative IPC: 0.347124 (Simulation time: 0 hr 16 min 45 sec) 
Heartbeat CPU 0 instructions: 390000001 cycles: 904013245 heartbeat IPC: 0.344651 cumulative IPC: 0.347038 (Simulation time: 0 hr 17 min 15 sec) 
Heartbeat CPU 0 instructions: 400000000 cycles: 934078056 heartbeat IPC: 0.332615 cumulative IPC: 0.346537 (Simulation time: 0 hr 17 min 44 sec) 
Heartbeat CPU 0 instructions: 410000001 cycles: 962713466 heartbeat IPC: 0.349218 cumulative IPC: 0.346623 (Simulation time: 0 hr 18 min 13 sec) 
Heartbeat CPU 0 instructions: 420000000 cycles: 991347114 heartbeat IPC: 0.349239 cumulative IPC: 0.346704 (Simulation time: 0 hr 18 min 42 sec) 
Heartbeat CPU 0 instructions: 430000002 cycles: 1020505451 heartbeat IPC: 0.342955 cumulative IPC: 0.346589 (Simulation time: 0 hr 19 min 12 sec) 
Heartbeat CPU 0 instructions: 440000000 cycles: 1051405564 heartbeat IPC: 0.323623 cumulative IPC: 0.345867 (Simulation time: 0 hr 19 min 42 sec) 
Heartbeat CPU 0 instructions: 450000002 cycles: 1082166489 heartbeat IPC: 0.325088 cumulative IPC: 0.345237 (Simulation time: 0 hr 20 min 11 sec) 
Heartbeat CPU 0 instructions: 460000000 cycles: 1111276418 heartbeat IPC: 0.343525 cumulative IPC: 0.345189 (Simulation time: 0 hr 20 min 41 sec) 
Heartbeat CPU 0 instructions: 470000000 cycles: 1140167748 heartbeat IPC: 0.346125 cumulative IPC: 0.345214 (Simulation time: 0 hr 21 min 9 sec) 
Heartbeat CPU 0 instructions: 480000000 cycles: 1169231730 heartbeat IPC: 0.344068 cumulative IPC: 0.345184 (Simulation time: 0 hr 21 min 38 sec) 
Heartbeat CPU 0 instructions: 490000000 cycles: 1198046654 heartbeat IPC: 0.347042 cumulative IPC: 0.345231 (Simulation time: 0 hr 22 min 6 sec) 
Heartbeat CPU 0 instructions: 500000000 cycles: 1227452824 heartbeat IPC: 0.340065 cumulative IPC: 0.3451 (Simulation time: 0 hr 22 min 35 sec) 
Heartbeat CPU 0 instructions: 510000000 cycles: 1263146437 heartbeat IPC: 0.280162 cumulative IPC: 0.34316 (Simulation time: 0 hr 23 min 7 sec) 
Heartbeat CPU 0 instructions: 520000000 cycles: 1291677193 heartbeat IPC: 0.350499 cumulative IPC: 0.343332 (Simulation time: 0 hr 23 min 36 sec) 
Heartbeat CPU 0 instructions: 530000001 cycles: 1321768837 heartbeat IPC: 0.332318 cumulative IPC: 0.343067 (Simulation time: 0 hr 24 min 5 sec) 
Heartbeat CPU 0 instructions: 540000000 cycles: 1350510964 heartbeat IPC: 0.347921 cumulative IPC: 0.343176 (Simulation time: 0 hr 24 min 34 sec) 
Heartbeat CPU 0 instructions: 550000001 cycles: 1380075674 heartbeat IPC: 0.338241 cumulative IPC: 0.343065 (Simulation time: 0 hr 25 min 5 sec) 
Heartbeat CPU 0 instructions: 560000000 cycles: 1405672180 heartbeat IPC: 0.390678 cumulative IPC: 0.343976 (Simulation time: 0 hr 25 min 33 sec) 
Heartbeat CPU 0 instructions: 570000000 cycles: 1435850777 heartbeat IPC: 0.331361 cumulative IPC: 0.343698 (Simulation time: 0 hr 26 min 3 sec) 
Heartbeat CPU 0 instructions: 580000000 cycles: 1464496588 heartbeat IPC: 0.349091 cumulative IPC: 0.343808 (Simulation time: 0 hr 26 min 32 sec) 
Heartbeat CPU 0 instructions: 590000001 cycles: 1489695870 heartbeat IPC: 0.396837 cumulative IPC: 0.344748 (Simulation time: 0 hr 26 min 59 sec) 
Heartbeat CPU 0 instructions: 600000000 cycles: 1516469102 heartbeat IPC: 0.373507 cumulative IPC: 0.34528 (Simulation time: 0 hr 27 min 28 sec) 
Finished CPU 0 instructions: 500000000 cycles: 1448099380 cumulative IPC: 0.34528 (Simulation time: 0 hr 27 min 28 sec) 

CPU 0 Branch Prediction Accuracy: 86.4311% MPKI: 26.2662
Number of Branches: 96788573 Number of Mispredictions: 13133102
Number of LOAD Instructions: 164682285
Number of LOAD Instructions (ROI): 164682285
Number of STORE Instructions: 78194750
Number of STORE Instructions (ROI): 78194750
Total Destination Memory Operands: 83268534
Total Destination Memory Operands (ROI): 83268534
Total Source Memory Operands: 164712438
Total Source Memory Operands (ROI): 164712438
Number of DEPENDED LOADS: 7065833
Number of DEPENDED LOADS (ROI): 7065833
Number of SQ_ADDED: 83268522
Number of SQ_ADDED (ROI): 83268522
Number of LQ_ADDED: 236688782
Number of LQ_ADDED (ROI): 236688782
Number of Instructions read from trace: 600000066

ChampSim completed all CPUs

Region of Interest Statistics

CPU 0 cumulative IPC: 0.34528 instructions: 500000000 cycles: 1448099380
ITLB TOTAL     ACCESS:  100501029  HIT:  100296583  MISS:     204446
ITLB LOAD      ACCESS:  100501029  HIT:  100296583  MISS:     204446
ITLB RFO       ACCESS:          0  HIT:          0  MISS:          0
ITLB PREFETCH  ACCESS:          0  HIT:          0  MISS:          0
ITLB WRITEBACK ACCESS:          0  HIT:          0  MISS:          0
ITLB PREFETCH  REQUESTED:          0  ISSUED:          0  USEFUL:          0  USELESS:          0
ITLB TOTAL MSHR MERGED:     172423
ITLB LOAD MSHR MERGED:     172423
ITLB RFO MSHR MERGED:          0
ITLB PREFETCH MSHR MERGED:          0
ITLB WRITEBACK MSHR MERGED:          0
ITLB TOTAL ACCESSES:  100673452 HITS:  100296583 MISSES:     376869
ITLB LOAD ACCESSES:  100673452 HITS:  100296583 MISSES:     376869
ITLB RFO ACCESSES:          0 HITS:          0 MISSES:          0
ITLB PREFETCH ACCESSES:          0 HITS:          0 MISSES:          0
ITLB WRITEBACK ACCESSES:          0 HITS:          0 MISSES:          0
ITLB RQ ACCESS:  500000057
ITLB RQ TO_CACHE:  100673452
ITLB RQ MERGED:  399326605
ITLB RQ FORWARD:          0
ITLB WQ ACCESS:          0
ITLB WQ TO_CACHE:          0
ITLB WQ MERGED:          0
ITLB WQ FORWARD:          0
DTLB TOTAL     ACCESS:  165336065  HIT:  164701716  MISS:     634349
DTLB LOAD      ACCESS:  106290866  HIT:  105720837  MISS:     570029
DTLB RFO       ACCESS:   59045199  HIT:   58980879  MISS:      64320
DTLB PREFETCH  ACCESS:          0  HIT:          0  MISS:          0
DTLB WRITEBACK ACCESS:          0  HIT:          0  MISS:          0
DTLB PREFETCH  REQUESTED:          0  ISSUED:          0  USEFUL:          0  USELESS:          0
DTLB TOTAL MSHR MERGED:      99502
DTLB LOAD MSHR MERGED:      59228
DTLB RFO MSHR MERGED:      40274
DTLB PREFETCH MSHR MERGED:          0
DTLB WRITEBACK MSHR MERGED:          0
DTLB TOTAL ACCESSES:  165435567 HITS:  164701716 MISSES:     733851
DTLB LOAD ACCESSES:  106350094 HITS:  105720837 MISSES:     629257
DTLB RFO ACCESSES:   59085473 HITS:   58980879 MISSES:     104594
DTLB PREFETCH ACCESSES:          0 HITS:          0 MISSES:          0
DTLB WRITEBACK ACCESSES:          0 HITS:          0 MISSES:          0
DTLB RQ ACCESS:  200305074
DTLB RQ TO_CACHE:  165435567
DTLB RQ MERGED:   34869507
DTLB RQ FORWARD:          0
DTLB WQ ACCESS:          0
DTLB WQ TO_CACHE:          0
DTLB WQ MERGED:          0
DTLB WQ FORWARD:          0
L1D TOTAL     ACCESS:  281775727  HIT:  273866426  MISS:    7909301
L1D LOAD      ACCESS:  110414234  HIT:  107134808  MISS:    3279426
L1D RFO       ACCESS:   67075706  HIT:   66183235  MISS:     892471
L1D PREFETCH  ACCESS:  104285787  HIT:  100548383  MISS:    3737404
L1D WRITEBACK ACCESS:          0  HIT:          0  MISS:          0
L1D PREFETCH  REQUESTED:  110819324  ISSUED:  109119940  USEFUL:    1658330  USELESS:    2079038
L1D TOTAL MSHR MERGED:    2937095
L1D LOAD MSHR MERGED:     504256
L1D RFO MSHR MERGED:    1911735
L1D PREFETCH MSHR MERGED:     521104
L1D WRITEBACK MSHR MERGED:          0
L1D TOTAL ACCESSES:  284740509 HITS:  273894113 MISSES:   10846396
L1D LOAD ACCESSES:  110821026 HITS:  107136510 MISSES:    3684516
L1D RFO ACCESSES:   68973737 HITS:   66183235 MISSES:    2790502
L1D PREFETCH ACCESSES:  104945746 HITS:  100574368 MISSES:    4371378
L1D WRITEBACK ACCESSES:          0 HITS:          0 MISSES:          0
L1D RQ ACCESS:  130752471
L1D RQ TO_CACHE:  110819327
L1D RQ MERGED:   19931442
L1D RQ FORWARD:          0
L1D WQ ACCESS:   69552603
L1D WQ TO_CACHE:   68973738
L1D WQ MERGED:     578865
L1D WQ FORWARD:      27687
L1I TOTAL     ACCESS:  126547414  HIT:  122308868  MISS:    4238546
L1I LOAD      ACCESS:  126547414  HIT:  122308868  MISS:    4238546
L1I RFO       ACCESS:          0  HIT:          0  MISS:          0
L1I PREFETCH  ACCESS:          0  HIT:          0  MISS:          0
L1I WRITEBACK ACCESS:          0  HIT:          0  MISS:          0
L1I PREFETCH  REQUESTED:          0  ISSUED:          0  USEFUL:          0  USELESS:          0
L1I TOTAL MSHR MERGED:    1836282
L1I LOAD MSHR MERGED:    1836282
L1I RFO MSHR MERGED:          0
L1I PREFETCH MSHR MERGED:          0
L1I WRITEBACK MSHR MERGED:          0
L1I TOTAL ACCESSES:  128383699 HITS:  122308868 MISSES:    6074831
L1I LOAD ACCESSES:  128383699 HITS:  122308868 MISSES:    6074831
L1I RFO ACCESSES:          0 HITS:          0 MISSES:          0
L1I PREFETCH ACCESSES:          0 HITS:          0 MISSES:          0
L1I WRITEBACK ACCESSES:          0 HITS:          0 MISSES:          0
L1I RQ ACCESS:  500000057
L1I RQ TO_CACHE:  128383699
L1I RQ MERGED:  371616358
L1I RQ FORWARD:          0
L1I WQ ACCESS:          0
L1I WQ TO_CACHE:          0
L1I WQ MERGED:          0
L1I WQ FORWARD:          0
L2C TOTAL     ACCESS:   14903399  HIT:   11157023  MISS:    3746376
L2C LOAD      ACCESS:    7418599  HIT:    5098249  MISS:    2320350
L2C RFO       ACCESS:     878668  HIT:     409961  MISS:     468707
L2C PREFETCH  ACCESS:    4566908  HIT:    3626857  MISS:     940051
L2C WRITEBACK ACCESS:    2039224  HIT:    2021956  MISS:      17268
L2C PREFETCH  REQUESTED:     842580  ISSUED:     842580  USEFUL:     202915  USELESS:     736842
L2C TOTAL MSHR MERGED:       8656
L2C LOAD MSHR MERGED:       1256
L2C RFO MSHR MERGED:          0
L2C PREFETCH MSHR MERGED:       7400
L2C WRITEBACK MSHR MERGED:          0
L2C TOTAL ACCESSES:   14913001 HITS:   11157468 MISSES:    3755533
L2C LOAD ACCESSES:    7418806 HITS:    5098456 MISSES:    2320350
L2C RFO ACCESSES:     878767 HITS:     410060 MISSES:     468707
L2C PREFETCH ACCESSES:    4576204 HITS:    3626996 MISSES:     949208
L2C WRITEBACK ACCESSES:    2039224 HITS:    2021956 MISSES:      17268
L2C RQ ACCESS:    8297576
L2C RQ TO_CACHE:    8297270
L2C RQ MERGED:          0
L2C RQ FORWARD:          0
L2C WQ ACCESS:    2039224
L2C WQ TO_CACHE:    2039224
L2C WQ MERGED:          0
L2C WQ FORWARD:        445
LLC TOTAL     ACCESS:    4609684  HIT:    3414660  MISS:    1195024
LLC LOAD      ACCESS:    2319078  HIT:    1783077  MISS:     536001
LLC RFO       ACCESS:     468699  HIT:     307589  MISS:     161110
LLC PREFETCH  ACCESS:     941673  HIT:     601703  MISS:     339970
LLC WRITEBACK ACCESS:     880234  HIT:     722291  MISS:     157943
LLC PREFETCH  REQUESTED:          0  ISSUED:          0  USEFUL:      16360  USELESS:     323798
LLC TOTAL MSHR MERGED:        120
LLC LOAD MSHR MERGED:         43
LLC RFO MSHR MERGED:          0
LLC PREFETCH MSHR MERGED:         77
LLC WRITEBACK MSHR MERGED:          0
LLC TOTAL ACCESSES:    4609837 HITS:    3414693 MISSES:    1195144
LLC LOAD ACCESSES:    2319094 HITS:    1783093 MISSES:     536001
LLC RFO ACCESSES:     468707 HITS:     307597 MISSES:     161110
LLC PREFETCH ACCESSES:     941802 HITS:     601712 MISSES:     340090
LLC WRITEBACK ACCESSES:     880234 HITS:     722291 MISSES:     157943
LLC 0 RQ ACCESS:    2787801
LLC 0 RQ TO_CACHE:    2787777
LLC 0 RQ MERGED:          0
LLC 0 RQ FORWARD:          0
LLC WQ ACCESS:     880234
LLC WQ TO_CACHE:     880234
LLC WQ MERGED:          0
LLC WQ FORWARD:         33
Major fault: 0 Minor fault: 12862
CPU 0 L1D next line prefetcher final stats
CPU 0 L2C PC-based stride prefetcher final stats
All Misses: 1339926
All Hits: 4086764
SD Algo Stats - Switches: 0 SRR-Repls: 581294 BRR-Repls: 0

DRAM Statistics
 CHANNEL 0
 RQ ROW_BUFFER_HIT:     240812  ROW_BUFFER_MISS:     792702
 DBUS_CONGESTED:     571507
 WQ ROW_BUFFER_HIT:      33427  ROW_BUFFER_MISS:     310902  FULL:          0

 AVG_CONGESTED_CYCLE: 13
LOADS RETIRED: 136549171
INSTR RETIRED: 500000000
