
*** ChampSim Multicore Out-of-Order Simulator ***

Warmup Instructions: 100000000
Simulation Instructions: 500000000
Number of CPUs: 1
LLC sets: 2048
LLC ways: 16
Clean RRIP Policies: 1213030112130301 Dirty RRIP Policies: 2213130122131301 PSEL Width: 10 Track Set: 4294967295 PSEL Mask: 1 Demote Mask: 3340221033402210DS Algo: 0Window size: 0
Off-chip DRAM Size: 4096 MB Channels: 1 Width: 64-bit Data Rate: 1600 MT/s

CPU 0 runs /mnt/beegfs/iconst01/spec2017/cactuBSSN.trace.gz
NOT SORTED
TRACE STRING: /mnt/beegfs/iconst01/spec2017/cactuBSSN.trace.gz
SORTED
TRACE STRING: /mnt/beegfs/iconst01/spec2017/cactuBSSN.trace.gz
INITIAL
TRACE STRING: /mnt/beegfs/iconst01/spec2017/cactuBSSN.trace.gz

champsim_seed used: 838

CPU 0 L1D next line prefetcher
CPU 0 L2C IP-based stride prefetcher
Initialize DRRIP state
Assign rand_sets[0]: 454  LLC: 2048
rand_sets[0]: 454
Assign rand_sets[1]: 1662  LLC: 2048
rand_sets[1]: 1662
Assign rand_sets[2]: 1921  LLC: 2048
rand_sets[2]: 1921
Assign rand_sets[3]: 1131  LLC: 2048
rand_sets[3]: 1131
Assign rand_sets[4]: 331  LLC: 2048
rand_sets[4]: 331
Assign rand_sets[5]: 1531  LLC: 2048
rand_sets[5]: 1531
Assign rand_sets[6]: 482  LLC: 2048
rand_sets[6]: 482
Assign rand_sets[7]: 1275  LLC: 2048
rand_sets[7]: 1275
Assign rand_sets[8]: 1876  LLC: 2048
rand_sets[8]: 1876
Assign rand_sets[9]: 2038  LLC: 2048
rand_sets[9]: 2038
Assign rand_sets[10]: 701  LLC: 2048
rand_sets[10]: 701
Assign rand_sets[11]: 479  LLC: 2048
rand_sets[11]: 479
Assign rand_sets[12]: 892  LLC: 2048
rand_sets[12]: 892
Assign rand_sets[13]: 1820  LLC: 2048
rand_sets[13]: 1820
Assign rand_sets[14]: 1505  LLC: 2048
rand_sets[14]: 1505
Assign rand_sets[15]: 1159  LLC: 2048
rand_sets[15]: 1159
Assign rand_sets[16]: 513  LLC: 2048
rand_sets[16]: 513
Assign rand_sets[17]: 703  LLC: 2048
rand_sets[17]: 703
Assign rand_sets[18]: 561  LLC: 2048
rand_sets[18]: 561
Assign rand_sets[19]: 990  LLC: 2048
rand_sets[19]: 990
Assign rand_sets[20]: 342  LLC: 2048
rand_sets[20]: 342
Assign rand_sets[21]: 882  LLC: 2048
rand_sets[21]: 882
Assign rand_sets[22]: 15  LLC: 2048
rand_sets[22]: 15
Assign rand_sets[23]: 71  LLC: 2048
rand_sets[23]: 71
Assign rand_sets[24]: 1127  LLC: 2048
rand_sets[24]: 1127
Assign rand_sets[25]: 1382  LLC: 2048
rand_sets[25]: 1382
Assign rand_sets[26]: 647  LLC: 2048
rand_sets[26]: 647
Assign rand_sets[27]: 857  LLC: 2048
rand_sets[27]: 857
Assign rand_sets[28]: 1450  LLC: 2048
rand_sets[28]: 1450
Assign rand_sets[29]: 1160  LLC: 2048
rand_sets[29]: 1160
Assign rand_sets[30]: 1852  LLC: 2048
rand_sets[30]: 1852
Assign rand_sets[31]: 1881  LLC: 2048
rand_sets[31]: 1881
Assign rand_sets[32]: 1770  LLC: 2048
rand_sets[32]: 1770
Assign rand_sets[33]: 1622  LLC: 2048
rand_sets[33]: 1622
Assign rand_sets[34]: 275  LLC: 2048
rand_sets[34]: 275
Assign rand_sets[35]: 635  LLC: 2048
rand_sets[35]: 635
Assign rand_sets[36]: 466  LLC: 2048
rand_sets[36]: 466
Assign rand_sets[37]: 1413  LLC: 2048
rand_sets[37]: 1413
Assign rand_sets[38]: 417  LLC: 2048
rand_sets[38]: 417
Assign rand_sets[39]: 472  LLC: 2048
rand_sets[39]: 472
Assign rand_sets[40]: 1340  LLC: 2048
rand_sets[40]: 1340
Assign rand_sets[41]: 852  LLC: 2048
rand_sets[41]: 852
Assign rand_sets[42]: 1365  LLC: 2048
rand_sets[42]: 1365
Assign rand_sets[43]: 47  LLC: 2048
rand_sets[43]: 47
Assign rand_sets[44]: 823  LLC: 2048
rand_sets[44]: 823
Assign rand_sets[45]: 686  LLC: 2048
rand_sets[45]: 686
Assign rand_sets[46]: 1637  LLC: 2048
rand_sets[46]: 1637
Assign rand_sets[47]: 1115  LLC: 2048
rand_sets[47]: 1115
Assign rand_sets[48]: 986  LLC: 2048
rand_sets[48]: 986
Assign rand_sets[49]: 258  LLC: 2048
rand_sets[49]: 258
Assign rand_sets[50]: 633  LLC: 2048
rand_sets[50]: 633
Assign rand_sets[51]: 920  LLC: 2048
rand_sets[51]: 920
Assign rand_sets[52]: 204  LLC: 2048
rand_sets[52]: 204
Assign rand_sets[53]: 227  LLC: 2048
rand_sets[53]: 227
Assign rand_sets[54]: 1818  LLC: 2048
rand_sets[54]: 1818
Assign rand_sets[55]: 886  LLC: 2048
rand_sets[55]: 886
Assign rand_sets[56]: 1422  LLC: 2048
rand_sets[56]: 1422
Assign rand_sets[57]: 607  LLC: 2048
rand_sets[57]: 607
Assign rand_sets[58]: 217  LLC: 2048
rand_sets[58]: 217
Assign rand_sets[59]: 1945  LLC: 2048
rand_sets[59]: 1945
Assign rand_sets[60]: 143  LLC: 2048
rand_sets[60]: 143
Assign rand_sets[61]: 1311  LLC: 2048
rand_sets[61]: 1311
Assign rand_sets[62]: 319  LLC: 2048
rand_sets[62]: 319
Assign rand_sets[63]: 1846  LLC: 2048
rand_sets[63]: 1846
 CLEAN-RRIP-POLICY-1: 1-2-1-3-0-3-0-1- CLEAN-RRIP-POLICY-2: 1-2-1-3-0-3-0-1-
 DIRTY-RRIP-POLICY-1: 2-2-1-3-1-3-0-1- DIRTY-RRIP-POLICY-2: 2-2-1-3-1-3-0-1-
 PSEL width: 10
Heartbeat CPU 0 instructions: 10000000 cycles: 6588002 heartbeat IPC: 1.51791 cumulative IPC: 1.51791 (Simulation time: 0 hr 0 min 24 sec) 
Heartbeat CPU 0 instructions: 20000000 cycles: 13179599 heartbeat IPC: 1.51708 cumulative IPC: 1.5175 (Simulation time: 0 hr 0 min 49 sec) 
Heartbeat CPU 0 instructions: 30000003 cycles: 19772925 heartbeat IPC: 1.51669 cumulative IPC: 1.51723 (Simulation time: 0 hr 1 min 13 sec) 
Heartbeat CPU 0 instructions: 40000000 cycles: 26364672 heartbeat IPC: 1.51705 cumulative IPC: 1.51718 (Simulation time: 0 hr 1 min 38 sec) 
Heartbeat CPU 0 instructions: 50000001 cycles: 32957314 heartbeat IPC: 1.51684 cumulative IPC: 1.51711 (Simulation time: 0 hr 2 min 2 sec) 
Heartbeat CPU 0 instructions: 60000000 cycles: 39556134 heartbeat IPC: 1.51542 cumulative IPC: 1.51683 (Simulation time: 0 hr 2 min 27 sec) 
Heartbeat CPU 0 instructions: 70000003 cycles: 46154492 heartbeat IPC: 1.51553 cumulative IPC: 1.51665 (Simulation time: 0 hr 2 min 52 sec) 
Heartbeat CPU 0 instructions: 80000000 cycles: 52752530 heartbeat IPC: 1.5156 cumulative IPC: 1.51651 (Simulation time: 0 hr 3 min 17 sec) 
Heartbeat CPU 0 instructions: 90000002 cycles: 59348194 heartbeat IPC: 1.51615 cumulative IPC: 1.51647 (Simulation time: 0 hr 3 min 42 sec) 
Heartbeat CPU 0 instructions: 100000000 cycles: 65943267 heartbeat IPC: 1.51628 cumulative IPC: 1.51646 (Simulation time: 0 hr 4 min 6 sec) 

Warmup complete CPU 0 instructions: 100000002 cycles: 65943268 (Simulation time: 0 hr 4 min 6 sec) 

Heartbeat CPU 0 instructions: 110000000 cycles: 79181380 heartbeat IPC: 0.755395 cumulative IPC: 0.755395 (Simulation time: 0 hr 4 min 37 sec) 
Heartbeat CPU 0 instructions: 120000000 cycles: 92382048 heartbeat IPC: 0.757537 cumulative IPC: 0.756464 (Simulation time: 0 hr 5 min 7 sec) 
Heartbeat CPU 0 instructions: 130000001 cycles: 105650172 heartbeat IPC: 0.753686 cumulative IPC: 0.755536 (Simulation time: 0 hr 5 min 38 sec) 
Heartbeat CPU 0 instructions: 140000000 cycles: 118821002 heartbeat IPC: 0.759254 cumulative IPC: 0.756462 (Simulation time: 0 hr 6 min 8 sec) 
Heartbeat CPU 0 instructions: 150000001 cycles: 132006849 heartbeat IPC: 0.758389 cumulative IPC: 0.756847 (Simulation time: 0 hr 6 min 39 sec) 
Heartbeat CPU 0 instructions: 160000000 cycles: 145236332 heartbeat IPC: 0.755887 cumulative IPC: 0.756687 (Simulation time: 0 hr 7 min 9 sec) 
Heartbeat CPU 0 instructions: 170000000 cycles: 158448300 heartbeat IPC: 0.75689 cumulative IPC: 0.756716 (Simulation time: 0 hr 7 min 39 sec) 
Heartbeat CPU 0 instructions: 180000000 cycles: 171648447 heartbeat IPC: 0.757567 cumulative IPC: 0.756822 (Simulation time: 0 hr 8 min 10 sec) 
Heartbeat CPU 0 instructions: 190000000 cycles: 184806780 heartbeat IPC: 0.759975 cumulative IPC: 0.757171 (Simulation time: 0 hr 8 min 40 sec) 
Heartbeat CPU 0 instructions: 200000000 cycles: 198060251 heartbeat IPC: 0.754519 cumulative IPC: 0.756905 (Simulation time: 0 hr 9 min 11 sec) 
Heartbeat CPU 0 instructions: 210000002 cycles: 211270671 heartbeat IPC: 0.756978 cumulative IPC: 0.756912 (Simulation time: 0 hr 9 min 41 sec) 
Heartbeat CPU 0 instructions: 220000000 cycles: 224445499 heartbeat IPC: 0.759023 cumulative IPC: 0.757087 (Simulation time: 0 hr 10 min 11 sec) 
Heartbeat CPU 0 instructions: 230000003 cycles: 237695912 heartbeat IPC: 0.754694 cumulative IPC: 0.756902 (Simulation time: 0 hr 10 min 42 sec) 
Heartbeat CPU 0 instructions: 240000000 cycles: 250885973 heartbeat IPC: 0.758146 cumulative IPC: 0.756991 (Simulation time: 0 hr 11 min 12 sec) 
Heartbeat CPU 0 instructions: 250000001 cycles: 264100455 heartbeat IPC: 0.756746 cumulative IPC: 0.756975 (Simulation time: 0 hr 11 min 43 sec) 
Heartbeat CPU 0 instructions: 260000000 cycles: 277303508 heartbeat IPC: 0.757401 cumulative IPC: 0.757001 (Simulation time: 0 hr 12 min 13 sec) 
Heartbeat CPU 0 instructions: 270000003 cycles: 290537916 heartbeat IPC: 0.755606 cumulative IPC: 0.756919 (Simulation time: 0 hr 12 min 43 sec) 
Heartbeat CPU 0 instructions: 280000000 cycles: 303736843 heartbeat IPC: 0.757637 cumulative IPC: 0.756959 (Simulation time: 0 hr 13 min 13 sec) 
Heartbeat CPU 0 instructions: 290000000 cycles: 316901636 heartbeat IPC: 0.759602 cumulative IPC: 0.757098 (Simulation time: 0 hr 13 min 43 sec) 
Heartbeat CPU 0 instructions: 300000000 cycles: 330153295 heartbeat IPC: 0.754623 cumulative IPC: 0.756974 (Simulation time: 0 hr 14 min 13 sec) 
Heartbeat CPU 0 instructions: 310000001 cycles: 343323858 heartbeat IPC: 0.759269 cumulative IPC: 0.757083 (Simulation time: 0 hr 14 min 43 sec) 
Heartbeat CPU 0 instructions: 320000000 cycles: 356516147 heartbeat IPC: 0.758018 cumulative IPC: 0.757125 (Simulation time: 0 hr 15 min 13 sec) 
Heartbeat CPU 0 instructions: 330000002 cycles: 369709099 heartbeat IPC: 0.757981 cumulative IPC: 0.757162 (Simulation time: 0 hr 15 min 43 sec) 
Heartbeat CPU 0 instructions: 340000000 cycles: 382939399 heartbeat IPC: 0.755841 cumulative IPC: 0.757107 (Simulation time: 0 hr 16 min 12 sec) 
Heartbeat CPU 0 instructions: 350000000 cycles: 396187696 heartbeat IPC: 0.754814 cumulative IPC: 0.757015 (Simulation time: 0 hr 16 min 42 sec) 
Heartbeat CPU 0 instructions: 360000000 cycles: 409406491 heartbeat IPC: 0.756499 cumulative IPC: 0.756995 (Simulation time: 0 hr 17 min 12 sec) 
Heartbeat CPU 0 instructions: 370000002 cycles: 422679982 heartbeat IPC: 0.753381 cumulative IPC: 0.756861 (Simulation time: 0 hr 17 min 42 sec) 
Heartbeat CPU 0 instructions: 380000000 cycles: 435886155 heartbeat IPC: 0.757222 cumulative IPC: 0.756874 (Simulation time: 0 hr 18 min 12 sec) 
Heartbeat CPU 0 instructions: 390000000 cycles: 449059971 heartbeat IPC: 0.759081 cumulative IPC: 0.756949 (Simulation time: 0 hr 18 min 41 sec) 
Heartbeat CPU 0 instructions: 400000000 cycles: 462256009 heartbeat IPC: 0.757803 cumulative IPC: 0.756978 (Simulation time: 0 hr 19 min 11 sec) 
Heartbeat CPU 0 instructions: 410000001 cycles: 475503960 heartbeat IPC: 0.754834 cumulative IPC: 0.756909 (Simulation time: 0 hr 19 min 41 sec) 
Heartbeat CPU 0 instructions: 420000000 cycles: 488684970 heartbeat IPC: 0.758667 cumulative IPC: 0.756963 (Simulation time: 0 hr 20 min 11 sec) 
Heartbeat CPU 0 instructions: 430000001 cycles: 501870572 heartbeat IPC: 0.758403 cumulative IPC: 0.757007 (Simulation time: 0 hr 20 min 40 sec) 
Heartbeat CPU 0 instructions: 440000000 cycles: 515045765 heartbeat IPC: 0.759002 cumulative IPC: 0.757065 (Simulation time: 0 hr 21 min 10 sec) 
Heartbeat CPU 0 instructions: 450000002 cycles: 528345896 heartbeat IPC: 0.751872 cumulative IPC: 0.756916 (Simulation time: 0 hr 21 min 40 sec) 
Heartbeat CPU 0 instructions: 460000000 cycles: 541560131 heartbeat IPC: 0.75676 cumulative IPC: 0.756912 (Simulation time: 0 hr 22 min 9 sec) 
Heartbeat CPU 0 instructions: 470000003 cycles: 554760269 heartbeat IPC: 0.757568 cumulative IPC: 0.756929 (Simulation time: 0 hr 22 min 39 sec) 
Heartbeat CPU 0 instructions: 480000000 cycles: 568004036 heartbeat IPC: 0.755072 cumulative IPC: 0.75688 (Simulation time: 0 hr 23 min 9 sec) 
Heartbeat CPU 0 instructions: 490000000 cycles: 581213751 heartbeat IPC: 0.757019 cumulative IPC: 0.756884 (Simulation time: 0 hr 23 min 39 sec) 
Heartbeat CPU 0 instructions: 500000000 cycles: 594407812 heartbeat IPC: 0.757917 cumulative IPC: 0.75691 (Simulation time: 0 hr 24 min 8 sec) 
Heartbeat CPU 0 instructions: 510000001 cycles: 607575163 heartbeat IPC: 0.759454 cumulative IPC: 0.756972 (Simulation time: 0 hr 24 min 38 sec) 
Heartbeat CPU 0 instructions: 520000000 cycles: 620849972 heartbeat IPC: 0.753306 cumulative IPC: 0.756884 (Simulation time: 0 hr 25 min 8 sec) 
Heartbeat CPU 0 instructions: 530000000 cycles: 634090673 heartbeat IPC: 0.755247 cumulative IPC: 0.756846 (Simulation time: 0 hr 25 min 37 sec) 
Heartbeat CPU 0 instructions: 540000000 cycles: 647317801 heartbeat IPC: 0.756022 cumulative IPC: 0.756827 (Simulation time: 0 hr 26 min 7 sec) 
Heartbeat CPU 0 instructions: 550000002 cycles: 660564414 heartbeat IPC: 0.75491 cumulative IPC: 0.756784 (Simulation time: 0 hr 26 min 37 sec) 
Heartbeat CPU 0 instructions: 560000000 cycles: 673746377 heartbeat IPC: 0.758612 cumulative IPC: 0.756824 (Simulation time: 0 hr 27 min 7 sec) 
Heartbeat CPU 0 instructions: 570000001 cycles: 686946543 heartbeat IPC: 0.757566 cumulative IPC: 0.75684 (Simulation time: 0 hr 27 min 36 sec) 
Heartbeat CPU 0 instructions: 580000000 cycles: 700148790 heartbeat IPC: 0.757447 cumulative IPC: 0.756852 (Simulation time: 0 hr 28 min 6 sec) 
Heartbeat CPU 0 instructions: 590000003 cycles: 713383458 heartbeat IPC: 0.755592 cumulative IPC: 0.756827 (Simulation time: 0 hr 28 min 36 sec) 
Heartbeat CPU 0 instructions: 600000000 cycles: 726636394 heartbeat IPC: 0.75455 cumulative IPC: 0.756781 (Simulation time: 0 hr 29 min 5 sec) 
Finished CPU 0 instructions: 500000000 cycles: 660693136 cumulative IPC: 0.756781 (Simulation time: 0 hr 29 min 5 sec) 

CPU 0 Branch Prediction Accuracy: 99.968% MPKI: 0.002246
Number of Branches: 3513331 Number of Mispredictions: 1123
Number of LOAD Instructions: 287251172
Number of LOAD Instructions (ROI): 287251172
Number of STORE Instructions: 51060820
Number of STORE Instructions (ROI): 51060820
Total Destination Memory Operands: 51166221
Total Destination Memory Operands (ROI): 51166221
Total Source Memory Operands: 287251172
Total Source Memory Operands (ROI): 287251172
Number of DEPENDED LOADS: 9555194
Number of DEPENDED LOADS (ROI): 9555194
Number of SQ_ADDED: 51166208
Number of SQ_ADDED (ROI): 51166208
Number of LQ_ADDED: 290422863
Number of LQ_ADDED (ROI): 290422863
Number of Instructions read from trace: 600000257

ChampSim completed all CPUs

Region of Interest Statistics

CPU 0 cumulative IPC: 0.756781 instructions: 500000000 cycles: 660693136
ITLB TOTAL     ACCESS:  108953582  HIT:  108953582  MISS:          0
ITLB LOAD      ACCESS:  108953582  HIT:  108953582  MISS:          0
ITLB RFO       ACCESS:          0  HIT:          0  MISS:          0
ITLB PREFETCH  ACCESS:          0  HIT:          0  MISS:          0
ITLB WRITEBACK ACCESS:          0  HIT:          0  MISS:          0
ITLB PREFETCH  REQUESTED:          0  ISSUED:          0  USEFUL:          0  USELESS:          0
ITLB TOTAL MSHR MERGED:          0
ITLB LOAD MSHR MERGED:          0
ITLB RFO MSHR MERGED:          0
ITLB PREFETCH MSHR MERGED:          0
ITLB WRITEBACK MSHR MERGED:          0
ITLB TOTAL ACCESSES:  108953582 HITS:  108953582 MISSES:          0
ITLB LOAD ACCESSES:  108953582 HITS:  108953582 MISSES:          0
ITLB RFO ACCESSES:          0 HITS:          0 MISSES:          0
ITLB PREFETCH ACCESSES:          0 HITS:          0 MISSES:          0
ITLB WRITEBACK ACCESSES:          0 HITS:          0 MISSES:          0
ITLB RQ ACCESS:  500000001
ITLB RQ TO_CACHE:  108953582
ITLB RQ MERGED:  391046419
ITLB RQ FORWARD:          0
ITLB WQ ACCESS:          0
ITLB WQ TO_CACHE:          0
ITLB WQ MERGED:          0
ITLB WQ FORWARD:          0
DTLB TOTAL     ACCESS:  171131297  HIT:  161115000  MISS:   10016297
DTLB LOAD      ACCESS:  143472097  HIT:  135596050  MISS:    7876047
DTLB RFO       ACCESS:   27659200  HIT:   25518950  MISS:    2140250
DTLB PREFETCH  ACCESS:          0  HIT:          0  MISS:          0
DTLB WRITEBACK ACCESS:          0  HIT:          0  MISS:          0
DTLB PREFETCH  REQUESTED:          0  ISSUED:          0  USEFUL:          0  USELESS:          0
DTLB TOTAL MSHR MERGED:     360440
DTLB LOAD MSHR MERGED:     360440
DTLB RFO MSHR MERGED:          0
DTLB PREFETCH MSHR MERGED:          0
DTLB WRITEBACK MSHR MERGED:          0
DTLB TOTAL ACCESSES:  171491737 HITS:  161115000 MISSES:   10376737
DTLB LOAD ACCESSES:  143832537 HITS:  135596050 MISSES:    8236487
DTLB RFO ACCESSES:   27659200 HITS:   25518950 MISSES:    2140250
DTLB PREFETCH ACCESSES:          0 HITS:          0 MISSES:          0
DTLB WRITEBACK ACCESSES:          0 HITS:          0 MISSES:          0
DTLB RQ ACCESS:  274072626
DTLB RQ TO_CACHE:  171491737
DTLB RQ MERGED:  102580889
DTLB RQ FORWARD:          0
DTLB WQ ACCESS:          0
DTLB WQ TO_CACHE:          0
DTLB WQ MERGED:          0
DTLB WQ FORWARD:          0
L1D TOTAL     ACCESS:  350947719  HIT:  283748148  MISS:   67199571
L1D LOAD      ACCESS:  175625610  HIT:  142586225  MISS:   33039385
L1D RFO       ACCESS:   42019777  HIT:   39214243  MISS:    2805534
L1D PREFETCH  ACCESS:  133302332  HIT:  101947680  MISS:   31354652
L1D WRITEBACK ACCESS:          0  HIT:          0  MISS:          0
L1D PREFETCH  REQUESTED:  176229693  ISSUED:  175291500  USEFUL:    2180610  USELESS:   29174044
L1D TOTAL MSHR MERGED:    1483324
L1D LOAD MSHR MERGED:     703997
L1D RFO MSHR MERGED:     349298
L1D PREFETCH MSHR MERGED:     430029
L1D WRITEBACK MSHR MERGED:          0
L1D TOTAL ACCESSES:  352544277 HITS:  283861382 MISSES:   68682895
L1D LOAD ACCESSES:  176236861 HITS:  142593393 MISSES:   33643468
L1D RFO ACCESSES:   42368402 HITS:   39214243 MISSES:    3154159
L1D PREFETCH ACCESSES:  133939014 HITS:  102053746 MISSES:   31885268
L1D WRITEBACK ACCESSES:          0 HITS:          0 MISSES:          0
L1D RQ ACCESS:  231434153
L1D RQ TO_CACHE:  176229693
L1D RQ MERGED:   55197292
L1D RQ FORWARD:          0
L1D WQ ACCESS:   42638475
L1D WQ TO_CACHE:   42368402
L1D WQ MERGED:     270073
L1D WQ FORWARD:     113234
L1I TOTAL     ACCESS:  109345865  HIT:   77830161  MISS:   31515704
L1I LOAD      ACCESS:  109345865  HIT:   77830161  MISS:   31515704
L1I RFO       ACCESS:          0  HIT:          0  MISS:          0
L1I PREFETCH  ACCESS:          0  HIT:          0  MISS:          0
L1I WRITEBACK ACCESS:          0  HIT:          0  MISS:          0
L1I PREFETCH  REQUESTED:          0  ISSUED:          0  USEFUL:          0  USELESS:          0
L1I TOTAL MSHR MERGED:   30751722
L1I LOAD MSHR MERGED:   30751722
L1I RFO MSHR MERGED:          0
L1I PREFETCH MSHR MERGED:          0
L1I WRITEBACK MSHR MERGED:          0
L1I TOTAL ACCESSES:  140097589 HITS:   77830161 MISSES:   62267428
L1I LOAD ACCESSES:  140097589 HITS:   77830161 MISSES:   62267428
L1I RFO ACCESSES:          0 HITS:          0 MISSES:          0
L1I PREFETCH ACCESSES:          0 HITS:          0 MISSES:          0
L1I WRITEBACK ACCESSES:          0 HITS:          0 MISSES:          0
L1I RQ ACCESS:  500000003
L1I RQ TO_CACHE:  140097589
L1I RQ MERGED:  359902414
L1I RQ FORWARD:          0
L1I WQ ACCESS:          0
L1I WQ TO_CACHE:          0
L1I WQ MERGED:          0
L1I WQ FORWARD:          0
L2C TOTAL     ACCESS:  113697445  HIT:  110695758  MISS:    3001687
L2C LOAD      ACCESS:   64453315  HIT:   63892980  MISS:     560335
L2C RFO       ACCESS:    2802988  HIT:    2193697  MISS:     609291
L2C PREFETCH  ACCESS:   43280232  HIT:   41454457  MISS:    1825775
L2C WRITEBACK ACCESS:    3160910  HIT:    3154624  MISS:       6286
L2C PREFETCH  REQUESTED:   15134614  ISSUED:   14620606  USEFUL:    1700916  USELESS:     124869
L2C TOTAL MSHR MERGED:      12640
L2C LOAD MSHR MERGED:          0
L2C RFO MSHR MERGED:          0
L2C PREFETCH MSHR MERGED:      12640
L2C WRITEBACK MSHR MERGED:          0
L2C TOTAL ACCESSES:  113904401 HITS:  110701591 MISSES:    3202810
L2C LOAD ACCESSES:   64455176 HITS:   63894840 MISSES:     560336
L2C RFO ACCESSES:    2804861 HITS:    2195570 MISSES:     609291
L2C PREFETCH ACCESSES:   43483454 HITS:   41456557 MISSES:    2026897
L2C WRITEBACK ACCESSES:    3160910 HITS:    3154624 MISSES:       6286
L2C RQ ACCESS:   67260038
L2C RQ TO_CACHE:   67256305
L2C RQ MERGED:          0
L2C RQ FORWARD:          0
L2C WQ ACCESS:    3160910
L2C WQ TO_CACHE:    3160910
L2C WQ MERGED:          0
L2C WQ FORWARD:       5833
LLC TOTAL     ACCESS:    3714797  HIT:    1834972  MISS:    1879825
LLC LOAD      ACCESS:     560307  HIT:     494388  MISS:      65919
LLC RFO       ACCESS:     527270  HIT:     238415  MISS:     288855
LLC PREFETCH  ACCESS:    2008911  HIT:     645674  MISS:    1363237
LLC WRITEBACK ACCESS:     618309  HIT:     456495  MISS:     161814
LLC PREFETCH  REQUESTED:          0  ISSUED:          0  USEFUL:      43258  USELESS:    1315265
LLC TOTAL MSHR MERGED:       4676
LLC LOAD MSHR MERGED:          0
LLC RFO MSHR MERGED:          0
LLC PREFETCH MSHR MERGED:       4676
LLC WRITEBACK MSHR MERGED:          0
LLC TOTAL ACCESSES:    3801603 HITS:    1917102 MISSES:    1884501
LLC LOAD ACCESSES:     560335 HITS:     494416 MISSES:      65919
LLC RFO ACCESSES:     609291 HITS:     320436 MISSES:     288855
LLC PREFETCH ACCESSES:    2013668 HITS:     645755 MISSES:    1367913
LLC WRITEBACK ACCESSES:     618309 HITS:     456495 MISSES:     161814
LLC 0 RQ ACCESS:    1169627
LLC 0 RQ TO_CACHE:    1087578
LLC 0 RQ MERGED:          0
LLC 0 RQ FORWARD:          0
LLC WQ ACCESS:     618309
LLC WQ TO_CACHE:     618309
LLC WQ MERGED:          0
LLC WQ FORWARD:      82130
Major fault: 0 Minor fault: 12800
CPU 0 L1D next line prefetcher final stats
CPU 0 L2C PC-based stride prefetcher final stats
All Misses: 2276871
All Hits: 2288864
SD Algo Stats - Switches: 0 SRR-Repls: 83917 BRR-Repls: 0

DRAM Statistics
 CHANNEL 0
 RQ ROW_BUFFER_HIT:     852394  ROW_BUFFER_MISS:     864869
 DBUS_CONGESTED:     920299
 WQ ROW_BUFFER_HIT:      38736  ROW_BUFFER_MISS:     259870  FULL:          0

 AVG_CONGESTED_CYCLE: 13
LOADS RETIRED: 239375970
INSTR RETIRED: 500000000
