
*** ChampSim Multicore Out-of-Order Simulator ***

Warmup Instructions: 100000000
Simulation Instructions: 500000000
Number of CPUs: 1
LLC sets: 2048
LLC ways: 16
Clean RRIP Policies: 323002303230023 Dirty RRIP Policies: 2303001323030013 PSEL Width: 10 Track Set: 4294967295 PSEL Mask: 1 Demote Mask: 2313144223131442DS Algo: 0Window size: 0
Off-chip DRAM Size: 4096 MB Channels: 1 Width: 64-bit Data Rate: 1600 MT/s

CPU 0 runs /mnt/beegfs/iconst01/spec2017/Gcc.trace.gz
NOT SORTED
TRACE STRING: /mnt/beegfs/iconst01/spec2017/Gcc.trace.gz
SORTED
TRACE STRING: /mnt/beegfs/iconst01/spec2017/Gcc.trace.gz
INITIAL
TRACE STRING: /mnt/beegfs/iconst01/spec2017/Gcc.trace.gz

champsim_seed used: 269

CPU 0 L1D next line prefetcher
CPU 0 L2C IP-based stride prefetcher
Initialize DRRIP state
Assign rand_sets[0]: 454  LLC: 2048
rand_sets[0]: 454
Assign rand_sets[1]: 1662  LLC: 2048
rand_sets[1]: 1662
Assign rand_sets[2]: 1921  LLC: 2048
rand_sets[2]: 1921
Assign rand_sets[3]: 1131  LLC: 2048
rand_sets[3]: 1131
Assign rand_sets[4]: 331  LLC: 2048
rand_sets[4]: 331
Assign rand_sets[5]: 1531  LLC: 2048
rand_sets[5]: 1531
Assign rand_sets[6]: 482  LLC: 2048
rand_sets[6]: 482
Assign rand_sets[7]: 1275  LLC: 2048
rand_sets[7]: 1275
Assign rand_sets[8]: 1876  LLC: 2048
rand_sets[8]: 1876
Assign rand_sets[9]: 2038  LLC: 2048
rand_sets[9]: 2038
Assign rand_sets[10]: 701  LLC: 2048
rand_sets[10]: 701
Assign rand_sets[11]: 479  LLC: 2048
rand_sets[11]: 479
Assign rand_sets[12]: 892  LLC: 2048
rand_sets[12]: 892
Assign rand_sets[13]: 1820  LLC: 2048
rand_sets[13]: 1820
Assign rand_sets[14]: 1505  LLC: 2048
rand_sets[14]: 1505
Assign rand_sets[15]: 1159  LLC: 2048
rand_sets[15]: 1159
Assign rand_sets[16]: 513  LLC: 2048
rand_sets[16]: 513
Assign rand_sets[17]: 703  LLC: 2048
rand_sets[17]: 703
Assign rand_sets[18]: 561  LLC: 2048
rand_sets[18]: 561
Assign rand_sets[19]: 990  LLC: 2048
rand_sets[19]: 990
Assign rand_sets[20]: 342  LLC: 2048
rand_sets[20]: 342
Assign rand_sets[21]: 882  LLC: 2048
rand_sets[21]: 882
Assign rand_sets[22]: 15  LLC: 2048
rand_sets[22]: 15
Assign rand_sets[23]: 71  LLC: 2048
rand_sets[23]: 71
Assign rand_sets[24]: 1127  LLC: 2048
rand_sets[24]: 1127
Assign rand_sets[25]: 1382  LLC: 2048
rand_sets[25]: 1382
Assign rand_sets[26]: 647  LLC: 2048
rand_sets[26]: 647
Assign rand_sets[27]: 857  LLC: 2048
rand_sets[27]: 857
Assign rand_sets[28]: 1450  LLC: 2048
rand_sets[28]: 1450
Assign rand_sets[29]: 1160  LLC: 2048
rand_sets[29]: 1160
Assign rand_sets[30]: 1852  LLC: 2048
rand_sets[30]: 1852
Assign rand_sets[31]: 1881  LLC: 2048
rand_sets[31]: 1881
Assign rand_sets[32]: 1770  LLC: 2048
rand_sets[32]: 1770
Assign rand_sets[33]: 1622  LLC: 2048
rand_sets[33]: 1622
Assign rand_sets[34]: 275  LLC: 2048
rand_sets[34]: 275
Assign rand_sets[35]: 635  LLC: 2048
rand_sets[35]: 635
Assign rand_sets[36]: 466  LLC: 2048
rand_sets[36]: 466
Assign rand_sets[37]: 1413  LLC: 2048
rand_sets[37]: 1413
Assign rand_sets[38]: 417  LLC: 2048
rand_sets[38]: 417
Assign rand_sets[39]: 472  LLC: 2048
rand_sets[39]: 472
Assign rand_sets[40]: 1340  LLC: 2048
rand_sets[40]: 1340
Assign rand_sets[41]: 852  LLC: 2048
rand_sets[41]: 852
Assign rand_sets[42]: 1365  LLC: 2048
rand_sets[42]: 1365
Assign rand_sets[43]: 47  LLC: 2048
rand_sets[43]: 47
Assign rand_sets[44]: 823  LLC: 2048
rand_sets[44]: 823
Assign rand_sets[45]: 686  LLC: 2048
rand_sets[45]: 686
Assign rand_sets[46]: 1637  LLC: 2048
rand_sets[46]: 1637
Assign rand_sets[47]: 1115  LLC: 2048
rand_sets[47]: 1115
Assign rand_sets[48]: 986  LLC: 2048
rand_sets[48]: 986
Assign rand_sets[49]: 258  LLC: 2048
rand_sets[49]: 258
Assign rand_sets[50]: 633  LLC: 2048
rand_sets[50]: 633
Assign rand_sets[51]: 920  LLC: 2048
rand_sets[51]: 920
Assign rand_sets[52]: 204  LLC: 2048
rand_sets[52]: 204
Assign rand_sets[53]: 227  LLC: 2048
rand_sets[53]: 227
Assign rand_sets[54]: 1818  LLC: 2048
rand_sets[54]: 1818
Assign rand_sets[55]: 886  LLC: 2048
rand_sets[55]: 886
Assign rand_sets[56]: 1422  LLC: 2048
rand_sets[56]: 1422
Assign rand_sets[57]: 607  LLC: 2048
rand_sets[57]: 607
Assign rand_sets[58]: 217  LLC: 2048
rand_sets[58]: 217
Assign rand_sets[59]: 1945  LLC: 2048
rand_sets[59]: 1945
Assign rand_sets[60]: 143  LLC: 2048
rand_sets[60]: 143
Assign rand_sets[61]: 1311  LLC: 2048
rand_sets[61]: 1311
Assign rand_sets[62]: 319  LLC: 2048
rand_sets[62]: 319
Assign rand_sets[63]: 1846  LLC: 2048
rand_sets[63]: 1846
 CLEAN-RRIP-POLICY-1: 0-3-2-3-0-0-2-3- CLEAN-RRIP-POLICY-2: 0-3-2-3-0-0-2-3-
 DIRTY-RRIP-POLICY-1: 2-3-0-3-0-0-1-3- DIRTY-RRIP-POLICY-2: 2-3-0-3-0-0-1-3-
 PSEL width: 10
Heartbeat CPU 0 instructions: 10000001 cycles: 7321625 heartbeat IPC: 1.36582 cumulative IPC: 1.36582 (Simulation time: 0 hr 0 min 15 sec) 
Heartbeat CPU 0 instructions: 20000000 cycles: 14328006 heartbeat IPC: 1.42727 cumulative IPC: 1.39587 (Simulation time: 0 hr 0 min 30 sec) 
Heartbeat CPU 0 instructions: 30000001 cycles: 21045401 heartbeat IPC: 1.48867 cumulative IPC: 1.42549 (Simulation time: 0 hr 0 min 47 sec) 
Heartbeat CPU 0 instructions: 40000000 cycles: 27507829 heartbeat IPC: 1.54741 cumulative IPC: 1.45413 (Simulation time: 0 hr 1 min 3 sec) 
Heartbeat CPU 0 instructions: 50000001 cycles: 33610826 heartbeat IPC: 1.63854 cumulative IPC: 1.48762 (Simulation time: 0 hr 1 min 19 sec) 
Heartbeat CPU 0 instructions: 60000000 cycles: 40093243 heartbeat IPC: 1.54263 cumulative IPC: 1.49651 (Simulation time: 0 hr 1 min 36 sec) 
Heartbeat CPU 0 instructions: 70000000 cycles: 47136886 heartbeat IPC: 1.41972 cumulative IPC: 1.48504 (Simulation time: 0 hr 1 min 51 sec) 
Heartbeat CPU 0 instructions: 80000000 cycles: 54232922 heartbeat IPC: 1.40924 cumulative IPC: 1.47512 (Simulation time: 0 hr 2 min 7 sec) 
Heartbeat CPU 0 instructions: 90000003 cycles: 61243953 heartbeat IPC: 1.42632 cumulative IPC: 1.46953 (Simulation time: 0 hr 2 min 22 sec) 
Heartbeat CPU 0 instructions: 100000000 cycles: 68417950 heartbeat IPC: 1.39392 cumulative IPC: 1.4616 (Simulation time: 0 hr 2 min 37 sec) 

Warmup complete CPU 0 instructions: 100000004 cycles: 68417951 (Simulation time: 0 hr 2 min 37 sec) 

Heartbeat CPU 0 instructions: 110000003 cycles: 97168759 heartbeat IPC: 0.347816 cumulative IPC: 0.347816 (Simulation time: 0 hr 3 min 7 sec) 
Heartbeat CPU 0 instructions: 120000000 cycles: 125077786 heartbeat IPC: 0.358307 cumulative IPC: 0.352984 (Simulation time: 0 hr 3 min 37 sec) 
Heartbeat CPU 0 instructions: 130000000 cycles: 150429851 heartbeat IPC: 0.394445 cumulative IPC: 0.365801 (Simulation time: 0 hr 4 min 7 sec) 
Heartbeat CPU 0 instructions: 140000000 cycles: 181960965 heartbeat IPC: 0.317147 cumulative IPC: 0.352289 (Simulation time: 0 hr 4 min 37 sec) 
Heartbeat CPU 0 instructions: 150000000 cycles: 213317232 heartbeat IPC: 0.318916 cumulative IPC: 0.345067 (Simulation time: 0 hr 5 min 7 sec) 
Heartbeat CPU 0 instructions: 160000000 cycles: 241297666 heartbeat IPC: 0.357393 cumulative IPC: 0.347062 (Simulation time: 0 hr 5 min 36 sec) 
Heartbeat CPU 0 instructions: 170000001 cycles: 269990321 heartbeat IPC: 0.348521 cumulative IPC: 0.34727 (Simulation time: 0 hr 6 min 7 sec) 
Heartbeat CPU 0 instructions: 180000000 cycles: 299206907 heartbeat IPC: 0.342271 cumulative IPC: 0.346637 (Simulation time: 0 hr 6 min 37 sec) 
Heartbeat CPU 0 instructions: 190000002 cycles: 328042785 heartbeat IPC: 0.34679 cumulative IPC: 0.346654 (Simulation time: 0 hr 7 min 7 sec) 
Heartbeat CPU 0 instructions: 200000000 cycles: 357220470 heartbeat IPC: 0.342728 cumulative IPC: 0.346257 (Simulation time: 0 hr 7 min 38 sec) 
Heartbeat CPU 0 instructions: 210000002 cycles: 385876963 heartbeat IPC: 0.348961 cumulative IPC: 0.346501 (Simulation time: 0 hr 8 min 8 sec) 
Heartbeat CPU 0 instructions: 220000000 cycles: 416970570 heartbeat IPC: 0.321609 cumulative IPC: 0.344281 (Simulation time: 0 hr 8 min 38 sec) 
Heartbeat CPU 0 instructions: 230000000 cycles: 445592347 heartbeat IPC: 0.349384 cumulative IPC: 0.344668 (Simulation time: 0 hr 9 min 7 sec) 
Heartbeat CPU 0 instructions: 240000000 cycles: 472407916 heartbeat IPC: 0.372918 cumulative IPC: 0.346543 (Simulation time: 0 hr 9 min 36 sec) 
Heartbeat CPU 0 instructions: 250000000 cycles: 503171498 heartbeat IPC: 0.32506 cumulative IPC: 0.345023 (Simulation time: 0 hr 10 min 7 sec) 
Heartbeat CPU 0 instructions: 260000000 cycles: 530680488 heartbeat IPC: 0.363518 cumulative IPC: 0.346124 (Simulation time: 0 hr 10 min 36 sec) 
Heartbeat CPU 0 instructions: 270000003 cycles: 559755401 heartbeat IPC: 0.343939 cumulative IPC: 0.345994 (Simulation time: 0 hr 11 min 8 sec) 
Heartbeat CPU 0 instructions: 280000000 cycles: 588662021 heartbeat IPC: 0.345941 cumulative IPC: 0.345991 (Simulation time: 0 hr 11 min 39 sec) 
Heartbeat CPU 0 instructions: 290000000 cycles: 618202929 heartbeat IPC: 0.338514 cumulative IPC: 0.34559 (Simulation time: 0 hr 12 min 10 sec) 
Heartbeat CPU 0 instructions: 300000000 cycles: 649798600 heartbeat IPC: 0.316499 cumulative IPC: 0.344009 (Simulation time: 0 hr 12 min 40 sec) 
Heartbeat CPU 0 instructions: 310000001 cycles: 680437842 heartbeat IPC: 0.326379 cumulative IPC: 0.343126 (Simulation time: 0 hr 13 min 10 sec) 
Heartbeat CPU 0 instructions: 320000000 cycles: 710088221 heartbeat IPC: 0.337264 cumulative IPC: 0.342855 (Simulation time: 0 hr 13 min 40 sec) 
Heartbeat CPU 0 instructions: 330000000 cycles: 739763636 heartbeat IPC: 0.336979 cumulative IPC: 0.342595 (Simulation time: 0 hr 14 min 10 sec) 
Heartbeat CPU 0 instructions: 340000000 cycles: 770282519 heartbeat IPC: 0.327666 cumulative IPC: 0.341946 (Simulation time: 0 hr 14 min 40 sec) 
Heartbeat CPU 0 instructions: 350000003 cycles: 798031889 heartbeat IPC: 0.360369 cumulative IPC: 0.342647 (Simulation time: 0 hr 15 min 9 sec) 
Heartbeat CPU 0 instructions: 360000000 cycles: 829357888 heartbeat IPC: 0.319224 cumulative IPC: 0.341683 (Simulation time: 0 hr 15 min 39 sec) 
Heartbeat CPU 0 instructions: 370000000 cycles: 860837744 heartbeat IPC: 0.317663 cumulative IPC: 0.340728 (Simulation time: 0 hr 16 min 9 sec) 
Heartbeat CPU 0 instructions: 380000000 cycles: 892801018 heartbeat IPC: 0.312859 cumulative IPC: 0.339648 (Simulation time: 0 hr 16 min 38 sec) 
Heartbeat CPU 0 instructions: 390000001 cycles: 923777239 heartbeat IPC: 0.322828 cumulative IPC: 0.339039 (Simulation time: 0 hr 17 min 8 sec) 
Heartbeat CPU 0 instructions: 400000000 cycles: 955649126 heartbeat IPC: 0.313756 cumulative IPC: 0.338131 (Simulation time: 0 hr 17 min 38 sec) 
Heartbeat CPU 0 instructions: 410000001 cycles: 986343681 heartbeat IPC: 0.325791 cumulative IPC: 0.337718 (Simulation time: 0 hr 18 min 7 sec) 
Heartbeat CPU 0 instructions: 420000000 cycles: 1017105036 heartbeat IPC: 0.325083 cumulative IPC: 0.337308 (Simulation time: 0 hr 18 min 37 sec) 
Heartbeat CPU 0 instructions: 430000002 cycles: 1048230275 heartbeat IPC: 0.321283 cumulative IPC: 0.336799 (Simulation time: 0 hr 19 min 6 sec) 
Heartbeat CPU 0 instructions: 440000000 cycles: 1080505485 heartbeat IPC: 0.309835 cumulative IPC: 0.335939 (Simulation time: 0 hr 19 min 35 sec) 
Heartbeat CPU 0 instructions: 450000002 cycles: 1112676025 heartbeat IPC: 0.310843 cumulative IPC: 0.335166 (Simulation time: 0 hr 20 min 3 sec) 
Heartbeat CPU 0 instructions: 460000000 cycles: 1143709844 heartbeat IPC: 0.322229 cumulative IPC: 0.334793 (Simulation time: 0 hr 20 min 32 sec) 
Heartbeat CPU 0 instructions: 470000000 cycles: 1174308460 heartbeat IPC: 0.326812 cumulative IPC: 0.334572 (Simulation time: 0 hr 21 min 0 sec) 
Heartbeat CPU 0 instructions: 480000000 cycles: 1205122755 heartbeat IPC: 0.324525 cumulative IPC: 0.3343 (Simulation time: 0 hr 21 min 28 sec) 
Heartbeat CPU 0 instructions: 490000000 cycles: 1235697699 heartbeat IPC: 0.327065 cumulative IPC: 0.33411 (Simulation time: 0 hr 21 min 56 sec) 
Heartbeat CPU 0 instructions: 500000000 cycles: 1266704678 heartbeat IPC: 0.322508 cumulative IPC: 0.33381 (Simulation time: 0 hr 22 min 25 sec) 
Heartbeat CPU 0 instructions: 510000000 cycles: 1302364019 heartbeat IPC: 0.280431 cumulative IPC: 0.332267 (Simulation time: 0 hr 22 min 55 sec) 
Heartbeat CPU 0 instructions: 520000000 cycles: 1330793138 heartbeat IPC: 0.351752 cumulative IPC: 0.332706 (Simulation time: 0 hr 23 min 24 sec) 
Heartbeat CPU 0 instructions: 530000001 cycles: 1361746053 heartbeat IPC: 0.323071 cumulative IPC: 0.332476 (Simulation time: 0 hr 23 min 52 sec) 
Heartbeat CPU 0 instructions: 540000000 cycles: 1391177422 heartbeat IPC: 0.339774 cumulative IPC: 0.332638 (Simulation time: 0 hr 24 min 21 sec) 
Heartbeat CPU 0 instructions: 550000001 cycles: 1420832146 heartbeat IPC: 0.337214 cumulative IPC: 0.332738 (Simulation time: 0 hr 24 min 51 sec) 
Heartbeat CPU 0 instructions: 560000000 cycles: 1446666801 heartbeat IPC: 0.387077 cumulative IPC: 0.333757 (Simulation time: 0 hr 25 min 19 sec) 
Heartbeat CPU 0 instructions: 570000000 cycles: 1477466448 heartbeat IPC: 0.324679 cumulative IPC: 0.333558 (Simulation time: 0 hr 25 min 48 sec) 
Heartbeat CPU 0 instructions: 580000000 cycles: 1506626028 heartbeat IPC: 0.34294 cumulative IPC: 0.333749 (Simulation time: 0 hr 26 min 16 sec) 
Heartbeat CPU 0 instructions: 590000001 cycles: 1532090399 heartbeat IPC: 0.392706 cumulative IPC: 0.334774 (Simulation time: 0 hr 26 min 43 sec) 
Heartbeat CPU 0 instructions: 600000000 cycles: 1559660857 heartbeat IPC: 0.362707 cumulative IPC: 0.335291 (Simulation time: 0 hr 27 min 11 sec) 
Finished CPU 0 instructions: 500000000 cycles: 1491242928 cumulative IPC: 0.335291 (Simulation time: 0 hr 27 min 11 sec) 

CPU 0 Branch Prediction Accuracy: 86.4311% MPKI: 26.2662
Number of Branches: 96788573 Number of Mispredictions: 13133102
Number of LOAD Instructions: 164682285
Number of LOAD Instructions (ROI): 164682285
Number of STORE Instructions: 78194750
Number of STORE Instructions (ROI): 78194750
Total Destination Memory Operands: 83268534
Total Destination Memory Operands (ROI): 83268534
Total Source Memory Operands: 164712438
Total Source Memory Operands (ROI): 164712438
Number of DEPENDED LOADS: 7051800
Number of DEPENDED LOADS (ROI): 7051800
Number of SQ_ADDED: 83268522
Number of SQ_ADDED (ROI): 83268522
Number of LQ_ADDED: 236615151
Number of LQ_ADDED (ROI): 236615151
Number of Instructions read from trace: 600000066

ChampSim completed all CPUs

Region of Interest Statistics

CPU 0 cumulative IPC: 0.335291 instructions: 500000000 cycles: 1491242928
ITLB TOTAL     ACCESS:  100535212  HIT:  100330766  MISS:     204446
ITLB LOAD      ACCESS:  100535212  HIT:  100330766  MISS:     204446
ITLB RFO       ACCESS:          0  HIT:          0  MISS:          0
ITLB PREFETCH  ACCESS:          0  HIT:          0  MISS:          0
ITLB WRITEBACK ACCESS:          0  HIT:          0  MISS:          0
ITLB PREFETCH  REQUESTED:          0  ISSUED:          0  USEFUL:          0  USELESS:          0
ITLB TOTAL MSHR MERGED:     172424
ITLB LOAD MSHR MERGED:     172424
ITLB RFO MSHR MERGED:          0
ITLB PREFETCH MSHR MERGED:          0
ITLB WRITEBACK MSHR MERGED:          0
ITLB TOTAL ACCESSES:  100707636 HITS:  100330766 MISSES:     376870
ITLB LOAD ACCESSES:  100707636 HITS:  100330766 MISSES:     376870
ITLB RFO ACCESSES:          0 HITS:          0 MISSES:          0
ITLB PREFETCH ACCESSES:          0 HITS:          0 MISSES:          0
ITLB WRITEBACK ACCESSES:          0 HITS:          0 MISSES:          0
ITLB RQ ACCESS:  500000057
ITLB RQ TO_CACHE:  100707636
ITLB RQ MERGED:  399292421
ITLB RQ FORWARD:          0
ITLB WQ ACCESS:          0
ITLB WQ TO_CACHE:          0
ITLB WQ MERGED:          0
ITLB WQ FORWARD:          0
DTLB TOTAL     ACCESS:  165361145  HIT:  164726791  MISS:     634354
DTLB LOAD      ACCESS:  106308385  HIT:  105738355  MISS:     570030
DTLB RFO       ACCESS:   59052760  HIT:   58988436  MISS:      64324
DTLB PREFETCH  ACCESS:          0  HIT:          0  MISS:          0
DTLB WRITEBACK ACCESS:          0  HIT:          0  MISS:          0
DTLB PREFETCH  REQUESTED:          0  ISSUED:          0  USEFUL:          0  USELESS:          0
DTLB TOTAL MSHR MERGED:      99371
DTLB LOAD MSHR MERGED:      59114
DTLB RFO MSHR MERGED:      40257
DTLB PREFETCH MSHR MERGED:          0
DTLB WRITEBACK MSHR MERGED:          0
DTLB TOTAL ACCESSES:  165460516 HITS:  164726791 MISSES:     733725
DTLB LOAD ACCESSES:  106367499 HITS:  105738355 MISSES:     629144
DTLB RFO ACCESSES:   59093017 HITS:   58988436 MISSES:     104581
DTLB PREFETCH ACCESSES:          0 HITS:          0 MISSES:          0
DTLB WRITEBACK ACCESSES:          0 HITS:          0 MISSES:          0
DTLB RQ ACCESS:  200319106
DTLB RQ TO_CACHE:  165460516
DTLB RQ MERGED:   34858590
DTLB RQ FORWARD:          0
DTLB WQ ACCESS:          0
DTLB WQ TO_CACHE:          0
DTLB WQ MERGED:          0
DTLB WQ FORWARD:          0
L1D TOTAL     ACCESS:  281894643  HIT:  273985189  MISS:    7909454
L1D LOAD      ACCESS:  110439713  HIT:  107159877  MISS:    3279836
L1D RFO       ACCESS:   67138365  HIT:   66248451  MISS:     889914
L1D PREFETCH  ACCESS:  104316565  HIT:  100576861  MISS:    3739704
L1D WRITEBACK ACCESS:          0  HIT:          0  MISS:          0
L1D PREFETCH  REQUESTED:  110841821  ISSUED:  109142185  USEFUL:    1660174  USELESS:    2079494
L1D TOTAL MSHR MERGED:    2867141
L1D LOAD MSHR MERGED:     501905
L1D RFO MSHR MERGED:    1847169
L1D PREFETCH MSHR MERGED:     518067
L1D WRITEBACK MSHR MERGED:          0
L1D TOTAL ACCESSES:  284789267 HITS:  274012672 MISSES:   10776595
L1D LOAD ACCESSES:  110843265 HITS:  107161321 MISSES:    3681944
L1D RFO ACCESSES:   68974361 HITS:   66248451 MISSES:    2725910
L1D PREFETCH ACCESSES:  104971641 HITS:  100602900 MISSES:    4368741
L1D WRITEBACK ACCESSES:          0 HITS:          0 MISSES:          0
L1D RQ ACCESS:  130766503
L1D RQ TO_CACHE:  110841824
L1D RQ MERGED:   19923235
L1D RQ FORWARD:          0
L1D WQ ACCESS:   69552603
L1D WQ TO_CACHE:   68974362
L1D WQ MERGED:     578241
L1D WQ FORWARD:      27483
L1I TOTAL     ACCESS:  126576787  HIT:  122338270  MISS:    4238517
L1I LOAD      ACCESS:  126576787  HIT:  122338270  MISS:    4238517
L1I RFO       ACCESS:          0  HIT:          0  MISS:          0
L1I PREFETCH  ACCESS:          0  HIT:          0  MISS:          0
L1I WRITEBACK ACCESS:          0  HIT:          0  MISS:          0
L1I PREFETCH  REQUESTED:          0  ISSUED:          0  USEFUL:          0  USELESS:          0
L1I TOTAL MSHR MERGED:    1840775
L1I LOAD MSHR MERGED:    1840775
L1I RFO MSHR MERGED:          0
L1I PREFETCH MSHR MERGED:          0
L1I WRITEBACK MSHR MERGED:          0
L1I TOTAL ACCESSES:  128417565 HITS:  122338270 MISSES:    6079295
L1I LOAD ACCESSES:  128417565 HITS:  122338270 MISSES:    6079295
L1I RFO ACCESSES:          0 HITS:          0 MISSES:          0
L1I PREFETCH ACCESSES:          0 HITS:          0 MISSES:          0
L1I WRITEBACK ACCESSES:          0 HITS:          0 MISSES:          0
L1I RQ ACCESS:  500000057
L1I RQ TO_CACHE:  128417565
L1I RQ MERGED:  371582492
L1I RQ FORWARD:          0
L1I WQ ACCESS:          0
L1I WQ TO_CACHE:          0
L1I WQ MERGED:          0
L1I WQ FORWARD:          0
L2C TOTAL     ACCESS:   14905153  HIT:   11158702  MISS:    3746451
L2C LOAD      ACCESS:    7418352  HIT:    5098500  MISS:    2319852
L2C RFO       ACCESS:     878645  HIT:     409954  MISS:     468691
L2C PREFETCH  ACCESS:    4568915  HIT:    3628272  MISS:     940643
L2C WRITEBACK ACCESS:    2039241  HIT:    2021976  MISS:      17265
L2C PREFETCH  REQUESTED:     842833  ISSUED:     842833  USEFUL:     203396  USELESS:     736954
L2C TOTAL MSHR MERGED:       7231
L2C LOAD MSHR MERGED:        872
L2C RFO MSHR MERGED:          0
L2C PREFETCH MSHR MERGED:       6359
L2C WRITEBACK MSHR MERGED:          0
L2C TOTAL ACCESSES:   14913304 HITS:   11159145 MISSES:    3754159
L2C LOAD ACCESSES:    7418556 HITS:    5098704 MISSES:    2319852
L2C RFO ACCESSES:     878741 HITS:     410050 MISSES:     468691
L2C PREFETCH ACCESSES:    4576766 HITS:    3628415 MISSES:     948351
L2C WRITEBACK ACCESSES:    2039241 HITS:    2021976 MISSES:      17265
L2C RQ ACCESS:    8297300
L2C RQ TO_CACHE:    8297000
L2C RQ MERGED:          0
L2C RQ FORWARD:          0
L2C WQ ACCESS:    2039241
L2C WQ TO_CACHE:    2039241
L2C WQ MERGED:          0
L2C WQ FORWARD:        443
LLC TOTAL     ACCESS:    4609798  HIT:    3035845  MISS:    1573953
LLC LOAD      ACCESS:    2318969  HIT:    1254522  MISS:    1064447
LLC RFO       ACCESS:     468683  HIT:     413392  MISS:      55291
LLC PREFETCH  ACCESS:     941871  HIT:     565814  MISS:     376057
LLC WRITEBACK ACCESS:     880275  HIT:     802117  MISS:      78158
LLC PREFETCH  REQUESTED:          0  ISSUED:          0  USEFUL:      10546  USELESS:     365010
LLC TOTAL MSHR MERGED:        103
LLC LOAD MSHR MERGED:         38
LLC RFO MSHR MERGED:          0
LLC PREFETCH MSHR MERGED:         65
LLC WRITEBACK MSHR MERGED:          0
LLC TOTAL ACCESSES:    4609931 HITS:    3035875 MISSES:    1574056
LLC LOAD ACCESSES:    2318980 HITS:    1254533 MISSES:    1064447
LLC RFO ACCESSES:     468691 HITS:     413400 MISSES:      55291
LLC PREFETCH ACCESSES:     941985 HITS:     565825 MISSES:     376160
LLC WRITEBACK ACCESSES:     880275 HITS:     802117 MISSES:      78158
LLC 0 RQ ACCESS:    2787671
LLC 0 RQ TO_CACHE:    2787652
LLC 0 RQ MERGED:          0
LLC 0 RQ FORWARD:          0
LLC WQ ACCESS:     880275
LLC WQ TO_CACHE:     880275
LLC WQ MERGED:          0
LLC WQ FORWARD:         30
Major fault: 0 Minor fault: 12862
CPU 0 L1D next line prefetcher final stats
CPU 0 L2C PC-based stride prefetcher final stats
All Misses: 1826605
All Hits: 3600199
SD Algo Stats - Switches: 92 SRR-Repls: 1025092 BRR-Repls: 175906

DRAM Statistics
 CHANNEL 0
 RQ ROW_BUFFER_HIT:     445509  ROW_BUFFER_MISS:    1046605
 DBUS_CONGESTED:     517912
 WQ ROW_BUFFER_HIT:       7933  ROW_BUFFER_MISS:     159384  FULL:          0

 AVG_CONGESTED_CYCLE: 13
LOADS RETIRED: 136549171
INSTR RETIRED: 500000000
