
*** ChampSim Multicore Out-of-Order Simulator ***

Warmup Instructions: 100000000
Simulation Instructions: 100000000
Number of CPUs: 1
LLC sets: 2048
LLC ways: 16
Clean RRIP Policies: 2614240726142407 Dirty RRIP Policies: 624140706241407 PSEL Width: 10 Track Set: 4294967295 PSEL Mask: 1 Demote Mask: 401000004010DS Algo: 0Window size: 0
Off-chip DRAM Size: 4096 MB Channels: 1 Width: 64-bit Data Rate: 1600 MT/s

CPU 0 runs /mnt/beegfs/iconst01/spec2017/Cam4.trace.gz
NOT SORTED
TRACE STRING: /mnt/beegfs/iconst01/spec2017/Cam4.trace.gz
SORTED
TRACE STRING: /mnt/beegfs/iconst01/spec2017/Cam4.trace.gz
INITIAL
TRACE STRING: /mnt/beegfs/iconst01/spec2017/Cam4.trace.gz

champsim_seed used: 325

CPU 0 L1D next line prefetcher
CPU 0 L2C IP-based stride prefetcher
Initialize DRRIP state
Assign rand_sets[0]: 454  LLC: 2048
rand_sets[0]: 454
Assign rand_sets[1]: 1662  LLC: 2048
rand_sets[1]: 1662
Assign rand_sets[2]: 1921  LLC: 2048
rand_sets[2]: 1921
Assign rand_sets[3]: 1131  LLC: 2048
rand_sets[3]: 1131
Assign rand_sets[4]: 331  LLC: 2048
rand_sets[4]: 331
Assign rand_sets[5]: 1531  LLC: 2048
rand_sets[5]: 1531
Assign rand_sets[6]: 482  LLC: 2048
rand_sets[6]: 482
Assign rand_sets[7]: 1275  LLC: 2048
rand_sets[7]: 1275
Assign rand_sets[8]: 1876  LLC: 2048
rand_sets[8]: 1876
Assign rand_sets[9]: 2038  LLC: 2048
rand_sets[9]: 2038
Assign rand_sets[10]: 701  LLC: 2048
rand_sets[10]: 701
Assign rand_sets[11]: 479  LLC: 2048
rand_sets[11]: 479
Assign rand_sets[12]: 892  LLC: 2048
rand_sets[12]: 892
Assign rand_sets[13]: 1820  LLC: 2048
rand_sets[13]: 1820
Assign rand_sets[14]: 1505  LLC: 2048
rand_sets[14]: 1505
Assign rand_sets[15]: 1159  LLC: 2048
rand_sets[15]: 1159
Assign rand_sets[16]: 513  LLC: 2048
rand_sets[16]: 513
Assign rand_sets[17]: 703  LLC: 2048
rand_sets[17]: 703
Assign rand_sets[18]: 561  LLC: 2048
rand_sets[18]: 561
Assign rand_sets[19]: 990  LLC: 2048
rand_sets[19]: 990
Assign rand_sets[20]: 342  LLC: 2048
rand_sets[20]: 342
Assign rand_sets[21]: 882  LLC: 2048
rand_sets[21]: 882
Assign rand_sets[22]: 15  LLC: 2048
rand_sets[22]: 15
Assign rand_sets[23]: 71  LLC: 2048
rand_sets[23]: 71
Assign rand_sets[24]: 1127  LLC: 2048
rand_sets[24]: 1127
Assign rand_sets[25]: 1382  LLC: 2048
rand_sets[25]: 1382
Assign rand_sets[26]: 647  LLC: 2048
rand_sets[26]: 647
Assign rand_sets[27]: 857  LLC: 2048
rand_sets[27]: 857
Assign rand_sets[28]: 1450  LLC: 2048
rand_sets[28]: 1450
Assign rand_sets[29]: 1160  LLC: 2048
rand_sets[29]: 1160
Assign rand_sets[30]: 1852  LLC: 2048
rand_sets[30]: 1852
Assign rand_sets[31]: 1881  LLC: 2048
rand_sets[31]: 1881
Assign rand_sets[32]: 1770  LLC: 2048
rand_sets[32]: 1770
Assign rand_sets[33]: 1622  LLC: 2048
rand_sets[33]: 1622
Assign rand_sets[34]: 275  LLC: 2048
rand_sets[34]: 275
Assign rand_sets[35]: 635  LLC: 2048
rand_sets[35]: 635
Assign rand_sets[36]: 466  LLC: 2048
rand_sets[36]: 466
Assign rand_sets[37]: 1413  LLC: 2048
rand_sets[37]: 1413
Assign rand_sets[38]: 417  LLC: 2048
rand_sets[38]: 417
Assign rand_sets[39]: 472  LLC: 2048
rand_sets[39]: 472
Assign rand_sets[40]: 1340  LLC: 2048
rand_sets[40]: 1340
Assign rand_sets[41]: 852  LLC: 2048
rand_sets[41]: 852
Assign rand_sets[42]: 1365  LLC: 2048
rand_sets[42]: 1365
Assign rand_sets[43]: 47  LLC: 2048
rand_sets[43]: 47
Assign rand_sets[44]: 823  LLC: 2048
rand_sets[44]: 823
Assign rand_sets[45]: 686  LLC: 2048
rand_sets[45]: 686
Assign rand_sets[46]: 1637  LLC: 2048
rand_sets[46]: 1637
Assign rand_sets[47]: 1115  LLC: 2048
rand_sets[47]: 1115
Assign rand_sets[48]: 986  LLC: 2048
rand_sets[48]: 986
Assign rand_sets[49]: 258  LLC: 2048
rand_sets[49]: 258
Assign rand_sets[50]: 633  LLC: 2048
rand_sets[50]: 633
Assign rand_sets[51]: 920  LLC: 2048
rand_sets[51]: 920
Assign rand_sets[52]: 204  LLC: 2048
rand_sets[52]: 204
Assign rand_sets[53]: 227  LLC: 2048
rand_sets[53]: 227
Assign rand_sets[54]: 1818  LLC: 2048
rand_sets[54]: 1818
Assign rand_sets[55]: 886  LLC: 2048
rand_sets[55]: 886
Assign rand_sets[56]: 1422  LLC: 2048
rand_sets[56]: 1422
Assign rand_sets[57]: 607  LLC: 2048
rand_sets[57]: 607
Assign rand_sets[58]: 217  LLC: 2048
rand_sets[58]: 217
Assign rand_sets[59]: 1945  LLC: 2048
rand_sets[59]: 1945
Assign rand_sets[60]: 143  LLC: 2048
rand_sets[60]: 143
Assign rand_sets[61]: 1311  LLC: 2048
rand_sets[61]: 1311
Assign rand_sets[62]: 319  LLC: 2048
rand_sets[62]: 319
Assign rand_sets[63]: 1846  LLC: 2048
rand_sets[63]: 1846
 CLEAN-RRIP-POLICY-1: 2-6-1-4-2-4-0-7- CLEAN-RRIP-POLICY-2: 2-6-1-4-2-4-0-7-
 DIRTY-RRIP-POLICY-1: 0-6-2-4-1-4-0-7- DIRTY-RRIP-POLICY-2: 0-6-2-4-1-4-0-7-
 PSEL width: 10
Heartbeat CPU 0 instructions: 10000000 cycles: 4859315 heartbeat IPC: 2.0579 cumulative IPC: 2.0579 (Simulation time: 0 hr 0 min 21 sec) 
Heartbeat CPU 0 instructions: 20000000 cycles: 9791054 heartbeat IPC: 2.02768 cumulative IPC: 2.04268 (Simulation time: 0 hr 0 min 41 sec) 
Heartbeat CPU 0 instructions: 30000001 cycles: 14563546 heartbeat IPC: 2.09534 cumulative IPC: 2.05994 (Simulation time: 0 hr 0 min 59 sec) 
Heartbeat CPU 0 instructions: 40000000 cycles: 19400580 heartbeat IPC: 2.06738 cumulative IPC: 2.06179 (Simulation time: 0 hr 1 min 20 sec) 
Heartbeat CPU 0 instructions: 50000000 cycles: 24257167 heartbeat IPC: 2.05906 cumulative IPC: 2.06125 (Simulation time: 0 hr 1 min 40 sec) 
Heartbeat CPU 0 instructions: 60000000 cycles: 29182793 heartbeat IPC: 2.0302 cumulative IPC: 2.05601 (Simulation time: 0 hr 2 min 0 sec) 
Heartbeat CPU 0 instructions: 70000001 cycles: 33958161 heartbeat IPC: 2.09408 cumulative IPC: 2.06136 (Simulation time: 0 hr 2 min 18 sec) 
Heartbeat CPU 0 instructions: 80000000 cycles: 38794420 heartbeat IPC: 2.06771 cumulative IPC: 2.06215 (Simulation time: 0 hr 2 min 39 sec) 
Heartbeat CPU 0 instructions: 90000002 cycles: 43648449 heartbeat IPC: 2.06014 cumulative IPC: 2.06193 (Simulation time: 0 hr 3 min 0 sec) 
Heartbeat CPU 0 instructions: 100000000 cycles: 48567363 heartbeat IPC: 2.03297 cumulative IPC: 2.059 (Simulation time: 0 hr 3 min 20 sec) 

Warmup complete CPU 0 instructions: 100000001 cycles: 48567364 (Simulation time: 0 hr 3 min 20 sec) 

Heartbeat CPU 0 instructions: 110000000 cycles: 61506458 heartbeat IPC: 0.772852 cumulative IPC: 0.772852 (Simulation time: 0 hr 3 min 47 sec) 
Heartbeat CPU 0 instructions: 120000000 cycles: 75264701 heartbeat IPC: 0.726837 cumulative IPC: 0.749138 (Simulation time: 0 hr 4 min 18 sec) 
Heartbeat CPU 0 instructions: 130000000 cycles: 89014973 heartbeat IPC: 0.727258 cumulative IPC: 0.7417 (Simulation time: 0 hr 4 min 48 sec) 
Heartbeat CPU 0 instructions: 140000000 cycles: 103294915 heartbeat IPC: 0.700283 cumulative IPC: 0.730893 (Simulation time: 0 hr 5 min 18 sec) 
Heartbeat CPU 0 instructions: 150000003 cycles: 116296100 heartbeat IPC: 0.769161 cumulative IPC: 0.738239 (Simulation time: 0 hr 5 min 45 sec) 
Heartbeat CPU 0 instructions: 160000000 cycles: 130040428 heartbeat IPC: 0.727573 cumulative IPC: 0.73644 (Simulation time: 0 hr 6 min 15 sec) 
Heartbeat CPU 0 instructions: 170000001 cycles: 143815090 heartbeat IPC: 0.725971 cumulative IPC: 0.734926 (Simulation time: 0 hr 6 min 44 sec) 
Heartbeat CPU 0 instructions: 180000000 cycles: 158071625 heartbeat IPC: 0.701433 cumulative IPC: 0.730565 (Simulation time: 0 hr 7 min 13 sec) 
Heartbeat CPU 0 instructions: 190000003 cycles: 171046305 heartbeat IPC: 0.770732 cumulative IPC: 0.73482 (Simulation time: 0 hr 7 min 39 sec) 
Heartbeat CPU 0 instructions: 200000000 cycles: 184786099 heartbeat IPC: 0.727813 cumulative IPC: 0.734113 (Simulation time: 0 hr 8 min 9 sec) 
Finished CPU 0 instructions: 100000000 cycles: 136218743 cumulative IPC: 0.734113 (Simulation time: 0 hr 8 min 9 sec) 

CPU 0 Branch Prediction Accuracy: 97.4985% MPKI: 2.24672
Number of Branches: 8981532 Number of Mispredictions: 224672
Number of LOAD Instructions: 48332152
Number of LOAD Instructions (ROI): 48332152
Number of STORE Instructions: 18647096
Number of STORE Instructions (ROI): 18647096
Total Destination Memory Operands: 19063849
Total Destination Memory Operands (ROI): 19063849
Total Source Memory Operands: 48332152
Total Source Memory Operands (ROI): 48332152
Number of DEPENDED LOADS: 4524008
Number of DEPENDED LOADS (ROI): 4524008
Number of SQ_ADDED: 19063839
Number of SQ_ADDED (ROI): 19063839
Number of LQ_ADDED: 56410779
Number of LQ_ADDED (ROI): 56410779
Number of Instructions read from trace: 200000196

ChampSim completed all CPUs

Region of Interest Statistics

CPU 0 cumulative IPC: 0.734113 instructions: 100000000 cycles: 136218743
ITLB TOTAL     ACCESS:   26990440  HIT:   26989894  MISS:        546
ITLB LOAD      ACCESS:   26990440  HIT:   26989894  MISS:        546
ITLB RFO       ACCESS:          0  HIT:          0  MISS:          0
ITLB PREFETCH  ACCESS:          0  HIT:          0  MISS:          0
ITLB WRITEBACK ACCESS:          0  HIT:          0  MISS:          0
ITLB PREFETCH  REQUESTED:          0  ISSUED:          0  USEFUL:          0  USELESS:          0
ITLB TOTAL MSHR MERGED:        943
ITLB LOAD MSHR MERGED:        943
ITLB RFO MSHR MERGED:          0
ITLB PREFETCH MSHR MERGED:          0
ITLB WRITEBACK MSHR MERGED:          0
ITLB TOTAL ACCESSES:   26991383 HITS:   26989894 MISSES:       1489
ITLB LOAD ACCESSES:   26991383 HITS:   26989894 MISSES:       1489
ITLB RFO ACCESSES:          0 HITS:          0 MISSES:          0
ITLB PREFETCH ACCESSES:          0 HITS:          0 MISSES:          0
ITLB WRITEBACK ACCESSES:          0 HITS:          0 MISSES:          0
ITLB RQ ACCESS:  100000142
ITLB RQ TO_CACHE:   26991383
ITLB RQ MERGED:   73008759
ITLB RQ FORWARD:          0
ITLB WQ ACCESS:          0
ITLB WQ TO_CACHE:          0
ITLB WQ MERGED:          0
ITLB WQ FORWARD:          0
DTLB TOTAL     ACCESS:   22284204  HIT:   22255590  MISS:      28614
DTLB LOAD      ACCESS:   15717034  HIT:   15690635  MISS:      26399
DTLB RFO       ACCESS:    6567170  HIT:    6564955  MISS:       2215
DTLB PREFETCH  ACCESS:          0  HIT:          0  MISS:          0
DTLB WRITEBACK ACCESS:          0  HIT:          0  MISS:          0
DTLB PREFETCH  REQUESTED:          0  ISSUED:          0  USEFUL:          0  USELESS:          0
DTLB TOTAL MSHR MERGED:      13584
DTLB LOAD MSHR MERGED:      10805
DTLB RFO MSHR MERGED:       2779
DTLB PREFETCH MSHR MERGED:          0
DTLB WRITEBACK MSHR MERGED:          0
DTLB TOTAL ACCESSES:   22297788 HITS:   22255590 MISSES:      42198
DTLB LOAD ACCESSES:   15727839 HITS:   15690635 MISSES:      37204
DTLB RFO ACCESSES:    6569949 HITS:    6564955 MISSES:       4994
DTLB PREFETCH ACCESSES:          0 HITS:          0 MISSES:          0
DTLB WRITEBACK ACCESSES:          0 HITS:          0 MISSES:          0
DTLB RQ ACCESS:   31441133
DTLB RQ TO_CACHE:   22297788
DTLB RQ MERGED:    9143345
DTLB RQ FORWARD:          0
DTLB WQ ACCESS:          0
DTLB WQ TO_CACHE:          0
DTLB WQ MERGED:          0
DTLB WQ FORWARD:          0
L1D TOTAL     ACCESS:   39492306  HIT:   37460236  MISS:    2032070
L1D LOAD      ACCESS:   15902099  HIT:   15032295  MISS:     869804
L1D RFO       ACCESS:    8947296  HIT:    8745487  MISS:     201809
L1D PREFETCH  ACCESS:   14642911  HIT:   13682454  MISS:     960457
L1D WRITEBACK ACCESS:          0  HIT:          0  MISS:          0
L1D PREFETCH  REQUESTED:   15983040  ISSUED:   15890942  USEFUL:     377810  USELESS:     582567
L1D TOTAL MSHR MERGED:     539489
L1D LOAD MSHR MERGED:     107832
L1D RFO MSHR MERGED:     315570
L1D PREFETCH MSHR MERGED:     116087
L1D WRITEBACK MSHR MERGED:          0
L1D TOTAL ACCESSES:   40035983 HITS:   37464424 MISSES:    2571559
L1D LOAD ACCESSES:   15985479 HITS:   15034734 MISSES:     950745
L1D RFO ACCESSES:    9262303 HITS:    8745487 MISSES:     516816
L1D PREFETCH ACCESSES:   14788201 HITS:   13684203 MISSES:    1103998
L1D WRITEBACK ACCESSES:          0 HITS:          0 MISSES:          0
L1D RQ ACCESS:   21846449
L1D RQ TO_CACHE:   15983040
L1D RQ MERGED:    5860970
L1D RQ FORWARD:          0
L1D WQ ACCESS:    9594682
L1D WQ TO_CACHE:    9262303
L1D WQ MERGED:     332379
L1D WQ FORWARD:       4188
L1I TOTAL     ACCESS:   32102984  HIT:   32049018  MISS:      53966
L1I LOAD      ACCESS:   32102984  HIT:   32049018  MISS:      53966
L1I RFO       ACCESS:          0  HIT:          0  MISS:          0
L1I PREFETCH  ACCESS:          0  HIT:          0  MISS:          0
L1I WRITEBACK ACCESS:          0  HIT:          0  MISS:          0
L1I PREFETCH  REQUESTED:          0  ISSUED:          0  USEFUL:          0  USELESS:          0
L1I TOTAL MSHR MERGED:      53873
L1I LOAD MSHR MERGED:      53873
L1I RFO MSHR MERGED:          0
L1I PREFETCH MSHR MERGED:          0
L1I WRITEBACK MSHR MERGED:          0
L1I TOTAL ACCESSES:   32156857 HITS:   32049018 MISSES:     107839
L1I LOAD ACCESSES:   32156857 HITS:   32049018 MISSES:     107839
L1I RFO ACCESSES:          0 HITS:          0 MISSES:          0
L1I PREFETCH ACCESSES:          0 HITS:          0 MISSES:          0
L1I WRITEBACK ACCESSES:          0 HITS:          0 MISSES:          0
L1I RQ ACCESS:  100000142
L1I RQ TO_CACHE:   32156857
L1I RQ MERGED:   67843285
L1I RQ FORWARD:          0
L1I WQ ACCESS:          0
L1I WQ TO_CACHE:          0
L1I WQ MERGED:          0
L1I WQ FORWARD:          0
L2C TOTAL     ACCESS:    2448245  HIT:    2138773  MISS:     309472
L2C LOAD      ACCESS:     896872  HIT:     787823  MISS:     109049
L2C RFO       ACCESS:     201229  HIT:     119442  MISS:      81787
L2C PREFETCH  ACCESS:    1083196  HIT:     965178  MISS:     118018
L2C WRITEBACK ACCESS:     266948  HIT:     266330  MISS:        618
L2C PREFETCH  REQUESTED:     100608  ISSUED:     100608  USEFUL:      25305  USELESS:      92873
L2C TOTAL MSHR MERGED:        392
L2C LOAD MSHR MERGED:         72
L2C RFO MSHR MERGED:          0
L2C PREFETCH MSHR MERGED:        320
L2C WRITEBACK MSHR MERGED:          0
L2C TOTAL ACCESSES:    2449274 HITS:    2138819 MISSES:     310455
L2C LOAD ACCESSES:     896879 HITS:     787830 MISSES:     109049
L2C RFO ACCESSES:     201246 HITS:     119459 MISSES:      81787
L2C PREFETCH ACCESSES:    1084201 HITS:     965200 MISSES:     119001
L2C WRITEBACK ACCESSES:     266948 HITS:     266330 MISSES:        618
L2C RQ ACCESS:    1098125
L2C RQ TO_CACHE:    1098101
L2C RQ MERGED:          0
L2C RQ FORWARD:          0
L2C WQ ACCESS:     266948
L2C WQ TO_CACHE:     266948
L2C WQ MERGED:          0
L2C WQ FORWARD:         46
LLC TOTAL     ACCESS:     415153  HIT:     291636  MISS:     123517
LLC LOAD      ACCESS:     108977  HIT:      47166  MISS:      61811
LLC RFO       ACCESS:      81787  HIT:      72612  MISS:       9175
LLC PREFETCH  ACCESS:     118652  HIT:      73074  MISS:      45578
LLC WRITEBACK ACCESS:     105737  HIT:      98784  MISS:       6953
LLC PREFETCH  REQUESTED:          0  ISSUED:          0  USEFUL:        789  USELESS:      44380
LLC TOTAL MSHR MERGED:         19
LLC LOAD MSHR MERGED:          8
LLC RFO MSHR MERGED:          0
LLC PREFETCH MSHR MERGED:         11
LLC WRITEBACK MSHR MERGED:          0
LLC TOTAL ACCESSES:     415176 HITS:     291640 MISSES:     123536
LLC LOAD ACCESSES:     108977 HITS:      47166 MISSES:      61811
LLC RFO ACCESSES:      81787 HITS:      72612 MISSES:       9175
LLC PREFETCH ACCESSES:     118675 HITS:      73078 MISSES:      45597
LLC WRITEBACK ACCESSES:     105737 HITS:      98784 MISSES:       6953
LLC 0 RQ ACCESS:     190764
LLC 0 RQ TO_CACHE:     190764
LLC 0 RQ MERGED:          0
LLC 0 RQ FORWARD:          0
LLC WQ ACCESS:     105737
LLC WQ TO_CACHE:     105737
LLC WQ MERGED:          0
LLC WQ FORWARD:          4
Major fault: 0 Minor fault: 2734
CPU 0 L1D next line prefetcher final stats
CPU 0 L2C PC-based stride prefetcher final stats
All Misses: 277306
All Hits: 464538
SD Algo Stats - Switches: 0 SRR-Repls: 115555 BRR-Repls: 0

DRAM Statistics
 CHANNEL 0
 RQ ROW_BUFFER_HIT:      81206  ROW_BUFFER_MISS:      35254
 DBUS_CONGESTED:      68780
 WQ ROW_BUFFER_HIT:        917  ROW_BUFFER_MISS:       9716  FULL:          0

 AVG_CONGESTED_CYCLE: 13
LOADS RETIRED: 24050969
INSTR RETIRED: 100000000
