
*** ChampSim Multicore Out-of-Order Simulator ***

Warmup Instructions: 100000000
Simulation Instructions: 500000000
Number of CPUs: 1
LLC sets: 2048
LLC ways: 16
Clean RRIP Policies: 1122021011220210 Dirty RRIP Policies: 2112022021120220 PSEL Width: 10 Track Set: 4294967295 PSEL Mask: 1 Demote Mask: 3230101332301013DS Algo: 0Window size: 0
Off-chip DRAM Size: 4096 MB Channels: 1 Width: 64-bit Data Rate: 1600 MT/s

CPU 0 runs /mnt/beegfs/iconst01/spec2017/Gcc.trace.gz
NOT SORTED
TRACE STRING: /mnt/beegfs/iconst01/spec2017/Gcc.trace.gz
SORTED
TRACE STRING: /mnt/beegfs/iconst01/spec2017/Gcc.trace.gz
INITIAL
TRACE STRING: /mnt/beegfs/iconst01/spec2017/Gcc.trace.gz

champsim_seed used: 269

CPU 0 L1D next line prefetcher
CPU 0 L2C IP-based stride prefetcher
Initialize DRRIP state
Assign rand_sets[0]: 454  LLC: 2048
rand_sets[0]: 454
Assign rand_sets[1]: 1662  LLC: 2048
rand_sets[1]: 1662
Assign rand_sets[2]: 1921  LLC: 2048
rand_sets[2]: 1921
Assign rand_sets[3]: 1131  LLC: 2048
rand_sets[3]: 1131
Assign rand_sets[4]: 331  LLC: 2048
rand_sets[4]: 331
Assign rand_sets[5]: 1531  LLC: 2048
rand_sets[5]: 1531
Assign rand_sets[6]: 482  LLC: 2048
rand_sets[6]: 482
Assign rand_sets[7]: 1275  LLC: 2048
rand_sets[7]: 1275
Assign rand_sets[8]: 1876  LLC: 2048
rand_sets[8]: 1876
Assign rand_sets[9]: 2038  LLC: 2048
rand_sets[9]: 2038
Assign rand_sets[10]: 701  LLC: 2048
rand_sets[10]: 701
Assign rand_sets[11]: 479  LLC: 2048
rand_sets[11]: 479
Assign rand_sets[12]: 892  LLC: 2048
rand_sets[12]: 892
Assign rand_sets[13]: 1820  LLC: 2048
rand_sets[13]: 1820
Assign rand_sets[14]: 1505  LLC: 2048
rand_sets[14]: 1505
Assign rand_sets[15]: 1159  LLC: 2048
rand_sets[15]: 1159
Assign rand_sets[16]: 513  LLC: 2048
rand_sets[16]: 513
Assign rand_sets[17]: 703  LLC: 2048
rand_sets[17]: 703
Assign rand_sets[18]: 561  LLC: 2048
rand_sets[18]: 561
Assign rand_sets[19]: 990  LLC: 2048
rand_sets[19]: 990
Assign rand_sets[20]: 342  LLC: 2048
rand_sets[20]: 342
Assign rand_sets[21]: 882  LLC: 2048
rand_sets[21]: 882
Assign rand_sets[22]: 15  LLC: 2048
rand_sets[22]: 15
Assign rand_sets[23]: 71  LLC: 2048
rand_sets[23]: 71
Assign rand_sets[24]: 1127  LLC: 2048
rand_sets[24]: 1127
Assign rand_sets[25]: 1382  LLC: 2048
rand_sets[25]: 1382
Assign rand_sets[26]: 647  LLC: 2048
rand_sets[26]: 647
Assign rand_sets[27]: 857  LLC: 2048
rand_sets[27]: 857
Assign rand_sets[28]: 1450  LLC: 2048
rand_sets[28]: 1450
Assign rand_sets[29]: 1160  LLC: 2048
rand_sets[29]: 1160
Assign rand_sets[30]: 1852  LLC: 2048
rand_sets[30]: 1852
Assign rand_sets[31]: 1881  LLC: 2048
rand_sets[31]: 1881
Assign rand_sets[32]: 1770  LLC: 2048
rand_sets[32]: 1770
Assign rand_sets[33]: 1622  LLC: 2048
rand_sets[33]: 1622
Assign rand_sets[34]: 275  LLC: 2048
rand_sets[34]: 275
Assign rand_sets[35]: 635  LLC: 2048
rand_sets[35]: 635
Assign rand_sets[36]: 466  LLC: 2048
rand_sets[36]: 466
Assign rand_sets[37]: 1413  LLC: 2048
rand_sets[37]: 1413
Assign rand_sets[38]: 417  LLC: 2048
rand_sets[38]: 417
Assign rand_sets[39]: 472  LLC: 2048
rand_sets[39]: 472
Assign rand_sets[40]: 1340  LLC: 2048
rand_sets[40]: 1340
Assign rand_sets[41]: 852  LLC: 2048
rand_sets[41]: 852
Assign rand_sets[42]: 1365  LLC: 2048
rand_sets[42]: 1365
Assign rand_sets[43]: 47  LLC: 2048
rand_sets[43]: 47
Assign rand_sets[44]: 823  LLC: 2048
rand_sets[44]: 823
Assign rand_sets[45]: 686  LLC: 2048
rand_sets[45]: 686
Assign rand_sets[46]: 1637  LLC: 2048
rand_sets[46]: 1637
Assign rand_sets[47]: 1115  LLC: 2048
rand_sets[47]: 1115
Assign rand_sets[48]: 986  LLC: 2048
rand_sets[48]: 986
Assign rand_sets[49]: 258  LLC: 2048
rand_sets[49]: 258
Assign rand_sets[50]: 633  LLC: 2048
rand_sets[50]: 633
Assign rand_sets[51]: 920  LLC: 2048
rand_sets[51]: 920
Assign rand_sets[52]: 204  LLC: 2048
rand_sets[52]: 204
Assign rand_sets[53]: 227  LLC: 2048
rand_sets[53]: 227
Assign rand_sets[54]: 1818  LLC: 2048
rand_sets[54]: 1818
Assign rand_sets[55]: 886  LLC: 2048
rand_sets[55]: 886
Assign rand_sets[56]: 1422  LLC: 2048
rand_sets[56]: 1422
Assign rand_sets[57]: 607  LLC: 2048
rand_sets[57]: 607
Assign rand_sets[58]: 217  LLC: 2048
rand_sets[58]: 217
Assign rand_sets[59]: 1945  LLC: 2048
rand_sets[59]: 1945
Assign rand_sets[60]: 143  LLC: 2048
rand_sets[60]: 143
Assign rand_sets[61]: 1311  LLC: 2048
rand_sets[61]: 1311
Assign rand_sets[62]: 319  LLC: 2048
rand_sets[62]: 319
Assign rand_sets[63]: 1846  LLC: 2048
rand_sets[63]: 1846
 CLEAN-RRIP-POLICY-1: 1-1-2-2-0-2-1-0- CLEAN-RRIP-POLICY-2: 1-1-2-2-0-2-1-0-
 DIRTY-RRIP-POLICY-1: 2-1-1-2-0-2-2-0- DIRTY-RRIP-POLICY-2: 2-1-1-2-0-2-2-0-
 PSEL width: 10
Heartbeat CPU 0 instructions: 10000001 cycles: 7315916 heartbeat IPC: 1.36688 cumulative IPC: 1.36688 (Simulation time: 0 hr 0 min 15 sec) 
Heartbeat CPU 0 instructions: 20000000 cycles: 14307803 heartbeat IPC: 1.43023 cumulative IPC: 1.39784 (Simulation time: 0 hr 0 min 30 sec) 
Heartbeat CPU 0 instructions: 30000001 cycles: 21021264 heartbeat IPC: 1.48954 cumulative IPC: 1.42713 (Simulation time: 0 hr 0 min 46 sec) 
Heartbeat CPU 0 instructions: 40000000 cycles: 27482263 heartbeat IPC: 1.54775 cumulative IPC: 1.45548 (Simulation time: 0 hr 1 min 2 sec) 
Heartbeat CPU 0 instructions: 50000001 cycles: 33584317 heartbeat IPC: 1.63879 cumulative IPC: 1.48879 (Simulation time: 0 hr 1 min 17 sec) 
Heartbeat CPU 0 instructions: 60000000 cycles: 40065686 heartbeat IPC: 1.54288 cumulative IPC: 1.49754 (Simulation time: 0 hr 1 min 33 sec) 
Heartbeat CPU 0 instructions: 70000000 cycles: 47105250 heartbeat IPC: 1.42054 cumulative IPC: 1.48603 (Simulation time: 0 hr 1 min 48 sec) 
Heartbeat CPU 0 instructions: 80000000 cycles: 54195362 heartbeat IPC: 1.41041 cumulative IPC: 1.47614 (Simulation time: 0 hr 2 min 3 sec) 
Heartbeat CPU 0 instructions: 90000003 cycles: 61200363 heartbeat IPC: 1.42755 cumulative IPC: 1.47058 (Simulation time: 0 hr 2 min 18 sec) 
Heartbeat CPU 0 instructions: 100000000 cycles: 68368451 heartbeat IPC: 1.39507 cumulative IPC: 1.46266 (Simulation time: 0 hr 2 min 32 sec) 

Warmup complete CPU 0 instructions: 100000004 cycles: 68368452 (Simulation time: 0 hr 2 min 32 sec) 

Heartbeat CPU 0 instructions: 110000003 cycles: 96178022 heartbeat IPC: 0.359589 cumulative IPC: 0.359588 (Simulation time: 0 hr 3 min 1 sec) 
Heartbeat CPU 0 instructions: 120000000 cycles: 123711799 heartbeat IPC: 0.36319 cumulative IPC: 0.36138 (Simulation time: 0 hr 3 min 30 sec) 
Heartbeat CPU 0 instructions: 130000000 cycles: 148774448 heartbeat IPC: 0.399 cumulative IPC: 0.373106 (Simulation time: 0 hr 3 min 59 sec) 
Heartbeat CPU 0 instructions: 140000000 cycles: 178498893 heartbeat IPC: 0.336423 cumulative IPC: 0.363206 (Simulation time: 0 hr 4 min 28 sec) 
Heartbeat CPU 0 instructions: 150000000 cycles: 208511870 heartbeat IPC: 0.333189 cumulative IPC: 0.356777 (Simulation time: 0 hr 4 min 57 sec) 
Heartbeat CPU 0 instructions: 160000000 cycles: 235989602 heartbeat IPC: 0.363931 cumulative IPC: 0.35795 (Simulation time: 0 hr 5 min 25 sec) 
Heartbeat CPU 0 instructions: 170000001 cycles: 264177684 heartbeat IPC: 0.35476 cumulative IPC: 0.357491 (Simulation time: 0 hr 5 min 55 sec) 
Heartbeat CPU 0 instructions: 180000000 cycles: 292770938 heartbeat IPC: 0.349733 cumulative IPC: 0.356502 (Simulation time: 0 hr 6 min 25 sec) 
Heartbeat CPU 0 instructions: 190000002 cycles: 320991075 heartbeat IPC: 0.354357 cumulative IPC: 0.356263 (Simulation time: 0 hr 6 min 54 sec) 
Heartbeat CPU 0 instructions: 200000000 cycles: 349426395 heartbeat IPC: 0.351675 cumulative IPC: 0.355799 (Simulation time: 0 hr 7 min 23 sec) 
Heartbeat CPU 0 instructions: 210000002 cycles: 377387384 heartbeat IPC: 0.357641 cumulative IPC: 0.355965 (Simulation time: 0 hr 7 min 52 sec) 
Heartbeat CPU 0 instructions: 220000000 cycles: 406701121 heartbeat IPC: 0.341137 cumulative IPC: 0.35468 (Simulation time: 0 hr 8 min 20 sec) 
Heartbeat CPU 0 instructions: 230000000 cycles: 434358017 heartbeat IPC: 0.361573 cumulative IPC: 0.355201 (Simulation time: 0 hr 8 min 48 sec) 
Heartbeat CPU 0 instructions: 240000000 cycles: 460328638 heartbeat IPC: 0.38505 cumulative IPC: 0.357179 (Simulation time: 0 hr 9 min 16 sec) 
Heartbeat CPU 0 instructions: 250000000 cycles: 490552173 heartbeat IPC: 0.330868 cumulative IPC: 0.355296 (Simulation time: 0 hr 9 min 46 sec) 
Heartbeat CPU 0 instructions: 260000000 cycles: 517749606 heartbeat IPC: 0.367682 cumulative IPC: 0.356045 (Simulation time: 0 hr 10 min 15 sec) 
Heartbeat CPU 0 instructions: 270000003 cycles: 546354415 heartbeat IPC: 0.349592 cumulative IPC: 0.355659 (Simulation time: 0 hr 10 min 45 sec) 
Heartbeat CPU 0 instructions: 280000000 cycles: 574680017 heartbeat IPC: 0.353037 cumulative IPC: 0.355512 (Simulation time: 0 hr 11 min 15 sec) 
Heartbeat CPU 0 instructions: 290000000 cycles: 603639326 heartbeat IPC: 0.345312 cumulative IPC: 0.35496 (Simulation time: 0 hr 11 min 45 sec) 
Heartbeat CPU 0 instructions: 300000000 cycles: 633784066 heartbeat IPC: 0.331733 cumulative IPC: 0.353722 (Simulation time: 0 hr 12 min 14 sec) 
Heartbeat CPU 0 instructions: 310000001 cycles: 663296964 heartbeat IPC: 0.338835 cumulative IPC: 0.352984 (Simulation time: 0 hr 12 min 42 sec) 
Heartbeat CPU 0 instructions: 320000000 cycles: 691712245 heartbeat IPC: 0.351923 cumulative IPC: 0.352935 (Simulation time: 0 hr 13 min 11 sec) 
Heartbeat CPU 0 instructions: 330000000 cycles: 720495719 heartbeat IPC: 0.347422 cumulative IPC: 0.352692 (Simulation time: 0 hr 13 min 39 sec) 
Heartbeat CPU 0 instructions: 340000000 cycles: 749923268 heartbeat IPC: 0.339818 cumulative IPC: 0.352136 (Simulation time: 0 hr 14 min 8 sec) 
Heartbeat CPU 0 instructions: 350000003 cycles: 777050658 heartbeat IPC: 0.368631 cumulative IPC: 0.352767 (Simulation time: 0 hr 14 min 37 sec) 
Heartbeat CPU 0 instructions: 360000000 cycles: 805308792 heartbeat IPC: 0.35388 cumulative IPC: 0.35281 (Simulation time: 0 hr 15 min 4 sec) 
Heartbeat CPU 0 instructions: 370000000 cycles: 833536165 heartbeat IPC: 0.354266 cumulative IPC: 0.352864 (Simulation time: 0 hr 15 min 32 sec) 
Heartbeat CPU 0 instructions: 380000000 cycles: 862127004 heartbeat IPC: 0.349762 cumulative IPC: 0.352752 (Simulation time: 0 hr 16 min 0 sec) 
Heartbeat CPU 0 instructions: 390000001 cycles: 889775147 heartbeat IPC: 0.361688 cumulative IPC: 0.353053 (Simulation time: 0 hr 16 min 27 sec) 
Heartbeat CPU 0 instructions: 400000000 cycles: 918484134 heartbeat IPC: 0.348323 cumulative IPC: 0.352893 (Simulation time: 0 hr 16 min 55 sec) 
Heartbeat CPU 0 instructions: 410000001 cycles: 945764261 heartbeat IPC: 0.366567 cumulative IPC: 0.353318 (Simulation time: 0 hr 17 min 22 sec) 
Heartbeat CPU 0 instructions: 420000000 cycles: 973054695 heartbeat IPC: 0.366429 cumulative IPC: 0.353714 (Simulation time: 0 hr 17 min 49 sec) 
Heartbeat CPU 0 instructions: 430000002 cycles: 1000805251 heartbeat IPC: 0.360353 cumulative IPC: 0.353911 (Simulation time: 0 hr 18 min 17 sec) 
Heartbeat CPU 0 instructions: 440000000 cycles: 1030547369 heartbeat IPC: 0.336223 cumulative IPC: 0.353365 (Simulation time: 0 hr 18 min 44 sec) 
Heartbeat CPU 0 instructions: 450000002 cycles: 1059886738 heartbeat IPC: 0.340839 cumulative IPC: 0.352994 (Simulation time: 0 hr 19 min 12 sec) 
Heartbeat CPU 0 instructions: 460000000 cycles: 1087606623 heartbeat IPC: 0.360752 cumulative IPC: 0.353205 (Simulation time: 0 hr 19 min 39 sec) 
Heartbeat CPU 0 instructions: 470000000 cycles: 1115238900 heartbeat IPC: 0.361896 cumulative IPC: 0.353434 (Simulation time: 0 hr 20 min 5 sec) 
Heartbeat CPU 0 instructions: 480000000 cycles: 1143120393 heartbeat IPC: 0.358661 cumulative IPC: 0.35357 (Simulation time: 0 hr 20 min 32 sec) 
Heartbeat CPU 0 instructions: 490000000 cycles: 1170700000 heartbeat IPC: 0.362587 cumulative IPC: 0.353796 (Simulation time: 0 hr 20 min 59 sec) 
Heartbeat CPU 0 instructions: 500000000 cycles: 1199056141 heartbeat IPC: 0.352657 cumulative IPC: 0.353767 (Simulation time: 0 hr 21 min 26 sec) 
Heartbeat CPU 0 instructions: 510000000 cycles: 1233621772 heartbeat IPC: 0.289305 cumulative IPC: 0.351855 (Simulation time: 0 hr 21 min 57 sec) 
Heartbeat CPU 0 instructions: 520000000 cycles: 1261723404 heartbeat IPC: 0.355851 cumulative IPC: 0.351949 (Simulation time: 0 hr 22 min 25 sec) 
Heartbeat CPU 0 instructions: 530000001 cycles: 1291219364 heartbeat IPC: 0.33903 cumulative IPC: 0.351637 (Simulation time: 0 hr 22 min 53 sec) 
Heartbeat CPU 0 instructions: 540000000 cycles: 1319377993 heartbeat IPC: 0.355131 cumulative IPC: 0.351716 (Simulation time: 0 hr 23 min 21 sec) 
Heartbeat CPU 0 instructions: 550000001 cycles: 1348644694 heartbeat IPC: 0.341685 cumulative IPC: 0.351487 (Simulation time: 0 hr 23 min 50 sec) 
Heartbeat CPU 0 instructions: 560000000 cycles: 1374105163 heartbeat IPC: 0.392766 cumulative IPC: 0.352292 (Simulation time: 0 hr 24 min 18 sec) 
Heartbeat CPU 0 instructions: 570000000 cycles: 1403856313 heartbeat IPC: 0.336121 cumulative IPC: 0.351931 (Simulation time: 0 hr 24 min 46 sec) 
Heartbeat CPU 0 instructions: 580000000 cycles: 1431895638 heartbeat IPC: 0.356642 cumulative IPC: 0.352028 (Simulation time: 0 hr 25 min 15 sec) 
Heartbeat CPU 0 instructions: 590000001 cycles: 1456659895 heartbeat IPC: 0.403808 cumulative IPC: 0.352952 (Simulation time: 0 hr 25 min 41 sec) 
Heartbeat CPU 0 instructions: 600000000 cycles: 1482770373 heartbeat IPC: 0.382988 cumulative IPC: 0.353506 (Simulation time: 0 hr 26 min 8 sec) 
Finished CPU 0 instructions: 500000000 cycles: 1414401943 cumulative IPC: 0.353506 (Simulation time: 0 hr 26 min 8 sec) 

CPU 0 Branch Prediction Accuracy: 86.4311% MPKI: 26.2662
Number of Branches: 96788573 Number of Mispredictions: 13133102
Number of LOAD Instructions: 164682285
Number of LOAD Instructions (ROI): 164682285
Number of STORE Instructions: 78194750
Number of STORE Instructions (ROI): 78194750
Total Destination Memory Operands: 83268534
Total Destination Memory Operands (ROI): 83268534
Total Source Memory Operands: 164712438
Total Source Memory Operands (ROI): 164712438
Number of DEPENDED LOADS: 7058019
Number of DEPENDED LOADS (ROI): 7058019
Number of SQ_ADDED: 83268522
Number of SQ_ADDED (ROI): 83268522
Number of LQ_ADDED: 236669383
Number of LQ_ADDED (ROI): 236669383
Number of Instructions read from trace: 600000066

ChampSim completed all CPUs

Region of Interest Statistics

CPU 0 cumulative IPC: 0.353506 instructions: 500000000 cycles: 1414401943
ITLB TOTAL     ACCESS:  100519177  HIT:  100314731  MISS:     204446
ITLB LOAD      ACCESS:  100519177  HIT:  100314731  MISS:     204446
ITLB RFO       ACCESS:          0  HIT:          0  MISS:          0
ITLB PREFETCH  ACCESS:          0  HIT:          0  MISS:          0
ITLB WRITEBACK ACCESS:          0  HIT:          0  MISS:          0
ITLB PREFETCH  REQUESTED:          0  ISSUED:          0  USEFUL:          0  USELESS:          0
ITLB TOTAL MSHR MERGED:     172424
ITLB LOAD MSHR MERGED:     172424
ITLB RFO MSHR MERGED:          0
ITLB PREFETCH MSHR MERGED:          0
ITLB WRITEBACK MSHR MERGED:          0
ITLB TOTAL ACCESSES:  100691601 HITS:  100314731 MISSES:     376870
ITLB LOAD ACCESSES:  100691601 HITS:  100314731 MISSES:     376870
ITLB RFO ACCESSES:          0 HITS:          0 MISSES:          0
ITLB PREFETCH ACCESSES:          0 HITS:          0 MISSES:          0
ITLB WRITEBACK ACCESSES:          0 HITS:          0 MISSES:          0
ITLB RQ ACCESS:  500000057
ITLB RQ TO_CACHE:  100691601
ITLB RQ MERGED:  399308456
ITLB RQ FORWARD:          0
ITLB WQ ACCESS:          0
ITLB WQ TO_CACHE:          0
ITLB WQ MERGED:          0
ITLB WQ FORWARD:          0
DTLB TOTAL     ACCESS:  165339128  HIT:  164704777  MISS:     634351
DTLB LOAD      ACCESS:  106294224  HIT:  105724271  MISS:     569953
DTLB RFO       ACCESS:   59044904  HIT:   58980506  MISS:      64398
DTLB PREFETCH  ACCESS:          0  HIT:          0  MISS:          0
DTLB WRITEBACK ACCESS:          0  HIT:          0  MISS:          0
DTLB PREFETCH  REQUESTED:          0  ISSUED:          0  USEFUL:          0  USELESS:          0
DTLB TOTAL MSHR MERGED:      99903
DTLB LOAD MSHR MERGED:      59402
DTLB RFO MSHR MERGED:      40501
DTLB PREFETCH MSHR MERGED:          0
DTLB WRITEBACK MSHR MERGED:          0
DTLB TOTAL ACCESSES:  165439031 HITS:  164704777 MISSES:     734254
DTLB LOAD ACCESSES:  106353626 HITS:  105724271 MISSES:     629355
DTLB RFO ACCESSES:   59085405 HITS:   58980506 MISSES:     104899
DTLB PREFETCH ACCESSES:          0 HITS:          0 MISSES:          0
DTLB WRITEBACK ACCESSES:          0 HITS:          0 MISSES:          0
DTLB RQ ACCESS:  200312880
DTLB RQ TO_CACHE:  165439031
DTLB RQ MERGED:   34873849
DTLB RQ FORWARD:          0
DTLB WQ ACCESS:          0
DTLB WQ TO_CACHE:          0
DTLB WQ MERGED:          0
DTLB WQ FORWARD:          0
L1D TOTAL     ACCESS:  281859678  HIT:  273950271  MISS:    7909407
L1D LOAD      ACCESS:  110429183  HIT:  107154205  MISS:    3274978
L1D RFO       ACCESS:   67113299  HIT:   66222494  MISS:     890805
L1D PREFETCH  ACCESS:  104317196  HIT:  100573572  MISS:    3743624
L1D WRITEBACK ACCESS:          0  HIT:          0  MISS:          0
L1D PREFETCH  REQUESTED:  110819401  ISSUED:  109120025  USEFUL:    1664310  USELESS:    2079278
L1D TOTAL MSHR MERGED:    2849655
L1D LOAD MSHR MERGED:     484733
L1D RFO MSHR MERGED:    1872825
L1D PREFETCH MSHR MERGED:     492097
L1D WRITEBACK MSHR MERGED:          0
L1D TOTAL ACCESSES:  284736789 HITS:  273977727 MISSES:   10759062
L1D LOAD ACCESSES:  110820865 HITS:  107155669 MISSES:    3665196
L1D RFO ACCESSES:   68974125 HITS:   66222494 MISSES:    2751631
L1D PREFETCH ACCESSES:  104941799 HITS:  100599564 MISSES:    4342235
L1D WRITEBACK ACCESSES:          0 HITS:          0 MISSES:          0
L1D RQ ACCESS:  130760277
L1D RQ TO_CACHE:  110819404
L1D RQ MERGED:   19939409
L1D RQ FORWARD:          0
L1D WQ ACCESS:   69552603
L1D WQ TO_CACHE:   68974126
L1D WQ MERGED:     578477
L1D WQ FORWARD:      27456
L1I TOTAL     ACCESS:  126566382  HIT:  122327828  MISS:    4238554
L1I LOAD      ACCESS:  126566382  HIT:  122327828  MISS:    4238554
L1I RFO       ACCESS:          0  HIT:          0  MISS:          0
L1I PREFETCH  ACCESS:          0  HIT:          0  MISS:          0
L1I WRITEBACK ACCESS:          0  HIT:          0  MISS:          0
L1I PREFETCH  REQUESTED:          0  ISSUED:          0  USEFUL:          0  USELESS:          0
L1I TOTAL MSHR MERGED:    1834805
L1I LOAD MSHR MERGED:    1834805
L1I RFO MSHR MERGED:          0
L1I PREFETCH MSHR MERGED:          0
L1I WRITEBACK MSHR MERGED:          0
L1I TOTAL ACCESSES:  128401190 HITS:  122327828 MISSES:    6073362
L1I LOAD ACCESSES:  128401190 HITS:  122327828 MISSES:    6073362
L1I RFO ACCESSES:          0 HITS:          0 MISSES:          0
L1I PREFETCH ACCESSES:          0 HITS:          0 MISSES:          0
L1I WRITEBACK ACCESSES:          0 HITS:          0 MISSES:          0
L1I RQ ACCESS:  500000057
L1I RQ TO_CACHE:  128401190
L1I RQ MERGED:  371598867
L1I RQ FORWARD:          0
L1I WQ ACCESS:          0
L1I WQ TO_CACHE:          0
L1I WQ MERGED:          0
L1I WQ FORWARD:          0
L2C TOTAL     ACCESS:   14905391  HIT:   11158838  MISS:    3746553
L2C LOAD      ACCESS:    7418809  HIT:    5098826  MISS:    2319983
L2C RFO       ACCESS:     878706  HIT:     409911  MISS:     468795
L2C PREFETCH  ACCESS:    4568628  HIT:    3628112  MISS:     940516
L2C WRITEBACK ACCESS:    2039248  HIT:    2021989  MISS:      17259
L2C PREFETCH  REQUESTED:     842726  ISSUED:     842726  USEFUL:     203395  USELESS:     736827
L2C TOTAL MSHR MERGED:       6957
L2C LOAD MSHR MERGED:        786
L2C RFO MSHR MERGED:          0
L2C PREFETCH MSHR MERGED:       6171
L2C WRITEBACK MSHR MERGED:          0
L2C TOTAL ACCESSES:   14913217 HITS:   11159290 MISSES:    3753927
L2C LOAD ACCESSES:    7419017 HITS:    5099034 MISSES:    2319983
L2C RFO ACCESSES:     878806 HITS:     410011 MISSES:     468795
L2C PREFETCH ACCESSES:    4576146 HITS:    3628256 MISSES:     947890
L2C WRITEBACK ACCESSES:    2039248 HITS:    2021989 MISSES:      17259
L2C RQ ACCESS:    8297826
L2C RQ TO_CACHE:    8297518
L2C RQ MERGED:          0
L2C RQ FORWARD:          0
L2C WQ ACCESS:    2039248
L2C WQ TO_CACHE:    2039248
L2C WQ MERGED:          0
L2C WQ FORWARD:        452
LLC TOTAL     ACCESS:    4609856  HIT:    3995042  MISS:     614814
LLC LOAD      ACCESS:    2319183  HIT:    2032543  MISS:     286640
LLC RFO       ACCESS:     468785  HIT:     394641  MISS:      74144
LLC PREFETCH  ACCESS:     941595  HIT:     705019  MISS:     236576
LLC WRITEBACK ACCESS:     880293  HIT:     862839  MISS:      17454
LLC PREFETCH  REQUESTED:          0  ISSUED:          0  USEFUL:      36830  USELESS:     199863
LLC TOTAL MSHR MERGED:        101
LLC LOAD MSHR MERGED:         30
LLC RFO MSHR MERGED:          0
LLC PREFETCH MSHR MERGED:         71
LLC WRITEBACK MSHR MERGED:          0
LLC TOTAL ACCESSES:    4609994 HITS:    3995079 MISSES:     614915
LLC LOAD ACCESSES:    2319197 HITS:    2032557 MISSES:     286640
LLC RFO ACCESSES:     468795 HITS:     394651 MISSES:      74144
LLC PREFETCH ACCESSES:     941709 HITS:     705032 MISSES:     236677
LLC WRITEBACK ACCESSES:     880293 HITS:     862839 MISSES:      17454
LLC 0 RQ ACCESS:    2787992
LLC 0 RQ TO_CACHE:    2787968
LLC 0 RQ MERGED:          0
LLC 0 RQ FORWARD:          0
LLC WQ ACCESS:     880293
LLC WQ TO_CACHE:     880293
LLC WQ MERGED:          0
LLC WQ FORWARD:         37
Major fault: 0 Minor fault: 12862
CPU 0 L1D next line prefetcher final stats
CPU 0 L2C PC-based stride prefetcher final stats
All Misses: 731026
All Hits: 4695836
SD Algo Stats - Switches: 0 SRR-Repls: 336726 BRR-Repls: 0

DRAM Statistics
 CHANNEL 0
 RQ ROW_BUFFER_HIT:     129387  ROW_BUFFER_MISS:     466422
 DBUS_CONGESTED:     358990
 WQ ROW_BUFFER_HIT:      15062  ROW_BUFFER_MISS:     185184  FULL:          0

 AVG_CONGESTED_CYCLE: 13
LOADS RETIRED: 136549171
INSTR RETIRED: 500000000
