
*** ChampSim Multicore Out-of-Order Simulator ***

Warmup Instructions: 100000000
Simulation Instructions: 500000000
Number of CPUs: 1
LLC sets: 2048
LLC ways: 16
Clean RRIP Policies: 2322031023220310 Dirty RRIP Policies: 302030003020300 PSEL Width: 10 Track Set: 4294967295 PSEL Mask: 1 Demote Mask: 22210400222104DS Algo: 0Window size: 0
Off-chip DRAM Size: 4096 MB Channels: 1 Width: 64-bit Data Rate: 1600 MT/s

CPU 0 runs /mnt/beegfs/iconst01/spec2017/Leela.trace.gz
NOT SORTED
TRACE STRING: /mnt/beegfs/iconst01/spec2017/Leela.trace.gz
SORTED
TRACE STRING: /mnt/beegfs/iconst01/spec2017/Leela.trace.gz
INITIAL
TRACE STRING: /mnt/beegfs/iconst01/spec2017/Leela.trace.gz

champsim_seed used: 483

CPU 0 L1D next line prefetcher
CPU 0 L2C IP-based stride prefetcher
Initialize DRRIP state
Assign rand_sets[0]: 454  LLC: 2048
rand_sets[0]: 454
Assign rand_sets[1]: 1662  LLC: 2048
rand_sets[1]: 1662
Assign rand_sets[2]: 1921  LLC: 2048
rand_sets[2]: 1921
Assign rand_sets[3]: 1131  LLC: 2048
rand_sets[3]: 1131
Assign rand_sets[4]: 331  LLC: 2048
rand_sets[4]: 331
Assign rand_sets[5]: 1531  LLC: 2048
rand_sets[5]: 1531
Assign rand_sets[6]: 482  LLC: 2048
rand_sets[6]: 482
Assign rand_sets[7]: 1275  LLC: 2048
rand_sets[7]: 1275
Assign rand_sets[8]: 1876  LLC: 2048
rand_sets[8]: 1876
Assign rand_sets[9]: 2038  LLC: 2048
rand_sets[9]: 2038
Assign rand_sets[10]: 701  LLC: 2048
rand_sets[10]: 701
Assign rand_sets[11]: 479  LLC: 2048
rand_sets[11]: 479
Assign rand_sets[12]: 892  LLC: 2048
rand_sets[12]: 892
Assign rand_sets[13]: 1820  LLC: 2048
rand_sets[13]: 1820
Assign rand_sets[14]: 1505  LLC: 2048
rand_sets[14]: 1505
Assign rand_sets[15]: 1159  LLC: 2048
rand_sets[15]: 1159
Assign rand_sets[16]: 513  LLC: 2048
rand_sets[16]: 513
Assign rand_sets[17]: 703  LLC: 2048
rand_sets[17]: 703
Assign rand_sets[18]: 561  LLC: 2048
rand_sets[18]: 561
Assign rand_sets[19]: 990  LLC: 2048
rand_sets[19]: 990
Assign rand_sets[20]: 342  LLC: 2048
rand_sets[20]: 342
Assign rand_sets[21]: 882  LLC: 2048
rand_sets[21]: 882
Assign rand_sets[22]: 15  LLC: 2048
rand_sets[22]: 15
Assign rand_sets[23]: 71  LLC: 2048
rand_sets[23]: 71
Assign rand_sets[24]: 1127  LLC: 2048
rand_sets[24]: 1127
Assign rand_sets[25]: 1382  LLC: 2048
rand_sets[25]: 1382
Assign rand_sets[26]: 647  LLC: 2048
rand_sets[26]: 647
Assign rand_sets[27]: 857  LLC: 2048
rand_sets[27]: 857
Assign rand_sets[28]: 1450  LLC: 2048
rand_sets[28]: 1450
Assign rand_sets[29]: 1160  LLC: 2048
rand_sets[29]: 1160
Assign rand_sets[30]: 1852  LLC: 2048
rand_sets[30]: 1852
Assign rand_sets[31]: 1881  LLC: 2048
rand_sets[31]: 1881
Assign rand_sets[32]: 1770  LLC: 2048
rand_sets[32]: 1770
Assign rand_sets[33]: 1622  LLC: 2048
rand_sets[33]: 1622
Assign rand_sets[34]: 275  LLC: 2048
rand_sets[34]: 275
Assign rand_sets[35]: 635  LLC: 2048
rand_sets[35]: 635
Assign rand_sets[36]: 466  LLC: 2048
rand_sets[36]: 466
Assign rand_sets[37]: 1413  LLC: 2048
rand_sets[37]: 1413
Assign rand_sets[38]: 417  LLC: 2048
rand_sets[38]: 417
Assign rand_sets[39]: 472  LLC: 2048
rand_sets[39]: 472
Assign rand_sets[40]: 1340  LLC: 2048
rand_sets[40]: 1340
Assign rand_sets[41]: 852  LLC: 2048
rand_sets[41]: 852
Assign rand_sets[42]: 1365  LLC: 2048
rand_sets[42]: 1365
Assign rand_sets[43]: 47  LLC: 2048
rand_sets[43]: 47
Assign rand_sets[44]: 823  LLC: 2048
rand_sets[44]: 823
Assign rand_sets[45]: 686  LLC: 2048
rand_sets[45]: 686
Assign rand_sets[46]: 1637  LLC: 2048
rand_sets[46]: 1637
Assign rand_sets[47]: 1115  LLC: 2048
rand_sets[47]: 1115
Assign rand_sets[48]: 986  LLC: 2048
rand_sets[48]: 986
Assign rand_sets[49]: 258  LLC: 2048
rand_sets[49]: 258
Assign rand_sets[50]: 633  LLC: 2048
rand_sets[50]: 633
Assign rand_sets[51]: 920  LLC: 2048
rand_sets[51]: 920
Assign rand_sets[52]: 204  LLC: 2048
rand_sets[52]: 204
Assign rand_sets[53]: 227  LLC: 2048
rand_sets[53]: 227
Assign rand_sets[54]: 1818  LLC: 2048
rand_sets[54]: 1818
Assign rand_sets[55]: 886  LLC: 2048
rand_sets[55]: 886
Assign rand_sets[56]: 1422  LLC: 2048
rand_sets[56]: 1422
Assign rand_sets[57]: 607  LLC: 2048
rand_sets[57]: 607
Assign rand_sets[58]: 217  LLC: 2048
rand_sets[58]: 217
Assign rand_sets[59]: 1945  LLC: 2048
rand_sets[59]: 1945
Assign rand_sets[60]: 143  LLC: 2048
rand_sets[60]: 143
Assign rand_sets[61]: 1311  LLC: 2048
rand_sets[61]: 1311
Assign rand_sets[62]: 319  LLC: 2048
rand_sets[62]: 319
Assign rand_sets[63]: 1846  LLC: 2048
rand_sets[63]: 1846
 CLEAN-RRIP-POLICY-1: 2-3-2-2-0-3-1-0- CLEAN-RRIP-POLICY-2: 2-3-2-2-0-3-1-0-
 DIRTY-RRIP-POLICY-1: 0-3-0-2-0-3-0-0- DIRTY-RRIP-POLICY-2: 0-3-0-2-0-3-0-0-
 PSEL width: 10
Heartbeat CPU 0 instructions: 10000000 cycles: 5810760 heartbeat IPC: 1.72095 cumulative IPC: 1.72095 (Simulation time: 0 hr 0 min 12 sec) 
Heartbeat CPU 0 instructions: 20000000 cycles: 11606059 heartbeat IPC: 1.72554 cumulative IPC: 1.72324 (Simulation time: 0 hr 0 min 25 sec) 
Heartbeat CPU 0 instructions: 30000000 cycles: 17388024 heartbeat IPC: 1.72952 cumulative IPC: 1.72533 (Simulation time: 0 hr 0 min 37 sec) 
Heartbeat CPU 0 instructions: 40000000 cycles: 23169613 heartbeat IPC: 1.72963 cumulative IPC: 1.7264 (Simulation time: 0 hr 0 min 49 sec) 
Heartbeat CPU 0 instructions: 50000003 cycles: 28984169 heartbeat IPC: 1.71982 cumulative IPC: 1.72508 (Simulation time: 0 hr 1 min 1 sec) 
Heartbeat CPU 0 instructions: 60000000 cycles: 34769434 heartbeat IPC: 1.72853 cumulative IPC: 1.72565 (Simulation time: 0 hr 1 min 14 sec) 
Heartbeat CPU 0 instructions: 70000001 cycles: 40536488 heartbeat IPC: 1.73399 cumulative IPC: 1.72684 (Simulation time: 0 hr 1 min 26 sec) 
Heartbeat CPU 0 instructions: 80000000 cycles: 46308609 heartbeat IPC: 1.73247 cumulative IPC: 1.72754 (Simulation time: 0 hr 1 min 39 sec) 
Heartbeat CPU 0 instructions: 90000002 cycles: 52118090 heartbeat IPC: 1.72132 cumulative IPC: 1.72685 (Simulation time: 0 hr 1 min 51 sec) 
Heartbeat CPU 0 instructions: 100000000 cycles: 57935761 heartbeat IPC: 1.7189 cumulative IPC: 1.72605 (Simulation time: 0 hr 2 min 3 sec) 

Warmup complete CPU 0 instructions: 100000001 cycles: 57935762 (Simulation time: 0 hr 2 min 3 sec) 

Heartbeat CPU 0 instructions: 110000001 cycles: 76357532 heartbeat IPC: 0.542836 cumulative IPC: 0.542836 (Simulation time: 0 hr 2 min 25 sec) 
Heartbeat CPU 0 instructions: 120000000 cycles: 94736058 heartbeat IPC: 0.544113 cumulative IPC: 0.543474 (Simulation time: 0 hr 2 min 47 sec) 
Heartbeat CPU 0 instructions: 130000002 cycles: 113055721 heartbeat IPC: 0.545862 cumulative IPC: 0.544267 (Simulation time: 0 hr 3 min 8 sec) 
Heartbeat CPU 0 instructions: 140000000 cycles: 131291258 heartbeat IPC: 0.54838 cumulative IPC: 0.54529 (Simulation time: 0 hr 3 min 30 sec) 
Heartbeat CPU 0 instructions: 150000002 cycles: 149398815 heartbeat IPC: 0.552256 cumulative IPC: 0.546669 (Simulation time: 0 hr 3 min 51 sec) 
Heartbeat CPU 0 instructions: 160000000 cycles: 167551061 heartbeat IPC: 0.550896 cumulative IPC: 0.547369 (Simulation time: 0 hr 4 min 13 sec) 
Heartbeat CPU 0 instructions: 170000001 cycles: 185752696 heartbeat IPC: 0.549401 cumulative IPC: 0.547658 (Simulation time: 0 hr 4 min 34 sec) 
Heartbeat CPU 0 instructions: 180000000 cycles: 204054010 heartbeat IPC: 0.546409 cumulative IPC: 0.547502 (Simulation time: 0 hr 4 min 56 sec) 
Heartbeat CPU 0 instructions: 190000001 cycles: 222401693 heartbeat IPC: 0.545028 cumulative IPC: 0.547226 (Simulation time: 0 hr 5 min 17 sec) 
Heartbeat CPU 0 instructions: 200000000 cycles: 240606124 heartbeat IPC: 0.549317 cumulative IPC: 0.547434 (Simulation time: 0 hr 5 min 39 sec) 
Heartbeat CPU 0 instructions: 210000002 cycles: 258733419 heartbeat IPC: 0.551654 cumulative IPC: 0.547815 (Simulation time: 0 hr 6 min 0 sec) 
Heartbeat CPU 0 instructions: 220000000 cycles: 276886392 heartbeat IPC: 0.550874 cumulative IPC: 0.548069 (Simulation time: 0 hr 6 min 22 sec) 
Heartbeat CPU 0 instructions: 230000002 cycles: 295105866 heartbeat IPC: 0.548863 cumulative IPC: 0.54813 (Simulation time: 0 hr 6 min 43 sec) 
Heartbeat CPU 0 instructions: 240000000 cycles: 313382959 heartbeat IPC: 0.547133 cumulative IPC: 0.548058 (Simulation time: 0 hr 7 min 5 sec) 
Heartbeat CPU 0 instructions: 250000003 cycles: 331551653 heartbeat IPC: 0.550397 cumulative IPC: 0.548214 (Simulation time: 0 hr 7 min 26 sec) 
Heartbeat CPU 0 instructions: 260000000 cycles: 349696849 heartbeat IPC: 0.55111 cumulative IPC: 0.548394 (Simulation time: 0 hr 7 min 48 sec) 
Heartbeat CPU 0 instructions: 270000001 cycles: 367933640 heartbeat IPC: 0.548342 cumulative IPC: 0.548391 (Simulation time: 0 hr 8 min 9 sec) 
Heartbeat CPU 0 instructions: 280000000 cycles: 387128630 heartbeat IPC: 0.520969 cumulative IPC: 0.546792 (Simulation time: 0 hr 8 min 32 sec) 
Heartbeat CPU 0 instructions: 290000001 cycles: 405140787 heartbeat IPC: 0.555181 cumulative IPC: 0.547227 (Simulation time: 0 hr 8 min 53 sec) 
Heartbeat CPU 0 instructions: 300000000 cycles: 423213035 heartbeat IPC: 0.553335 cumulative IPC: 0.547529 (Simulation time: 0 hr 9 min 15 sec) 
Heartbeat CPU 0 instructions: 310000000 cycles: 441428002 heartbeat IPC: 0.548999 cumulative IPC: 0.547599 (Simulation time: 0 hr 9 min 36 sec) 
Heartbeat CPU 0 instructions: 320000000 cycles: 459804274 heartbeat IPC: 0.54418 cumulative IPC: 0.547443 (Simulation time: 0 hr 9 min 58 sec) 
Heartbeat CPU 0 instructions: 330000000 cycles: 478099161 heartbeat IPC: 0.546601 cumulative IPC: 0.547406 (Simulation time: 0 hr 10 min 20 sec) 
Heartbeat CPU 0 instructions: 340000000 cycles: 496427023 heartbeat IPC: 0.545617 cumulative IPC: 0.547331 (Simulation time: 0 hr 10 min 42 sec) 
Heartbeat CPU 0 instructions: 350000000 cycles: 514658956 heartbeat IPC: 0.548488 cumulative IPC: 0.547378 (Simulation time: 0 hr 11 min 3 sec) 
Heartbeat CPU 0 instructions: 360000000 cycles: 532785316 heartbeat IPC: 0.551683 cumulative IPC: 0.547542 (Simulation time: 0 hr 11 min 25 sec) 
Heartbeat CPU 0 instructions: 370000000 cycles: 550796701 heartbeat IPC: 0.555204 cumulative IPC: 0.547822 (Simulation time: 0 hr 11 min 46 sec) 
Heartbeat CPU 0 instructions: 380000000 cycles: 568951108 heartbeat IPC: 0.55083 cumulative IPC: 0.547929 (Simulation time: 0 hr 12 min 8 sec) 
Heartbeat CPU 0 instructions: 390000003 cycles: 587222522 heartbeat IPC: 0.547303 cumulative IPC: 0.547907 (Simulation time: 0 hr 12 min 29 sec) 
Heartbeat CPU 0 instructions: 400000000 cycles: 605394069 heartbeat IPC: 0.550311 cumulative IPC: 0.547987 (Simulation time: 0 hr 12 min 51 sec) 
Heartbeat CPU 0 instructions: 410000002 cycles: 623619051 heartbeat IPC: 0.548697 cumulative IPC: 0.54801 (Simulation time: 0 hr 13 min 12 sec) 
Heartbeat CPU 0 instructions: 420000000 cycles: 641874102 heartbeat IPC: 0.547794 cumulative IPC: 0.548003 (Simulation time: 0 hr 13 min 33 sec) 
Heartbeat CPU 0 instructions: 430000003 cycles: 660209726 heartbeat IPC: 0.545387 cumulative IPC: 0.547923 (Simulation time: 0 hr 13 min 54 sec) 
Heartbeat CPU 0 instructions: 440000000 cycles: 678544669 heartbeat IPC: 0.545407 cumulative IPC: 0.547849 (Simulation time: 0 hr 14 min 15 sec) 
Heartbeat CPU 0 instructions: 450000003 cycles: 696781597 heartbeat IPC: 0.548338 cumulative IPC: 0.547863 (Simulation time: 0 hr 14 min 36 sec) 
Heartbeat CPU 0 instructions: 460000000 cycles: 714975608 heartbeat IPC: 0.549631 cumulative IPC: 0.547912 (Simulation time: 0 hr 14 min 57 sec) 
Heartbeat CPU 0 instructions: 470000001 cycles: 733091584 heartbeat IPC: 0.551999 cumulative IPC: 0.548022 (Simulation time: 0 hr 15 min 18 sec) 
Heartbeat CPU 0 instructions: 480000000 cycles: 751354555 heartbeat IPC: 0.547556 cumulative IPC: 0.548009 (Simulation time: 0 hr 15 min 39 sec) 
Heartbeat CPU 0 instructions: 490000000 cycles: 769592278 heartbeat IPC: 0.548314 cumulative IPC: 0.548017 (Simulation time: 0 hr 16 min 0 sec) 
Heartbeat CPU 0 instructions: 500000000 cycles: 787834024 heartbeat IPC: 0.548193 cumulative IPC: 0.548022 (Simulation time: 0 hr 16 min 21 sec) 
Heartbeat CPU 0 instructions: 510000003 cycles: 806018200 heartbeat IPC: 0.549929 cumulative IPC: 0.548068 (Simulation time: 0 hr 16 min 42 sec) 
Heartbeat CPU 0 instructions: 520000000 cycles: 824167453 heartbeat IPC: 0.550987 cumulative IPC: 0.548137 (Simulation time: 0 hr 17 min 3 sec) 
Heartbeat CPU 0 instructions: 530000001 cycles: 842427781 heartbeat IPC: 0.547635 cumulative IPC: 0.548125 (Simulation time: 0 hr 17 min 23 sec) 
Heartbeat CPU 0 instructions: 540000000 cycles: 860701747 heartbeat IPC: 0.547227 cumulative IPC: 0.548105 (Simulation time: 0 hr 17 min 44 sec) 
Heartbeat CPU 0 instructions: 550000002 cycles: 878943236 heartbeat IPC: 0.548201 cumulative IPC: 0.548107 (Simulation time: 0 hr 18 min 4 sec) 
Heartbeat CPU 0 instructions: 560000000 cycles: 897094946 heartbeat IPC: 0.550912 cumulative IPC: 0.548168 (Simulation time: 0 hr 18 min 25 sec) 
Heartbeat CPU 0 instructions: 570000003 cycles: 915322148 heartbeat IPC: 0.548631 cumulative IPC: 0.548178 (Simulation time: 0 hr 18 min 45 sec) 
Heartbeat CPU 0 instructions: 580000000 cycles: 933474768 heartbeat IPC: 0.550884 cumulative IPC: 0.548234 (Simulation time: 0 hr 19 min 6 sec) 
Heartbeat CPU 0 instructions: 590000000 cycles: 951626122 heartbeat IPC: 0.550923 cumulative IPC: 0.548288 (Simulation time: 0 hr 19 min 27 sec) 
Heartbeat CPU 0 instructions: 600000000 cycles: 969801505 heartbeat IPC: 0.550195 cumulative IPC: 0.548326 (Simulation time: 0 hr 19 min 47 sec) 
Finished CPU 0 instructions: 500000002 cycles: 911865757 cumulative IPC: 0.548326 (Simulation time: 0 hr 19 min 47 sec) 

CPU 0 Branch Prediction Accuracy: 84.5197% MPKI: 17.7348
Number of Branches: 57281827 Number of Mispredictions: 8867420
Number of LOAD Instructions: 149599668
Number of LOAD Instructions (ROI): 149599668
Number of STORE Instructions: 48204126
Number of STORE Instructions (ROI): 48204126
Total Destination Memory Operands: 56787011
Total Destination Memory Operands (ROI): 56787011
Total Source Memory Operands: 149599668
Total Source Memory Operands (ROI): 149599668
Number of DEPENDED LOADS: 8173510
Number of DEPENDED LOADS (ROI): 8173510
Number of SQ_ADDED: 56787004
Number of SQ_ADDED (ROI): 56787004
Number of LQ_ADDED: 236123297
Number of LQ_ADDED (ROI): 236123297
Number of Instructions read from trace: 600000094

ChampSim completed all CPUs

Region of Interest Statistics

CPU 0 cumulative IPC: 0.548326 instructions: 500000002 cycles: 911865757
ITLB TOTAL     ACCESS:   88352107  HIT:   88352063  MISS:         44
ITLB LOAD      ACCESS:   88352107  HIT:   88352063  MISS:         44
ITLB RFO       ACCESS:          0  HIT:          0  MISS:          0
ITLB PREFETCH  ACCESS:          0  HIT:          0  MISS:          0
ITLB WRITEBACK ACCESS:          0  HIT:          0  MISS:          0
ITLB PREFETCH  REQUESTED:          0  ISSUED:          0  USEFUL:          0  USELESS:          0
ITLB TOTAL MSHR MERGED:         55
ITLB LOAD MSHR MERGED:         55
ITLB RFO MSHR MERGED:          0
ITLB PREFETCH MSHR MERGED:          0
ITLB WRITEBACK MSHR MERGED:          0
ITLB TOTAL ACCESSES:   88352162 HITS:   88352063 MISSES:         99
ITLB LOAD ACCESSES:   88352162 HITS:   88352063 MISSES:         99
ITLB RFO ACCESSES:          0 HITS:          0 MISSES:          0
ITLB PREFETCH ACCESSES:          0 HITS:          0 MISSES:          0
ITLB WRITEBACK ACCESSES:          0 HITS:          0 MISSES:          0
ITLB RQ ACCESS:  500000064
ITLB RQ TO_CACHE:   88352162
ITLB RQ MERGED:  411647902
ITLB RQ FORWARD:          0
ITLB WQ ACCESS:          0
ITLB WQ TO_CACHE:          0
ITLB WQ MERGED:          0
ITLB WQ FORWARD:          0
DTLB TOTAL     ACCESS:  121280903  HIT:  121188116  MISS:      92787
DTLB LOAD      ACCESS:   81232475  HIT:   81143640  MISS:      88835
DTLB RFO       ACCESS:   40048428  HIT:   40044476  MISS:       3952
DTLB PREFETCH  ACCESS:          0  HIT:          0  MISS:          0
DTLB WRITEBACK ACCESS:          0  HIT:          0  MISS:          0
DTLB PREFETCH  REQUESTED:          0  ISSUED:          0  USEFUL:          0  USELESS:          0
DTLB TOTAL MSHR MERGED:       2661
DTLB LOAD MSHR MERGED:       2333
DTLB RFO MSHR MERGED:        328
DTLB PREFETCH MSHR MERGED:          0
DTLB WRITEBACK MSHR MERGED:          0
DTLB TOTAL ACCESSES:  121283564 HITS:  121188116 MISSES:      95448
DTLB LOAD ACCESSES:   81234808 HITS:   81143640 MISSES:      91168
DTLB RFO ACCESSES:   40048756 HITS:   40044476 MISSES:       4280
DTLB PREFETCH ACCESSES:          0 HITS:          0 MISSES:          0
DTLB WRITEBACK ACCESSES:          0 HITS:          0 MISSES:          0
DTLB RQ ACCESS:  164789722
DTLB RQ TO_CACHE:  121283564
DTLB RQ MERGED:   43506158
DTLB RQ FORWARD:          0
DTLB WQ ACCESS:          0
DTLB WQ TO_CACHE:          0
DTLB WQ MERGED:          0
DTLB WQ FORWARD:          0
L1D TOTAL     ACCESS:  217694765  HIT:  214695882  MISS:    2998883
L1D LOAD      ACCESS:   90566628  HIT:   89160940  MISS:    1405688
L1D RFO       ACCESS:   46154169  HIT:   45771804  MISS:     382365
L1D PREFETCH  ACCESS:   80973968  HIT:   79763138  MISS:    1210830
L1D WRITEBACK ACCESS:          0  HIT:          0  MISS:          0
L1D PREFETCH  REQUESTED:   90616321  ISSUED:   88239254  USEFUL:     597430  USELESS:     613419
L1D TOTAL MSHR MERGED:     357437
L1D LOAD MSHR MERGED:      55713
L1D RFO MSHR MERGED:     175345
L1D PREFETCH MSHR MERGED:     126379
L1D WRITEBACK MSHR MERGED:          0
L1D TOTAL ACCESSES:  218056764 HITS:  214700444 MISSES:    3356320
L1D LOAD ACCESSES:   90616321 HITS:   89160940 MISSES:    1455381
L1D RFO ACCESSES:   46328310 HITS:   45771804 MISSES:     556506
L1D PREFETCH ACCESSES:   81112133 HITS:   79767700 MISSES:    1344433
L1D WRITEBACK ACCESSES:          0 HITS:          0 MISSES:          0
L1D RQ ACCESS:  117521802
L1D RQ TO_CACHE:   90616321
L1D RQ MERGED:   26905481
L1D RQ FORWARD:          0
L1D WQ ACCESS:   47267919
L1D WQ TO_CACHE:   46328310
L1D WQ MERGED:     939609
L1D WQ FORWARD:       4562
L1I TOTAL     ACCESS:  112806704  HIT:  112711301  MISS:      95403
L1I LOAD      ACCESS:  112806704  HIT:  112711301  MISS:      95403
L1I RFO       ACCESS:          0  HIT:          0  MISS:          0
L1I PREFETCH  ACCESS:          0  HIT:          0  MISS:          0
L1I WRITEBACK ACCESS:          0  HIT:          0  MISS:          0
L1I PREFETCH  REQUESTED:          0  ISSUED:          0  USEFUL:          0  USELESS:          0
L1I TOTAL MSHR MERGED:      59474
L1I LOAD MSHR MERGED:      59474
L1I RFO MSHR MERGED:          0
L1I PREFETCH MSHR MERGED:          0
L1I WRITEBACK MSHR MERGED:          0
L1I TOTAL ACCESSES:  112866178 HITS:  112711301 MISSES:     154877
L1I LOAD ACCESSES:  112866178 HITS:  112711301 MISSES:     154877
L1I RFO ACCESSES:          0 HITS:          0 MISSES:          0
L1I PREFETCH ACCESSES:          0 HITS:          0 MISSES:          0
L1I WRITEBACK ACCESSES:          0 HITS:          0 MISSES:          0
L1I RQ ACCESS:  500000064
L1I RQ TO_CACHE:  112866178
L1I RQ MERGED:  387133886
L1I RQ FORWARD:          0
L1I WQ ACCESS:          0
L1I WQ TO_CACHE:          0
L1I WQ MERGED:          0
L1I WQ FORWARD:          0
L2C TOTAL     ACCESS:    4791662  HIT:    4716587  MISS:      75075
L2C LOAD      ACCESS:    1495053  HIT:    1468355  MISS:      26698
L2C RFO       ACCESS:     381153  HIT:     372272  MISS:       8881
L2C PREFETCH  ACCESS:    2135751  HIT:    2096387  MISS:      39364
L2C WRITEBACK ACCESS:     779705  HIT:     779573  MISS:        132
L2C PREFETCH  REQUESTED:     923258  ISSUED:     923258  USEFUL:      13161  USELESS:      26320
L2C TOTAL MSHR MERGED:       5554
L2C LOAD MSHR MERGED:        266
L2C RFO MSHR MERGED:          0
L2C PREFETCH MSHR MERGED:       5288
L2C WRITEBACK MSHR MERGED:          0
L2C TOTAL ACCESSES:    4797248 HITS:    4716619 MISSES:      80629
L2C LOAD ACCESSES:    1495071 HITS:    1468373 MISSES:      26698
L2C RFO ACCESSES:     381161 HITS:     372280 MISSES:       8881
L2C PREFETCH ACCESSES:    2141311 HITS:    2096393 MISSES:      44918
L2C WRITEBACK ACCESSES:     779705 HITS:     779573 MISSES:        132
L2C RQ ACCESS:    1876232
L2C RQ TO_CACHE:    1876206
L2C RQ MERGED:          0
L2C RQ FORWARD:          0
L2C WQ ACCESS:     779705
L2C WQ TO_CACHE:     779705
L2C WQ MERGED:          0
L2C WQ FORWARD:         32
LLC TOTAL     ACCESS:      95470  HIT:      66256  MISS:      29214
LLC LOAD      ACCESS:      26432  HIT:      23533  MISS:       2899
LLC RFO       ACCESS:       8881  HIT:        180  MISS:       8701
LLC PREFETCH  ACCESS:      39630  HIT:      29293  MISS:      10337
LLC WRITEBACK ACCESS:      20527  HIT:      13250  MISS:       7277
LLC PREFETCH  REQUESTED:          0  ISSUED:          0  USEFUL:        900  USELESS:         89
LLC TOTAL MSHR MERGED:          0
LLC LOAD MSHR MERGED:          0
LLC RFO MSHR MERGED:          0
LLC PREFETCH MSHR MERGED:          0
LLC WRITEBACK MSHR MERGED:          0
LLC TOTAL ACCESSES:      95470 HITS:      66256 MISSES:      29214
LLC LOAD ACCESSES:      26432 HITS:      23533 MISSES:       2899
LLC RFO ACCESSES:       8881 HITS:        180 MISSES:       8701
LLC PREFETCH ACCESSES:      39630 HITS:      29293 MISSES:      10337
LLC WRITEBACK ACCESSES:      20527 HITS:      13250 MISSES:       7277
LLC 0 RQ ACCESS:      35313
LLC 0 RQ TO_CACHE:      35313
LLC 0 RQ MERGED:          0
LLC 0 RQ FORWARD:          0
LLC WQ ACCESS:      20527
LLC WQ TO_CACHE:      20527
LLC WQ MERGED:          0
LLC WQ FORWARD:          0
Major fault: 0 Minor fault: 1378
CPU 0 L1D next line prefetcher final stats
CPU 0 L2C PC-based stride prefetcher final stats
All Misses: 37542
All Hits: 75405
SD Algo Stats - Switches: 0 SRR-Repls: 5688 BRR-Repls: 0

DRAM Statistics
 CHANNEL 0
 RQ ROW_BUFFER_HIT:      14850  ROW_BUFFER_MISS:       7028
 DBUS_CONGESTED:      10943
 WQ ROW_BUFFER_HIT:       2933  ROW_BUFFER_MISS:       3733  FULL:          0

 AVG_CONGESTED_CYCLE: 14
LOADS RETIRED: 124527094
INSTR RETIRED: 500000000
