
*** ChampSim Multicore Out-of-Order Simulator ***

Warmup Instructions: 100000000
Simulation Instructions: 500000000
Number of CPUs: 1
LLC sets: 2048
LLC ways: 16
Clean RRIP Policies: 2203112022031120 Dirty RRIP Policies: 1203210012032100 PSEL Width: 10 Track Set: 4294967295 PSEL Mask: 1 Demote Mask: 2102240121022401DS Algo: 0Window size: 0
Off-chip DRAM Size: 4096 MB Channels: 1 Width: 64-bit Data Rate: 1600 MT/s

CPU 0 runs /mnt/beegfs/iconst01/spec2017/Roms.trace.gz
NOT SORTED
TRACE STRING: /mnt/beegfs/iconst01/spec2017/Roms.trace.gz
SORTED
TRACE STRING: /mnt/beegfs/iconst01/spec2017/Roms.trace.gz
INITIAL
TRACE STRING: /mnt/beegfs/iconst01/spec2017/Roms.trace.gz

champsim_seed used: 417

CPU 0 L1D next line prefetcher
CPU 0 L2C IP-based stride prefetcher
Initialize DRRIP state
Assign rand_sets[0]: 454  LLC: 2048
rand_sets[0]: 454
Assign rand_sets[1]: 1662  LLC: 2048
rand_sets[1]: 1662
Assign rand_sets[2]: 1921  LLC: 2048
rand_sets[2]: 1921
Assign rand_sets[3]: 1131  LLC: 2048
rand_sets[3]: 1131
Assign rand_sets[4]: 331  LLC: 2048
rand_sets[4]: 331
Assign rand_sets[5]: 1531  LLC: 2048
rand_sets[5]: 1531
Assign rand_sets[6]: 482  LLC: 2048
rand_sets[6]: 482
Assign rand_sets[7]: 1275  LLC: 2048
rand_sets[7]: 1275
Assign rand_sets[8]: 1876  LLC: 2048
rand_sets[8]: 1876
Assign rand_sets[9]: 2038  LLC: 2048
rand_sets[9]: 2038
Assign rand_sets[10]: 701  LLC: 2048
rand_sets[10]: 701
Assign rand_sets[11]: 479  LLC: 2048
rand_sets[11]: 479
Assign rand_sets[12]: 892  LLC: 2048
rand_sets[12]: 892
Assign rand_sets[13]: 1820  LLC: 2048
rand_sets[13]: 1820
Assign rand_sets[14]: 1505  LLC: 2048
rand_sets[14]: 1505
Assign rand_sets[15]: 1159  LLC: 2048
rand_sets[15]: 1159
Assign rand_sets[16]: 513  LLC: 2048
rand_sets[16]: 513
Assign rand_sets[17]: 703  LLC: 2048
rand_sets[17]: 703
Assign rand_sets[18]: 561  LLC: 2048
rand_sets[18]: 561
Assign rand_sets[19]: 990  LLC: 2048
rand_sets[19]: 990
Assign rand_sets[20]: 342  LLC: 2048
rand_sets[20]: 342
Assign rand_sets[21]: 882  LLC: 2048
rand_sets[21]: 882
Assign rand_sets[22]: 15  LLC: 2048
rand_sets[22]: 15
Assign rand_sets[23]: 71  LLC: 2048
rand_sets[23]: 71
Assign rand_sets[24]: 1127  LLC: 2048
rand_sets[24]: 1127
Assign rand_sets[25]: 1382  LLC: 2048
rand_sets[25]: 1382
Assign rand_sets[26]: 647  LLC: 2048
rand_sets[26]: 647
Assign rand_sets[27]: 857  LLC: 2048
rand_sets[27]: 857
Assign rand_sets[28]: 1450  LLC: 2048
rand_sets[28]: 1450
Assign rand_sets[29]: 1160  LLC: 2048
rand_sets[29]: 1160
Assign rand_sets[30]: 1852  LLC: 2048
rand_sets[30]: 1852
Assign rand_sets[31]: 1881  LLC: 2048
rand_sets[31]: 1881
Assign rand_sets[32]: 1770  LLC: 2048
rand_sets[32]: 1770
Assign rand_sets[33]: 1622  LLC: 2048
rand_sets[33]: 1622
Assign rand_sets[34]: 275  LLC: 2048
rand_sets[34]: 275
Assign rand_sets[35]: 635  LLC: 2048
rand_sets[35]: 635
Assign rand_sets[36]: 466  LLC: 2048
rand_sets[36]: 466
Assign rand_sets[37]: 1413  LLC: 2048
rand_sets[37]: 1413
Assign rand_sets[38]: 417  LLC: 2048
rand_sets[38]: 417
Assign rand_sets[39]: 472  LLC: 2048
rand_sets[39]: 472
Assign rand_sets[40]: 1340  LLC: 2048
rand_sets[40]: 1340
Assign rand_sets[41]: 852  LLC: 2048
rand_sets[41]: 852
Assign rand_sets[42]: 1365  LLC: 2048
rand_sets[42]: 1365
Assign rand_sets[43]: 47  LLC: 2048
rand_sets[43]: 47
Assign rand_sets[44]: 823  LLC: 2048
rand_sets[44]: 823
Assign rand_sets[45]: 686  LLC: 2048
rand_sets[45]: 686
Assign rand_sets[46]: 1637  LLC: 2048
rand_sets[46]: 1637
Assign rand_sets[47]: 1115  LLC: 2048
rand_sets[47]: 1115
Assign rand_sets[48]: 986  LLC: 2048
rand_sets[48]: 986
Assign rand_sets[49]: 258  LLC: 2048
rand_sets[49]: 258
Assign rand_sets[50]: 633  LLC: 2048
rand_sets[50]: 633
Assign rand_sets[51]: 920  LLC: 2048
rand_sets[51]: 920
Assign rand_sets[52]: 204  LLC: 2048
rand_sets[52]: 204
Assign rand_sets[53]: 227  LLC: 2048
rand_sets[53]: 227
Assign rand_sets[54]: 1818  LLC: 2048
rand_sets[54]: 1818
Assign rand_sets[55]: 886  LLC: 2048
rand_sets[55]: 886
Assign rand_sets[56]: 1422  LLC: 2048
rand_sets[56]: 1422
Assign rand_sets[57]: 607  LLC: 2048
rand_sets[57]: 607
Assign rand_sets[58]: 217  LLC: 2048
rand_sets[58]: 217
Assign rand_sets[59]: 1945  LLC: 2048
rand_sets[59]: 1945
Assign rand_sets[60]: 143  LLC: 2048
rand_sets[60]: 143
Assign rand_sets[61]: 1311  LLC: 2048
rand_sets[61]: 1311
Assign rand_sets[62]: 319  LLC: 2048
rand_sets[62]: 319
Assign rand_sets[63]: 1846  LLC: 2048
rand_sets[63]: 1846
 CLEAN-RRIP-POLICY-1: 2-2-0-3-1-1-2-0- CLEAN-RRIP-POLICY-2: 2-2-0-3-1-1-2-0-
 DIRTY-RRIP-POLICY-1: 1-2-0-3-2-1-0-0- DIRTY-RRIP-POLICY-2: 1-2-0-3-2-1-0-0-
 PSEL width: 10
Heartbeat CPU 0 instructions: 10000000 cycles: 4688066 heartbeat IPC: 2.13308 cumulative IPC: 2.13308 (Simulation time: 0 hr 0 min 17 sec) 
Heartbeat CPU 0 instructions: 20000000 cycles: 9325334 heartbeat IPC: 2.15644 cumulative IPC: 2.1447 (Simulation time: 0 hr 0 min 34 sec) 
Heartbeat CPU 0 instructions: 30000003 cycles: 14019724 heartbeat IPC: 2.1302 cumulative IPC: 2.13984 (Simulation time: 0 hr 0 min 50 sec) 
Heartbeat CPU 0 instructions: 40000000 cycles: 18670154 heartbeat IPC: 2.15034 cumulative IPC: 2.14246 (Simulation time: 0 hr 1 min 7 sec) 
Heartbeat CPU 0 instructions: 50000003 cycles: 23323543 heartbeat IPC: 2.14897 cumulative IPC: 2.14376 (Simulation time: 0 hr 1 min 24 sec) 
Heartbeat CPU 0 instructions: 60000000 cycles: 27976211 heartbeat IPC: 2.1493 cumulative IPC: 2.14468 (Simulation time: 0 hr 1 min 41 sec) 
Heartbeat CPU 0 instructions: 70000002 cycles: 32367329 heartbeat IPC: 2.27732 cumulative IPC: 2.16267 (Simulation time: 0 hr 1 min 56 sec) 
Heartbeat CPU 0 instructions: 80000000 cycles: 36304092 heartbeat IPC: 2.54016 cumulative IPC: 2.20361 (Simulation time: 0 hr 2 min 8 sec) 
Heartbeat CPU 0 instructions: 90000000 cycles: 40249344 heartbeat IPC: 2.53469 cumulative IPC: 2.23606 (Simulation time: 0 hr 2 min 20 sec) 
Heartbeat CPU 0 instructions: 100000000 cycles: 44211676 heartbeat IPC: 2.52377 cumulative IPC: 2.26185 (Simulation time: 0 hr 2 min 32 sec) 

Warmup complete CPU 0 instructions: 100000002 cycles: 44211677 (Simulation time: 0 hr 2 min 32 sec) 

Heartbeat CPU 0 instructions: 110000000 cycles: 52966611 heartbeat IPC: 1.14221 cumulative IPC: 1.14221 (Simulation time: 0 hr 2 min 50 sec) 
Heartbeat CPU 0 instructions: 120000000 cycles: 61793795 heartbeat IPC: 1.13286 cumulative IPC: 1.13752 (Simulation time: 0 hr 3 min 9 sec) 
Heartbeat CPU 0 instructions: 130000002 cycles: 70672526 heartbeat IPC: 1.12629 cumulative IPC: 1.13375 (Simulation time: 0 hr 3 min 28 sec) 
Heartbeat CPU 0 instructions: 140000000 cycles: 79366194 heartbeat IPC: 1.15026 cumulative IPC: 1.13783 (Simulation time: 0 hr 3 min 47 sec) 
Heartbeat CPU 0 instructions: 150000003 cycles: 88252241 heartbeat IPC: 1.12536 cumulative IPC: 1.13532 (Simulation time: 0 hr 4 min 6 sec) 
Heartbeat CPU 0 instructions: 160000000 cycles: 98730430 heartbeat IPC: 0.954363 cumulative IPC: 1.10054 (Simulation time: 0 hr 4 min 27 sec) 
Heartbeat CPU 0 instructions: 170000000 cycles: 111331292 heartbeat IPC: 0.793597 cumulative IPC: 1.04291 (Simulation time: 0 hr 4 min 50 sec) 
Heartbeat CPU 0 instructions: 180000000 cycles: 123880103 heartbeat IPC: 0.796888 cumulative IPC: 1.00416 (Simulation time: 0 hr 5 min 13 sec) 
Heartbeat CPU 0 instructions: 190000000 cycles: 136655736 heartbeat IPC: 0.78274 cumulative IPC: 0.973562 (Simulation time: 0 hr 5 min 37 sec) 
Heartbeat CPU 0 instructions: 200000000 cycles: 150447385 heartbeat IPC: 0.725076 cumulative IPC: 0.941303 (Simulation time: 0 hr 6 min 0 sec) 
Heartbeat CPU 0 instructions: 210000001 cycles: 164383061 heartbeat IPC: 0.717583 cumulative IPC: 0.915359 (Simulation time: 0 hr 6 min 24 sec) 
Heartbeat CPU 0 instructions: 220000000 cycles: 178112986 heartbeat IPC: 0.728336 cumulative IPC: 0.896182 (Simulation time: 0 hr 6 min 48 sec) 
Heartbeat CPU 0 instructions: 230000000 cycles: 191673487 heartbeat IPC: 0.737436 cumulative IPC: 0.881584 (Simulation time: 0 hr 7 min 13 sec) 
Heartbeat CPU 0 instructions: 240000000 cycles: 205319332 heartbeat IPC: 0.732824 cumulative IPC: 0.868984 (Simulation time: 0 hr 7 min 37 sec) 
Heartbeat CPU 0 instructions: 250000003 cycles: 216408830 heartbeat IPC: 0.901754 cumulative IPC: 0.871095 (Simulation time: 0 hr 7 min 59 sec) 
Heartbeat CPU 0 instructions: 260000000 cycles: 224256649 heartbeat IPC: 1.27424 cumulative IPC: 0.888667 (Simulation time: 0 hr 8 min 19 sec) 
Heartbeat CPU 0 instructions: 270000003 cycles: 232539409 heartbeat IPC: 1.20733 cumulative IPC: 0.902682 (Simulation time: 0 hr 8 min 39 sec) 
Heartbeat CPU 0 instructions: 280000000 cycles: 240973127 heartbeat IPC: 1.18572 cumulative IPC: 0.914813 (Simulation time: 0 hr 8 min 59 sec) 
Heartbeat CPU 0 instructions: 290000000 cycles: 249600852 heartbeat IPC: 1.15905 cumulative IPC: 0.925073 (Simulation time: 0 hr 9 min 20 sec) 
Heartbeat CPU 0 instructions: 300000000 cycles: 258246310 heartbeat IPC: 1.15668 cumulative IPC: 0.934428 (Simulation time: 0 hr 9 min 40 sec) 
Heartbeat CPU 0 instructions: 310000000 cycles: 266930663 heartbeat IPC: 1.1515 cumulative IPC: 0.942892 (Simulation time: 0 hr 10 min 1 sec) 
Heartbeat CPU 0 instructions: 320000000 cycles: 275689193 heartbeat IPC: 1.14174 cumulative IPC: 0.950416 (Simulation time: 0 hr 10 min 23 sec) 
Heartbeat CPU 0 instructions: 330000002 cycles: 284380297 heartbeat IPC: 1.1506 cumulative IPC: 0.95766 (Simulation time: 0 hr 10 min 44 sec) 
Heartbeat CPU 0 instructions: 340000000 cycles: 294387811 heartbeat IPC: 0.999249 cumulative IPC: 0.959324 (Simulation time: 0 hr 11 min 7 sec) 
Heartbeat CPU 0 instructions: 350000001 cycles: 302839711 heartbeat IPC: 1.18317 cumulative IPC: 0.966639 (Simulation time: 0 hr 11 min 27 sec) 
Heartbeat CPU 0 instructions: 360000000 cycles: 311316968 heartbeat IPC: 1.17963 cumulative IPC: 0.973399 (Simulation time: 0 hr 11 min 48 sec) 
Heartbeat CPU 0 instructions: 370000001 cycles: 319807409 heartbeat IPC: 1.1778 cumulative IPC: 0.979696 (Simulation time: 0 hr 12 min 8 sec) 
Heartbeat CPU 0 instructions: 380000000 cycles: 328263594 heartbeat IPC: 1.18257 cumulative IPC: 0.985735 (Simulation time: 0 hr 12 min 29 sec) 
Heartbeat CPU 0 instructions: 390000001 cycles: 336558619 heartbeat IPC: 1.20554 cumulative IPC: 0.991972 (Simulation time: 0 hr 12 min 49 sec) 
Heartbeat CPU 0 instructions: 400000000 cycles: 344933665 heartbeat IPC: 1.19402 cumulative IPC: 0.997599 (Simulation time: 0 hr 13 min 9 sec) 
Heartbeat CPU 0 instructions: 410000003 cycles: 353224042 heartbeat IPC: 1.20622 cumulative IPC: 1.0032 (Simulation time: 0 hr 13 min 29 sec) 
Heartbeat CPU 0 instructions: 420000000 cycles: 361608009 heartbeat IPC: 1.19275 cumulative IPC: 1.0082 (Simulation time: 0 hr 13 min 49 sec) 
Heartbeat CPU 0 instructions: 430000001 cycles: 369913408 heartbeat IPC: 1.20404 cumulative IPC: 1.0132 (Simulation time: 0 hr 14 min 9 sec) 
Heartbeat CPU 0 instructions: 440000000 cycles: 378160822 heartbeat IPC: 1.2125 cumulative IPC: 1.01812 (Simulation time: 0 hr 14 min 29 sec) 
Heartbeat CPU 0 instructions: 450000001 cycles: 387692606 heartbeat IPC: 1.04912 cumulative IPC: 1.01898 (Simulation time: 0 hr 14 min 51 sec) 
Heartbeat CPU 0 instructions: 460000000 cycles: 395992224 heartbeat IPC: 1.20487 cumulative IPC: 1.02337 (Simulation time: 0 hr 15 min 11 sec) 
Heartbeat CPU 0 instructions: 470000003 cycles: 404160192 heartbeat IPC: 1.2243 cumulative IPC: 1.02792 (Simulation time: 0 hr 15 min 31 sec) 
Heartbeat CPU 0 instructions: 480000000 cycles: 412358059 heartbeat IPC: 1.21983 cumulative IPC: 1.0322 (Simulation time: 0 hr 15 min 51 sec) 
Heartbeat CPU 0 instructions: 490000000 cycles: 420543928 heartbeat IPC: 1.22162 cumulative IPC: 1.03632 (Simulation time: 0 hr 16 min 10 sec) 
Heartbeat CPU 0 instructions: 500000000 cycles: 428730507 heartbeat IPC: 1.22151 cumulative IPC: 1.04026 (Simulation time: 0 hr 16 min 30 sec) 
Heartbeat CPU 0 instructions: 510000001 cycles: 436890280 heartbeat IPC: 1.22552 cumulative IPC: 1.04411 (Simulation time: 0 hr 16 min 50 sec) 
Heartbeat CPU 0 instructions: 520000000 cycles: 445069982 heartbeat IPC: 1.22254 cumulative IPC: 1.04775 (Simulation time: 0 hr 17 min 9 sec) 
Heartbeat CPU 0 instructions: 530000001 cycles: 453253813 heartbeat IPC: 1.22192 cumulative IPC: 1.05124 (Simulation time: 0 hr 17 min 29 sec) 
Heartbeat CPU 0 instructions: 540000000 cycles: 461611852 heartbeat IPC: 1.19645 cumulative IPC: 1.05414 (Simulation time: 0 hr 17 min 49 sec) 
Heartbeat CPU 0 instructions: 550000001 cycles: 470042781 heartbeat IPC: 1.18611 cumulative IPC: 1.05676 (Simulation time: 0 hr 18 min 8 sec) 
Heartbeat CPU 0 instructions: 560000000 cycles: 478222135 heartbeat IPC: 1.22259 cumulative IPC: 1.05988 (Simulation time: 0 hr 18 min 28 sec) 
Heartbeat CPU 0 instructions: 570000001 cycles: 489636610 heartbeat IPC: 0.876081 cumulative IPC: 1.05517 (Simulation time: 0 hr 18 min 50 sec) 
Heartbeat CPU 0 instructions: 580000000 cycles: 500715984 heartbeat IPC: 0.902578 cumulative IPC: 1.05147 (Simulation time: 0 hr 19 min 11 sec) 
Heartbeat CPU 0 instructions: 590000001 cycles: 512088164 heartbeat IPC: 0.879339 cumulative IPC: 1.04728 (Simulation time: 0 hr 19 min 32 sec) 
Heartbeat CPU 0 instructions: 600000000 cycles: 523139032 heartbeat IPC: 0.904906 cumulative IPC: 1.044 (Simulation time: 0 hr 19 min 54 sec) 
Finished CPU 0 instructions: 500000001 cycles: 478927368 cumulative IPC: 1.044 (Simulation time: 0 hr 19 min 54 sec) 

CPU 0 Branch Prediction Accuracy: 99.7422% MPKI: 0.173296
Number of Branches: 33608403 Number of Mispredictions: 86648
Number of LOAD Instructions: 180215231
Number of LOAD Instructions (ROI): 180215231
Number of STORE Instructions: 36067263
Number of STORE Instructions (ROI): 36067263
Total Destination Memory Operands: 38428915
Total Destination Memory Operands (ROI): 38428915
Total Source Memory Operands: 180215231
Total Source Memory Operands (ROI): 180215231
Number of DEPENDED LOADS: 3041554
Number of DEPENDED LOADS (ROI): 3041554
Number of SQ_ADDED: 38428892
Number of SQ_ADDED (ROI): 38428892
Number of LQ_ADDED: 207880083
Number of LQ_ADDED (ROI): 207880083
Number of Instructions read from trace: 600000257

ChampSim completed all CPUs

Region of Interest Statistics

CPU 0 cumulative IPC: 1.044 instructions: 500000001 cycles: 478927368
ITLB TOTAL     ACCESS:   91815481  HIT:   91815462  MISS:         19
ITLB LOAD      ACCESS:   91815481  HIT:   91815462  MISS:         19
ITLB RFO       ACCESS:          0  HIT:          0  MISS:          0
ITLB PREFETCH  ACCESS:          0  HIT:          0  MISS:          0
ITLB WRITEBACK ACCESS:          0  HIT:          0  MISS:          0
ITLB PREFETCH  REQUESTED:          0  ISSUED:          0  USEFUL:          0  USELESS:          0
ITLB TOTAL MSHR MERGED:         40
ITLB LOAD MSHR MERGED:         40
ITLB RFO MSHR MERGED:          0
ITLB PREFETCH MSHR MERGED:          0
ITLB WRITEBACK MSHR MERGED:          0
ITLB TOTAL ACCESSES:   91815521 HITS:   91815462 MISSES:         59
ITLB LOAD ACCESSES:   91815521 HITS:   91815462 MISSES:         59
ITLB RFO ACCESSES:          0 HITS:          0 MISSES:          0
ITLB PREFETCH ACCESSES:          0 HITS:          0 MISSES:          0
ITLB WRITEBACK ACCESSES:          0 HITS:          0 MISSES:          0
ITLB RQ ACCESS:  500000003
ITLB RQ TO_CACHE:   91815521
ITLB RQ MERGED:  408184482
ITLB RQ FORWARD:          0
ITLB WQ ACCESS:          0
ITLB WQ TO_CACHE:          0
ITLB WQ MERGED:          0
ITLB WQ FORWARD:          0
DTLB TOTAL     ACCESS:  142066492  HIT:  141700031  MISS:     366461
DTLB LOAD      ACCESS:  119427304  HIT:  119113719  MISS:     313585
DTLB RFO       ACCESS:   22639188  HIT:   22586312  MISS:      52876
DTLB PREFETCH  ACCESS:          0  HIT:          0  MISS:          0
DTLB WRITEBACK ACCESS:          0  HIT:          0  MISS:          0
DTLB PREFETCH  REQUESTED:          0  ISSUED:          0  USEFUL:          0  USELESS:          0
DTLB TOTAL MSHR MERGED:     287858
DTLB LOAD MSHR MERGED:     239812
DTLB RFO MSHR MERGED:      48046
DTLB PREFETCH MSHR MERGED:          0
DTLB WRITEBACK MSHR MERGED:          0
DTLB TOTAL ACCESSES:  142354350 HITS:  141700031 MISSES:     654319
DTLB LOAD ACCESSES:  119667116 HITS:  119113719 MISSES:     553397
DTLB RFO ACCESSES:   22687234 HITS:   22586312 MISSES:     100922
DTLB PREFETCH ACCESSES:          0 HITS:          0 MISSES:          0
DTLB WRITEBACK ACCESSES:          0 HITS:          0 MISSES:          0
DTLB RQ ACCESS:  184791424
DTLB RQ TO_CACHE:  142354350
DTLB RQ MERGED:   42437074
DTLB RQ FORWARD:          0
DTLB WQ ACCESS:          0
DTLB WQ TO_CACHE:          0
DTLB WQ MERGED:          0
DTLB WQ FORWARD:          0
L1D TOTAL     ACCESS:  190176607  HIT:  176724765  MISS:   13451842
L1D LOAD      ACCESS:  111943380  HIT:  108702068  MISS:    3241312
L1D RFO       ACCESS:   18932692  HIT:   16150944  MISS:    2781748
L1D PREFETCH  ACCESS:   59300535  HIT:   51871753  MISS:    7428782
L1D WRITEBACK ACCESS:          0  HIT:          0  MISS:          0
L1D PREFETCH  REQUESTED:  116522675  ISSUED:  115161978  USEFUL:    7219050  USELESS:     209732
L1D TOTAL MSHR MERGED:   31585437
L1D LOAD MSHR MERGED:    7264123
L1D RFO MSHR MERGED:    9320082
L1D PREFETCH MSHR MERGED:   15001232
L1D WRITEBACK MSHR MERGED:          0
L1D TOTAL ACCESSES:  221762442 HITS:  176725162 MISSES:   45037280
L1D LOAD ACCESSES:  116522697 HITS:  108702090 MISSES:    7820607
L1D RFO ACCESSES:   28252721 HITS:   16150944 MISSES:   12101777
L1D PREFETCH ACCESSES:   76987024 HITS:   51872128 MISSES:   25114896
L1D WRITEBACK ACCESSES:          0 HITS:          0 MISSES:          0
L1D RQ ACCESS:  156535358
L1D RQ TO_CACHE:  116522678
L1D RQ MERGED:   40012658
L1D RQ FORWARD:          0
L1D WQ ACCESS:   28256066
L1D WQ TO_CACHE:   28252721
L1D WQ MERGED:       3345
L1D WQ FORWARD:        397
L1I TOTAL     ACCESS:  115810183  HIT:  115809235  MISS:        948
L1I LOAD      ACCESS:  115810183  HIT:  115809235  MISS:        948
L1I RFO       ACCESS:          0  HIT:          0  MISS:          0
L1I PREFETCH  ACCESS:          0  HIT:          0  MISS:          0
L1I WRITEBACK ACCESS:          0  HIT:          0  MISS:          0
L1I PREFETCH  REQUESTED:          0  ISSUED:          0  USEFUL:          0  USELESS:          0
L1I TOTAL MSHR MERGED:       1596
L1I LOAD MSHR MERGED:       1596
L1I RFO MSHR MERGED:          0
L1I PREFETCH MSHR MERGED:          0
L1I WRITEBACK MSHR MERGED:          0
L1I TOTAL ACCESSES:  115811779 HITS:  115809235 MISSES:       2544
L1I LOAD ACCESSES:  115811779 HITS:  115809235 MISSES:       2544
L1I RFO ACCESSES:          0 HITS:          0 MISSES:          0
L1I PREFETCH ACCESSES:          0 HITS:          0 MISSES:          0
L1I WRITEBACK ACCESSES:          0 HITS:          0 MISSES:          0
L1I RQ ACCESS:  500000007
L1I RQ TO_CACHE:  115811779
L1I RQ MERGED:  384188228
L1I RQ FORWARD:          0
L1I WQ ACCESS:          0
L1I WQ TO_CACHE:          0
L1I WQ MERGED:          0
L1I WQ FORWARD:          0
L2C TOTAL     ACCESS:   16697633  HIT:    4853323  MISS:   11844310
L2C LOAD      ACCESS:     557408  HIT:      95440  MISS:     461968
L2C RFO       ACCESS:    2781695  HIT:     266712  MISS:    2514983
L2C PREFETCH  ACCESS:   10137898  HIT:    1272813  MISS:    8865085
L2C WRITEBACK ACCESS:    3220632  HIT:    3218358  MISS:       2274
L2C PREFETCH  REQUESTED:      26258  ISSUED:      26258  USEFUL:      93057  USELESS:    8770117
L2C TOTAL MSHR MERGED:        491
L2C LOAD MSHR MERGED:          4
L2C RFO MSHR MERGED:          0
L2C PREFETCH MSHR MERGED:        487
L2C WRITEBACK MSHR MERGED:          0
L2C TOTAL ACCESSES:   16698280 HITS:    4853367 MISSES:   11844913
L2C LOAD ACCESSES:     557432 HITS:      95464 MISSES:     461968
L2C RFO ACCESSES:    2781695 HITS:     266712 MISSES:    2514983
L2C PREFETCH ACCESSES:   10138521 HITS:    1272833 MISSES:    8865688
L2C WRITEBACK ACCESSES:    3220632 HITS:    3218358 MISSES:       2274
L2C RQ ACCESS:    3339127
L2C RQ TO_CACHE:    3339103
L2C RQ MERGED:          0
L2C RQ FORWARD:          0
L2C WQ ACCESS:    3220632
L2C WQ TO_CACHE:    3220632
L2C WQ MERGED:          0
L2C WQ FORWARD:         44
LLC TOTAL     ACCESS:   14742501  HIT:    8019447  MISS:    6723054
LLC LOAD      ACCESS:     461961  HIT:     226854  MISS:     235107
LLC RFO       ACCESS:    2514959  HIT:    1868599  MISS:     646360
LLC PREFETCH  ACCESS:    8865138  HIT:    3298875  MISS:    5566263
LLC WRITEBACK ACCESS:    2900443  HIT:    2625119  MISS:     275324
LLC PREFETCH  REQUESTED:          0  ISSUED:          0  USEFUL:       5725  USELESS:    5567677
LLC TOTAL MSHR MERGED:          3
LLC LOAD MSHR MERGED:          0
LLC RFO MSHR MERGED:          0
LLC PREFETCH MSHR MERGED:          3
LLC WRITEBACK MSHR MERGED:          0
LLC TOTAL ACCESSES:   14742575 HITS:    8019517 MISSES:    6723058
LLC LOAD ACCESSES:     461964 HITS:     226857 MISSES:     235107
LLC RFO ACCESSES:    2514983 HITS:    1868623 MISSES:     646360
LLC PREFETCH ACCESSES:    8865185 HITS:    3298918 MISSES:    5566267
LLC WRITEBACK ACCESSES:    2900443 HITS:    2625119 MISSES:     275324
LLC 0 RQ ACCESS:    2976947
LLC 0 RQ TO_CACHE:    2976920
LLC 0 RQ MERGED:          0
LLC 0 RQ FORWARD:          0
LLC WQ ACCESS:    2900443
LLC WQ TO_CACHE:    2900443
LLC WQ MERGED:          0
LLC WQ FORWARD:         70
Major fault: 0 Minor fault: 57518
CPU 0 L1D next line prefetcher final stats
CPU 0 L2C PC-based stride prefetcher final stats
All Misses: 7281941
All Hits: 8956734
SD Algo Stats - Switches: 0 SRR-Repls: 242844 BRR-Repls: 0

DRAM Statistics
 CHANNEL 0
 RQ ROW_BUFFER_HIT:    3586516  ROW_BUFFER_MISS:    2858063
 DBUS_CONGESTED:    2985741
 WQ ROW_BUFFER_HIT:     117440  ROW_BUFFER_MISS:     866702  FULL:          0

 AVG_CONGESTED_CYCLE: 12
LOADS RETIRED: 157818985
INSTR RETIRED: 500000000
