
*** ChampSim Multicore Out-of-Order Simulator ***

Warmup Instructions: 100000000
Simulation Instructions: 500000000
Number of CPUs: 1
LLC sets: 2048
LLC ways: 16
Clean RRIP Policies: 2011010020110100 Dirty RRIP Policies: 2011110020111100 PSEL Width: 10 Track Set: 4294967295 PSEL Mask: 1 Demote Mask: 4211244442112444DS Algo: 0Window size: 0
Off-chip DRAM Size: 4096 MB Channels: 1 Width: 64-bit Data Rate: 1600 MT/s

CPU 0 runs /mnt/beegfs/iconst01/spec2017/Gcc.trace.gz
NOT SORTED
TRACE STRING: /mnt/beegfs/iconst01/spec2017/Gcc.trace.gz
SORTED
TRACE STRING: /mnt/beegfs/iconst01/spec2017/Gcc.trace.gz
INITIAL
TRACE STRING: /mnt/beegfs/iconst01/spec2017/Gcc.trace.gz

champsim_seed used: 269

CPU 0 L1D next line prefetcher
CPU 0 L2C IP-based stride prefetcher
Initialize DRRIP state
Assign rand_sets[0]: 454  LLC: 2048
rand_sets[0]: 454
Assign rand_sets[1]: 1662  LLC: 2048
rand_sets[1]: 1662
Assign rand_sets[2]: 1921  LLC: 2048
rand_sets[2]: 1921
Assign rand_sets[3]: 1131  LLC: 2048
rand_sets[3]: 1131
Assign rand_sets[4]: 331  LLC: 2048
rand_sets[4]: 331
Assign rand_sets[5]: 1531  LLC: 2048
rand_sets[5]: 1531
Assign rand_sets[6]: 482  LLC: 2048
rand_sets[6]: 482
Assign rand_sets[7]: 1275  LLC: 2048
rand_sets[7]: 1275
Assign rand_sets[8]: 1876  LLC: 2048
rand_sets[8]: 1876
Assign rand_sets[9]: 2038  LLC: 2048
rand_sets[9]: 2038
Assign rand_sets[10]: 701  LLC: 2048
rand_sets[10]: 701
Assign rand_sets[11]: 479  LLC: 2048
rand_sets[11]: 479
Assign rand_sets[12]: 892  LLC: 2048
rand_sets[12]: 892
Assign rand_sets[13]: 1820  LLC: 2048
rand_sets[13]: 1820
Assign rand_sets[14]: 1505  LLC: 2048
rand_sets[14]: 1505
Assign rand_sets[15]: 1159  LLC: 2048
rand_sets[15]: 1159
Assign rand_sets[16]: 513  LLC: 2048
rand_sets[16]: 513
Assign rand_sets[17]: 703  LLC: 2048
rand_sets[17]: 703
Assign rand_sets[18]: 561  LLC: 2048
rand_sets[18]: 561
Assign rand_sets[19]: 990  LLC: 2048
rand_sets[19]: 990
Assign rand_sets[20]: 342  LLC: 2048
rand_sets[20]: 342
Assign rand_sets[21]: 882  LLC: 2048
rand_sets[21]: 882
Assign rand_sets[22]: 15  LLC: 2048
rand_sets[22]: 15
Assign rand_sets[23]: 71  LLC: 2048
rand_sets[23]: 71
Assign rand_sets[24]: 1127  LLC: 2048
rand_sets[24]: 1127
Assign rand_sets[25]: 1382  LLC: 2048
rand_sets[25]: 1382
Assign rand_sets[26]: 647  LLC: 2048
rand_sets[26]: 647
Assign rand_sets[27]: 857  LLC: 2048
rand_sets[27]: 857
Assign rand_sets[28]: 1450  LLC: 2048
rand_sets[28]: 1450
Assign rand_sets[29]: 1160  LLC: 2048
rand_sets[29]: 1160
Assign rand_sets[30]: 1852  LLC: 2048
rand_sets[30]: 1852
Assign rand_sets[31]: 1881  LLC: 2048
rand_sets[31]: 1881
Assign rand_sets[32]: 1770  LLC: 2048
rand_sets[32]: 1770
Assign rand_sets[33]: 1622  LLC: 2048
rand_sets[33]: 1622
Assign rand_sets[34]: 275  LLC: 2048
rand_sets[34]: 275
Assign rand_sets[35]: 635  LLC: 2048
rand_sets[35]: 635
Assign rand_sets[36]: 466  LLC: 2048
rand_sets[36]: 466
Assign rand_sets[37]: 1413  LLC: 2048
rand_sets[37]: 1413
Assign rand_sets[38]: 417  LLC: 2048
rand_sets[38]: 417
Assign rand_sets[39]: 472  LLC: 2048
rand_sets[39]: 472
Assign rand_sets[40]: 1340  LLC: 2048
rand_sets[40]: 1340
Assign rand_sets[41]: 852  LLC: 2048
rand_sets[41]: 852
Assign rand_sets[42]: 1365  LLC: 2048
rand_sets[42]: 1365
Assign rand_sets[43]: 47  LLC: 2048
rand_sets[43]: 47
Assign rand_sets[44]: 823  LLC: 2048
rand_sets[44]: 823
Assign rand_sets[45]: 686  LLC: 2048
rand_sets[45]: 686
Assign rand_sets[46]: 1637  LLC: 2048
rand_sets[46]: 1637
Assign rand_sets[47]: 1115  LLC: 2048
rand_sets[47]: 1115
Assign rand_sets[48]: 986  LLC: 2048
rand_sets[48]: 986
Assign rand_sets[49]: 258  LLC: 2048
rand_sets[49]: 258
Assign rand_sets[50]: 633  LLC: 2048
rand_sets[50]: 633
Assign rand_sets[51]: 920  LLC: 2048
rand_sets[51]: 920
Assign rand_sets[52]: 204  LLC: 2048
rand_sets[52]: 204
Assign rand_sets[53]: 227  LLC: 2048
rand_sets[53]: 227
Assign rand_sets[54]: 1818  LLC: 2048
rand_sets[54]: 1818
Assign rand_sets[55]: 886  LLC: 2048
rand_sets[55]: 886
Assign rand_sets[56]: 1422  LLC: 2048
rand_sets[56]: 1422
Assign rand_sets[57]: 607  LLC: 2048
rand_sets[57]: 607
Assign rand_sets[58]: 217  LLC: 2048
rand_sets[58]: 217
Assign rand_sets[59]: 1945  LLC: 2048
rand_sets[59]: 1945
Assign rand_sets[60]: 143  LLC: 2048
rand_sets[60]: 143
Assign rand_sets[61]: 1311  LLC: 2048
rand_sets[61]: 1311
Assign rand_sets[62]: 319  LLC: 2048
rand_sets[62]: 319
Assign rand_sets[63]: 1846  LLC: 2048
rand_sets[63]: 1846
 CLEAN-RRIP-POLICY-1: 2-0-1-1-0-1-0-0- CLEAN-RRIP-POLICY-2: 2-0-1-1-0-1-0-0-
 DIRTY-RRIP-POLICY-1: 2-0-1-1-1-1-0-0- DIRTY-RRIP-POLICY-2: 2-0-1-1-1-1-0-0-
 PSEL width: 10
Heartbeat CPU 0 instructions: 10000001 cycles: 7315912 heartbeat IPC: 1.36688 cumulative IPC: 1.36688 (Simulation time: 0 hr 0 min 15 sec) 
Heartbeat CPU 0 instructions: 20000000 cycles: 14307350 heartbeat IPC: 1.43032 cumulative IPC: 1.39788 (Simulation time: 0 hr 0 min 30 sec) 
Heartbeat CPU 0 instructions: 30000001 cycles: 21020417 heartbeat IPC: 1.48963 cumulative IPC: 1.42718 (Simulation time: 0 hr 0 min 46 sec) 
Heartbeat CPU 0 instructions: 40000000 cycles: 27481296 heartbeat IPC: 1.54778 cumulative IPC: 1.45554 (Simulation time: 0 hr 1 min 2 sec) 
Heartbeat CPU 0 instructions: 50000001 cycles: 33583117 heartbeat IPC: 1.63886 cumulative IPC: 1.48884 (Simulation time: 0 hr 1 min 17 sec) 
Heartbeat CPU 0 instructions: 60000000 cycles: 40064266 heartbeat IPC: 1.54294 cumulative IPC: 1.49759 (Simulation time: 0 hr 1 min 33 sec) 
Heartbeat CPU 0 instructions: 70000000 cycles: 47102199 heartbeat IPC: 1.42087 cumulative IPC: 1.48613 (Simulation time: 0 hr 1 min 48 sec) 
Heartbeat CPU 0 instructions: 80000000 cycles: 54191797 heartbeat IPC: 1.41052 cumulative IPC: 1.47624 (Simulation time: 0 hr 2 min 3 sec) 
Heartbeat CPU 0 instructions: 90000003 cycles: 61196146 heartbeat IPC: 1.42768 cumulative IPC: 1.47068 (Simulation time: 0 hr 2 min 17 sec) 
Heartbeat CPU 0 instructions: 100000000 cycles: 68363392 heartbeat IPC: 1.39524 cumulative IPC: 1.46277 (Simulation time: 0 hr 2 min 32 sec) 

Warmup complete CPU 0 instructions: 100000004 cycles: 68363393 (Simulation time: 0 hr 2 min 32 sec) 

Heartbeat CPU 0 instructions: 110000003 cycles: 96087833 heartbeat IPC: 0.360693 cumulative IPC: 0.360693 (Simulation time: 0 hr 3 min 0 sec) 
Heartbeat CPU 0 instructions: 120000000 cycles: 123579797 heartbeat IPC: 0.363743 cumulative IPC: 0.362211 (Simulation time: 0 hr 3 min 29 sec) 
Heartbeat CPU 0 instructions: 130000000 cycles: 148615430 heartbeat IPC: 0.399431 cumulative IPC: 0.373822 (Simulation time: 0 hr 3 min 57 sec) 
Heartbeat CPU 0 instructions: 140000000 cycles: 178130713 heartbeat IPC: 0.338808 cumulative IPC: 0.364407 (Simulation time: 0 hr 4 min 25 sec) 
Heartbeat CPU 0 instructions: 150000000 cycles: 208041274 heartbeat IPC: 0.33433 cumulative IPC: 0.357966 (Simulation time: 0 hr 4 min 53 sec) 
Heartbeat CPU 0 instructions: 160000000 cycles: 235456576 heartbeat IPC: 0.36476 cumulative IPC: 0.359081 (Simulation time: 0 hr 5 min 21 sec) 
Heartbeat CPU 0 instructions: 170000001 cycles: 263554919 heartbeat IPC: 0.355893 cumulative IPC: 0.358622 (Simulation time: 0 hr 5 min 50 sec) 
Heartbeat CPU 0 instructions: 180000000 cycles: 292048879 heartbeat IPC: 0.350952 cumulative IPC: 0.357645 (Simulation time: 0 hr 6 min 19 sec) 
Heartbeat CPU 0 instructions: 190000002 cycles: 320115638 heartbeat IPC: 0.356293 cumulative IPC: 0.357494 (Simulation time: 0 hr 6 min 48 sec) 
Heartbeat CPU 0 instructions: 200000000 cycles: 348482915 heartbeat IPC: 0.352519 cumulative IPC: 0.35699 (Simulation time: 0 hr 7 min 17 sec) 
Heartbeat CPU 0 instructions: 210000002 cycles: 376345927 heartbeat IPC: 0.358899 cumulative IPC: 0.357163 (Simulation time: 0 hr 7 min 45 sec) 
Heartbeat CPU 0 instructions: 220000000 cycles: 405485036 heartbeat IPC: 0.343181 cumulative IPC: 0.355955 (Simulation time: 0 hr 8 min 13 sec) 
Heartbeat CPU 0 instructions: 230000000 cycles: 433110720 heartbeat IPC: 0.361982 cumulative IPC: 0.356411 (Simulation time: 0 hr 8 min 40 sec) 
Heartbeat CPU 0 instructions: 240000000 cycles: 459119792 heartbeat IPC: 0.384481 cumulative IPC: 0.358279 (Simulation time: 0 hr 9 min 7 sec) 
Heartbeat CPU 0 instructions: 250000000 cycles: 489323185 heartbeat IPC: 0.331089 cumulative IPC: 0.356329 (Simulation time: 0 hr 9 min 37 sec) 
Heartbeat CPU 0 instructions: 260000000 cycles: 516508658 heartbeat IPC: 0.367844 cumulative IPC: 0.357027 (Simulation time: 0 hr 10 min 5 sec) 
Heartbeat CPU 0 instructions: 270000003 cycles: 545066157 heartbeat IPC: 0.350171 cumulative IPC: 0.356616 (Simulation time: 0 hr 10 min 34 sec) 
Heartbeat CPU 0 instructions: 280000000 cycles: 573321412 heartbeat IPC: 0.353916 cumulative IPC: 0.356465 (Simulation time: 0 hr 11 min 4 sec) 
Heartbeat CPU 0 instructions: 290000000 cycles: 602202754 heartbeat IPC: 0.346244 cumulative IPC: 0.355912 (Simulation time: 0 hr 11 min 33 sec) 
Heartbeat CPU 0 instructions: 300000000 cycles: 632099884 heartbeat IPC: 0.33448 cumulative IPC: 0.354776 (Simulation time: 0 hr 12 min 1 sec) 
Heartbeat CPU 0 instructions: 310000001 cycles: 661485744 heartbeat IPC: 0.3403 cumulative IPC: 0.354058 (Simulation time: 0 hr 12 min 29 sec) 
Heartbeat CPU 0 instructions: 320000000 cycles: 689758185 heartbeat IPC: 0.353701 cumulative IPC: 0.354042 (Simulation time: 0 hr 12 min 57 sec) 
Heartbeat CPU 0 instructions: 330000000 cycles: 718423384 heartbeat IPC: 0.348855 cumulative IPC: 0.353813 (Simulation time: 0 hr 13 min 25 sec) 
Heartbeat CPU 0 instructions: 340000000 cycles: 747746852 heartbeat IPC: 0.341024 cumulative IPC: 0.353261 (Simulation time: 0 hr 13 min 54 sec) 
Heartbeat CPU 0 instructions: 350000003 cycles: 774785749 heartbeat IPC: 0.369838 cumulative IPC: 0.353896 (Simulation time: 0 hr 14 min 21 sec) 
Heartbeat CPU 0 instructions: 360000000 cycles: 802959597 heartbeat IPC: 0.354939 cumulative IPC: 0.353936 (Simulation time: 0 hr 14 min 49 sec) 
Heartbeat CPU 0 instructions: 370000000 cycles: 831206784 heartbeat IPC: 0.354018 cumulative IPC: 0.353939 (Simulation time: 0 hr 15 min 16 sec) 
Heartbeat CPU 0 instructions: 380000000 cycles: 859770359 heartbeat IPC: 0.350096 cumulative IPC: 0.3538 (Simulation time: 0 hr 15 min 43 sec) 
Heartbeat CPU 0 instructions: 390000001 cycles: 887443800 heartbeat IPC: 0.361357 cumulative IPC: 0.354056 (Simulation time: 0 hr 16 min 10 sec) 
Heartbeat CPU 0 instructions: 400000000 cycles: 916130118 heartbeat IPC: 0.348598 cumulative IPC: 0.353871 (Simulation time: 0 hr 16 min 37 sec) 
Heartbeat CPU 0 instructions: 410000001 cycles: 943492599 heartbeat IPC: 0.365464 cumulative IPC: 0.354233 (Simulation time: 0 hr 17 min 4 sec) 
Heartbeat CPU 0 instructions: 420000000 cycles: 970853696 heartbeat IPC: 0.365482 cumulative IPC: 0.354574 (Simulation time: 0 hr 17 min 31 sec) 
Heartbeat CPU 0 instructions: 430000002 cycles: 998592313 heartbeat IPC: 0.360508 cumulative IPC: 0.354751 (Simulation time: 0 hr 17 min 58 sec) 
Heartbeat CPU 0 instructions: 440000000 cycles: 1028162533 heartbeat IPC: 0.338178 cumulative IPC: 0.354241 (Simulation time: 0 hr 18 min 25 sec) 
Heartbeat CPU 0 instructions: 450000002 cycles: 1057462911 heartbeat IPC: 0.341293 cumulative IPC: 0.353857 (Simulation time: 0 hr 18 min 52 sec) 
Heartbeat CPU 0 instructions: 460000000 cycles: 1085203907 heartbeat IPC: 0.360477 cumulative IPC: 0.354038 (Simulation time: 0 hr 19 min 20 sec) 
Heartbeat CPU 0 instructions: 470000000 cycles: 1112891001 heartbeat IPC: 0.361179 cumulative IPC: 0.354227 (Simulation time: 0 hr 19 min 46 sec) 
Heartbeat CPU 0 instructions: 480000000 cycles: 1140817359 heartbeat IPC: 0.358085 cumulative IPC: 0.354328 (Simulation time: 0 hr 20 min 13 sec) 
Heartbeat CPU 0 instructions: 490000000 cycles: 1168457692 heartbeat IPC: 0.36179 cumulative IPC: 0.354515 (Simulation time: 0 hr 20 min 40 sec) 
Heartbeat CPU 0 instructions: 500000000 cycles: 1196803783 heartbeat IPC: 0.352782 cumulative IPC: 0.354472 (Simulation time: 0 hr 21 min 8 sec) 
Heartbeat CPU 0 instructions: 510000000 cycles: 1232107682 heartbeat IPC: 0.283255 cumulative IPC: 0.352311 (Simulation time: 0 hr 21 min 39 sec) 
Heartbeat CPU 0 instructions: 520000000 cycles: 1260196234 heartbeat IPC: 0.356017 cumulative IPC: 0.352398 (Simulation time: 0 hr 22 min 7 sec) 
Heartbeat CPU 0 instructions: 530000001 cycles: 1289473484 heartbeat IPC: 0.341562 cumulative IPC: 0.352139 (Simulation time: 0 hr 22 min 35 sec) 
Heartbeat CPU 0 instructions: 540000000 cycles: 1317545119 heartbeat IPC: 0.356231 cumulative IPC: 0.352231 (Simulation time: 0 hr 23 min 3 sec) 
Heartbeat CPU 0 instructions: 550000001 cycles: 1346766792 heartbeat IPC: 0.342212 cumulative IPC: 0.352002 (Simulation time: 0 hr 23 min 32 sec) 
Heartbeat CPU 0 instructions: 560000000 cycles: 1372187252 heartbeat IPC: 0.393384 cumulative IPC: 0.352808 (Simulation time: 0 hr 24 min 0 sec) 
Heartbeat CPU 0 instructions: 570000000 cycles: 1401733589 heartbeat IPC: 0.338451 cumulative IPC: 0.35249 (Simulation time: 0 hr 24 min 28 sec) 
Heartbeat CPU 0 instructions: 580000000 cycles: 1429731762 heartbeat IPC: 0.357166 cumulative IPC: 0.352586 (Simulation time: 0 hr 24 min 57 sec) 
Heartbeat CPU 0 instructions: 590000001 cycles: 1454617191 heartbeat IPC: 0.401842 cumulative IPC: 0.353471 (Simulation time: 0 hr 25 min 23 sec) 
Heartbeat CPU 0 instructions: 600000000 cycles: 1480850025 heartbeat IPC: 0.381202 cumulative IPC: 0.353986 (Simulation time: 0 hr 25 min 51 sec) 
Finished CPU 0 instructions: 500000000 cycles: 1412486654 cumulative IPC: 0.353986 (Simulation time: 0 hr 25 min 51 sec) 

CPU 0 Branch Prediction Accuracy: 86.4311% MPKI: 26.2662
Number of Branches: 96788573 Number of Mispredictions: 13133102
Number of LOAD Instructions: 164682285
Number of LOAD Instructions (ROI): 164682285
Number of STORE Instructions: 78194750
Number of STORE Instructions (ROI): 78194750
Total Destination Memory Operands: 83268534
Total Destination Memory Operands (ROI): 83268534
Total Source Memory Operands: 164712438
Total Source Memory Operands (ROI): 164712438
Number of DEPENDED LOADS: 7065308
Number of DEPENDED LOADS (ROI): 7065308
Number of SQ_ADDED: 83268522
Number of SQ_ADDED (ROI): 83268522
Number of LQ_ADDED: 236688054
Number of LQ_ADDED (ROI): 236688054
Number of Instructions read from trace: 600000066

ChampSim completed all CPUs

Region of Interest Statistics

CPU 0 cumulative IPC: 0.353986 instructions: 500000000 cycles: 1412486654
ITLB TOTAL     ACCESS:  100509393  HIT:  100304947  MISS:     204446
ITLB LOAD      ACCESS:  100509393  HIT:  100304947  MISS:     204446
ITLB RFO       ACCESS:          0  HIT:          0  MISS:          0
ITLB PREFETCH  ACCESS:          0  HIT:          0  MISS:          0
ITLB WRITEBACK ACCESS:          0  HIT:          0  MISS:          0
ITLB PREFETCH  REQUESTED:          0  ISSUED:          0  USEFUL:          0  USELESS:          0
ITLB TOTAL MSHR MERGED:     172424
ITLB LOAD MSHR MERGED:     172424
ITLB RFO MSHR MERGED:          0
ITLB PREFETCH MSHR MERGED:          0
ITLB WRITEBACK MSHR MERGED:          0
ITLB TOTAL ACCESSES:  100681817 HITS:  100304947 MISSES:     376870
ITLB LOAD ACCESSES:  100681817 HITS:  100304947 MISSES:     376870
ITLB RFO ACCESSES:          0 HITS:          0 MISSES:          0
ITLB PREFETCH ACCESSES:          0 HITS:          0 MISSES:          0
ITLB WRITEBACK ACCESSES:          0 HITS:          0 MISSES:          0
ITLB RQ ACCESS:  500000057
ITLB RQ TO_CACHE:  100681817
ITLB RQ MERGED:  399318240
ITLB RQ FORWARD:          0
ITLB WQ ACCESS:          0
ITLB WQ TO_CACHE:          0
ITLB WQ MERGED:          0
ITLB WQ FORWARD:          0
DTLB TOTAL     ACCESS:  165329272  HIT:  164694925  MISS:     634347
DTLB LOAD      ACCESS:  106288327  HIT:  105718316  MISS:     570011
DTLB RFO       ACCESS:   59040945  HIT:   58976609  MISS:      64336
DTLB PREFETCH  ACCESS:          0  HIT:          0  MISS:          0
DTLB WRITEBACK ACCESS:          0  HIT:          0  MISS:          0
DTLB PREFETCH  REQUESTED:          0  ISSUED:          0  USEFUL:          0  USELESS:          0
DTLB TOTAL MSHR MERGED:      99772
DTLB LOAD MSHR MERGED:      59434
DTLB RFO MSHR MERGED:      40338
DTLB PREFETCH MSHR MERGED:          0
DTLB WRITEBACK MSHR MERGED:          0
DTLB TOTAL ACCESSES:  165429044 HITS:  164694925 MISSES:     734119
DTLB LOAD ACCESSES:  106347761 HITS:  105718316 MISSES:     629445
DTLB RFO ACCESSES:   59081283 HITS:   58976609 MISSES:     104674
DTLB PREFETCH ACCESSES:          0 HITS:          0 MISSES:          0
DTLB WRITEBACK ACCESSES:          0 HITS:          0 MISSES:          0
DTLB RQ ACCESS:  200305617
DTLB RQ TO_CACHE:  165429044
DTLB RQ MERGED:   34876573
DTLB RQ FORWARD:          0
DTLB WQ ACCESS:          0
DTLB WQ TO_CACHE:          0
DTLB WQ MERGED:          0
DTLB WQ FORWARD:          0
L1D TOTAL     ACCESS:  281784171  HIT:  273874913  MISS:    7909258
L1D LOAD      ACCESS:  110416754  HIT:  107141062  MISS:    3275692
L1D RFO       ACCESS:   67070687  HIT:   66177798  MISS:     892889
L1D PREFETCH  ACCESS:  104296730  HIT:  100556053  MISS:    3740677
L1D WRITEBACK ACCESS:          0  HIT:          0  MISS:          0
L1D PREFETCH  REQUESTED:  110811039  ISSUED:  109111749  USEFUL:    1661637  USELESS:    2079004
L1D TOTAL MSHR MERGED:    2907642
L1D LOAD MSHR MERGED:     489474
L1D RFO MSHR MERGED:    1917064
L1D PREFETCH MSHR MERGED:     501104
L1D WRITEBACK MSHR MERGED:          0
L1D TOTAL ACCESSES:  284719833 HITS:  273902933 MISSES:   10816900
L1D LOAD ACCESSES:  110813031 HITS:  107143054 MISSES:    3669977
L1D RFO ACCESSES:   68973639 HITS:   66177798 MISSES:    2795841
L1D PREFETCH ACCESSES:  104933163 HITS:  100582081 MISSES:    4351082
L1D WRITEBACK ACCESSES:          0 HITS:          0 MISSES:          0
L1D RQ ACCESS:  130753014
L1D RQ TO_CACHE:  110811042
L1D RQ MERGED:   19939980
L1D RQ FORWARD:          0
L1D WQ ACCESS:   69552603
L1D WQ TO_CACHE:   68973640
L1D WQ MERGED:     578963
L1D WQ FORWARD:      28020
L1I TOTAL     ACCESS:  126557785  HIT:  122319233  MISS:    4238552
L1I LOAD      ACCESS:  126557785  HIT:  122319233  MISS:    4238552
L1I RFO       ACCESS:          0  HIT:          0  MISS:          0
L1I PREFETCH  ACCESS:          0  HIT:          0  MISS:          0
L1I WRITEBACK ACCESS:          0  HIT:          0  MISS:          0
L1I PREFETCH  REQUESTED:          0  ISSUED:          0  USEFUL:          0  USELESS:          0
L1I TOTAL MSHR MERGED:    1834482
L1I LOAD MSHR MERGED:    1834482
L1I RFO MSHR MERGED:          0
L1I PREFETCH MSHR MERGED:          0
L1I WRITEBACK MSHR MERGED:          0
L1I TOTAL ACCESSES:  128392270 HITS:  122319233 MISSES:    6073037
L1I LOAD ACCESSES:  128392270 HITS:  122319233 MISSES:    6073037
L1I RFO ACCESSES:          0 HITS:          0 MISSES:          0
L1I PREFETCH ACCESSES:          0 HITS:          0 MISSES:          0
L1I WRITEBACK ACCESSES:          0 HITS:          0 MISSES:          0
L1I RQ ACCESS:  500000057
L1I RQ TO_CACHE:  128392270
L1I RQ MERGED:  371607787
L1I RQ FORWARD:          0
L1I WQ ACCESS:          0
L1I WQ TO_CACHE:          0
L1I WQ MERGED:          0
L1I WQ FORWARD:          0
L2C TOTAL     ACCESS:   14902744  HIT:   11156410  MISS:    3746334
L2C LOAD      ACCESS:    7418847  HIT:    5098177  MISS:    2320670
L2C RFO       ACCESS:     878676  HIT:     409920  MISS:     468756
L2C PREFETCH  ACCESS:    4565999  HIT:    3626346  MISS:     939653
L2C WRITEBACK ACCESS:    2039222  HIT:    2021967  MISS:      17255
L2C PREFETCH  REQUESTED:     842682  ISSUED:     842682  USEFUL:     202655  USELESS:     736704
L2C TOTAL MSHR MERGED:       9302
L2C LOAD MSHR MERGED:       1486
L2C RFO MSHR MERGED:          0
L2C PREFETCH MSHR MERGED:       7816
L2C WRITEBACK MSHR MERGED:          0
L2C TOTAL ACCESSES:   14913026 HITS:   11156861 MISSES:    3756165
L2C LOAD ACCESSES:    7419055 HITS:    5098385 MISSES:    2320670
L2C RFO ACCESSES:     878777 HITS:     410021 MISSES:     468756
L2C PREFETCH ACCESSES:    4575972 HITS:    3626488 MISSES:     949484
L2C WRITEBACK ACCESSES:    2039222 HITS:    2021967 MISSES:      17255
L2C RQ ACCESS:    8297835
L2C RQ TO_CACHE:    8297526
L2C RQ MERGED:          0
L2C RQ FORWARD:          0
L2C WQ ACCESS:    2039222
L2C WQ TO_CACHE:    2039222
L2C WQ MERGED:          0
L2C WQ FORWARD:        451
LLC TOTAL     ACCESS:    4609672  HIT:    3921279  MISS:     688393
LLC LOAD      ACCESS:    2319171  HIT:    2067676  MISS:     251495
LLC RFO       ACCESS:     468744  HIT:     305987  MISS:     162757
LLC PREFETCH  ACCESS:     941511  HIT:     680196  MISS:     261315
LLC WRITEBACK ACCESS:     880246  HIT:     867420  MISS:      12826
LLC PREFETCH  REQUESTED:          0  ISSUED:          0  USEFUL:      43647  USELESS:     218502
LLC TOTAL MSHR MERGED:        139
LLC LOAD MSHR MERGED:         44
LLC RFO MSHR MERGED:          0
LLC PREFETCH MSHR MERGED:         95
LLC WRITEBACK MSHR MERGED:          0
LLC TOTAL ACCESSES:    4609846 HITS:    3921314 MISSES:     688532
LLC LOAD ACCESSES:    2319184 HITS:    2067689 MISSES:     251495
LLC RFO ACCESSES:     468756 HITS:     305999 MISSES:     162757
LLC PREFETCH ACCESSES:     941660 HITS:     680206 MISSES:     261454
LLC WRITEBACK ACCESSES:     880246 HITS:     867420 MISSES:      12826
LLC 0 RQ ACCESS:    2787940
LLC 0 RQ TO_CACHE:    2787915
LLC 0 RQ MERGED:          0
LLC 0 RQ FORWARD:          0
LLC WQ ACCESS:     880246
LLC WQ TO_CACHE:     880246
LLC WQ MERGED:          0
LLC WQ FORWARD:         35
Major fault: 0 Minor fault: 12862
CPU 0 L1D next line prefetcher final stats
CPU 0 L2C PC-based stride prefetcher final stats
All Misses: 804882
All Hits: 4621795
SD Algo Stats - Switches: 0 SRR-Repls: 291833 BRR-Repls: 0

DRAM Statistics
 CHANNEL 0
 RQ ROW_BUFFER_HIT:     160622  ROW_BUFFER_MISS:     511295
 DBUS_CONGESTED:     538482
 WQ ROW_BUFFER_HIT:      46865  ROW_BUFFER_MISS:     305217  FULL:          0

 AVG_CONGESTED_CYCLE: 13
LOADS RETIRED: 136549171
INSTR RETIRED: 500000000
