
*** ChampSim Multicore Out-of-Order Simulator ***

Warmup Instructions: 100000000
Simulation Instructions: 500000000
Number of CPUs: 1
LLC sets: 2048
LLC ways: 16
Clean RRIP Policies: 2203130022031300 Dirty RRIP Policies: 203230002032300 PSEL Width: 10 Track Set: 4294967295 PSEL Mask: 1 Demote Mask: 4014244440142444DS Algo: 0Window size: 0
Off-chip DRAM Size: 4096 MB Channels: 1 Width: 64-bit Data Rate: 1600 MT/s

CPU 0 runs /mnt/beegfs/iconst01/spec2017/Gcc.trace.gz
NOT SORTED
TRACE STRING: /mnt/beegfs/iconst01/spec2017/Gcc.trace.gz
SORTED
TRACE STRING: /mnt/beegfs/iconst01/spec2017/Gcc.trace.gz
INITIAL
TRACE STRING: /mnt/beegfs/iconst01/spec2017/Gcc.trace.gz

champsim_seed used: 269

CPU 0 L1D next line prefetcher
CPU 0 L2C IP-based stride prefetcher
Initialize DRRIP state
Assign rand_sets[0]: 454  LLC: 2048
rand_sets[0]: 454
Assign rand_sets[1]: 1662  LLC: 2048
rand_sets[1]: 1662
Assign rand_sets[2]: 1921  LLC: 2048
rand_sets[2]: 1921
Assign rand_sets[3]: 1131  LLC: 2048
rand_sets[3]: 1131
Assign rand_sets[4]: 331  LLC: 2048
rand_sets[4]: 331
Assign rand_sets[5]: 1531  LLC: 2048
rand_sets[5]: 1531
Assign rand_sets[6]: 482  LLC: 2048
rand_sets[6]: 482
Assign rand_sets[7]: 1275  LLC: 2048
rand_sets[7]: 1275
Assign rand_sets[8]: 1876  LLC: 2048
rand_sets[8]: 1876
Assign rand_sets[9]: 2038  LLC: 2048
rand_sets[9]: 2038
Assign rand_sets[10]: 701  LLC: 2048
rand_sets[10]: 701
Assign rand_sets[11]: 479  LLC: 2048
rand_sets[11]: 479
Assign rand_sets[12]: 892  LLC: 2048
rand_sets[12]: 892
Assign rand_sets[13]: 1820  LLC: 2048
rand_sets[13]: 1820
Assign rand_sets[14]: 1505  LLC: 2048
rand_sets[14]: 1505
Assign rand_sets[15]: 1159  LLC: 2048
rand_sets[15]: 1159
Assign rand_sets[16]: 513  LLC: 2048
rand_sets[16]: 513
Assign rand_sets[17]: 703  LLC: 2048
rand_sets[17]: 703
Assign rand_sets[18]: 561  LLC: 2048
rand_sets[18]: 561
Assign rand_sets[19]: 990  LLC: 2048
rand_sets[19]: 990
Assign rand_sets[20]: 342  LLC: 2048
rand_sets[20]: 342
Assign rand_sets[21]: 882  LLC: 2048
rand_sets[21]: 882
Assign rand_sets[22]: 15  LLC: 2048
rand_sets[22]: 15
Assign rand_sets[23]: 71  LLC: 2048
rand_sets[23]: 71
Assign rand_sets[24]: 1127  LLC: 2048
rand_sets[24]: 1127
Assign rand_sets[25]: 1382  LLC: 2048
rand_sets[25]: 1382
Assign rand_sets[26]: 647  LLC: 2048
rand_sets[26]: 647
Assign rand_sets[27]: 857  LLC: 2048
rand_sets[27]: 857
Assign rand_sets[28]: 1450  LLC: 2048
rand_sets[28]: 1450
Assign rand_sets[29]: 1160  LLC: 2048
rand_sets[29]: 1160
Assign rand_sets[30]: 1852  LLC: 2048
rand_sets[30]: 1852
Assign rand_sets[31]: 1881  LLC: 2048
rand_sets[31]: 1881
Assign rand_sets[32]: 1770  LLC: 2048
rand_sets[32]: 1770
Assign rand_sets[33]: 1622  LLC: 2048
rand_sets[33]: 1622
Assign rand_sets[34]: 275  LLC: 2048
rand_sets[34]: 275
Assign rand_sets[35]: 635  LLC: 2048
rand_sets[35]: 635
Assign rand_sets[36]: 466  LLC: 2048
rand_sets[36]: 466
Assign rand_sets[37]: 1413  LLC: 2048
rand_sets[37]: 1413
Assign rand_sets[38]: 417  LLC: 2048
rand_sets[38]: 417
Assign rand_sets[39]: 472  LLC: 2048
rand_sets[39]: 472
Assign rand_sets[40]: 1340  LLC: 2048
rand_sets[40]: 1340
Assign rand_sets[41]: 852  LLC: 2048
rand_sets[41]: 852
Assign rand_sets[42]: 1365  LLC: 2048
rand_sets[42]: 1365
Assign rand_sets[43]: 47  LLC: 2048
rand_sets[43]: 47
Assign rand_sets[44]: 823  LLC: 2048
rand_sets[44]: 823
Assign rand_sets[45]: 686  LLC: 2048
rand_sets[45]: 686
Assign rand_sets[46]: 1637  LLC: 2048
rand_sets[46]: 1637
Assign rand_sets[47]: 1115  LLC: 2048
rand_sets[47]: 1115
Assign rand_sets[48]: 986  LLC: 2048
rand_sets[48]: 986
Assign rand_sets[49]: 258  LLC: 2048
rand_sets[49]: 258
Assign rand_sets[50]: 633  LLC: 2048
rand_sets[50]: 633
Assign rand_sets[51]: 920  LLC: 2048
rand_sets[51]: 920
Assign rand_sets[52]: 204  LLC: 2048
rand_sets[52]: 204
Assign rand_sets[53]: 227  LLC: 2048
rand_sets[53]: 227
Assign rand_sets[54]: 1818  LLC: 2048
rand_sets[54]: 1818
Assign rand_sets[55]: 886  LLC: 2048
rand_sets[55]: 886
Assign rand_sets[56]: 1422  LLC: 2048
rand_sets[56]: 1422
Assign rand_sets[57]: 607  LLC: 2048
rand_sets[57]: 607
Assign rand_sets[58]: 217  LLC: 2048
rand_sets[58]: 217
Assign rand_sets[59]: 1945  LLC: 2048
rand_sets[59]: 1945
Assign rand_sets[60]: 143  LLC: 2048
rand_sets[60]: 143
Assign rand_sets[61]: 1311  LLC: 2048
rand_sets[61]: 1311
Assign rand_sets[62]: 319  LLC: 2048
rand_sets[62]: 319
Assign rand_sets[63]: 1846  LLC: 2048
rand_sets[63]: 1846
 CLEAN-RRIP-POLICY-1: 2-2-0-3-1-3-0-0- CLEAN-RRIP-POLICY-2: 2-2-0-3-1-3-0-0-
 DIRTY-RRIP-POLICY-1: 0-2-0-3-2-3-0-0- DIRTY-RRIP-POLICY-2: 0-2-0-3-2-3-0-0-
 PSEL width: 10
Heartbeat CPU 0 instructions: 10000001 cycles: 7315980 heartbeat IPC: 1.36687 cumulative IPC: 1.36687 (Simulation time: 0 hr 0 min 14 sec) 
Heartbeat CPU 0 instructions: 20000000 cycles: 14307493 heartbeat IPC: 1.43031 cumulative IPC: 1.39787 (Simulation time: 0 hr 0 min 29 sec) 
Heartbeat CPU 0 instructions: 30000001 cycles: 21020550 heartbeat IPC: 1.48963 cumulative IPC: 1.42717 (Simulation time: 0 hr 0 min 45 sec) 
Heartbeat CPU 0 instructions: 40000000 cycles: 27481422 heartbeat IPC: 1.54778 cumulative IPC: 1.45553 (Simulation time: 0 hr 1 min 1 sec) 
Heartbeat CPU 0 instructions: 50000001 cycles: 33583169 heartbeat IPC: 1.63888 cumulative IPC: 1.48884 (Simulation time: 0 hr 1 min 16 sec) 
Heartbeat CPU 0 instructions: 60000000 cycles: 40064275 heartbeat IPC: 1.54295 cumulative IPC: 1.49759 (Simulation time: 0 hr 1 min 32 sec) 
Heartbeat CPU 0 instructions: 70000000 cycles: 47102745 heartbeat IPC: 1.42076 cumulative IPC: 1.48611 (Simulation time: 0 hr 1 min 47 sec) 
Heartbeat CPU 0 instructions: 80000000 cycles: 54192358 heartbeat IPC: 1.41051 cumulative IPC: 1.47622 (Simulation time: 0 hr 2 min 2 sec) 
Heartbeat CPU 0 instructions: 90000003 cycles: 61196720 heartbeat IPC: 1.42768 cumulative IPC: 1.47067 (Simulation time: 0 hr 2 min 16 sec) 
Heartbeat CPU 0 instructions: 100000000 cycles: 68363937 heartbeat IPC: 1.39524 cumulative IPC: 1.46276 (Simulation time: 0 hr 2 min 31 sec) 

Warmup complete CPU 0 instructions: 100000004 cycles: 68363938 (Simulation time: 0 hr 2 min 31 sec) 

Heartbeat CPU 0 instructions: 110000003 cycles: 96036423 heartbeat IPC: 0.36137 cumulative IPC: 0.36137 (Simulation time: 0 hr 3 min 0 sec) 
Heartbeat CPU 0 instructions: 120000000 cycles: 123517128 heartbeat IPC: 0.363892 cumulative IPC: 0.362626 (Simulation time: 0 hr 3 min 29 sec) 
Heartbeat CPU 0 instructions: 130000000 cycles: 148497610 heartbeat IPC: 0.400313 cumulative IPC: 0.374374 (Simulation time: 0 hr 3 min 57 sec) 
Heartbeat CPU 0 instructions: 140000000 cycles: 177998005 heartbeat IPC: 0.338978 cumulative IPC: 0.36485 (Simulation time: 0 hr 4 min 25 sec) 
Heartbeat CPU 0 instructions: 150000000 cycles: 207865767 heartbeat IPC: 0.334809 cumulative IPC: 0.358418 (Simulation time: 0 hr 4 min 54 sec) 
Heartbeat CPU 0 instructions: 160000000 cycles: 235267429 heartbeat IPC: 0.364941 cumulative IPC: 0.359489 (Simulation time: 0 hr 5 min 22 sec) 
Heartbeat CPU 0 instructions: 170000001 cycles: 263316390 heartbeat IPC: 0.356519 cumulative IPC: 0.359062 (Simulation time: 0 hr 5 min 51 sec) 
Heartbeat CPU 0 instructions: 180000000 cycles: 291802926 heartbeat IPC: 0.351043 cumulative IPC: 0.35804 (Simulation time: 0 hr 6 min 21 sec) 
Heartbeat CPU 0 instructions: 190000002 cycles: 319814102 heartbeat IPC: 0.357 cumulative IPC: 0.357924 (Simulation time: 0 hr 6 min 49 sec) 
Heartbeat CPU 0 instructions: 200000000 cycles: 348160997 heartbeat IPC: 0.352772 cumulative IPC: 0.357402 (Simulation time: 0 hr 7 min 18 sec) 
Heartbeat CPU 0 instructions: 210000002 cycles: 375976698 heartbeat IPC: 0.359509 cumulative IPC: 0.357592 (Simulation time: 0 hr 7 min 47 sec) 
Heartbeat CPU 0 instructions: 220000000 cycles: 405082501 heartbeat IPC: 0.343574 cumulative IPC: 0.356381 (Simulation time: 0 hr 8 min 15 sec) 
Heartbeat CPU 0 instructions: 230000000 cycles: 432632258 heartbeat IPC: 0.36298 cumulative IPC: 0.35688 (Simulation time: 0 hr 8 min 42 sec) 
Heartbeat CPU 0 instructions: 240000000 cycles: 458574786 heartbeat IPC: 0.385467 cumulative IPC: 0.35878 (Simulation time: 0 hr 9 min 10 sec) 
Heartbeat CPU 0 instructions: 250000000 cycles: 488737621 heartbeat IPC: 0.331534 cumulative IPC: 0.356825 (Simulation time: 0 hr 9 min 40 sec) 
Heartbeat CPU 0 instructions: 260000000 cycles: 515824873 heartbeat IPC: 0.369177 cumulative IPC: 0.357573 (Simulation time: 0 hr 10 min 8 sec) 
Heartbeat CPU 0 instructions: 270000003 cycles: 544268664 heartbeat IPC: 0.351571 cumulative IPC: 0.357214 (Simulation time: 0 hr 10 min 37 sec) 
Heartbeat CPU 0 instructions: 280000000 cycles: 572465465 heartbeat IPC: 0.35465 cumulative IPC: 0.357071 (Simulation time: 0 hr 11 min 7 sec) 
Heartbeat CPU 0 instructions: 290000000 cycles: 601323645 heartbeat IPC: 0.346522 cumulative IPC: 0.3565 (Simulation time: 0 hr 11 min 37 sec) 
Heartbeat CPU 0 instructions: 300000000 cycles: 631202085 heartbeat IPC: 0.334689 cumulative IPC: 0.355342 (Simulation time: 0 hr 12 min 5 sec) 
Heartbeat CPU 0 instructions: 310000001 cycles: 660555110 heartbeat IPC: 0.34068 cumulative IPC: 0.354615 (Simulation time: 0 hr 12 min 33 sec) 
Heartbeat CPU 0 instructions: 320000000 cycles: 688733292 heartbeat IPC: 0.354884 cumulative IPC: 0.354627 (Simulation time: 0 hr 13 min 1 sec) 
Heartbeat CPU 0 instructions: 330000000 cycles: 717359682 heartbeat IPC: 0.349328 cumulative IPC: 0.354394 (Simulation time: 0 hr 13 min 30 sec) 
Heartbeat CPU 0 instructions: 340000000 cycles: 746632195 heartbeat IPC: 0.341617 cumulative IPC: 0.353842 (Simulation time: 0 hr 13 min 58 sec) 
Heartbeat CPU 0 instructions: 350000003 cycles: 773631834 heartbeat IPC: 0.370375 cumulative IPC: 0.354475 (Simulation time: 0 hr 14 min 26 sec) 
Heartbeat CPU 0 instructions: 360000000 cycles: 801735307 heartbeat IPC: 0.355828 cumulative IPC: 0.354527 (Simulation time: 0 hr 14 min 53 sec) 
Heartbeat CPU 0 instructions: 370000000 cycles: 829926762 heartbeat IPC: 0.354717 cumulative IPC: 0.354534 (Simulation time: 0 hr 15 min 21 sec) 
Heartbeat CPU 0 instructions: 380000000 cycles: 858438617 heartbeat IPC: 0.350731 cumulative IPC: 0.354397 (Simulation time: 0 hr 15 min 48 sec) 
Heartbeat CPU 0 instructions: 390000001 cycles: 886049790 heartbeat IPC: 0.362172 cumulative IPC: 0.354659 (Simulation time: 0 hr 16 min 15 sec) 
Heartbeat CPU 0 instructions: 400000000 cycles: 914681865 heartbeat IPC: 0.349259 cumulative IPC: 0.354477 (Simulation time: 0 hr 16 min 42 sec) 
Heartbeat CPU 0 instructions: 410000001 cycles: 941988101 heartbeat IPC: 0.366217 cumulative IPC: 0.354844 (Simulation time: 0 hr 17 min 9 sec) 
Heartbeat CPU 0 instructions: 420000000 cycles: 969305986 heartbeat IPC: 0.366061 cumulative IPC: 0.355184 (Simulation time: 0 hr 17 min 37 sec) 
Heartbeat CPU 0 instructions: 430000002 cycles: 996977791 heartbeat IPC: 0.361379 cumulative IPC: 0.355368 (Simulation time: 0 hr 18 min 4 sec) 
Heartbeat CPU 0 instructions: 440000000 cycles: 1026466764 heartbeat IPC: 0.33911 cumulative IPC: 0.354868 (Simulation time: 0 hr 18 min 31 sec) 
Heartbeat CPU 0 instructions: 450000002 cycles: 1055707050 heartbeat IPC: 0.341994 cumulative IPC: 0.354487 (Simulation time: 0 hr 18 min 59 sec) 
Heartbeat CPU 0 instructions: 460000000 cycles: 1083400798 heartbeat IPC: 0.361092 cumulative IPC: 0.354667 (Simulation time: 0 hr 19 min 26 sec) 
Heartbeat CPU 0 instructions: 470000000 cycles: 1111040697 heartbeat IPC: 0.361796 cumulative IPC: 0.354856 (Simulation time: 0 hr 19 min 53 sec) 
Heartbeat CPU 0 instructions: 480000000 cycles: 1138928139 heartbeat IPC: 0.358584 cumulative IPC: 0.354953 (Simulation time: 0 hr 20 min 21 sec) 
Heartbeat CPU 0 instructions: 490000000 cycles: 1166523451 heartbeat IPC: 0.36238 cumulative IPC: 0.35514 (Simulation time: 0 hr 20 min 48 sec) 
Heartbeat CPU 0 instructions: 500000000 cycles: 1194792889 heartbeat IPC: 0.353739 cumulative IPC: 0.355105 (Simulation time: 0 hr 21 min 16 sec) 
Heartbeat CPU 0 instructions: 510000000 cycles: 1230103837 heartbeat IPC: 0.283198 cumulative IPC: 0.352919 (Simulation time: 0 hr 21 min 47 sec) 
Heartbeat CPU 0 instructions: 520000000 cycles: 1258105846 heartbeat IPC: 0.357117 cumulative IPC: 0.353018 (Simulation time: 0 hr 22 min 15 sec) 
Heartbeat CPU 0 instructions: 530000001 cycles: 1287501951 heartbeat IPC: 0.340181 cumulative IPC: 0.352708 (Simulation time: 0 hr 22 min 44 sec) 
Heartbeat CPU 0 instructions: 540000000 cycles: 1315564129 heartbeat IPC: 0.356351 cumulative IPC: 0.35279 (Simulation time: 0 hr 23 min 12 sec) 
Heartbeat CPU 0 instructions: 550000001 cycles: 1344792130 heartbeat IPC: 0.342138 cumulative IPC: 0.352546 (Simulation time: 0 hr 23 min 42 sec) 
Heartbeat CPU 0 instructions: 560000000 cycles: 1370182169 heartbeat IPC: 0.393855 cumulative IPC: 0.353352 (Simulation time: 0 hr 24 min 10 sec) 
Heartbeat CPU 0 instructions: 570000000 cycles: 1399737350 heartbeat IPC: 0.33835 cumulative IPC: 0.353019 (Simulation time: 0 hr 24 min 39 sec) 
Heartbeat CPU 0 instructions: 580000000 cycles: 1427749939 heartbeat IPC: 0.356982 cumulative IPC: 0.353101 (Simulation time: 0 hr 25 min 7 sec) 
Heartbeat CPU 0 instructions: 590000001 cycles: 1452566468 heartbeat IPC: 0.402957 cumulative IPC: 0.353994 (Simulation time: 0 hr 25 min 34 sec) 
Heartbeat CPU 0 instructions: 600000000 cycles: 1478692324 heartbeat IPC: 0.382763 cumulative IPC: 0.354527 (Simulation time: 0 hr 26 min 2 sec) 
Finished CPU 0 instructions: 500000000 cycles: 1410328408 cumulative IPC: 0.354527 (Simulation time: 0 hr 26 min 2 sec) 

CPU 0 Branch Prediction Accuracy: 86.4311% MPKI: 26.2662
Number of Branches: 96788573 Number of Mispredictions: 13133102
Number of LOAD Instructions: 164682285
Number of LOAD Instructions (ROI): 164682285
Number of STORE Instructions: 78194750
Number of STORE Instructions (ROI): 78194750
Total Destination Memory Operands: 83268534
Total Destination Memory Operands (ROI): 83268534
Total Source Memory Operands: 164712438
Total Source Memory Operands (ROI): 164712438
Number of DEPENDED LOADS: 7061772
Number of DEPENDED LOADS (ROI): 7061772
Number of SQ_ADDED: 83268522
Number of SQ_ADDED (ROI): 83268522
Number of LQ_ADDED: 236726502
Number of LQ_ADDED (ROI): 236726502
Number of Instructions read from trace: 600000066

ChampSim completed all CPUs

Region of Interest Statistics

CPU 0 cumulative IPC: 0.354527 instructions: 500000000 cycles: 1410328408
ITLB TOTAL     ACCESS:  100508527  HIT:  100304081  MISS:     204446
ITLB LOAD      ACCESS:  100508527  HIT:  100304081  MISS:     204446
ITLB RFO       ACCESS:          0  HIT:          0  MISS:          0
ITLB PREFETCH  ACCESS:          0  HIT:          0  MISS:          0
ITLB WRITEBACK ACCESS:          0  HIT:          0  MISS:          0
ITLB PREFETCH  REQUESTED:          0  ISSUED:          0  USEFUL:          0  USELESS:          0
ITLB TOTAL MSHR MERGED:     172424
ITLB LOAD MSHR MERGED:     172424
ITLB RFO MSHR MERGED:          0
ITLB PREFETCH MSHR MERGED:          0
ITLB WRITEBACK MSHR MERGED:          0
ITLB TOTAL ACCESSES:  100680951 HITS:  100304081 MISSES:     376870
ITLB LOAD ACCESSES:  100680951 HITS:  100304081 MISSES:     376870
ITLB RFO ACCESSES:          0 HITS:          0 MISSES:          0
ITLB PREFETCH ACCESSES:          0 HITS:          0 MISSES:          0
ITLB WRITEBACK ACCESSES:          0 HITS:          0 MISSES:          0
ITLB RQ ACCESS:  500000057
ITLB RQ TO_CACHE:  100680951
ITLB RQ MERGED:  399319106
ITLB RQ FORWARD:          0
ITLB WQ ACCESS:          0
ITLB WQ TO_CACHE:          0
ITLB WQ MERGED:          0
ITLB WQ FORWARD:          0
DTLB TOTAL     ACCESS:  165334619  HIT:  164700271  MISS:     634348
DTLB LOAD      ACCESS:  106290393  HIT:  105720392  MISS:     570001
DTLB RFO       ACCESS:   59044226  HIT:   58979879  MISS:      64347
DTLB PREFETCH  ACCESS:          0  HIT:          0  MISS:          0
DTLB WRITEBACK ACCESS:          0  HIT:          0  MISS:          0
DTLB PREFETCH  REQUESTED:          0  ISSUED:          0  USEFUL:          0  USELESS:          0
DTLB TOTAL MSHR MERGED:      99995
DTLB LOAD MSHR MERGED:      59465
DTLB RFO MSHR MERGED:      40530
DTLB PREFETCH MSHR MERGED:          0
DTLB WRITEBACK MSHR MERGED:          0
DTLB TOTAL ACCESSES:  165434614 HITS:  164700271 MISSES:     734343
DTLB LOAD ACCESSES:  106349858 HITS:  105720392 MISSES:     629466
DTLB RFO ACCESSES:   59084756 HITS:   58979879 MISSES:     104877
DTLB PREFETCH ACCESSES:          0 HITS:          0 MISSES:          0
DTLB WRITEBACK ACCESSES:          0 HITS:          0 MISSES:          0
DTLB RQ ACCESS:  200309099
DTLB RQ TO_CACHE:  165434614
DTLB RQ MERGED:   34874485
DTLB RQ FORWARD:          0
DTLB WQ ACCESS:          0
DTLB WQ TO_CACHE:          0
DTLB WQ MERGED:          0
DTLB WQ FORWARD:          0
L1D TOTAL     ACCESS:  281817566  HIT:  273908254  MISS:    7909312
L1D LOAD      ACCESS:  110414617  HIT:  107136573  MISS:    3278044
L1D RFO       ACCESS:   67109333  HIT:   66218420  MISS:     890913
L1D PREFETCH  ACCESS:  104293616  HIT:  100553261  MISS:    3740355
L1D WRITEBACK ACCESS:          0  HIT:          0  MISS:          0
L1D PREFETCH  REQUESTED:  110814904  ISSUED:  109115621  USEFUL:    1661128  USELESS:    2079191
L1D TOTAL MSHR MERGED:    2882376
L1D LOAD MSHR MERGED:     497772
L1D RFO MSHR MERGED:    1876890
L1D PREFETCH MSHR MERGED:     507714
L1D WRITEBACK MSHR MERGED:          0
L1D TOTAL ACCESSES:  284727495 HITS:  273935807 MISSES:   10791688
L1D LOAD ACCESSES:  110816448 HITS:  107138117 MISSES:    3678331
L1D RFO ACCESSES:   68974111 HITS:   66218420 MISSES:    2755691
L1D PREFETCH ACCESSES:  104936936 HITS:  100579270 MISSES:    4357666
L1D WRITEBACK ACCESSES:          0 HITS:          0 MISSES:          0
L1D RQ ACCESS:  130756496
L1D RQ TO_CACHE:  110814907
L1D RQ MERGED:   19940045
L1D RQ FORWARD:          0
L1D WQ ACCESS:   69552603
L1D WQ TO_CACHE:   68974112
L1D WQ MERGED:     578491
L1D WQ FORWARD:      27553
L1I TOTAL     ACCESS:  126556315  HIT:  122317762  MISS:    4238553
L1I LOAD      ACCESS:  126556315  HIT:  122317762  MISS:    4238553
L1I RFO       ACCESS:          0  HIT:          0  MISS:          0
L1I PREFETCH  ACCESS:          0  HIT:          0  MISS:          0
L1I WRITEBACK ACCESS:          0  HIT:          0  MISS:          0
L1I PREFETCH  REQUESTED:          0  ISSUED:          0  USEFUL:          0  USELESS:          0
L1I TOTAL MSHR MERGED:    1834541
L1I LOAD MSHR MERGED:    1834541
L1I RFO MSHR MERGED:          0
L1I PREFETCH MSHR MERGED:          0
L1I WRITEBACK MSHR MERGED:          0
L1I TOTAL ACCESSES:  128390859 HITS:  122317762 MISSES:    6073097
L1I LOAD ACCESSES:  128390859 HITS:  122317762 MISSES:    6073097
L1I RFO ACCESSES:          0 HITS:          0 MISSES:          0
L1I PREFETCH ACCESSES:          0 HITS:          0 MISSES:          0
L1I WRITEBACK ACCESSES:          0 HITS:          0 MISSES:          0
L1I RQ ACCESS:  500000057
L1I RQ TO_CACHE:  128390859
L1I RQ MERGED:  371609198
L1I RQ FORWARD:          0
L1I WQ ACCESS:          0
L1I WQ TO_CACHE:          0
L1I WQ MERGED:          0
L1I WQ FORWARD:          0
L2C TOTAL     ACCESS:   14904065  HIT:   11157564  MISS:    3746501
L2C LOAD      ACCESS:    7418901  HIT:    5098533  MISS:    2320368
L2C RFO       ACCESS:     878702  HIT:     409900  MISS:     468802
L2C PREFETCH  ACCESS:    4567231  HIT:    3627156  MISS:     940075
L2C WRITEBACK ACCESS:    2039231  HIT:    2021975  MISS:      17256
L2C PREFETCH  REQUESTED:     842736  ISSUED:     842736  USEFUL:     203030  USELESS:     736752
L2C TOTAL MSHR MERGED:       8092
L2C LOAD MSHR MERGED:       1115
L2C RFO MSHR MERGED:          1
L2C PREFETCH MSHR MERGED:       6976
L2C WRITEBACK MSHR MERGED:          0
L2C TOTAL ACCESSES:   14913109 HITS:   11158016 MISSES:    3755093
L2C LOAD ACCESSES:    7419112 HITS:    5098744 MISSES:    2320368
L2C RFO ACCESSES:     878801 HITS:     409999 MISSES:     468802
L2C PREFETCH ACCESSES:    4575965 HITS:    3627298 MISSES:     948667
L2C WRITEBACK ACCESSES:    2039231 HITS:    2021975 MISSES:      17256
L2C RQ ACCESS:    8297916
L2C RQ TO_CACHE:    8297606
L2C RQ MERGED:          0
L2C RQ FORWARD:          0
L2C WQ ACCESS:    2039231
L2C WQ TO_CACHE:    2039231
L2C WQ MERGED:          0
L2C WQ FORWARD:        452
LLC TOTAL     ACCESS:    4609861  HIT:    3893771  MISS:     716090
LLC LOAD      ACCESS:    2319239  HIT:    2074068  MISS:     245171
LLC RFO       ACCESS:     468790  HIT:     387840  MISS:      80950
LLC PREFETCH  ACCESS:     941545  HIT:     648913  MISS:     292632
LLC WRITEBACK ACCESS:     880287  HIT:     782950  MISS:      97337
LLC PREFETCH  REQUESTED:          0  ISSUED:          0  USEFUL:      14014  USELESS:     279141
LLC TOTAL MSHR MERGED:        124
LLC LOAD MSHR MERGED:         38
LLC RFO MSHR MERGED:          0
LLC PREFETCH MSHR MERGED:         86
LLC WRITEBACK MSHR MERGED:          0
LLC TOTAL ACCESSES:    4610020 HITS:    3893806 MISSES:     716214
LLC LOAD ACCESSES:    2319253 HITS:    2074082 MISSES:     245171
LLC RFO ACCESSES:     468801 HITS:     387851 MISSES:      80950
LLC PREFETCH ACCESSES:     941679 HITS:     648923 MISSES:     292756
LLC WRITEBACK ACCESSES:     880287 HITS:     782950 MISSES:      97337
LLC 0 RQ ACCESS:    2788054
LLC 0 RQ TO_CACHE:    2788029
LLC 0 RQ MERGED:          0
LLC 0 RQ FORWARD:          0
LLC WQ ACCESS:     880287
LLC WQ TO_CACHE:     880287
LLC WQ MERGED:          0
LLC WQ FORWARD:         35
Major fault: 0 Minor fault: 12862
CPU 0 L1D next line prefetcher final stats
CPU 0 L2C PC-based stride prefetcher final stats
All Misses: 846447
All Hits: 4580420
SD Algo Stats - Switches: 0 SRR-Repls: 286884 BRR-Repls: 0

DRAM Statistics
 CHANNEL 0
 RQ ROW_BUFFER_HIT:     123532  ROW_BUFFER_MISS:     493445
 DBUS_CONGESTED:     408143
 WQ ROW_BUFFER_HIT:      23443  ROW_BUFFER_MISS:     218479  FULL:          0

 AVG_CONGESTED_CYCLE: 13
LOADS RETIRED: 136549171
INSTR RETIRED: 500000000
