
*** ChampSim Multicore Out-of-Order Simulator ***

Warmup Instructions: 100000000
Simulation Instructions: 500000000
Number of CPUs: 1
LLC sets: 2048
LLC ways: 16
Clean RRIP Policies: 1321021013210210 Dirty RRIP Policies: 1321121013211210 PSEL Width: 10 Track Set: 4294967295 PSEL Mask: 1 Demote Mask: 4303214243032142DS Algo: 0Window size: 0
Off-chip DRAM Size: 4096 MB Channels: 1 Width: 64-bit Data Rate: 1600 MT/s

CPU 0 runs /mnt/beegfs/iconst01/spec2017/Gcc.trace.gz
NOT SORTED
TRACE STRING: /mnt/beegfs/iconst01/spec2017/Gcc.trace.gz
SORTED
TRACE STRING: /mnt/beegfs/iconst01/spec2017/Gcc.trace.gz
INITIAL
TRACE STRING: /mnt/beegfs/iconst01/spec2017/Gcc.trace.gz

champsim_seed used: 269

CPU 0 L1D next line prefetcher
CPU 0 L2C IP-based stride prefetcher
Initialize DRRIP state
Assign rand_sets[0]: 454  LLC: 2048
rand_sets[0]: 454
Assign rand_sets[1]: 1662  LLC: 2048
rand_sets[1]: 1662
Assign rand_sets[2]: 1921  LLC: 2048
rand_sets[2]: 1921
Assign rand_sets[3]: 1131  LLC: 2048
rand_sets[3]: 1131
Assign rand_sets[4]: 331  LLC: 2048
rand_sets[4]: 331
Assign rand_sets[5]: 1531  LLC: 2048
rand_sets[5]: 1531
Assign rand_sets[6]: 482  LLC: 2048
rand_sets[6]: 482
Assign rand_sets[7]: 1275  LLC: 2048
rand_sets[7]: 1275
Assign rand_sets[8]: 1876  LLC: 2048
rand_sets[8]: 1876
Assign rand_sets[9]: 2038  LLC: 2048
rand_sets[9]: 2038
Assign rand_sets[10]: 701  LLC: 2048
rand_sets[10]: 701
Assign rand_sets[11]: 479  LLC: 2048
rand_sets[11]: 479
Assign rand_sets[12]: 892  LLC: 2048
rand_sets[12]: 892
Assign rand_sets[13]: 1820  LLC: 2048
rand_sets[13]: 1820
Assign rand_sets[14]: 1505  LLC: 2048
rand_sets[14]: 1505
Assign rand_sets[15]: 1159  LLC: 2048
rand_sets[15]: 1159
Assign rand_sets[16]: 513  LLC: 2048
rand_sets[16]: 513
Assign rand_sets[17]: 703  LLC: 2048
rand_sets[17]: 703
Assign rand_sets[18]: 561  LLC: 2048
rand_sets[18]: 561
Assign rand_sets[19]: 990  LLC: 2048
rand_sets[19]: 990
Assign rand_sets[20]: 342  LLC: 2048
rand_sets[20]: 342
Assign rand_sets[21]: 882  LLC: 2048
rand_sets[21]: 882
Assign rand_sets[22]: 15  LLC: 2048
rand_sets[22]: 15
Assign rand_sets[23]: 71  LLC: 2048
rand_sets[23]: 71
Assign rand_sets[24]: 1127  LLC: 2048
rand_sets[24]: 1127
Assign rand_sets[25]: 1382  LLC: 2048
rand_sets[25]: 1382
Assign rand_sets[26]: 647  LLC: 2048
rand_sets[26]: 647
Assign rand_sets[27]: 857  LLC: 2048
rand_sets[27]: 857
Assign rand_sets[28]: 1450  LLC: 2048
rand_sets[28]: 1450
Assign rand_sets[29]: 1160  LLC: 2048
rand_sets[29]: 1160
Assign rand_sets[30]: 1852  LLC: 2048
rand_sets[30]: 1852
Assign rand_sets[31]: 1881  LLC: 2048
rand_sets[31]: 1881
Assign rand_sets[32]: 1770  LLC: 2048
rand_sets[32]: 1770
Assign rand_sets[33]: 1622  LLC: 2048
rand_sets[33]: 1622
Assign rand_sets[34]: 275  LLC: 2048
rand_sets[34]: 275
Assign rand_sets[35]: 635  LLC: 2048
rand_sets[35]: 635
Assign rand_sets[36]: 466  LLC: 2048
rand_sets[36]: 466
Assign rand_sets[37]: 1413  LLC: 2048
rand_sets[37]: 1413
Assign rand_sets[38]: 417  LLC: 2048
rand_sets[38]: 417
Assign rand_sets[39]: 472  LLC: 2048
rand_sets[39]: 472
Assign rand_sets[40]: 1340  LLC: 2048
rand_sets[40]: 1340
Assign rand_sets[41]: 852  LLC: 2048
rand_sets[41]: 852
Assign rand_sets[42]: 1365  LLC: 2048
rand_sets[42]: 1365
Assign rand_sets[43]: 47  LLC: 2048
rand_sets[43]: 47
Assign rand_sets[44]: 823  LLC: 2048
rand_sets[44]: 823
Assign rand_sets[45]: 686  LLC: 2048
rand_sets[45]: 686
Assign rand_sets[46]: 1637  LLC: 2048
rand_sets[46]: 1637
Assign rand_sets[47]: 1115  LLC: 2048
rand_sets[47]: 1115
Assign rand_sets[48]: 986  LLC: 2048
rand_sets[48]: 986
Assign rand_sets[49]: 258  LLC: 2048
rand_sets[49]: 258
Assign rand_sets[50]: 633  LLC: 2048
rand_sets[50]: 633
Assign rand_sets[51]: 920  LLC: 2048
rand_sets[51]: 920
Assign rand_sets[52]: 204  LLC: 2048
rand_sets[52]: 204
Assign rand_sets[53]: 227  LLC: 2048
rand_sets[53]: 227
Assign rand_sets[54]: 1818  LLC: 2048
rand_sets[54]: 1818
Assign rand_sets[55]: 886  LLC: 2048
rand_sets[55]: 886
Assign rand_sets[56]: 1422  LLC: 2048
rand_sets[56]: 1422
Assign rand_sets[57]: 607  LLC: 2048
rand_sets[57]: 607
Assign rand_sets[58]: 217  LLC: 2048
rand_sets[58]: 217
Assign rand_sets[59]: 1945  LLC: 2048
rand_sets[59]: 1945
Assign rand_sets[60]: 143  LLC: 2048
rand_sets[60]: 143
Assign rand_sets[61]: 1311  LLC: 2048
rand_sets[61]: 1311
Assign rand_sets[62]: 319  LLC: 2048
rand_sets[62]: 319
Assign rand_sets[63]: 1846  LLC: 2048
rand_sets[63]: 1846
 CLEAN-RRIP-POLICY-1: 1-3-2-1-0-2-1-0- CLEAN-RRIP-POLICY-2: 1-3-2-1-0-2-1-0-
 DIRTY-RRIP-POLICY-1: 1-3-2-1-1-2-1-0- DIRTY-RRIP-POLICY-2: 1-3-2-1-1-2-1-0-
 PSEL width: 10
Heartbeat CPU 0 instructions: 10000001 cycles: 7315915 heartbeat IPC: 1.36688 cumulative IPC: 1.36688 (Simulation time: 0 hr 0 min 15 sec) 
Heartbeat CPU 0 instructions: 20000000 cycles: 14308046 heartbeat IPC: 1.43018 cumulative IPC: 1.39781 (Simulation time: 0 hr 0 min 30 sec) 
Heartbeat CPU 0 instructions: 30000001 cycles: 21021805 heartbeat IPC: 1.48948 cumulative IPC: 1.42709 (Simulation time: 0 hr 0 min 47 sec) 
Heartbeat CPU 0 instructions: 40000000 cycles: 27482772 heartbeat IPC: 1.54776 cumulative IPC: 1.45546 (Simulation time: 0 hr 1 min 3 sec) 
Heartbeat CPU 0 instructions: 50000001 cycles: 33584286 heartbeat IPC: 1.63894 cumulative IPC: 1.48879 (Simulation time: 0 hr 1 min 19 sec) 
Heartbeat CPU 0 instructions: 60000000 cycles: 40065373 heartbeat IPC: 1.54295 cumulative IPC: 1.49755 (Simulation time: 0 hr 1 min 36 sec) 
Heartbeat CPU 0 instructions: 70000000 cycles: 47103562 heartbeat IPC: 1.42082 cumulative IPC: 1.48609 (Simulation time: 0 hr 1 min 51 sec) 
Heartbeat CPU 0 instructions: 80000000 cycles: 54194023 heartbeat IPC: 1.41035 cumulative IPC: 1.47618 (Simulation time: 0 hr 2 min 7 sec) 
Heartbeat CPU 0 instructions: 90000003 cycles: 61199140 heartbeat IPC: 1.42753 cumulative IPC: 1.47061 (Simulation time: 0 hr 2 min 22 sec) 
Heartbeat CPU 0 instructions: 100000000 cycles: 68367318 heartbeat IPC: 1.39505 cumulative IPC: 1.46269 (Simulation time: 0 hr 2 min 37 sec) 

Warmup complete CPU 0 instructions: 100000004 cycles: 68367319 (Simulation time: 0 hr 2 min 37 sec) 

Heartbeat CPU 0 instructions: 110000003 cycles: 96311059 heartbeat IPC: 0.357862 cumulative IPC: 0.357862 (Simulation time: 0 hr 3 min 8 sec) 
Heartbeat CPU 0 instructions: 120000000 cycles: 123837756 heartbeat IPC: 0.363284 cumulative IPC: 0.360552 (Simulation time: 0 hr 3 min 39 sec) 
Heartbeat CPU 0 instructions: 130000000 cycles: 148843490 heartbeat IPC: 0.399908 cumulative IPC: 0.372781 (Simulation time: 0 hr 4 min 10 sec) 
Heartbeat CPU 0 instructions: 140000000 cycles: 178610490 heartbeat IPC: 0.335942 cumulative IPC: 0.362834 (Simulation time: 0 hr 4 min 40 sec) 
Heartbeat CPU 0 instructions: 150000000 cycles: 208782427 heartbeat IPC: 0.331434 cumulative IPC: 0.356087 (Simulation time: 0 hr 5 min 11 sec) 
Heartbeat CPU 0 instructions: 160000000 cycles: 236223132 heartbeat IPC: 0.364422 cumulative IPC: 0.35745 (Simulation time: 0 hr 5 min 40 sec) 
Heartbeat CPU 0 instructions: 170000001 cycles: 264371349 heartbeat IPC: 0.355262 cumulative IPC: 0.357136 (Simulation time: 0 hr 6 min 13 sec) 
Heartbeat CPU 0 instructions: 180000000 cycles: 292979332 heartbeat IPC: 0.349553 cumulative IPC: 0.35617 (Simulation time: 0 hr 6 min 44 sec) 
Heartbeat CPU 0 instructions: 190000002 cycles: 321127677 heartbeat IPC: 0.355261 cumulative IPC: 0.356068 (Simulation time: 0 hr 7 min 15 sec) 
Heartbeat CPU 0 instructions: 200000000 cycles: 349684477 heartbeat IPC: 0.350179 cumulative IPC: 0.355471 (Simulation time: 0 hr 7 min 46 sec) 
Heartbeat CPU 0 instructions: 210000002 cycles: 377616231 heartbeat IPC: 0.358016 cumulative IPC: 0.355701 (Simulation time: 0 hr 8 min 17 sec) 
Heartbeat CPU 0 instructions: 220000000 cycles: 407015674 heartbeat IPC: 0.340142 cumulative IPC: 0.35435 (Simulation time: 0 hr 8 min 47 sec) 
Heartbeat CPU 0 instructions: 230000000 cycles: 434813564 heartbeat IPC: 0.35974 cumulative IPC: 0.354759 (Simulation time: 0 hr 9 min 17 sec) 
Heartbeat CPU 0 instructions: 240000000 cycles: 461172491 heartbeat IPC: 0.379378 cumulative IPC: 0.356411 (Simulation time: 0 hr 9 min 46 sec) 
Heartbeat CPU 0 instructions: 250000000 cycles: 491460751 heartbeat IPC: 0.330161 cumulative IPC: 0.354532 (Simulation time: 0 hr 10 min 18 sec) 
Heartbeat CPU 0 instructions: 260000000 cycles: 518641339 heartbeat IPC: 0.36791 cumulative IPC: 0.355339 (Simulation time: 0 hr 10 min 49 sec) 
Heartbeat CPU 0 instructions: 270000003 cycles: 547095969 heartbeat IPC: 0.351437 cumulative IPC: 0.355107 (Simulation time: 0 hr 11 min 20 sec) 
Heartbeat CPU 0 instructions: 280000000 cycles: 575488178 heartbeat IPC: 0.352209 cumulative IPC: 0.354945 (Simulation time: 0 hr 11 min 52 sec) 
Heartbeat CPU 0 instructions: 290000000 cycles: 604374223 heartbeat IPC: 0.346188 cumulative IPC: 0.354473 (Simulation time: 0 hr 12 min 24 sec) 
Heartbeat CPU 0 instructions: 300000000 cycles: 634543612 heartbeat IPC: 0.331462 cumulative IPC: 0.353247 (Simulation time: 0 hr 12 min 55 sec) 
