
*** ChampSim Multicore Out-of-Order Simulator ***

Warmup Instructions: 100000000
Simulation Instructions: 500000000
Number of CPUs: 1
LLC sets: 2048
LLC ways: 16
Clean RRIP Policies: 2203230022032300 Dirty RRIP Policies: 1203031012030310 PSEL Width: 10 Track Set: 4294967295 PSEL Mask: 1 Demote Mask: 2102011021020110DS Algo: 0Window size: 0
Off-chip DRAM Size: 4096 MB Channels: 1 Width: 64-bit Data Rate: 1600 MT/s

CPU 0 runs /mnt/beegfs/iconst01/spec2017/Fotonik3d.trace.gz
NOT SORTED
TRACE STRING: /mnt/beegfs/iconst01/spec2017/Fotonik3d.trace.gz
SORTED
TRACE STRING: /mnt/beegfs/iconst01/spec2017/Fotonik3d.trace.gz
INITIAL
TRACE STRING: /mnt/beegfs/iconst01/spec2017/Fotonik3d.trace.gz

champsim_seed used: 881

CPU 0 L1D next line prefetcher
CPU 0 L2C IP-based stride prefetcher
Initialize DRRIP state
Assign rand_sets[0]: 454  LLC: 2048
rand_sets[0]: 454
Assign rand_sets[1]: 1662  LLC: 2048
rand_sets[1]: 1662
Assign rand_sets[2]: 1921  LLC: 2048
rand_sets[2]: 1921
Assign rand_sets[3]: 1131  LLC: 2048
rand_sets[3]: 1131
Assign rand_sets[4]: 331  LLC: 2048
rand_sets[4]: 331
Assign rand_sets[5]: 1531  LLC: 2048
rand_sets[5]: 1531
Assign rand_sets[6]: 482  LLC: 2048
rand_sets[6]: 482
Assign rand_sets[7]: 1275  LLC: 2048
rand_sets[7]: 1275
Assign rand_sets[8]: 1876  LLC: 2048
rand_sets[8]: 1876
Assign rand_sets[9]: 2038  LLC: 2048
rand_sets[9]: 2038
Assign rand_sets[10]: 701  LLC: 2048
rand_sets[10]: 701
Assign rand_sets[11]: 479  LLC: 2048
rand_sets[11]: 479
Assign rand_sets[12]: 892  LLC: 2048
rand_sets[12]: 892
Assign rand_sets[13]: 1820  LLC: 2048
rand_sets[13]: 1820
Assign rand_sets[14]: 1505  LLC: 2048
rand_sets[14]: 1505
Assign rand_sets[15]: 1159  LLC: 2048
rand_sets[15]: 1159
Assign rand_sets[16]: 513  LLC: 2048
rand_sets[16]: 513
Assign rand_sets[17]: 703  LLC: 2048
rand_sets[17]: 703
Assign rand_sets[18]: 561  LLC: 2048
rand_sets[18]: 561
Assign rand_sets[19]: 990  LLC: 2048
rand_sets[19]: 990
Assign rand_sets[20]: 342  LLC: 2048
rand_sets[20]: 342
Assign rand_sets[21]: 882  LLC: 2048
rand_sets[21]: 882
Assign rand_sets[22]: 15  LLC: 2048
rand_sets[22]: 15
Assign rand_sets[23]: 71  LLC: 2048
rand_sets[23]: 71
Assign rand_sets[24]: 1127  LLC: 2048
rand_sets[24]: 1127
Assign rand_sets[25]: 1382  LLC: 2048
rand_sets[25]: 1382
Assign rand_sets[26]: 647  LLC: 2048
rand_sets[26]: 647
Assign rand_sets[27]: 857  LLC: 2048
rand_sets[27]: 857
Assign rand_sets[28]: 1450  LLC: 2048
rand_sets[28]: 1450
Assign rand_sets[29]: 1160  LLC: 2048
rand_sets[29]: 1160
Assign rand_sets[30]: 1852  LLC: 2048
rand_sets[30]: 1852
Assign rand_sets[31]: 1881  LLC: 2048
rand_sets[31]: 1881
Assign rand_sets[32]: 1770  LLC: 2048
rand_sets[32]: 1770
Assign rand_sets[33]: 1622  LLC: 2048
rand_sets[33]: 1622
Assign rand_sets[34]: 275  LLC: 2048
rand_sets[34]: 275
Assign rand_sets[35]: 635  LLC: 2048
rand_sets[35]: 635
Assign rand_sets[36]: 466  LLC: 2048
rand_sets[36]: 466
Assign rand_sets[37]: 1413  LLC: 2048
rand_sets[37]: 1413
Assign rand_sets[38]: 417  LLC: 2048
rand_sets[38]: 417
Assign rand_sets[39]: 472  LLC: 2048
rand_sets[39]: 472
Assign rand_sets[40]: 1340  LLC: 2048
rand_sets[40]: 1340
Assign rand_sets[41]: 852  LLC: 2048
rand_sets[41]: 852
Assign rand_sets[42]: 1365  LLC: 2048
rand_sets[42]: 1365
Assign rand_sets[43]: 47  LLC: 2048
rand_sets[43]: 47
Assign rand_sets[44]: 823  LLC: 2048
rand_sets[44]: 823
Assign rand_sets[45]: 686  LLC: 2048
rand_sets[45]: 686
Assign rand_sets[46]: 1637  LLC: 2048
rand_sets[46]: 1637
Assign rand_sets[47]: 1115  LLC: 2048
rand_sets[47]: 1115
Assign rand_sets[48]: 986  LLC: 2048
rand_sets[48]: 986
Assign rand_sets[49]: 258  LLC: 2048
rand_sets[49]: 258
Assign rand_sets[50]: 633  LLC: 2048
rand_sets[50]: 633
Assign rand_sets[51]: 920  LLC: 2048
rand_sets[51]: 920
Assign rand_sets[52]: 204  LLC: 2048
rand_sets[52]: 204
Assign rand_sets[53]: 227  LLC: 2048
rand_sets[53]: 227
Assign rand_sets[54]: 1818  LLC: 2048
rand_sets[54]: 1818
Assign rand_sets[55]: 886  LLC: 2048
rand_sets[55]: 886
Assign rand_sets[56]: 1422  LLC: 2048
rand_sets[56]: 1422
Assign rand_sets[57]: 607  LLC: 2048
rand_sets[57]: 607
Assign rand_sets[58]: 217  LLC: 2048
rand_sets[58]: 217
Assign rand_sets[59]: 1945  LLC: 2048
rand_sets[59]: 1945
Assign rand_sets[60]: 143  LLC: 2048
rand_sets[60]: 143
Assign rand_sets[61]: 1311  LLC: 2048
rand_sets[61]: 1311
Assign rand_sets[62]: 319  LLC: 2048
rand_sets[62]: 319
Assign rand_sets[63]: 1846  LLC: 2048
rand_sets[63]: 1846
 CLEAN-RRIP-POLICY-1: 2-2-0-3-2-3-0-0- CLEAN-RRIP-POLICY-2: 2-2-0-3-2-3-0-0-
 DIRTY-RRIP-POLICY-1: 1-2-0-3-0-3-1-0- DIRTY-RRIP-POLICY-2: 1-2-0-3-0-3-1-0-
 PSEL width: 10
Heartbeat CPU 0 instructions: 10000002 cycles: 7306730 heartbeat IPC: 1.3686 cumulative IPC: 1.3686 (Simulation time: 0 hr 0 min 25 sec) 
Heartbeat CPU 0 instructions: 20000000 cycles: 14613621 heartbeat IPC: 1.36857 cumulative IPC: 1.36859 (Simulation time: 0 hr 0 min 50 sec) 
Heartbeat CPU 0 instructions: 30000001 cycles: 21920380 heartbeat IPC: 1.3686 cumulative IPC: 1.36859 (Simulation time: 0 hr 1 min 15 sec) 
Heartbeat CPU 0 instructions: 40000000 cycles: 29227027 heartbeat IPC: 1.36862 cumulative IPC: 1.3686 (Simulation time: 0 hr 1 min 41 sec) 
Heartbeat CPU 0 instructions: 50000001 cycles: 36533622 heartbeat IPC: 1.36863 cumulative IPC: 1.3686 (Simulation time: 0 hr 2 min 6 sec) 
Heartbeat CPU 0 instructions: 60000000 cycles: 43840496 heartbeat IPC: 1.36857 cumulative IPC: 1.3686 (Simulation time: 0 hr 2 min 31 sec) 
Heartbeat CPU 0 instructions: 70000002 cycles: 51147167 heartbeat IPC: 1.36861 cumulative IPC: 1.3686 (Simulation time: 0 hr 2 min 57 sec) 
Heartbeat CPU 0 instructions: 80000000 cycles: 58453793 heartbeat IPC: 1.36862 cumulative IPC: 1.3686 (Simulation time: 0 hr 3 min 22 sec) 
Heartbeat CPU 0 instructions: 90000003 cycles: 65764247 heartbeat IPC: 1.3679 cumulative IPC: 1.36852 (Simulation time: 0 hr 3 min 48 sec) 
Heartbeat CPU 0 instructions: 100000000 cycles: 73074774 heartbeat IPC: 1.36789 cumulative IPC: 1.36846 (Simulation time: 0 hr 4 min 14 sec) 

Warmup complete CPU 0 instructions: 100000002 cycles: 73074786 (Simulation time: 0 hr 4 min 14 sec) 

Heartbeat CPU 0 instructions: 110000001 cycles: 85490022 heartbeat IPC: 0.805461 cumulative IPC: 0.805462 (Simulation time: 0 hr 4 min 44 sec) 
Heartbeat CPU 0 instructions: 120000000 cycles: 97858526 heartbeat IPC: 0.808505 cumulative IPC: 0.806981 (Simulation time: 0 hr 5 min 15 sec) 
Heartbeat CPU 0 instructions: 130000000 cycles: 110282248 heartbeat IPC: 0.804912 cumulative IPC: 0.80629 (Simulation time: 0 hr 5 min 45 sec) 
Heartbeat CPU 0 instructions: 140000000 cycles: 122659422 heartbeat IPC: 0.807939 cumulative IPC: 0.806701 (Simulation time: 0 hr 6 min 16 sec) 
Heartbeat CPU 0 instructions: 150000000 cycles: 135020145 heartbeat IPC: 0.809014 cumulative IPC: 0.807163 (Simulation time: 0 hr 6 min 46 sec) 
Heartbeat CPU 0 instructions: 160000000 cycles: 147422393 heartbeat IPC: 0.806305 cumulative IPC: 0.80702 (Simulation time: 0 hr 7 min 17 sec) 
Heartbeat CPU 0 instructions: 170000001 cycles: 159799454 heartbeat IPC: 0.807946 cumulative IPC: 0.807152 (Simulation time: 0 hr 7 min 47 sec) 
Heartbeat CPU 0 instructions: 180000000 cycles: 172191007 heartbeat IPC: 0.807001 cumulative IPC: 0.807133 (Simulation time: 0 hr 8 min 18 sec) 
Heartbeat CPU 0 instructions: 190000000 cycles: 184596001 heartbeat IPC: 0.806127 cumulative IPC: 0.807021 (Simulation time: 0 hr 8 min 48 sec) 
Heartbeat CPU 0 instructions: 200000000 cycles: 196984269 heartbeat IPC: 0.807215 cumulative IPC: 0.807041 (Simulation time: 0 hr 9 min 19 sec) 
Heartbeat CPU 0 instructions: 210000002 cycles: 209418990 heartbeat IPC: 0.8042 cumulative IPC: 0.806782 (Simulation time: 0 hr 9 min 50 sec) 
Heartbeat CPU 0 instructions: 220000000 cycles: 221853331 heartbeat IPC: 0.804224 cumulative IPC: 0.806568 (Simulation time: 0 hr 10 min 20 sec) 
Heartbeat CPU 0 instructions: 230000002 cycles: 234243136 heartbeat IPC: 0.807115 cumulative IPC: 0.80661 (Simulation time: 0 hr 10 min 51 sec) 
Heartbeat CPU 0 instructions: 240000000 cycles: 247306161 heartbeat IPC: 0.765519 cumulative IPC: 0.803529 (Simulation time: 0 hr 11 min 21 sec) 
Heartbeat CPU 0 instructions: 250000001 cycles: 264706752 heartbeat IPC: 0.574693 cumulative IPC: 0.78275 (Simulation time: 0 hr 11 min 55 sec) 
Heartbeat CPU 0 instructions: 260000000 cycles: 282054771 heartbeat IPC: 0.576435 cumulative IPC: 0.765624 (Simulation time: 0 hr 12 min 28 sec) 
Heartbeat CPU 0 instructions: 270000000 cycles: 299457397 heartbeat IPC: 0.574626 cumulative IPC: 0.750941 (Simulation time: 0 hr 13 min 1 sec) 
Heartbeat CPU 0 instructions: 280000000 cycles: 316866360 heartbeat IPC: 0.574417 cumulative IPC: 0.738336 (Simulation time: 0 hr 13 min 34 sec) 
Heartbeat CPU 0 instructions: 290000001 cycles: 345518176 heartbeat IPC: 0.349018 cumulative IPC: 0.697393 (Simulation time: 0 hr 14 min 15 sec) 
Heartbeat CPU 0 instructions: 300000000 cycles: 382716022 heartbeat IPC: 0.268833 cumulative IPC: 0.645909 (Simulation time: 0 hr 15 min 2 sec) 
Heartbeat CPU 0 instructions: 310000000 cycles: 399521518 heartbeat IPC: 0.595043 cumulative IPC: 0.64329 (Simulation time: 0 hr 15 min 34 sec) 
Heartbeat CPU 0 instructions: 320000000 cycles: 416310187 heartbeat IPC: 0.59564 cumulative IPC: 0.64096 (Simulation time: 0 hr 16 min 6 sec) 
Heartbeat CPU 0 instructions: 330000003 cycles: 433196084 heartbeat IPC: 0.59221 cumulative IPC: 0.638674 (Simulation time: 0 hr 16 min 38 sec) 
Heartbeat CPU 0 instructions: 340000000 cycles: 449992604 heartbeat IPC: 0.595361 cumulative IPC: 0.636744 (Simulation time: 0 hr 17 min 10 sec) 
Heartbeat CPU 0 instructions: 350000001 cycles: 465021135 heartbeat IPC: 0.665401 cumulative IPC: 0.637842 (Simulation time: 0 hr 17 min 40 sec) 
Heartbeat CPU 0 instructions: 360000000 cycles: 476862639 heartbeat IPC: 0.844487 cumulative IPC: 0.643902 (Simulation time: 0 hr 18 min 6 sec) 
Heartbeat CPU 0 instructions: 370000002 cycles: 488470368 heartbeat IPC: 0.861495 cumulative IPC: 0.649983 (Simulation time: 0 hr 18 min 34 sec) 
Heartbeat CPU 0 instructions: 380000000 cycles: 500304687 heartbeat IPC: 0.845 cumulative IPC: 0.655385 (Simulation time: 0 hr 19 min 1 sec) 
Heartbeat CPU 0 instructions: 390000003 cycles: 513588861 heartbeat IPC: 0.752776 cumulative IPC: 0.658322 (Simulation time: 0 hr 19 min 29 sec) 
Heartbeat CPU 0 instructions: 400000000 cycles: 525796971 heartbeat IPC: 0.819127 cumulative IPC: 0.662658 (Simulation time: 0 hr 19 min 56 sec) 
Heartbeat CPU 0 instructions: 410000002 cycles: 537729281 heartbeat IPC: 0.838061 cumulative IPC: 0.667162 (Simulation time: 0 hr 20 min 24 sec) 
Heartbeat CPU 0 instructions: 420000000 cycles: 550521415 heartbeat IPC: 0.78173 cumulative IPC: 0.670232 (Simulation time: 0 hr 20 min 52 sec) 
Heartbeat CPU 0 instructions: 430000003 cycles: 568835380 heartbeat IPC: 0.546032 cumulative IPC: 0.665644 (Simulation time: 0 hr 21 min 17 sec) 
Heartbeat CPU 0 instructions: 440000000 cycles: 587158868 heartbeat IPC: 0.545747 cumulative IPC: 0.66137 (Simulation time: 0 hr 21 min 42 sec) 
Heartbeat CPU 0 instructions: 450000003 cycles: 605519665 heartbeat IPC: 0.544639 cumulative IPC: 0.657345 (Simulation time: 0 hr 22 min 7 sec) 
Heartbeat CPU 0 instructions: 460000000 cycles: 623847449 heartbeat IPC: 0.54562 cumulative IPC: 0.653627 (Simulation time: 0 hr 22 min 32 sec) 
Heartbeat CPU 0 instructions: 470000003 cycles: 642192384 heartbeat IPC: 0.54511 cumulative IPC: 0.650129 (Simulation time: 0 hr 22 min 57 sec) 
Heartbeat CPU 0 instructions: 480000000 cycles: 660530288 heartbeat IPC: 0.545318 cumulative IPC: 0.646858 (Simulation time: 0 hr 23 min 22 sec) 
Heartbeat CPU 0 instructions: 490000003 cycles: 678886285 heartbeat IPC: 0.544781 cumulative IPC: 0.643765 (Simulation time: 0 hr 23 min 47 sec) 
Heartbeat CPU 0 instructions: 500000000 cycles: 697188971 heartbeat IPC: 0.546368 cumulative IPC: 0.640908 (Simulation time: 0 hr 24 min 12 sec) 
Heartbeat CPU 0 instructions: 510000003 cycles: 715522272 heartbeat IPC: 0.545456 cumulative IPC: 0.638184 (Simulation time: 0 hr 24 min 37 sec) 
Heartbeat CPU 0 instructions: 520000000 cycles: 733855418 heartbeat IPC: 0.54546 cumulative IPC: 0.635612 (Simulation time: 0 hr 25 min 2 sec) 
Heartbeat CPU 0 instructions: 530000001 cycles: 752208535 heartbeat IPC: 0.544867 cumulative IPC: 0.63316 (Simulation time: 0 hr 25 min 27 sec) 
Heartbeat CPU 0 instructions: 540000000 cycles: 770481973 heartbeat IPC: 0.547242 cumulative IPC: 0.630908 (Simulation time: 0 hr 25 min 52 sec) 
Heartbeat CPU 0 instructions: 550000001 cycles: 788765524 heartbeat IPC: 0.54694 cumulative IPC: 0.628763 (Simulation time: 0 hr 26 min 17 sec) 
Heartbeat CPU 0 instructions: 560000000 cycles: 807062852 heartbeat IPC: 0.546528 cumulative IPC: 0.626713 (Simulation time: 0 hr 26 min 42 sec) 
Heartbeat CPU 0 instructions: 570000001 cycles: 825325937 heartbeat IPC: 0.547553 cumulative IPC: 0.624791 (Simulation time: 0 hr 27 min 7 sec) 
Heartbeat CPU 0 instructions: 580000000 cycles: 843536824 heartbeat IPC: 0.549122 cumulative IPC: 0.623003 (Simulation time: 0 hr 27 min 32 sec) 
Heartbeat CPU 0 instructions: 590000001 cycles: 861823667 heartbeat IPC: 0.546841 cumulative IPC: 0.621237 (Simulation time: 0 hr 27 min 57 sec) 
Heartbeat CPU 0 instructions: 600000000 cycles: 880112359 heartbeat IPC: 0.546786 cumulative IPC: 0.61955 (Simulation time: 0 hr 28 min 22 sec) 
Finished CPU 0 instructions: 500000002 cycles: 807037587 cumulative IPC: 0.61955 (Simulation time: 0 hr 28 min 22 sec) 

CPU 0 Branch Prediction Accuracy: 99.5931% MPKI: 0.08288
Number of Branches: 10184133 Number of Mispredictions: 41440
Number of LOAD Instructions: 261155957
Number of LOAD Instructions (ROI): 261155957
Number of STORE Instructions: 57884062
Number of STORE Instructions (ROI): 57884062
Total Destination Memory Operands: 83293336
Total Destination Memory Operands (ROI): 83293336
Total Source Memory Operands: 261155957
Total Source Memory Operands (ROI): 261155957
Number of DEPENDED LOADS: 22255531
Number of DEPENDED LOADS (ROI): 22255531
Number of SQ_ADDED: 83293300
Number of SQ_ADDED (ROI): 83293300
Number of LQ_ADDED: 1767167076
Number of LQ_ADDED (ROI): 1767167076
Number of Instructions read from trace: 600000257

ChampSim completed all CPUs

Region of Interest Statistics

CPU 0 cumulative IPC: 0.61955 instructions: 500000002 cycles: 807037587
ITLB TOTAL     ACCESS:   94703754  HIT:   94703716  MISS:         38
ITLB LOAD      ACCESS:   94703754  HIT:   94703716  MISS:         38
ITLB RFO       ACCESS:          0  HIT:          0  MISS:          0
ITLB PREFETCH  ACCESS:          0  HIT:          0  MISS:          0
ITLB WRITEBACK ACCESS:          0  HIT:          0  MISS:          0
ITLB PREFETCH  REQUESTED:          0  ISSUED:          0  USEFUL:          0  USELESS:          0
ITLB TOTAL MSHR MERGED:         93
ITLB LOAD MSHR MERGED:         93
ITLB RFO MSHR MERGED:          0
ITLB PREFETCH MSHR MERGED:          0
ITLB WRITEBACK MSHR MERGED:          0
ITLB TOTAL ACCESSES:   94703847 HITS:   94703716 MISSES:        131
ITLB LOAD ACCESSES:   94703847 HITS:   94703716 MISSES:        131
ITLB RFO ACCESSES:          0 HITS:          0 MISSES:          0
ITLB PREFETCH ACCESSES:          0 HITS:          0 MISSES:          0
ITLB WRITEBACK ACCESSES:          0 HITS:          0 MISSES:          0
ITLB RQ ACCESS:  500000001
ITLB RQ TO_CACHE:   94703848
ITLB RQ MERGED:  405296153
ITLB RQ FORWARD:          0
ITLB WQ ACCESS:          0
ITLB WQ TO_CACHE:          0
ITLB WQ MERGED:          0
ITLB WQ FORWARD:          0
DTLB TOTAL     ACCESS:  149190474  HIT:  148593514  MISS:     596960
DTLB LOAD      ACCESS:  107317176  HIT:  106720227  MISS:     596949
DTLB RFO       ACCESS:   41873298  HIT:   41873287  MISS:         11
DTLB PREFETCH  ACCESS:          0  HIT:          0  MISS:          0
DTLB WRITEBACK ACCESS:          0  HIT:          0  MISS:          0
DTLB PREFETCH  REQUESTED:          0  ISSUED:          0  USEFUL:          0  USELESS:          0
DTLB TOTAL MSHR MERGED:     134213
DTLB LOAD MSHR MERGED:     134213
DTLB RFO MSHR MERGED:          0
DTLB PREFETCH MSHR MERGED:          0
DTLB WRITEBACK MSHR MERGED:          0
DTLB TOTAL ACCESSES:  149324687 HITS:  148593514 MISSES:     731173
DTLB LOAD ACCESSES:  107451389 HITS:  106720227 MISSES:     731162
DTLB RFO ACCESSES:   41873298 HITS:   41873287 MISSES:         11
DTLB PREFETCH ACCESSES:          0 HITS:          0 MISSES:          0
DTLB WRITEBACK ACCESSES:          0 HITS:          0 MISSES:          0
DTLB RQ ACCESS:  259760363
DTLB RQ TO_CACHE:  149324687
DTLB RQ MERGED:  110435676
DTLB RQ FORWARD:          0
DTLB WQ ACCESS:          0
DTLB WQ TO_CACHE:          0
DTLB WQ MERGED:          0
DTLB WQ FORWARD:          0
L1D TOTAL     ACCESS:  261085522  HIT:  245683138  MISS:   15402384
L1D LOAD      ACCESS:  118069840  HIT:  112571134  MISS:    5498706
L1D RFO       ACCESS:   68946726  HIT:   68932322  MISS:      14404
L1D PREFETCH  ACCESS:   74068956  HIT:   64179682  MISS:    9889274
L1D WRITEBACK ACCESS:          0  HIT:          0  MISS:          0
L1D PREFETCH  REQUESTED:  120656276  ISSUED:  119102903  USEFUL:    8013915  USELESS:    1875381
L1D TOTAL MSHR MERGED:   16504115
L1D LOAD MSHR MERGED:    4996518
L1D RFO MSHR MERGED:      21842
L1D PREFETCH MSHR MERGED:   11485755
L1D WRITEBACK MSHR MERGED:          0
L1D TOTAL ACCESSES:  277699817 HITS:  245793318 MISSES:   31906499
L1D LOAD ACCESSES:  120663803 HITS:  112578661 MISSES:    8085142
L1D RFO ACCESSES:   68968567 HITS:   68932322 MISSES:      36245
L1D PREFETCH ACCESSES:   88067447 HITS:   64282335 MISSES:   23785112
L1D WRITEBACK ACCESSES:          0 HITS:          0 MISSES:          0
L1D RQ ACCESS:  190686047
L1D RQ TO_CACHE:  120656276
L1D RQ MERGED:   70022244
L1D RQ FORWARD:          0
L1D WQ ACCESS:   69074336
L1D WQ TO_CACHE:   68968569
L1D WQ MERGED:     105767
L1D WQ FORWARD:     110180
L1I TOTAL     ACCESS:  121608852  HIT:  121607779  MISS:       1073
L1I LOAD      ACCESS:  121608852  HIT:  121607779  MISS:       1073
L1I RFO       ACCESS:          0  HIT:          0  MISS:          0
L1I PREFETCH  ACCESS:          0  HIT:          0  MISS:          0
L1I WRITEBACK ACCESS:          0  HIT:          0  MISS:          0
L1I PREFETCH  REQUESTED:          0  ISSUED:          0  USEFUL:          0  USELESS:          0
L1I TOTAL MSHR MERGED:       1039
L1I LOAD MSHR MERGED:       1039
L1I RFO MSHR MERGED:          0
L1I PREFETCH MSHR MERGED:          0
L1I WRITEBACK MSHR MERGED:          0
L1I TOTAL ACCESSES:  121609891 HITS:  121607779 MISSES:       2112
L1I LOAD ACCESSES:  121609891 HITS:  121607779 MISSES:       2112
L1I RFO ACCESSES:          0 HITS:          0 MISSES:          0
L1I PREFETCH ACCESSES:          0 HITS:          0 MISSES:          0
L1I WRITEBACK ACCESSES:          0 HITS:          0 MISSES:          0
L1I RQ ACCESS:  500000000
L1I RQ TO_CACHE:  121609891
L1I RQ MERGED:  378390109
L1I RQ FORWARD:          0
L1I WQ ACCESS:          0
L1I WQ TO_CACHE:          0
L1I WQ MERGED:          0
L1I WQ FORWARD:          0
L2C TOTAL     ACCESS:   22474594  HIT:    9151410  MISS:   13323184
L2C LOAD      ACCESS:    3089663  HIT:     416279  MISS:    2673384
L2C RFO       ACCESS:      14403  HIT:      13990  MISS:        413
L2C PREFETCH  ACCESS:   12740582  HIT:    2093000  MISS:   10647582
L2C WRITEBACK ACCESS:    6629946  HIT:    6628141  MISS:       1805
L2C PREFETCH  REQUESTED:     693234  ISSUED:     693234  USEFUL:     186111  USELESS:   10462268
L2C TOTAL MSHR MERGED:      70933
L2C LOAD MSHR MERGED:      22223
L2C RFO MSHR MERGED:          0
L2C PREFETCH MSHR MERGED:      48710
L2C WRITEBACK MSHR MERGED:          0
L2C TOTAL ACCESSES:   22686609 HITS:    9151457 MISSES:   13535152
L2C LOAD ACCESSES:    3089697 HITS:     416313 MISSES:    2673384
L2C RFO ACCESSES:      14403 HITS:      13990 MISSES:        413
L2C PREFETCH ACCESSES:   12952563 HITS:    2093013 MISSES:   10859550
L2C WRITEBACK ACCESSES:    6629946 HITS:    6628141 MISSES:       1805
L2C RQ ACCESS:    3104100
L2C RQ TO_CACHE:    3104066
L2C RQ MERGED:          0
L2C RQ FORWARD:          0
L2C WQ ACCESS:    6629946
L2C WQ TO_CACHE:    6629946
L2C WQ MERGED:          0
L2C WQ FORWARD:         47
LLC TOTAL     ACCESS:   20030708  HIT:    1840547  MISS:   18190161
LLC LOAD      ACCESS:    2651159  HIT:     369064  MISS:    2282095
LLC RFO       ACCESS:        413  HIT:         17  MISS:        396
LLC PREFETCH  ACCESS:   10787891  HIT:     104231  MISS:   10683660
LLC WRITEBACK ACCESS:    6591245  HIT:    1367235  MISS:    5224010
LLC PREFETCH  REQUESTED:          0  ISSUED:          0  USEFUL:      46207  USELESS:   10637708
LLC TOTAL MSHR MERGED:      21430
LLC LOAD MSHR MERGED:       9919
LLC RFO MSHR MERGED:          0
LLC PREFETCH MSHR MERGED:      11511
LLC WRITEBACK MSHR MERGED:          0
LLC TOTAL ACCESSES:   20052142 HITS:    1840550 MISSES:   18211592
LLC LOAD ACCESSES:    2651161 HITS:     369066 MISSES:    2282095
LLC RFO ACCESSES:        413 HITS:         17 MISSES:        396
LLC PREFETCH ACCESSES:   10809323 HITS:     104232 MISSES:   10705091
LLC WRITEBACK ACCESSES:    6591245 HITS:    1367235 MISSES:    5224010
LLC 0 RQ ACCESS:    2651574
LLC 0 RQ TO_CACHE:    2651572
LLC 0 RQ MERGED:          0
LLC 0 RQ FORWARD:          0
LLC WQ ACCESS:    6591246
LLC WQ TO_CACHE:    6591246
LLC WQ MERGED:          0
LLC WQ FORWARD:          3
Major fault: 0 Minor fault: 183991
CPU 0 L1D next line prefetcher final stats
CPU 0 L2C PC-based stride prefetcher final stats
All Misses: 21050959
All Hits: 1910795
SD Algo Stats - Switches: 0 SRR-Repls: 2334499 BRR-Repls: 0

DRAM Statistics
 CHANNEL 0
 RQ ROW_BUFFER_HIT:    7191011  ROW_BUFFER_MISS:    5775138
 DBUS_CONGESTED:   11719922
 WQ ROW_BUFFER_HIT:    2216440  ROW_BUFFER_MISS:    4365124  FULL:          0

 AVG_CONGESTED_CYCLE: 13
LOADS RETIRED: 204440772
INSTR RETIRED: 500000000
