
*** ChampSim Multicore Out-of-Order Simulator ***

Warmup Instructions: 100000000
Simulation Instructions: 500000000
Number of CPUs: 1
LLC sets: 2048
LLC ways: 16
Clean RRIP Policies: 2203230022032300 Dirty RRIP Policies: 1203031012030310 PSEL Width: 10 Track Set: 4294967295 PSEL Mask: 1 Demote Mask: 2102011021020110DS Algo: 0Window size: 0
Off-chip DRAM Size: 4096 MB Channels: 1 Width: 64-bit Data Rate: 1600 MT/s

CPU 0 runs /mnt/beegfs/iconst01/spec2017/Xz.trace.gz
NOT SORTED
TRACE STRING: /mnt/beegfs/iconst01/spec2017/Xz.trace.gz
SORTED
TRACE STRING: /mnt/beegfs/iconst01/spec2017/Xz.trace.gz
INITIAL
TRACE STRING: /mnt/beegfs/iconst01/spec2017/Xz.trace.gz

champsim_seed used: 210

CPU 0 L1D next line prefetcher
CPU 0 L2C IP-based stride prefetcher
Initialize DRRIP state
Assign rand_sets[0]: 454  LLC: 2048
rand_sets[0]: 454
Assign rand_sets[1]: 1662  LLC: 2048
rand_sets[1]: 1662
Assign rand_sets[2]: 1921  LLC: 2048
rand_sets[2]: 1921
Assign rand_sets[3]: 1131  LLC: 2048
rand_sets[3]: 1131
Assign rand_sets[4]: 331  LLC: 2048
rand_sets[4]: 331
Assign rand_sets[5]: 1531  LLC: 2048
rand_sets[5]: 1531
Assign rand_sets[6]: 482  LLC: 2048
rand_sets[6]: 482
Assign rand_sets[7]: 1275  LLC: 2048
rand_sets[7]: 1275
Assign rand_sets[8]: 1876  LLC: 2048
rand_sets[8]: 1876
Assign rand_sets[9]: 2038  LLC: 2048
rand_sets[9]: 2038
Assign rand_sets[10]: 701  LLC: 2048
rand_sets[10]: 701
Assign rand_sets[11]: 479  LLC: 2048
rand_sets[11]: 479
Assign rand_sets[12]: 892  LLC: 2048
rand_sets[12]: 892
Assign rand_sets[13]: 1820  LLC: 2048
rand_sets[13]: 1820
Assign rand_sets[14]: 1505  LLC: 2048
rand_sets[14]: 1505
Assign rand_sets[15]: 1159  LLC: 2048
rand_sets[15]: 1159
Assign rand_sets[16]: 513  LLC: 2048
rand_sets[16]: 513
Assign rand_sets[17]: 703  LLC: 2048
rand_sets[17]: 703
Assign rand_sets[18]: 561  LLC: 2048
rand_sets[18]: 561
Assign rand_sets[19]: 990  LLC: 2048
rand_sets[19]: 990
Assign rand_sets[20]: 342  LLC: 2048
rand_sets[20]: 342
Assign rand_sets[21]: 882  LLC: 2048
rand_sets[21]: 882
Assign rand_sets[22]: 15  LLC: 2048
rand_sets[22]: 15
Assign rand_sets[23]: 71  LLC: 2048
rand_sets[23]: 71
Assign rand_sets[24]: 1127  LLC: 2048
rand_sets[24]: 1127
Assign rand_sets[25]: 1382  LLC: 2048
rand_sets[25]: 1382
Assign rand_sets[26]: 647  LLC: 2048
rand_sets[26]: 647
Assign rand_sets[27]: 857  LLC: 2048
rand_sets[27]: 857
Assign rand_sets[28]: 1450  LLC: 2048
rand_sets[28]: 1450
Assign rand_sets[29]: 1160  LLC: 2048
rand_sets[29]: 1160
Assign rand_sets[30]: 1852  LLC: 2048
rand_sets[30]: 1852
Assign rand_sets[31]: 1881  LLC: 2048
rand_sets[31]: 1881
Assign rand_sets[32]: 1770  LLC: 2048
rand_sets[32]: 1770
Assign rand_sets[33]: 1622  LLC: 2048
rand_sets[33]: 1622
Assign rand_sets[34]: 275  LLC: 2048
rand_sets[34]: 275
Assign rand_sets[35]: 635  LLC: 2048
rand_sets[35]: 635
Assign rand_sets[36]: 466  LLC: 2048
rand_sets[36]: 466
Assign rand_sets[37]: 1413  LLC: 2048
rand_sets[37]: 1413
Assign rand_sets[38]: 417  LLC: 2048
rand_sets[38]: 417
Assign rand_sets[39]: 472  LLC: 2048
rand_sets[39]: 472
Assign rand_sets[40]: 1340  LLC: 2048
rand_sets[40]: 1340
Assign rand_sets[41]: 852  LLC: 2048
rand_sets[41]: 852
Assign rand_sets[42]: 1365  LLC: 2048
rand_sets[42]: 1365
Assign rand_sets[43]: 47  LLC: 2048
rand_sets[43]: 47
Assign rand_sets[44]: 823  LLC: 2048
rand_sets[44]: 823
Assign rand_sets[45]: 686  LLC: 2048
rand_sets[45]: 686
Assign rand_sets[46]: 1637  LLC: 2048
rand_sets[46]: 1637
Assign rand_sets[47]: 1115  LLC: 2048
rand_sets[47]: 1115
Assign rand_sets[48]: 986  LLC: 2048
rand_sets[48]: 986
Assign rand_sets[49]: 258  LLC: 2048
rand_sets[49]: 258
Assign rand_sets[50]: 633  LLC: 2048
rand_sets[50]: 633
Assign rand_sets[51]: 920  LLC: 2048
rand_sets[51]: 920
Assign rand_sets[52]: 204  LLC: 2048
rand_sets[52]: 204
Assign rand_sets[53]: 227  LLC: 2048
rand_sets[53]: 227
Assign rand_sets[54]: 1818  LLC: 2048
rand_sets[54]: 1818
Assign rand_sets[55]: 886  LLC: 2048
rand_sets[55]: 886
Assign rand_sets[56]: 1422  LLC: 2048
rand_sets[56]: 1422
Assign rand_sets[57]: 607  LLC: 2048
rand_sets[57]: 607
Assign rand_sets[58]: 217  LLC: 2048
rand_sets[58]: 217
Assign rand_sets[59]: 1945  LLC: 2048
rand_sets[59]: 1945
Assign rand_sets[60]: 143  LLC: 2048
rand_sets[60]: 143
Assign rand_sets[61]: 1311  LLC: 2048
rand_sets[61]: 1311
Assign rand_sets[62]: 319  LLC: 2048
rand_sets[62]: 319
Assign rand_sets[63]: 1846  LLC: 2048
rand_sets[63]: 1846
 CLEAN-RRIP-POLICY-1: 2-2-0-3-2-3-0-0- CLEAN-RRIP-POLICY-2: 2-2-0-3-2-3-0-0-
 DIRTY-RRIP-POLICY-1: 1-2-0-3-0-3-1-0- DIRTY-RRIP-POLICY-2: 1-2-0-3-0-3-1-0-
 PSEL width: 10
Heartbeat CPU 0 instructions: 10000000 cycles: 4305270 heartbeat IPC: 2.32273 cumulative IPC: 2.32273 (Simulation time: 0 hr 0 min 12 sec) 
Heartbeat CPU 0 instructions: 20000000 cycles: 8617101 heartbeat IPC: 2.3192 cumulative IPC: 2.32097 (Simulation time: 0 hr 0 min 25 sec) 
Heartbeat CPU 0 instructions: 30000003 cycles: 13160981 heartbeat IPC: 2.20076 cumulative IPC: 2.27947 (Simulation time: 0 hr 0 min 37 sec) 
Heartbeat CPU 0 instructions: 40000000 cycles: 17515459 heartbeat IPC: 2.29649 cumulative IPC: 2.2837 (Simulation time: 0 hr 0 min 50 sec) 
Heartbeat CPU 0 instructions: 50000001 cycles: 21878258 heartbeat IPC: 2.29211 cumulative IPC: 2.28537 (Simulation time: 0 hr 1 min 2 sec) 
Heartbeat CPU 0 instructions: 60000000 cycles: 26178467 heartbeat IPC: 2.32547 cumulative IPC: 2.29196 (Simulation time: 0 hr 1 min 14 sec) 
Heartbeat CPU 0 instructions: 70000001 cycles: 30244373 heartbeat IPC: 2.45948 cumulative IPC: 2.31448 (Simulation time: 0 hr 1 min 25 sec) 
Heartbeat CPU 0 instructions: 80000000 cycles: 34523209 heartbeat IPC: 2.33708 cumulative IPC: 2.31728 (Simulation time: 0 hr 1 min 37 sec) 
Heartbeat CPU 0 instructions: 90000001 cycles: 38739855 heartbeat IPC: 2.37155 cumulative IPC: 2.32319 (Simulation time: 0 hr 1 min 49 sec) 
Heartbeat CPU 0 instructions: 100000000 cycles: 42980299 heartbeat IPC: 2.35824 cumulative IPC: 2.32665 (Simulation time: 0 hr 2 min 1 sec) 

Warmup complete CPU 0 instructions: 100000001 cycles: 42980300 (Simulation time: 0 hr 2 min 1 sec) 

Heartbeat CPU 0 instructions: 110000000 cycles: 53146951 heartbeat IPC: 0.983608 cumulative IPC: 0.983608 (Simulation time: 0 hr 2 min 19 sec) 
Heartbeat CPU 0 instructions: 120000000 cycles: 63825407 heartbeat IPC: 0.936465 cumulative IPC: 0.959458 (Simulation time: 0 hr 2 min 37 sec) 
Heartbeat CPU 0 instructions: 130000001 cycles: 74452036 heartbeat IPC: 0.941032 cumulative IPC: 0.953236 (Simulation time: 0 hr 2 min 55 sec) 
Heartbeat CPU 0 instructions: 140000000 cycles: 84170777 heartbeat IPC: 1.02894 cumulative IPC: 0.971098 (Simulation time: 0 hr 3 min 13 sec) 
Heartbeat CPU 0 instructions: 150000001 cycles: 94516783 heartbeat IPC: 0.966557 cumulative IPC: 0.970186 (Simulation time: 0 hr 3 min 31 sec) 
Heartbeat CPU 0 instructions: 160000000 cycles: 104593961 heartbeat IPC: 0.992341 cumulative IPC: 0.97381 (Simulation time: 0 hr 3 min 49 sec) 
Heartbeat CPU 0 instructions: 170000000 cycles: 114292853 heartbeat IPC: 1.03105 cumulative IPC: 0.981594 (Simulation time: 0 hr 4 min 7 sec) 
Heartbeat CPU 0 instructions: 180000000 cycles: 124868696 heartbeat IPC: 0.945551 cumulative IPC: 0.976939 (Simulation time: 0 hr 4 min 25 sec) 
Heartbeat CPU 0 instructions: 190000001 cycles: 135136749 heartbeat IPC: 0.973895 cumulative IPC: 0.9766 (Simulation time: 0 hr 4 min 43 sec) 
Heartbeat CPU 0 instructions: 200000000 cycles: 145732775 heartbeat IPC: 0.94375 cumulative IPC: 0.973213 (Simulation time: 0 hr 5 min 1 sec) 
Heartbeat CPU 0 instructions: 210000002 cycles: 158250888 heartbeat IPC: 0.798843 cumulative IPC: 0.954276 (Simulation time: 0 hr 5 min 21 sec) 
Heartbeat CPU 0 instructions: 220000000 cycles: 170850946 heartbeat IPC: 0.793647 cumulative IPC: 0.938448 (Simulation time: 0 hr 5 min 41 sec) 
Heartbeat CPU 0 instructions: 230000000 cycles: 183089596 heartbeat IPC: 0.817084 cumulative IPC: 0.927847 (Simulation time: 0 hr 6 min 0 sec) 
Heartbeat CPU 0 instructions: 240000000 cycles: 195272353 heartbeat IPC: 0.820832 cumulative IPC: 0.919286 (Simulation time: 0 hr 6 min 19 sec) 
Heartbeat CPU 0 instructions: 250000000 cycles: 207282158 heartbeat IPC: 0.832653 cumulative IPC: 0.912954 (Simulation time: 0 hr 6 min 39 sec) 
Heartbeat CPU 0 instructions: 260000000 cycles: 218861975 heartbeat IPC: 0.863572 cumulative IPC: 0.909702 (Simulation time: 0 hr 6 min 58 sec) 
Heartbeat CPU 0 instructions: 270000003 cycles: 230769735 heartbeat IPC: 0.839789 cumulative IPC: 0.905269 (Simulation time: 0 hr 7 min 17 sec) 
Heartbeat CPU 0 instructions: 280000000 cycles: 242332325 heartbeat IPC: 0.864858 cumulative IPC: 0.902925 (Simulation time: 0 hr 7 min 36 sec) 
Heartbeat CPU 0 instructions: 290000002 cycles: 253872283 heartbeat IPC: 0.866554 cumulative IPC: 0.900935 (Simulation time: 0 hr 7 min 55 sec) 
Heartbeat CPU 0 instructions: 300000000 cycles: 266351404 heartbeat IPC: 0.801338 cumulative IPC: 0.895371 (Simulation time: 0 hr 8 min 15 sec) 
Heartbeat CPU 0 instructions: 310000000 cycles: 278538458 heartbeat IPC: 0.820543 cumulative IPC: 0.8915 (Simulation time: 0 hr 8 min 34 sec) 
Heartbeat CPU 0 instructions: 320000000 cycles: 291215158 heartbeat IPC: 0.788849 cumulative IPC: 0.886257 (Simulation time: 0 hr 8 min 54 sec) 
Heartbeat CPU 0 instructions: 330000003 cycles: 303187246 heartbeat IPC: 0.835276 cumulative IPC: 0.883912 (Simulation time: 0 hr 9 min 13 sec) 
Heartbeat CPU 0 instructions: 340000000 cycles: 315326696 heartbeat IPC: 0.82376 cumulative IPC: 0.881231 (Simulation time: 0 hr 9 min 32 sec) 
Heartbeat CPU 0 instructions: 350000001 cycles: 326336739 heartbeat IPC: 0.908262 cumulative IPC: 0.882281 (Simulation time: 0 hr 9 min 51 sec) 
Heartbeat CPU 0 instructions: 360000000 cycles: 338161146 heartbeat IPC: 0.845708 cumulative IPC: 0.880816 (Simulation time: 0 hr 10 min 10 sec) 
Heartbeat CPU 0 instructions: 370000001 cycles: 349598249 heartbeat IPC: 0.874347 cumulative IPC: 0.880575 (Simulation time: 0 hr 10 min 29 sec) 
Heartbeat CPU 0 instructions: 380000000 cycles: 360638691 heartbeat IPC: 0.905761 cumulative IPC: 0.88145 (Simulation time: 0 hr 10 min 48 sec) 
Heartbeat CPU 0 instructions: 390000003 cycles: 371307143 heartbeat IPC: 0.937343 cumulative IPC: 0.883266 (Simulation time: 0 hr 11 min 6 sec) 
Heartbeat CPU 0 instructions: 400000000 cycles: 381553903 heartbeat IPC: 0.975918 cumulative IPC: 0.88607 (Simulation time: 0 hr 11 min 25 sec) 
Heartbeat CPU 0 instructions: 410000000 cycles: 392107255 heartbeat IPC: 0.947566 cumulative IPC: 0.887929 (Simulation time: 0 hr 11 min 43 sec) 
Heartbeat CPU 0 instructions: 420000000 cycles: 401507159 heartbeat IPC: 1.06384 cumulative IPC: 0.892541 (Simulation time: 0 hr 12 min 1 sec) 
Heartbeat CPU 0 instructions: 430000002 cycles: 410603824 heartbeat IPC: 1.0993 cumulative IPC: 0.897657 (Simulation time: 0 hr 12 min 19 sec) 
Heartbeat CPU 0 instructions: 440000000 cycles: 420886411 heartbeat IPC: 0.972518 cumulative IPC: 0.899694 (Simulation time: 0 hr 12 min 37 sec) 
Heartbeat CPU 0 instructions: 450000002 cycles: 431988981 heartbeat IPC: 0.900693 cumulative IPC: 0.899723 (Simulation time: 0 hr 12 min 56 sec) 
Heartbeat CPU 0 instructions: 460000000 cycles: 443560791 heartbeat IPC: 0.864169 cumulative IPC: 0.898696 (Simulation time: 0 hr 13 min 14 sec) 
Heartbeat CPU 0 instructions: 470000003 cycles: 453770816 heartbeat IPC: 0.97943 cumulative IPC: 0.900702 (Simulation time: 0 hr 13 min 32 sec) 
Heartbeat CPU 0 instructions: 480000000 cycles: 464323358 heartbeat IPC: 0.947639 cumulative IPC: 0.901878 (Simulation time: 0 hr 13 min 50 sec) 
Heartbeat CPU 0 instructions: 490000000 cycles: 474279332 heartbeat IPC: 1.00442 cumulative IPC: 0.904245 (Simulation time: 0 hr 14 min 8 sec) 
Heartbeat CPU 0 instructions: 500000000 cycles: 486096202 heartbeat IPC: 0.846248 cumulative IPC: 0.902698 (Simulation time: 0 hr 14 min 27 sec) 
Heartbeat CPU 0 instructions: 510000002 cycles: 498569260 heartbeat IPC: 0.801728 cumulative IPC: 0.899934 (Simulation time: 0 hr 14 min 46 sec) 
Heartbeat CPU 0 instructions: 520000000 cycles: 510527058 heartbeat IPC: 0.836274 cumulative IPC: 0.898306 (Simulation time: 0 hr 15 min 5 sec) 
Heartbeat CPU 0 instructions: 530000001 cycles: 522455094 heartbeat IPC: 0.838361 cumulative IPC: 0.896815 (Simulation time: 0 hr 15 min 24 sec) 
Heartbeat CPU 0 instructions: 540000000 cycles: 534132909 heartbeat IPC: 0.856324 cumulative IPC: 0.895852 (Simulation time: 0 hr 15 min 42 sec) 
Heartbeat CPU 0 instructions: 550000001 cycles: 545606268 heartbeat IPC: 0.871584 cumulative IPC: 0.895298 (Simulation time: 0 hr 16 min 1 sec) 
Heartbeat CPU 0 instructions: 560000000 cycles: 557224814 heartbeat IPC: 0.860693 cumulative IPC: 0.894516 (Simulation time: 0 hr 16 min 20 sec) 
Heartbeat CPU 0 instructions: 570000000 cycles: 568677473 heartbeat IPC: 0.87316 cumulative IPC: 0.894051 (Simulation time: 0 hr 16 min 38 sec) 
Heartbeat CPU 0 instructions: 580000000 cycles: 579480980 heartbeat IPC: 0.925625 cumulative IPC: 0.894687 (Simulation time: 0 hr 16 min 56 sec) 
Heartbeat CPU 0 instructions: 590000003 cycles: 590912261 heartbeat IPC: 0.874793 cumulative IPC: 0.894272 (Simulation time: 0 hr 17 min 14 sec) 
Heartbeat CPU 0 instructions: 600000000 cycles: 601517147 heartbeat IPC: 0.942961 cumulative IPC: 0.895196 (Simulation time: 0 hr 17 min 31 sec) 
Finished CPU 0 instructions: 500000001 cycles: 558536855 cumulative IPC: 0.895196 (Simulation time: 0 hr 17 min 31 sec) 

CPU 0 Branch Prediction Accuracy: 93.0095% MPKI: 10.0046
Number of Branches: 71558147 Number of Mispredictions: 5002285
Number of LOAD Instructions: 145708893
Number of LOAD Instructions (ROI): 145708893
Number of STORE Instructions: 40463820
Number of STORE Instructions (ROI): 40463820
Total Destination Memory Operands: 45240498
Total Destination Memory Operands (ROI): 45240498
Total Source Memory Operands: 145708893
Total Source Memory Operands (ROI): 145708893
Number of DEPENDED LOADS: 10672553
Number of DEPENDED LOADS (ROI): 10672553
Number of SQ_ADDED: 45240498
Number of SQ_ADDED (ROI): 45240498
Number of LQ_ADDED: 193326507
Number of LQ_ADDED (ROI): 193326507
Number of Instructions read from trace: 600000002

ChampSim completed all CPUs

Region of Interest Statistics

CPU 0 cumulative IPC: 0.895196 instructions: 500000001 cycles: 558536855
ITLB TOTAL     ACCESS:   77990821  HIT:   77990820  MISS:          1
ITLB LOAD      ACCESS:   77990821  HIT:   77990820  MISS:          1
ITLB RFO       ACCESS:          0  HIT:          0  MISS:          0
ITLB PREFETCH  ACCESS:          0  HIT:          0  MISS:          0
ITLB WRITEBACK ACCESS:          0  HIT:          0  MISS:          0
ITLB PREFETCH  REQUESTED:          0  ISSUED:          0  USEFUL:          0  USELESS:          0
ITLB TOTAL MSHR MERGED:          0
ITLB LOAD MSHR MERGED:          0
ITLB RFO MSHR MERGED:          0
ITLB PREFETCH MSHR MERGED:          0
ITLB WRITEBACK MSHR MERGED:          0
ITLB TOTAL ACCESSES:   77990821 HITS:   77990820 MISSES:          1
ITLB LOAD ACCESSES:   77990821 HITS:   77990820 MISSES:          1
ITLB RFO ACCESSES:          0 HITS:          0 MISSES:          0
ITLB PREFETCH ACCESSES:          0 HITS:          0 MISSES:          0
ITLB WRITEBACK ACCESSES:          0 HITS:          0 MISSES:          0
ITLB RQ ACCESS:  499999995
ITLB RQ TO_CACHE:   77990821
ITLB RQ MERGED:  422009174
ITLB RQ FORWARD:          0
ITLB WQ ACCESS:          0
ITLB WQ TO_CACHE:          0
ITLB WQ MERGED:          0
ITLB WQ FORWARD:          0
DTLB TOTAL     ACCESS:   98671490  HIT:   97790153  MISS:     881337
DTLB LOAD      ACCESS:   70891765  HIT:   70030231  MISS:     861534
DTLB RFO       ACCESS:   27779725  HIT:   27759922  MISS:      19803
DTLB PREFETCH  ACCESS:          0  HIT:          0  MISS:          0
DTLB WRITEBACK ACCESS:          0  HIT:          0  MISS:          0
DTLB PREFETCH  REQUESTED:          0  ISSUED:          0  USEFUL:          0  USELESS:          0
DTLB TOTAL MSHR MERGED:      87348
DTLB LOAD MSHR MERGED:      65601
DTLB RFO MSHR MERGED:      21747
DTLB PREFETCH MSHR MERGED:          0
DTLB WRITEBACK MSHR MERGED:          0
DTLB TOTAL ACCESSES:   98758838 HITS:   97790153 MISSES:     968685
DTLB LOAD ACCESSES:   70957366 HITS:   70030231 MISSES:     927135
DTLB RFO ACCESSES:   27801472 HITS:   27759922 MISSES:      41550
DTLB PREFETCH ACCESSES:          0 HITS:          0 MISSES:          0
DTLB WRITEBACK ACCESSES:          0 HITS:          0 MISSES:          0
DTLB RQ ACCESS:  150272501
DTLB RQ TO_CACHE:   98758838
DTLB RQ MERGED:   51513663
DTLB RQ FORWARD:          0
DTLB WQ ACCESS:          0
DTLB WQ TO_CACHE:          0
DTLB WQ MERGED:          0
DTLB WQ FORWARD:          0
L1D TOTAL     ACCESS:  173324848  HIT:  169156225  MISS:    4168623
L1D LOAD      ACCESS:   75280731  HIT:   73399354  MISS:    1881377
L1D RFO       ACCESS:   36778394  HIT:   36571781  MISS:     206613
L1D PREFETCH  ACCESS:   61265723  HIT:   59185090  MISS:    2080633
L1D WRITEBACK ACCESS:          0  HIT:          0  MISS:          0
L1D PREFETCH  REQUESTED:   75384685  ISSUED:   74820528  USEFUL:     415077  USELESS:    1665545
L1D TOTAL MSHR MERGED:     377816
L1D LOAD MSHR MERGED:     112785
L1D RFO MSHR MERGED:     132998
L1D PREFETCH MSHR MERGED:     132033
L1D WRITEBACK MSHR MERGED:          0
L1D TOTAL ACCESSES:  173854152 HITS:  169307713 MISSES:    4546439
L1D LOAD ACCESSES:   75387576 HITS:   73402245 MISSES:    1985331
L1D RFO ACCESSES:   36909988 HITS:   36571781 MISSES:     338207
L1D PREFETCH ACCESSES:   61556588 HITS:   59333687 MISSES:    2222901
L1D WRITEBACK ACCESSES:          0 HITS:          0 MISSES:          0
L1D RQ ACCESS:  112610098
L1D RQ TO_CACHE:   75384685
L1D RQ MERGED:   37222522
L1D RQ FORWARD:          0
L1D WQ ACCESS:   37662403
L1D WQ TO_CACHE:   36909988
L1D WQ MERGED:     752415
L1D WQ FORWARD:     151488
L1I TOTAL     ACCESS:  100698925  HIT:  100698900  MISS:         25
L1I LOAD      ACCESS:  100698925  HIT:  100698900  MISS:         25
L1I RFO       ACCESS:          0  HIT:          0  MISS:          0
L1I PREFETCH  ACCESS:          0  HIT:          0  MISS:          0
L1I WRITEBACK ACCESS:          0  HIT:          0  MISS:          0
L1I PREFETCH  REQUESTED:          0  ISSUED:          0  USEFUL:          0  USELESS:          0
L1I TOTAL MSHR MERGED:         10
L1I LOAD MSHR MERGED:         10
L1I RFO MSHR MERGED:          0
L1I PREFETCH MSHR MERGED:          0
L1I WRITEBACK MSHR MERGED:          0
L1I TOTAL ACCESSES:  100698935 HITS:  100698900 MISSES:         35
L1I LOAD ACCESSES:  100698935 HITS:  100698900 MISSES:         35
L1I RFO ACCESSES:          0 HITS:          0 MISSES:          0
L1I PREFETCH ACCESSES:          0 HITS:          0 MISSES:          0
L1I WRITEBACK ACCESSES:          0 HITS:          0 MISSES:          0
L1I RQ ACCESS:  499999995
L1I RQ TO_CACHE:  100698935
L1I RQ MERGED:  399301060
L1I RQ FORWARD:          0
L1I WQ ACCESS:          0
L1I WQ TO_CACHE:          0
L1I WQ MERGED:          0
L1I WQ FORWARD:          0
L2C TOTAL     ACCESS:    5852521  HIT:    4009363  MISS:    1843158
L2C LOAD      ACCESS:    1872447  HIT:    1061495  MISS:     810952
L2C RFO       ACCESS:     205204  HIT:     100566  MISS:     104638
L2C PREFETCH  ACCESS:    2169236  HIT:    1246090  MISS:     923146
L2C WRITEBACK ACCESS:    1605634  HIT:    1601212  MISS:       4422
L2C PREFETCH  REQUESTED:      91707  ISSUED:      91707  USEFUL:      86446  USELESS:     836723
L2C TOTAL MSHR MERGED:       1077
L2C LOAD MSHR MERGED:        268
L2C RFO MSHR MERGED:          0
L2C PREFETCH MSHR MERGED:        809
L2C WRITEBACK MSHR MERGED:          0
L2C TOTAL ACCESSES:    5853934 HITS:    4009529 MISSES:    1844405
L2C LOAD ACCESSES:    1872571 HITS:    1061619 MISSES:     810952
L2C RFO ACCESSES:     205209 HITS:     100571 MISSES:     104638
L2C PREFETCH ACCESSES:    2170520 HITS:    1246127 MISSES:     924393
L2C WRITEBACK ACCESSES:    1605634 HITS:    1601212 MISSES:       4422
L2C RQ ACCESS:    2077780
L2C RQ TO_CACHE:    2077651
L2C RQ MERGED:          0
L2C RQ FORWARD:          0
L2C WQ ACCESS:    1605634
L2C WQ TO_CACHE:    1605634
L2C WQ MERGED:          0
L2C WQ FORWARD:        166
LLC TOTAL     ACCESS:    2673547  HIT:    2144520  MISS:     529027
LLC LOAD      ACCESS:     810675  HIT:     622868  MISS:     187807
LLC RFO       ACCESS:     104638  HIT:      60096  MISS:      44542
LLC PREFETCH  ACCESS:     923567  HIT:     660147  MISS:     263420
LLC WRITEBACK ACCESS:     834667  HIT:     801409  MISS:      33258
LLC PREFETCH  REQUESTED:          0  ISSUED:          0  USEFUL:       8134  USELESS:     255546
LLC TOTAL MSHR MERGED:          5
LLC LOAD MSHR MERGED:          2
LLC RFO MSHR MERGED:          0
LLC PREFETCH MSHR MERGED:          3
LLC WRITEBACK MSHR MERGED:          0
LLC TOTAL ACCESSES:    2673563 HITS:    2144531 MISSES:     529032
LLC LOAD ACCESSES:     810684 HITS:     622877 MISSES:     187807
LLC RFO ACCESSES:     104638 HITS:      60096 MISSES:      44542
LLC PREFETCH ACCESSES:     923574 HITS:     660149 MISSES:     263425
LLC WRITEBACK ACCESSES:     834667 HITS:     801409 MISSES:      33258
LLC 0 RQ ACCESS:     915322
LLC 0 RQ TO_CACHE:     915313
LLC 0 RQ MERGED:          0
LLC 0 RQ FORWARD:          0
LLC WQ ACCESS:     834667
LLC WQ TO_CACHE:     834667
LLC WQ MERGED:          0
LLC WQ FORWARD:         11
Major fault: 0 Minor fault: 11278
CPU 0 L1D next line prefetcher final stats
CPU 0 L2C PC-based stride prefetcher final stats
All Misses: 644533
All Hits: 2410033
SD Algo Stats - Switches: 0 SRR-Repls: 221550 BRR-Repls: 0

DRAM Statistics
 CHANNEL 0
 RQ ROW_BUFFER_HIT:      29503  ROW_BUFFER_MISS:     465683
 DBUS_CONGESTED:     372699
 WQ ROW_BUFFER_HIT:      15401  ROW_BUFFER_MISS:     216785  FULL:          0

 AVG_CONGESTED_CYCLE: 13
LOADS RETIRED: 121769268
INSTR RETIRED: 500000000
