
*** ChampSim Multicore Out-of-Order Simulator ***

Warmup Instructions: 100000000
Simulation Instructions: 500000000
Number of CPUs: 1
LLC sets: 2048
LLC ways: 16
Clean RRIP Policies: 1122002311220023 Dirty RRIP Policies: 2112202321122023 PSEL Width: 10 Track Set: 4294967295 PSEL Mask: 1 Demote Mask: 2230143122301431DS Algo: 0Window size: 0
Off-chip DRAM Size: 4096 MB Channels: 1 Width: 64-bit Data Rate: 1600 MT/s

CPU 0 runs /mnt/beegfs/iconst01/spec2017/Gcc.trace.gz
NOT SORTED
TRACE STRING: /mnt/beegfs/iconst01/spec2017/Gcc.trace.gz
SORTED
TRACE STRING: /mnt/beegfs/iconst01/spec2017/Gcc.trace.gz
INITIAL
TRACE STRING: /mnt/beegfs/iconst01/spec2017/Gcc.trace.gz

champsim_seed used: 269

CPU 0 L1D next line prefetcher
CPU 0 L2C IP-based stride prefetcher
Initialize DRRIP state
Assign rand_sets[0]: 454  LLC: 2048
rand_sets[0]: 454
Assign rand_sets[1]: 1662  LLC: 2048
rand_sets[1]: 1662
Assign rand_sets[2]: 1921  LLC: 2048
rand_sets[2]: 1921
Assign rand_sets[3]: 1131  LLC: 2048
rand_sets[3]: 1131
Assign rand_sets[4]: 331  LLC: 2048
rand_sets[4]: 331
Assign rand_sets[5]: 1531  LLC: 2048
rand_sets[5]: 1531
Assign rand_sets[6]: 482  LLC: 2048
rand_sets[6]: 482
Assign rand_sets[7]: 1275  LLC: 2048
rand_sets[7]: 1275
Assign rand_sets[8]: 1876  LLC: 2048
rand_sets[8]: 1876
Assign rand_sets[9]: 2038  LLC: 2048
rand_sets[9]: 2038
Assign rand_sets[10]: 701  LLC: 2048
rand_sets[10]: 701
Assign rand_sets[11]: 479  LLC: 2048
rand_sets[11]: 479
Assign rand_sets[12]: 892  LLC: 2048
rand_sets[12]: 892
Assign rand_sets[13]: 1820  LLC: 2048
rand_sets[13]: 1820
Assign rand_sets[14]: 1505  LLC: 2048
rand_sets[14]: 1505
Assign rand_sets[15]: 1159  LLC: 2048
rand_sets[15]: 1159
Assign rand_sets[16]: 513  LLC: 2048
rand_sets[16]: 513
Assign rand_sets[17]: 703  LLC: 2048
rand_sets[17]: 703
Assign rand_sets[18]: 561  LLC: 2048
rand_sets[18]: 561
Assign rand_sets[19]: 990  LLC: 2048
rand_sets[19]: 990
Assign rand_sets[20]: 342  LLC: 2048
rand_sets[20]: 342
Assign rand_sets[21]: 882  LLC: 2048
rand_sets[21]: 882
Assign rand_sets[22]: 15  LLC: 2048
rand_sets[22]: 15
Assign rand_sets[23]: 71  LLC: 2048
rand_sets[23]: 71
Assign rand_sets[24]: 1127  LLC: 2048
rand_sets[24]: 1127
Assign rand_sets[25]: 1382  LLC: 2048
rand_sets[25]: 1382
Assign rand_sets[26]: 647  LLC: 2048
rand_sets[26]: 647
Assign rand_sets[27]: 857  LLC: 2048
rand_sets[27]: 857
Assign rand_sets[28]: 1450  LLC: 2048
rand_sets[28]: 1450
Assign rand_sets[29]: 1160  LLC: 2048
rand_sets[29]: 1160
Assign rand_sets[30]: 1852  LLC: 2048
rand_sets[30]: 1852
Assign rand_sets[31]: 1881  LLC: 2048
rand_sets[31]: 1881
Assign rand_sets[32]: 1770  LLC: 2048
rand_sets[32]: 1770
Assign rand_sets[33]: 1622  LLC: 2048
rand_sets[33]: 1622
Assign rand_sets[34]: 275  LLC: 2048
rand_sets[34]: 275
Assign rand_sets[35]: 635  LLC: 2048
rand_sets[35]: 635
Assign rand_sets[36]: 466  LLC: 2048
rand_sets[36]: 466
Assign rand_sets[37]: 1413  LLC: 2048
rand_sets[37]: 1413
Assign rand_sets[38]: 417  LLC: 2048
rand_sets[38]: 417
Assign rand_sets[39]: 472  LLC: 2048
rand_sets[39]: 472
Assign rand_sets[40]: 1340  LLC: 2048
rand_sets[40]: 1340
Assign rand_sets[41]: 852  LLC: 2048
rand_sets[41]: 852
Assign rand_sets[42]: 1365  LLC: 2048
rand_sets[42]: 1365
Assign rand_sets[43]: 47  LLC: 2048
rand_sets[43]: 47
Assign rand_sets[44]: 823  LLC: 2048
rand_sets[44]: 823
Assign rand_sets[45]: 686  LLC: 2048
rand_sets[45]: 686
Assign rand_sets[46]: 1637  LLC: 2048
rand_sets[46]: 1637
Assign rand_sets[47]: 1115  LLC: 2048
rand_sets[47]: 1115
Assign rand_sets[48]: 986  LLC: 2048
rand_sets[48]: 986
Assign rand_sets[49]: 258  LLC: 2048
rand_sets[49]: 258
Assign rand_sets[50]: 633  LLC: 2048
rand_sets[50]: 633
Assign rand_sets[51]: 920  LLC: 2048
rand_sets[51]: 920
Assign rand_sets[52]: 204  LLC: 2048
rand_sets[52]: 204
Assign rand_sets[53]: 227  LLC: 2048
rand_sets[53]: 227
Assign rand_sets[54]: 1818  LLC: 2048
rand_sets[54]: 1818
Assign rand_sets[55]: 886  LLC: 2048
rand_sets[55]: 886
Assign rand_sets[56]: 1422  LLC: 2048
rand_sets[56]: 1422
Assign rand_sets[57]: 607  LLC: 2048
rand_sets[57]: 607
Assign rand_sets[58]: 217  LLC: 2048
rand_sets[58]: 217
Assign rand_sets[59]: 1945  LLC: 2048
rand_sets[59]: 1945
Assign rand_sets[60]: 143  LLC: 2048
rand_sets[60]: 143
Assign rand_sets[61]: 1311  LLC: 2048
rand_sets[61]: 1311
Assign rand_sets[62]: 319  LLC: 2048
rand_sets[62]: 319
Assign rand_sets[63]: 1846  LLC: 2048
rand_sets[63]: 1846
 CLEAN-RRIP-POLICY-1: 1-1-2-2-0-0-2-3- CLEAN-RRIP-POLICY-2: 1-1-2-2-0-0-2-3-
 DIRTY-RRIP-POLICY-1: 2-1-1-2-2-0-2-3- DIRTY-RRIP-POLICY-2: 2-1-1-2-2-0-2-3-
 PSEL width: 10
Heartbeat CPU 0 instructions: 10000001 cycles: 7320815 heartbeat IPC: 1.36597 cumulative IPC: 1.36597 (Simulation time: 0 hr 0 min 15 sec) 
Heartbeat CPU 0 instructions: 20000000 cycles: 14325320 heartbeat IPC: 1.42765 cumulative IPC: 1.39613 (Simulation time: 0 hr 0 min 31 sec) 
Heartbeat CPU 0 instructions: 30000001 cycles: 21041702 heartbeat IPC: 1.4889 cumulative IPC: 1.42574 (Simulation time: 0 hr 0 min 48 sec) 
Heartbeat CPU 0 instructions: 40000000 cycles: 27503527 heartbeat IPC: 1.54755 cumulative IPC: 1.45436 (Simulation time: 0 hr 1 min 4 sec) 
Heartbeat CPU 0 instructions: 50000001 cycles: 33606309 heartbeat IPC: 1.6386 cumulative IPC: 1.48782 (Simulation time: 0 hr 1 min 21 sec) 
Heartbeat CPU 0 instructions: 60000000 cycles: 40088534 heartbeat IPC: 1.54268 cumulative IPC: 1.49669 (Simulation time: 0 hr 1 min 37 sec) 
Heartbeat CPU 0 instructions: 70000000 cycles: 47131368 heartbeat IPC: 1.41988 cumulative IPC: 1.48521 (Simulation time: 0 hr 1 min 53 sec) 
Heartbeat CPU 0 instructions: 80000000 cycles: 54226428 heartbeat IPC: 1.40943 cumulative IPC: 1.4753 (Simulation time: 0 hr 2 min 9 sec) 
Heartbeat CPU 0 instructions: 90000003 cycles: 61236393 heartbeat IPC: 1.42654 cumulative IPC: 1.46971 (Simulation time: 0 hr 2 min 24 sec) 
Heartbeat CPU 0 instructions: 100000000 cycles: 68409026 heartbeat IPC: 1.39419 cumulative IPC: 1.4618 (Simulation time: 0 hr 2 min 39 sec) 

Warmup complete CPU 0 instructions: 100000004 cycles: 68409027 (Simulation time: 0 hr 2 min 39 sec) 

Heartbeat CPU 0 instructions: 110000003 cycles: 96849101 heartbeat IPC: 0.351617 cumulative IPC: 0.351617 (Simulation time: 0 hr 3 min 10 sec) 
Heartbeat CPU 0 instructions: 120000000 cycles: 124601628 heartbeat IPC: 0.360327 cumulative IPC: 0.355919 (Simulation time: 0 hr 3 min 40 sec) 
Heartbeat CPU 0 instructions: 130000000 cycles: 149918539 heartbeat IPC: 0.394993 cumulative IPC: 0.368055 (Simulation time: 0 hr 4 min 10 sec) 
Heartbeat CPU 0 instructions: 140000000 cycles: 180925958 heartbeat IPC: 0.322503 cumulative IPC: 0.355502 (Simulation time: 0 hr 4 min 40 sec) 
Heartbeat CPU 0 instructions: 150000000 cycles: 211756956 heartbeat IPC: 0.324349 cumulative IPC: 0.348802 (Simulation time: 0 hr 5 min 10 sec) 
Heartbeat CPU 0 instructions: 160000000 cycles: 239528511 heartbeat IPC: 0.360081 cumulative IPC: 0.350632 (Simulation time: 0 hr 5 min 39 sec) 
Heartbeat CPU 0 instructions: 170000001 cycles: 268001540 heartbeat IPC: 0.35121 cumulative IPC: 0.350715 (Simulation time: 0 hr 6 min 11 sec) 
Heartbeat CPU 0 instructions: 180000000 cycles: 296900862 heartbeat IPC: 0.346029 cumulative IPC: 0.350122 (Simulation time: 0 hr 6 min 42 sec) 
Heartbeat CPU 0 instructions: 190000002 cycles: 325529480 heartbeat IPC: 0.349301 cumulative IPC: 0.35003 (Simulation time: 0 hr 7 min 12 sec) 
Heartbeat CPU 0 instructions: 200000000 cycles: 354404134 heartbeat IPC: 0.346324 cumulative IPC: 0.349656 (Simulation time: 0 hr 7 min 42 sec) 
Heartbeat CPU 0 instructions: 210000002 cycles: 382845518 heartbeat IPC: 0.3516 cumulative IPC: 0.349832 (Simulation time: 0 hr 8 min 13 sec) 
Heartbeat CPU 0 instructions: 220000000 cycles: 413351788 heartbeat IPC: 0.327801 cumulative IPC: 0.347884 (Simulation time: 0 hr 8 min 42 sec) 
Heartbeat CPU 0 instructions: 230000000 cycles: 441570112 heartbeat IPC: 0.35438 cumulative IPC: 0.348375 (Simulation time: 0 hr 9 min 12 sec) 
Heartbeat CPU 0 instructions: 240000000 cycles: 468151967 heartbeat IPC: 0.376196 cumulative IPC: 0.350225 (Simulation time: 0 hr 9 min 40 sec) 
Heartbeat CPU 0 instructions: 250000000 cycles: 498575006 heartbeat IPC: 0.328698 cumulative IPC: 0.348703 (Simulation time: 0 hr 10 min 12 sec) 
Heartbeat CPU 0 instructions: 260000000 cycles: 526038920 heartbeat IPC: 0.364114 cumulative IPC: 0.349627 (Simulation time: 0 hr 10 min 41 sec) 
Heartbeat CPU 0 instructions: 270000003 cycles: 554894667 heartbeat IPC: 0.346552 cumulative IPC: 0.349445 (Simulation time: 0 hr 11 min 13 sec) 
Heartbeat CPU 0 instructions: 280000000 cycles: 583482255 heartbeat IPC: 0.349802 cumulative IPC: 0.349465 (Simulation time: 0 hr 11 min 44 sec) 
Heartbeat CPU 0 instructions: 290000000 cycles: 612832528 heartbeat IPC: 0.340712 cumulative IPC: 0.348993 (Simulation time: 0 hr 12 min 15 sec) 
Heartbeat CPU 0 instructions: 300000000 cycles: 643803002 heartbeat IPC: 0.322888 cumulative IPC: 0.347588 (Simulation time: 0 hr 12 min 45 sec) 
Heartbeat CPU 0 instructions: 310000001 cycles: 673959058 heartbeat IPC: 0.331608 cumulative IPC: 0.346792 (Simulation time: 0 hr 13 min 15 sec) 
Heartbeat CPU 0 instructions: 320000000 cycles: 703099957 heartbeat IPC: 0.34316 cumulative IPC: 0.346625 (Simulation time: 0 hr 13 min 45 sec) 
Heartbeat CPU 0 instructions: 330000000 cycles: 732407361 heartbeat IPC: 0.341211 cumulative IPC: 0.346386 (Simulation time: 0 hr 14 min 15 sec) 
Heartbeat CPU 0 instructions: 340000000 cycles: 762467988 heartbeat IPC: 0.332661 cumulative IPC: 0.345792 (Simulation time: 0 hr 14 min 45 sec) 
Heartbeat CPU 0 instructions: 350000003 cycles: 790027607 heartbeat IPC: 0.36285 cumulative IPC: 0.346443 (Simulation time: 0 hr 15 min 15 sec) 
Heartbeat CPU 0 instructions: 360000000 cycles: 820577586 heartbeat IPC: 0.327332 cumulative IPC: 0.345667 (Simulation time: 0 hr 15 min 44 sec) 
Heartbeat CPU 0 instructions: 370000000 cycles: 851258101 heartbeat IPC: 0.32594 cumulative IPC: 0.344894 (Simulation time: 0 hr 16 min 14 sec) 
Heartbeat CPU 0 instructions: 380000000 cycles: 882314296 heartbeat IPC: 0.321997 cumulative IPC: 0.34402 (Simulation time: 0 hr 16 min 43 sec) 
Heartbeat CPU 0 instructions: 390000001 cycles: 912524838 heartbeat IPC: 0.33101 cumulative IPC: 0.343555 (Simulation time: 0 hr 17 min 13 sec) 
Heartbeat CPU 0 instructions: 400000000 cycles: 943623994 heartbeat IPC: 0.321552 cumulative IPC: 0.342773 (Simulation time: 0 hr 17 min 42 sec) 
Heartbeat CPU 0 instructions: 410000001 cycles: 973585138 heartbeat IPC: 0.333766 cumulative IPC: 0.342475 (Simulation time: 0 hr 18 min 12 sec) 
Heartbeat CPU 0 instructions: 420000000 cycles: 1003557473 heartbeat IPC: 0.333641 cumulative IPC: 0.342192 (Simulation time: 0 hr 18 min 41 sec) 
Heartbeat CPU 0 instructions: 430000002 cycles: 1033919746 heartbeat IPC: 0.329356 cumulative IPC: 0.341788 (Simulation time: 0 hr 19 min 11 sec) 
Heartbeat CPU 0 instructions: 440000000 cycles: 1065476851 heartbeat IPC: 0.316886 cumulative IPC: 0.341 (Simulation time: 0 hr 19 min 41 sec) 
Heartbeat CPU 0 instructions: 450000002 cycles: 1096900025 heartbeat IPC: 0.318237 cumulative IPC: 0.340304 (Simulation time: 0 hr 20 min 10 sec) 
Heartbeat CPU 0 instructions: 460000000 cycles: 1127178479 heartbeat IPC: 0.330268 cumulative IPC: 0.340017 (Simulation time: 0 hr 20 min 38 sec) 
Heartbeat CPU 0 instructions: 470000000 cycles: 1157132726 heartbeat IPC: 0.333842 cumulative IPC: 0.339847 (Simulation time: 0 hr 21 min 6 sec) 
Heartbeat CPU 0 instructions: 480000000 cycles: 1187331091 heartbeat IPC: 0.331144 cumulative IPC: 0.339613 (Simulation time: 0 hr 21 min 35 sec) 
Heartbeat CPU 0 instructions: 490000000 cycles: 1217265130 heartbeat IPC: 0.334068 cumulative IPC: 0.339468 (Simulation time: 0 hr 22 min 3 sec) 
Heartbeat CPU 0 instructions: 500000000 cycles: 1247581810 heartbeat IPC: 0.329851 cumulative IPC: 0.339221 (Simulation time: 0 hr 22 min 31 sec) 
Heartbeat CPU 0 instructions: 510000000 cycles: 1283027860 heartbeat IPC: 0.282119 cumulative IPC: 0.337554 (Simulation time: 0 hr 23 min 2 sec) 
Heartbeat CPU 0 instructions: 520000000 cycles: 1311333637 heartbeat IPC: 0.353285 cumulative IPC: 0.337913 (Simulation time: 0 hr 23 min 30 sec) 
Heartbeat CPU 0 instructions: 530000001 cycles: 1341877545 heartbeat IPC: 0.327398 cumulative IPC: 0.33766 (Simulation time: 0 hr 23 min 59 sec) 
Heartbeat CPU 0 instructions: 540000000 cycles: 1370949338 heartbeat IPC: 0.343976 cumulative IPC: 0.337801 (Simulation time: 0 hr 24 min 28 sec) 
Heartbeat CPU 0 instructions: 550000001 cycles: 1400607645 heartbeat IPC: 0.337174 cumulative IPC: 0.337787 (Simulation time: 0 hr 24 min 58 sec) 
Heartbeat CPU 0 instructions: 560000000 cycles: 1426584997 heartbeat IPC: 0.384951 cumulative IPC: 0.33869 (Simulation time: 0 hr 25 min 26 sec) 
Heartbeat CPU 0 instructions: 570000000 cycles: 1457030073 heartbeat IPC: 0.32846 cumulative IPC: 0.338465 (Simulation time: 0 hr 25 min 55 sec) 
Heartbeat CPU 0 instructions: 580000000 cycles: 1485894678 heartbeat IPC: 0.346445 cumulative IPC: 0.338628 (Simulation time: 0 hr 26 min 24 sec) 
Heartbeat CPU 0 instructions: 590000001 cycles: 1511529139 heartbeat IPC: 0.3901 cumulative IPC: 0.339542 (Simulation time: 0 hr 26 min 51 sec) 
Heartbeat CPU 0 instructions: 600000000 cycles: 1539361312 heartbeat IPC: 0.359296 cumulative IPC: 0.339916 (Simulation time: 0 hr 27 min 19 sec) 
Finished CPU 0 instructions: 500000000 cycles: 1470952307 cumulative IPC: 0.339916 (Simulation time: 0 hr 27 min 19 sec) 

CPU 0 Branch Prediction Accuracy: 86.4311% MPKI: 26.2662
Number of Branches: 96788573 Number of Mispredictions: 13133102
Number of LOAD Instructions: 164682285
Number of LOAD Instructions (ROI): 164682285
Number of STORE Instructions: 78194750
Number of STORE Instructions (ROI): 78194750
Total Destination Memory Operands: 83268534
Total Destination Memory Operands (ROI): 83268534
Total Source Memory Operands: 164712438
Total Source Memory Operands (ROI): 164712438
Number of DEPENDED LOADS: 7070739
Number of DEPENDED LOADS (ROI): 7070739
Number of SQ_ADDED: 83268522
Number of SQ_ADDED (ROI): 83268522
Number of LQ_ADDED: 236477302
Number of LQ_ADDED (ROI): 236477302
Number of Instructions read from trace: 600000066

ChampSim completed all CPUs

Region of Interest Statistics

CPU 0 cumulative IPC: 0.339916 instructions: 500000000 cycles: 1470952307
ITLB TOTAL     ACCESS:  100502703  HIT:  100298257  MISS:     204446
ITLB LOAD      ACCESS:  100502703  HIT:  100298257  MISS:     204446
ITLB RFO       ACCESS:          0  HIT:          0  MISS:          0
ITLB PREFETCH  ACCESS:          0  HIT:          0  MISS:          0
ITLB WRITEBACK ACCESS:          0  HIT:          0  MISS:          0
ITLB PREFETCH  REQUESTED:          0  ISSUED:          0  USEFUL:          0  USELESS:          0
ITLB TOTAL MSHR MERGED:     172423
ITLB LOAD MSHR MERGED:     172423
ITLB RFO MSHR MERGED:          0
ITLB PREFETCH MSHR MERGED:          0
ITLB WRITEBACK MSHR MERGED:          0
ITLB TOTAL ACCESSES:  100675126 HITS:  100298257 MISSES:     376869
ITLB LOAD ACCESSES:  100675126 HITS:  100298257 MISSES:     376869
ITLB RFO ACCESSES:          0 HITS:          0 MISSES:          0
ITLB PREFETCH ACCESSES:          0 HITS:          0 MISSES:          0
ITLB WRITEBACK ACCESSES:          0 HITS:          0 MISSES:          0
ITLB RQ ACCESS:  500000057
ITLB RQ TO_CACHE:  100675126
ITLB RQ MERGED:  399324931
ITLB RQ FORWARD:          0
ITLB WQ ACCESS:          0
ITLB WQ TO_CACHE:          0
ITLB WQ MERGED:          0
ITLB WQ FORWARD:          0
DTLB TOTAL     ACCESS:  165338669  HIT:  164704315  MISS:     634354
DTLB LOAD      ACCESS:  106291475  HIT:  105721434  MISS:     570041
DTLB RFO       ACCESS:   59047194  HIT:   58982881  MISS:      64313
DTLB PREFETCH  ACCESS:          0  HIT:          0  MISS:          0
DTLB WRITEBACK ACCESS:          0  HIT:          0  MISS:          0
DTLB PREFETCH  REQUESTED:          0  ISSUED:          0  USEFUL:          0  USELESS:          0
DTLB TOTAL MSHR MERGED:      99597
DTLB LOAD MSHR MERGED:      59290
DTLB RFO MSHR MERGED:      40307
DTLB PREFETCH MSHR MERGED:          0
DTLB WRITEBACK MSHR MERGED:          0
DTLB TOTAL ACCESSES:  165438266 HITS:  164704315 MISSES:     733951
DTLB LOAD ACCESSES:  106350765 HITS:  105721434 MISSES:     629331
DTLB RFO ACCESSES:   59087501 HITS:   58982881 MISSES:     104620
DTLB PREFETCH ACCESSES:          0 HITS:          0 MISSES:          0
DTLB WRITEBACK ACCESSES:          0 HITS:          0 MISSES:          0
DTLB RQ ACCESS:  200300185
DTLB RQ TO_CACHE:  165438266
DTLB RQ MERGED:   34861919
DTLB RQ FORWARD:          0
DTLB WQ ACCESS:          0
DTLB WQ TO_CACHE:          0
DTLB WQ MERGED:          0
DTLB WQ FORWARD:          0
L1D TOTAL     ACCESS:  281827176  HIT:  273917720  MISS:    7909456
L1D LOAD      ACCESS:  110427014  HIT:  107151582  MISS:    3275432
L1D RFO       ACCESS:   67087527  HIT:   66195415  MISS:     892112
L1D PREFETCH  ACCESS:  104312635  HIT:  100570723  MISS:    3741912
L1D WRITEBACK ACCESS:          0  HIT:          0  MISS:          0
L1D PREFETCH  REQUESTED:  110818225  ISSUED:  109118815  USEFUL:    1662699  USELESS:    2079177
L1D TOTAL MSHR MERGED:    2885330
L1D LOAD MSHR MERGED:     486426
L1D RFO MSHR MERGED:    1899500
L1D PREFETCH MSHR MERGED:     499404
L1D WRITEBACK MSHR MERGED:          0
L1D TOTAL ACCESSES:  284740115 HITS:  273945329 MISSES:   10794786
L1D LOAD ACCESSES:  110819800 HITS:  107153157 MISSES:    3666643
L1D RFO ACCESSES:   68973627 HITS:   66195415 MISSES:    2778212
L1D PREFETCH ACCESSES:  104946688 HITS:  100596757 MISSES:    4349931
L1D WRITEBACK ACCESSES:          0 HITS:          0 MISSES:          0
L1D RQ ACCESS:  130747582
L1D RQ TO_CACHE:  110818228
L1D RQ MERGED:   19927779
L1D RQ FORWARD:          0
L1D WQ ACCESS:   69552603
L1D WQ TO_CACHE:   68973628
L1D WQ MERGED:     578975
L1D WQ FORWARD:      27609
L1I TOTAL     ACCESS:  126546436  HIT:  122307914  MISS:    4238522
L1I LOAD      ACCESS:  126546436  HIT:  122307914  MISS:    4238522
L1I RFO       ACCESS:          0  HIT:          0  MISS:          0
L1I PREFETCH  ACCESS:          0  HIT:          0  MISS:          0
L1I WRITEBACK ACCESS:          0  HIT:          0  MISS:          0
L1I PREFETCH  REQUESTED:          0  ISSUED:          0  USEFUL:          0  USELESS:          0
L1I TOTAL MSHR MERGED:    1838565
L1I LOAD MSHR MERGED:    1838565
L1I RFO MSHR MERGED:          0
L1I PREFETCH MSHR MERGED:          0
L1I WRITEBACK MSHR MERGED:          0
L1I TOTAL ACCESSES:  128385004 HITS:  122307914 MISSES:    6077090
L1I LOAD ACCESSES:  128385004 HITS:  122307914 MISSES:    6077090
L1I RFO ACCESSES:          0 HITS:          0 MISSES:          0
L1I PREFETCH ACCESSES:          0 HITS:          0 MISSES:          0
L1I WRITEBACK ACCESSES:          0 HITS:          0 MISSES:          0
L1I RQ ACCESS:  500000057
L1I RQ TO_CACHE:  128385004
L1I RQ MERGED:  371615053
L1I RQ FORWARD:          0
L1I WQ ACCESS:          0
L1I WQ TO_CACHE:          0
L1I WQ MERGED:          0
L1I WQ FORWARD:          0
L2C TOTAL     ACCESS:   14903752  HIT:   11157285  MISS:    3746467
L2C LOAD      ACCESS:    7418535  HIT:    5098167  MISS:    2320368
L2C RFO       ACCESS:     878615  HIT:     409946  MISS:     468669
L2C PREFETCH  ACCESS:    4567336  HIT:    3627169  MISS:     940167
L2C WRITEBACK ACCESS:    2039266  HIT:    2022003  MISS:      17263
L2C PREFETCH  REQUESTED:     842470  ISSUED:     842470  USEFUL:     202939  USELESS:     736934
L2C TOTAL MSHR MERGED:       8399
L2C LOAD MSHR MERGED:       1230
L2C RFO MSHR MERGED:          0
L2C PREFETCH MSHR MERGED:       7169
L2C WRITEBACK MSHR MERGED:          0
L2C TOTAL ACCESSES:   14913122 HITS:   11157727 MISSES:    3755395
L2C LOAD ACCESSES:    7418739 HITS:    5098371 MISSES:    2320368
L2C RFO ACCESSES:     878712 HITS:     410043 MISSES:     468669
L2C PREFETCH ACCESSES:    4576405 HITS:    3627310 MISSES:     949095
L2C WRITEBACK ACCESSES:    2039266 HITS:    2022003 MISSES:      17263
L2C RQ ACCESS:    8297454
L2C RQ TO_CACHE:    8297153
L2C RQ MERGED:          0
L2C RQ FORWARD:          0
L2C WQ ACCESS:    2039266
L2C WQ TO_CACHE:    2039266
L2C WQ MERGED:          0
L2C WQ FORWARD:        442
LLC TOTAL     ACCESS:    4609864  HIT:    3260962  MISS:    1348902
LLC LOAD      ACCESS:    2319127  HIT:    1481120  MISS:     838007
LLC RFO       ACCESS:     468661  HIT:     337503  MISS:     131158
LLC PREFETCH  ACCESS:     941780  HIT:     680189  MISS:     261591
LLC WRITEBACK ACCESS:     880296  HIT:     762150  MISS:     118146
LLC PREFETCH  REQUESTED:          0  ISSUED:          0  USEFUL:      31513  USELESS:     227752
LLC TOTAL MSHR MERGED:        126
LLC LOAD MSHR MERGED:         32
LLC RFO MSHR MERGED:          0
LLC PREFETCH MSHR MERGED:         94
LLC WRITEBACK MSHR MERGED:          0
LLC TOTAL ACCESSES:    4610020 HITS:    3260992 MISSES:    1349028
LLC LOAD ACCESSES:    2319138 HITS:    1481131 MISSES:     838007
LLC RFO ACCESSES:     468669 HITS:     337511 MISSES:     131158
LLC PREFETCH ACCESSES:     941917 HITS:     680200 MISSES:     261717
LLC WRITEBACK ACCESSES:     880296 HITS:     762150 MISSES:     118146
LLC 0 RQ ACCESS:    2787807
LLC 0 RQ TO_CACHE:    2787788
LLC 0 RQ MERGED:          0
LLC 0 RQ FORWARD:          0
LLC WQ ACCESS:     880296
LLC WQ TO_CACHE:     880296
LLC WQ MERGED:          0
LLC WQ FORWARD:         30
Major fault: 0 Minor fault: 12862
CPU 0 L1D next line prefetcher final stats
CPU 0 L2C PC-based stride prefetcher final stats
All Misses: 1551882
All Hits: 3874986
SD Algo Stats - Switches: 0 SRR-Repls: 963619 BRR-Repls: 0

DRAM Statistics
 CHANNEL 0
 RQ ROW_BUFFER_HIT:     370263  ROW_BUFFER_MISS:     857433
 DBUS_CONGESTED:     614969
 WQ ROW_BUFFER_HIT:      32060  ROW_BUFFER_MISS:     317968  FULL:          0

 AVG_CONGESTED_CYCLE: 13
LOADS RETIRED: 136549171
INSTR RETIRED: 500000000
