
*** ChampSim Multicore Out-of-Order Simulator ***

Warmup Instructions: 100000000
Simulation Instructions: 500000000
Number of CPUs: 1
LLC sets: 2048
LLC ways: 16
Clean RRIP Policies: 1112011111120111 Dirty RRIP Policies: 102010101020101 PSEL Width: 10 Track Set: 4294967295 PSEL Mask: 1 Demote Mask: 1102304211023042DS Algo: 0Window size: 0
Off-chip DRAM Size: 4096 MB Channels: 1 Width: 64-bit Data Rate: 1600 MT/s

CPU 0 runs /mnt/beegfs/iconst01/spec2017/Gcc.trace.gz
NOT SORTED
TRACE STRING: /mnt/beegfs/iconst01/spec2017/Gcc.trace.gz
SORTED
TRACE STRING: /mnt/beegfs/iconst01/spec2017/Gcc.trace.gz
INITIAL
TRACE STRING: /mnt/beegfs/iconst01/spec2017/Gcc.trace.gz

champsim_seed used: 269

CPU 0 L1D next line prefetcher
CPU 0 L2C IP-based stride prefetcher
Initialize DRRIP state
Assign rand_sets[0]: 454  LLC: 2048
rand_sets[0]: 454
Assign rand_sets[1]: 1662  LLC: 2048
rand_sets[1]: 1662
Assign rand_sets[2]: 1921  LLC: 2048
rand_sets[2]: 1921
Assign rand_sets[3]: 1131  LLC: 2048
rand_sets[3]: 1131
Assign rand_sets[4]: 331  LLC: 2048
rand_sets[4]: 331
Assign rand_sets[5]: 1531  LLC: 2048
rand_sets[5]: 1531
Assign rand_sets[6]: 482  LLC: 2048
rand_sets[6]: 482
Assign rand_sets[7]: 1275  LLC: 2048
rand_sets[7]: 1275
Assign rand_sets[8]: 1876  LLC: 2048
rand_sets[8]: 1876
Assign rand_sets[9]: 2038  LLC: 2048
rand_sets[9]: 2038
Assign rand_sets[10]: 701  LLC: 2048
rand_sets[10]: 701
Assign rand_sets[11]: 479  LLC: 2048
rand_sets[11]: 479
Assign rand_sets[12]: 892  LLC: 2048
rand_sets[12]: 892
Assign rand_sets[13]: 1820  LLC: 2048
rand_sets[13]: 1820
Assign rand_sets[14]: 1505  LLC: 2048
rand_sets[14]: 1505
Assign rand_sets[15]: 1159  LLC: 2048
rand_sets[15]: 1159
Assign rand_sets[16]: 513  LLC: 2048
rand_sets[16]: 513
Assign rand_sets[17]: 703  LLC: 2048
rand_sets[17]: 703
Assign rand_sets[18]: 561  LLC: 2048
rand_sets[18]: 561
Assign rand_sets[19]: 990  LLC: 2048
rand_sets[19]: 990
Assign rand_sets[20]: 342  LLC: 2048
rand_sets[20]: 342
Assign rand_sets[21]: 882  LLC: 2048
rand_sets[21]: 882
Assign rand_sets[22]: 15  LLC: 2048
rand_sets[22]: 15
Assign rand_sets[23]: 71  LLC: 2048
rand_sets[23]: 71
Assign rand_sets[24]: 1127  LLC: 2048
rand_sets[24]: 1127
Assign rand_sets[25]: 1382  LLC: 2048
rand_sets[25]: 1382
Assign rand_sets[26]: 647  LLC: 2048
rand_sets[26]: 647
Assign rand_sets[27]: 857  LLC: 2048
rand_sets[27]: 857
Assign rand_sets[28]: 1450  LLC: 2048
rand_sets[28]: 1450
Assign rand_sets[29]: 1160  LLC: 2048
rand_sets[29]: 1160
Assign rand_sets[30]: 1852  LLC: 2048
rand_sets[30]: 1852
Assign rand_sets[31]: 1881  LLC: 2048
rand_sets[31]: 1881
Assign rand_sets[32]: 1770  LLC: 2048
rand_sets[32]: 1770
Assign rand_sets[33]: 1622  LLC: 2048
rand_sets[33]: 1622
Assign rand_sets[34]: 275  LLC: 2048
rand_sets[34]: 275
Assign rand_sets[35]: 635  LLC: 2048
rand_sets[35]: 635
Assign rand_sets[36]: 466  LLC: 2048
rand_sets[36]: 466
Assign rand_sets[37]: 1413  LLC: 2048
rand_sets[37]: 1413
Assign rand_sets[38]: 417  LLC: 2048
rand_sets[38]: 417
Assign rand_sets[39]: 472  LLC: 2048
rand_sets[39]: 472
Assign rand_sets[40]: 1340  LLC: 2048
rand_sets[40]: 1340
Assign rand_sets[41]: 852  LLC: 2048
rand_sets[41]: 852
Assign rand_sets[42]: 1365  LLC: 2048
rand_sets[42]: 1365
Assign rand_sets[43]: 47  LLC: 2048
rand_sets[43]: 47
Assign rand_sets[44]: 823  LLC: 2048
rand_sets[44]: 823
Assign rand_sets[45]: 686  LLC: 2048
rand_sets[45]: 686
Assign rand_sets[46]: 1637  LLC: 2048
rand_sets[46]: 1637
Assign rand_sets[47]: 1115  LLC: 2048
rand_sets[47]: 1115
Assign rand_sets[48]: 986  LLC: 2048
rand_sets[48]: 986
Assign rand_sets[49]: 258  LLC: 2048
rand_sets[49]: 258
Assign rand_sets[50]: 633  LLC: 2048
rand_sets[50]: 633
Assign rand_sets[51]: 920  LLC: 2048
rand_sets[51]: 920
Assign rand_sets[52]: 204  LLC: 2048
rand_sets[52]: 204
Assign rand_sets[53]: 227  LLC: 2048
rand_sets[53]: 227
Assign rand_sets[54]: 1818  LLC: 2048
rand_sets[54]: 1818
Assign rand_sets[55]: 886  LLC: 2048
rand_sets[55]: 886
Assign rand_sets[56]: 1422  LLC: 2048
rand_sets[56]: 1422
Assign rand_sets[57]: 607  LLC: 2048
rand_sets[57]: 607
Assign rand_sets[58]: 217  LLC: 2048
rand_sets[58]: 217
Assign rand_sets[59]: 1945  LLC: 2048
rand_sets[59]: 1945
Assign rand_sets[60]: 143  LLC: 2048
rand_sets[60]: 143
Assign rand_sets[61]: 1311  LLC: 2048
rand_sets[61]: 1311
Assign rand_sets[62]: 319  LLC: 2048
rand_sets[62]: 319
Assign rand_sets[63]: 1846  LLC: 2048
rand_sets[63]: 1846
 CLEAN-RRIP-POLICY-1: 1-1-1-2-0-1-1-1- CLEAN-RRIP-POLICY-2: 1-1-1-2-0-1-1-1-
 DIRTY-RRIP-POLICY-1: 0-1-0-2-0-1-0-1- DIRTY-RRIP-POLICY-2: 0-1-0-2-0-1-0-1-
 PSEL width: 10
Heartbeat CPU 0 instructions: 10000001 cycles: 7315908 heartbeat IPC: 1.36688 cumulative IPC: 1.36688 (Simulation time: 0 hr 0 min 15 sec) 
Heartbeat CPU 0 instructions: 20000000 cycles: 14308209 heartbeat IPC: 1.43014 cumulative IPC: 1.3978 (Simulation time: 0 hr 0 min 30 sec) 
Heartbeat CPU 0 instructions: 30000001 cycles: 21022023 heartbeat IPC: 1.48947 cumulative IPC: 1.42707 (Simulation time: 0 hr 0 min 47 sec) 
Heartbeat CPU 0 instructions: 40000000 cycles: 27483126 heartbeat IPC: 1.54772 cumulative IPC: 1.45544 (Simulation time: 0 hr 1 min 3 sec) 
Heartbeat CPU 0 instructions: 50000001 cycles: 33585253 heartbeat IPC: 1.63877 cumulative IPC: 1.48875 (Simulation time: 0 hr 1 min 19 sec) 
Heartbeat CPU 0 instructions: 60000000 cycles: 40066701 heartbeat IPC: 1.54286 cumulative IPC: 1.4975 (Simulation time: 0 hr 1 min 36 sec) 
Heartbeat CPU 0 instructions: 70000000 cycles: 47107715 heartbeat IPC: 1.42025 cumulative IPC: 1.48596 (Simulation time: 0 hr 1 min 51 sec) 
Heartbeat CPU 0 instructions: 80000000 cycles: 54199930 heartbeat IPC: 1.41 cumulative IPC: 1.47602 (Simulation time: 0 hr 2 min 7 sec) 
Heartbeat CPU 0 instructions: 90000003 cycles: 61207090 heartbeat IPC: 1.42711 cumulative IPC: 1.47042 (Simulation time: 0 hr 2 min 22 sec) 
Heartbeat CPU 0 instructions: 100000000 cycles: 68377389 heartbeat IPC: 1.39464 cumulative IPC: 1.46247 (Simulation time: 0 hr 2 min 37 sec) 

Warmup complete CPU 0 instructions: 100000004 cycles: 68377390 (Simulation time: 0 hr 2 min 37 sec) 

Heartbeat CPU 0 instructions: 110000003 cycles: 96471366 heartbeat IPC: 0.355948 cumulative IPC: 0.355948 (Simulation time: 0 hr 3 min 7 sec) 
Heartbeat CPU 0 instructions: 120000000 cycles: 124077651 heartbeat IPC: 0.362236 cumulative IPC: 0.359065 (Simulation time: 0 hr 3 min 38 sec) 
Heartbeat CPU 0 instructions: 130000000 cycles: 149206985 heartbeat IPC: 0.397941 cumulative IPC: 0.371151 (Simulation time: 0 hr 4 min 8 sec) 
Heartbeat CPU 0 instructions: 140000000 cycles: 179531195 heartbeat IPC: 0.32977 cumulative IPC: 0.359862 (Simulation time: 0 hr 4 min 38 sec) 
Heartbeat CPU 0 instructions: 150000000 cycles: 209953890 heartbeat IPC: 0.328702 cumulative IPC: 0.353166 (Simulation time: 0 hr 5 min 8 sec) 
Heartbeat CPU 0 instructions: 160000000 cycles: 237539125 heartbeat IPC: 0.362513 cumulative IPC: 0.35469 (Simulation time: 0 hr 5 min 37 sec) 
Heartbeat CPU 0 instructions: 170000001 cycles: 265845557 heartbeat IPC: 0.353277 cumulative IPC: 0.354488 (Simulation time: 0 hr 6 min 9 sec) 
Heartbeat CPU 0 instructions: 180000000 cycles: 294588127 heartbeat IPC: 0.347916 cumulative IPC: 0.353653 (Simulation time: 0 hr 6 min 40 sec) 
Heartbeat CPU 0 instructions: 190000002 cycles: 323010039 heartbeat IPC: 0.351841 cumulative IPC: 0.35345 (Simulation time: 0 hr 7 min 10 sec) 
Heartbeat CPU 0 instructions: 200000000 cycles: 351685820 heartbeat IPC: 0.348726 cumulative IPC: 0.352972 (Simulation time: 0 hr 7 min 41 sec) 
Heartbeat CPU 0 instructions: 210000002 cycles: 379893372 heartbeat IPC: 0.354515 cumulative IPC: 0.353112 (Simulation time: 0 hr 8 min 11 sec) 
Heartbeat CPU 0 instructions: 220000000 cycles: 409901716 heartbeat IPC: 0.333241 cumulative IPC: 0.351366 (Simulation time: 0 hr 8 min 41 sec) 
Heartbeat CPU 0 instructions: 230000000 cycles: 437813346 heartbeat IPC: 0.358274 cumulative IPC: 0.351888 (Simulation time: 0 hr 9 min 10 sec) 
Heartbeat CPU 0 instructions: 240000000 cycles: 463891418 heartbeat IPC: 0.383464 cumulative IPC: 0.35397 (Simulation time: 0 hr 9 min 39 sec) 
Heartbeat CPU 0 instructions: 250000000 cycles: 494208545 heartbeat IPC: 0.329847 cumulative IPC: 0.352252 (Simulation time: 0 hr 10 min 11 sec) 
Heartbeat CPU 0 instructions: 260000000 cycles: 521392949 heartbeat IPC: 0.367858 cumulative IPC: 0.353189 (Simulation time: 0 hr 10 min 41 sec) 
Heartbeat CPU 0 instructions: 270000003 cycles: 550053900 heartbeat IPC: 0.348907 cumulative IPC: 0.352934 (Simulation time: 0 hr 11 min 12 sec) 
Heartbeat CPU 0 instructions: 280000000 cycles: 578518822 heartbeat IPC: 0.351309 cumulative IPC: 0.352843 (Simulation time: 0 hr 11 min 43 sec) 
Heartbeat CPU 0 instructions: 290000000 cycles: 607594217 heartbeat IPC: 0.343933 cumulative IPC: 0.352363 (Simulation time: 0 hr 12 min 15 sec) 
Heartbeat CPU 0 instructions: 300000000 cycles: 638297080 heartbeat IPC: 0.325703 cumulative IPC: 0.350927 (Simulation time: 0 hr 12 min 45 sec) 
Heartbeat CPU 0 instructions: 310000001 cycles: 668202211 heartbeat IPC: 0.334391 cumulative IPC: 0.350102 (Simulation time: 0 hr 13 min 15 sec) 
Heartbeat CPU 0 instructions: 320000000 cycles: 697021909 heartbeat IPC: 0.346985 cumulative IPC: 0.349959 (Simulation time: 0 hr 13 min 45 sec) 
Heartbeat CPU 0 instructions: 330000000 cycles: 726100975 heartbeat IPC: 0.34389 cumulative IPC: 0.349691 (Simulation time: 0 hr 14 min 15 sec) 
Heartbeat CPU 0 instructions: 340000000 cycles: 755870463 heartbeat IPC: 0.335914 cumulative IPC: 0.349094 (Simulation time: 0 hr 14 min 45 sec) 
Heartbeat CPU 0 instructions: 350000003 cycles: 783200044 heartbeat IPC: 0.365904 cumulative IPC: 0.349737 (Simulation time: 0 hr 15 min 15 sec) 
Heartbeat CPU 0 instructions: 360000000 cycles: 812358117 heartbeat IPC: 0.342958 cumulative IPC: 0.349471 (Simulation time: 0 hr 15 min 44 sec) 
Heartbeat CPU 0 instructions: 370000000 cycles: 841400851 heartbeat IPC: 0.34432 cumulative IPC: 0.349278 (Simulation time: 0 hr 16 min 13 sec) 
Heartbeat CPU 0 instructions: 380000000 cycles: 870750794 heartbeat IPC: 0.340716 cumulative IPC: 0.348965 (Simulation time: 0 hr 16 min 42 sec) 
Heartbeat CPU 0 instructions: 390000001 cycles: 899073675 heartbeat IPC: 0.353071 cumulative IPC: 0.349105 (Simulation time: 0 hr 17 min 11 sec) 
Heartbeat CPU 0 instructions: 400000000 cycles: 928482758 heartbeat IPC: 0.340031 cumulative IPC: 0.348794 (Simulation time: 0 hr 17 min 40 sec) 
Heartbeat CPU 0 instructions: 410000001 cycles: 956227419 heartbeat IPC: 0.36043 cumulative IPC: 0.349158 (Simulation time: 0 hr 18 min 9 sec) 
Heartbeat CPU 0 instructions: 420000000 cycles: 983957695 heartbeat IPC: 0.360617 cumulative IPC: 0.349505 (Simulation time: 0 hr 18 min 38 sec) 
Heartbeat CPU 0 instructions: 430000002 cycles: 1012191745 heartbeat IPC: 0.354182 cumulative IPC: 0.349645 (Simulation time: 0 hr 19 min 6 sec) 
Heartbeat CPU 0 instructions: 440000000 cycles: 1042549616 heartbeat IPC: 0.329404 cumulative IPC: 0.349014 (Simulation time: 0 hr 19 min 36 sec) 
Heartbeat CPU 0 instructions: 450000002 cycles: 1072544501 heartbeat IPC: 0.33339 cumulative IPC: 0.348548 (Simulation time: 0 hr 20 min 5 sec) 
Heartbeat CPU 0 instructions: 460000000 cycles: 1100737618 heartbeat IPC: 0.354696 cumulative IPC: 0.348715 (Simulation time: 0 hr 20 min 34 sec) 
Heartbeat CPU 0 instructions: 470000000 cycles: 1128717088 heartbeat IPC: 0.357405 cumulative IPC: 0.348945 (Simulation time: 0 hr 21 min 3 sec) 
Heartbeat CPU 0 instructions: 480000000 cycles: 1156929579 heartbeat IPC: 0.354453 cumulative IPC: 0.349088 (Simulation time: 0 hr 21 min 32 sec) 
Heartbeat CPU 0 instructions: 490000000 cycles: 1184828471 heartbeat IPC: 0.358437 cumulative IPC: 0.349321 (Simulation time: 0 hr 22 min 0 sec) 
Heartbeat CPU 0 instructions: 500000000 cycles: 1213464888 heartbeat IPC: 0.349206 cumulative IPC: 0.349318 (Simulation time: 0 hr 22 min 29 sec) 
Heartbeat CPU 0 instructions: 510000000 cycles: 1247553637 heartbeat IPC: 0.293352 cumulative IPC: 0.3477 (Simulation time: 0 hr 23 min 2 sec) 
Heartbeat CPU 0 instructions: 520000000 cycles: 1275872815 heartbeat IPC: 0.353118 cumulative IPC: 0.347827 (Simulation time: 0 hr 23 min 32 sec) 
Heartbeat CPU 0 instructions: 530000001 cycles: 1306212614 heartbeat IPC: 0.3296 cumulative IPC: 0.347381 (Simulation time: 0 hr 24 min 2 sec) 
Heartbeat CPU 0 instructions: 540000000 cycles: 1334844583 heartbeat IPC: 0.34926 cumulative IPC: 0.347423 (Simulation time: 0 hr 24 min 32 sec) 
Heartbeat CPU 0 instructions: 550000001 cycles: 1364255342 heartbeat IPC: 0.340012 cumulative IPC: 0.347255 (Simulation time: 0 hr 25 min 3 sec) 
Heartbeat CPU 0 instructions: 560000000 cycles: 1389826791 heartbeat IPC: 0.391061 cumulative IPC: 0.348103 (Simulation time: 0 hr 25 min 32 sec) 
Heartbeat CPU 0 instructions: 570000000 cycles: 1419968131 heartbeat IPC: 0.33177 cumulative IPC: 0.347738 (Simulation time: 0 hr 26 min 3 sec) 
Heartbeat CPU 0 instructions: 580000000 cycles: 1448245447 heartbeat IPC: 0.35364 cumulative IPC: 0.347859 (Simulation time: 0 hr 26 min 33 sec) 
Heartbeat CPU 0 instructions: 590000001 cycles: 1473043919 heartbeat IPC: 0.403251 cumulative IPC: 0.348837 (Simulation time: 0 hr 27 min 1 sec) 
Heartbeat CPU 0 instructions: 600000000 cycles: 1499199772 heartbeat IPC: 0.382324 cumulative IPC: 0.349449 (Simulation time: 0 hr 27 min 31 sec) 
Finished CPU 0 instructions: 500000000 cycles: 1430822404 cumulative IPC: 0.349449 (Simulation time: 0 hr 27 min 31 sec) 

CPU 0 Branch Prediction Accuracy: 86.4311% MPKI: 26.2662
Number of Branches: 96788573 Number of Mispredictions: 13133102
Number of LOAD Instructions: 164682285
Number of LOAD Instructions (ROI): 164682285
Number of STORE Instructions: 78194750
Number of STORE Instructions (ROI): 78194750
Total Destination Memory Operands: 83268534
Total Destination Memory Operands (ROI): 83268534
Total Source Memory Operands: 164712438
Total Source Memory Operands (ROI): 164712438
Number of DEPENDED LOADS: 7052586
Number of DEPENDED LOADS (ROI): 7052586
Number of SQ_ADDED: 83268522
Number of SQ_ADDED (ROI): 83268522
Number of LQ_ADDED: 236654218
Number of LQ_ADDED (ROI): 236654218
Number of Instructions read from trace: 600000066

ChampSim completed all CPUs

Region of Interest Statistics

CPU 0 cumulative IPC: 0.349449 instructions: 500000000 cycles: 1430822404
ITLB TOTAL     ACCESS:  100528673  HIT:  100324227  MISS:     204446
ITLB LOAD      ACCESS:  100528673  HIT:  100324227  MISS:     204446
ITLB RFO       ACCESS:          0  HIT:          0  MISS:          0
ITLB PREFETCH  ACCESS:          0  HIT:          0  MISS:          0
ITLB WRITEBACK ACCESS:          0  HIT:          0  MISS:          0
ITLB PREFETCH  REQUESTED:          0  ISSUED:          0  USEFUL:          0  USELESS:          0
ITLB TOTAL MSHR MERGED:     172424
ITLB LOAD MSHR MERGED:     172424
ITLB RFO MSHR MERGED:          0
ITLB PREFETCH MSHR MERGED:          0
ITLB WRITEBACK MSHR MERGED:          0
ITLB TOTAL ACCESSES:  100701097 HITS:  100324227 MISSES:     376870
ITLB LOAD ACCESSES:  100701097 HITS:  100324227 MISSES:     376870
ITLB RFO ACCESSES:          0 HITS:          0 MISSES:          0
ITLB PREFETCH ACCESSES:          0 HITS:          0 MISSES:          0
ITLB WRITEBACK ACCESSES:          0 HITS:          0 MISSES:          0
ITLB RQ ACCESS:  500000057
ITLB RQ TO_CACHE:  100701097
ITLB RQ MERGED:  399298960
ITLB RQ FORWARD:          0
ITLB WQ ACCESS:          0
ITLB WQ TO_CACHE:          0
ITLB WQ MERGED:          0
ITLB WQ FORWARD:          0
DTLB TOTAL     ACCESS:  165348158  HIT:  164713803  MISS:     634355
DTLB LOAD      ACCESS:  106300723  HIT:  105730772  MISS:     569951
DTLB RFO       ACCESS:   59047435  HIT:   58983031  MISS:      64404
DTLB PREFETCH  ACCESS:          0  HIT:          0  MISS:          0
DTLB WRITEBACK ACCESS:          0  HIT:          0  MISS:          0
DTLB PREFETCH  REQUESTED:          0  ISSUED:          0  USEFUL:          0  USELESS:          0
DTLB TOTAL MSHR MERGED:      99744
DTLB LOAD MSHR MERGED:      59271
DTLB RFO MSHR MERGED:      40473
DTLB PREFETCH MSHR MERGED:          0
DTLB WRITEBACK MSHR MERGED:          0
DTLB TOTAL ACCESSES:  165447902 HITS:  164713803 MISSES:     734099
DTLB LOAD ACCESSES:  106359994 HITS:  105730772 MISSES:     629222
DTLB RFO ACCESSES:   59087908 HITS:   58983031 MISSES:     104877
DTLB PREFETCH ACCESSES:          0 HITS:          0 MISSES:          0
DTLB WRITEBACK ACCESSES:          0 HITS:          0 MISSES:          0
DTLB RQ ACCESS:  200318291
DTLB RQ TO_CACHE:  165447902
DTLB RQ MERGED:   34870389
DTLB RQ FORWARD:          0
DTLB WQ ACCESS:          0
DTLB WQ TO_CACHE:          0
DTLB WQ MERGED:          0
DTLB WQ FORWARD:          0
L1D TOTAL     ACCESS:  281906518  HIT:  273997039  MISS:    7909479
L1D LOAD      ACCESS:  110438252  HIT:  107163216  MISS:    3275036
L1D RFO       ACCESS:   67137221  HIT:   66247404  MISS:     889817
L1D PREFETCH  ACCESS:  104331045  HIT:  100586419  MISS:    3744626
L1D WRITEBACK ACCESS:          0  HIT:          0  MISS:          0
L1D PREFETCH  REQUESTED:  110827970  ISSUED:  109128473  USEFUL:    1665153  USELESS:    2079437
L1D TOTAL MSHR MERGED:    2821680
L1D LOAD MSHR MERGED:     484351
L1D RFO MSHR MERGED:    1848143
L1D PREFETCH MSHR MERGED:     489186
L1D WRITEBACK MSHR MERGED:          0
L1D TOTAL ACCESSES:  284755612 HITS:  274024453 MISSES:   10731159
L1D LOAD ACCESSES:  110829363 HITS:  107164609 MISSES:    3664754
L1D RFO ACCESSES:   68974340 HITS:   66247404 MISSES:    2726936
L1D PREFETCH ACCESSES:  104951909 HITS:  100612440 MISSES:    4339469
L1D WRITEBACK ACCESSES:          0 HITS:          0 MISSES:          0
L1D RQ ACCESS:  130765688
L1D RQ TO_CACHE:  110827973
L1D RQ MERGED:   19936322
L1D RQ FORWARD:          0
L1D WQ ACCESS:   69552603
L1D WQ TO_CACHE:   68974341
L1D WQ MERGED:     578262
L1D WQ FORWARD:      27414
L1I TOTAL     ACCESS:  126574783  HIT:  122336241  MISS:    4238542
L1I LOAD      ACCESS:  126574783  HIT:  122336241  MISS:    4238542
L1I RFO       ACCESS:          0  HIT:          0  MISS:          0
L1I PREFETCH  ACCESS:          0  HIT:          0  MISS:          0
L1I WRITEBACK ACCESS:          0  HIT:          0  MISS:          0
L1I PREFETCH  REQUESTED:          0  ISSUED:          0  USEFUL:          0  USELESS:          0
L1I TOTAL MSHR MERGED:    1835755
L1I LOAD MSHR MERGED:    1835755
L1I RFO MSHR MERGED:          0
L1I PREFETCH MSHR MERGED:          0
L1I WRITEBACK MSHR MERGED:          0
L1I TOTAL ACCESSES:  128410541 HITS:  122336241 MISSES:    6074300
L1I LOAD ACCESSES:  128410541 HITS:  122336241 MISSES:    6074300
L1I RFO ACCESSES:          0 HITS:          0 MISSES:          0
L1I PREFETCH ACCESSES:          0 HITS:          0 MISSES:          0
L1I WRITEBACK ACCESSES:          0 HITS:          0 MISSES:          0
L1I RQ ACCESS:  500000057
L1I RQ TO_CACHE:  128410541
L1I RQ MERGED:  371589516
L1I RQ FORWARD:          0
L1I WQ ACCESS:          0
L1I WQ TO_CACHE:          0
L1I WQ MERGED:          0
L1I WQ FORWARD:          0
L2C TOTAL     ACCESS:   14906511  HIT:   11160001  MISS:    3746510
L2C LOAD      ACCESS:    7418737  HIT:    5099081  MISS:    2319656
L2C RFO       ACCESS:     878696  HIT:     409927  MISS:     468769
L2C PREFETCH  ACCESS:    4569816  HIT:    3628986  MISS:     940830
L2C WRITEBACK ACCESS:    2039262  HIT:    2022007  MISS:      17255
L2C PREFETCH  REQUESTED:     842775  ISSUED:     842775  USEFUL:     203698  USELESS:     736838
L2C TOTAL MSHR MERGED:       5934
L2C LOAD MSHR MERGED:        502
L2C RFO MSHR MERGED:          0
L2C PREFETCH MSHR MERGED:       5432
L2C WRITEBACK MSHR MERGED:          0
L2C TOTAL ACCESSES:   14913318 HITS:   11160452 MISSES:    3752866
L2C LOAD ACCESSES:    7418945 HITS:    5099289 MISSES:    2319656
L2C RFO ACCESSES:     878793 HITS:     410024 MISSES:     468769
L2C PREFETCH ACCESSES:    4576318 HITS:    3629132 MISSES:     947186
L2C WRITEBACK ACCESSES:    2039262 HITS:    2022007 MISSES:      17255
L2C RQ ACCESS:    8297741
L2C RQ TO_CACHE:    8297436
L2C RQ MERGED:          0
L2C RQ FORWARD:          0
L2C WQ ACCESS:    2039262
L2C WQ TO_CACHE:    2039262
L2C WQ MERGED:          0
L2C WQ FORWARD:        451
LLC TOTAL     ACCESS:    4609825  HIT:    3880422  MISS:     729403
LLC LOAD      ACCESS:    2319140  HIT:    1872374  MISS:     446766
LLC RFO       ACCESS:     468759  HIT:     429206  MISS:      39553
LLC PREFETCH  ACCESS:     941633  HIT:     705637  MISS:     235996
LLC WRITEBACK ACCESS:     880293  HIT:     873205  MISS:       7088
LLC PREFETCH  REQUESTED:          0  ISSUED:          0  USEFUL:      26895  USELESS:     208883
LLC TOTAL MSHR MERGED:         98
LLC LOAD MSHR MERGED:         26
LLC RFO MSHR MERGED:          0
LLC PREFETCH MSHR MERGED:         72
LLC WRITEBACK MSHR MERGED:          0
LLC TOTAL ACCESSES:    4609962 HITS:    3880461 MISSES:     729501
LLC LOAD ACCESSES:    2319154 HITS:    1872388 MISSES:     446766
LLC RFO ACCESSES:     468769 HITS:     429216 MISSES:      39553
LLC PREFETCH ACCESSES:     941746 HITS:     705652 MISSES:     236094
LLC WRITEBACK ACCESSES:     880293 HITS:     873205 MISSES:       7088
LLC 0 RQ ACCESS:    2787923
LLC 0 RQ TO_CACHE:    2787899
LLC 0 RQ MERGED:          0
LLC 0 RQ FORWARD:          0
LLC WQ ACCESS:     880293
LLC WQ TO_CACHE:     880293
LLC WQ MERGED:          0
LLC WQ FORWARD:         39
Major fault: 0 Minor fault: 12862
CPU 0 L1D next line prefetcher final stats
CPU 0 L2C PC-based stride prefetcher final stats
All Misses: 855482
All Hits: 4571349
SD Algo Stats - Switches: 1 SRR-Repls: 360059 BRR-Repls: 150066

DRAM Statistics
 CHANNEL 0
 RQ ROW_BUFFER_HIT:     172284  ROW_BUFFER_MISS:     549550
 DBUS_CONGESTED:     307981
 WQ ROW_BUFFER_HIT:       6584  ROW_BUFFER_MISS:     127835  FULL:          0

 AVG_CONGESTED_CYCLE: 13
LOADS RETIRED: 136549171
INSTR RETIRED: 500000000
