
*** ChampSim Multicore Out-of-Order Simulator ***

Warmup Instructions: 100000000
Simulation Instructions: 500000000
Number of CPUs: 1
LLC sets: 2048
LLC ways: 16
Clean RRIP Policies: 2211230222112302 Dirty RRIP Policies: 1201130212011302 PSEL Width: 10 Track Set: 4294967295 PSEL Mask: 1 Demote Mask: 1030100010301000DS Algo: 0Window size: 0
Off-chip DRAM Size: 4096 MB Channels: 1 Width: 64-bit Data Rate: 1600 MT/s

CPU 0 runs /mnt/beegfs/iconst01/spec2017/Cam4.trace.gz
NOT SORTED
TRACE STRING: /mnt/beegfs/iconst01/spec2017/Cam4.trace.gz
SORTED
TRACE STRING: /mnt/beegfs/iconst01/spec2017/Cam4.trace.gz
INITIAL
TRACE STRING: /mnt/beegfs/iconst01/spec2017/Cam4.trace.gz

champsim_seed used: 325

CPU 0 L1D next line prefetcher
CPU 0 L2C IP-based stride prefetcher
Initialize DRRIP state
Assign rand_sets[0]: 454  LLC: 2048
rand_sets[0]: 454
Assign rand_sets[1]: 1662  LLC: 2048
rand_sets[1]: 1662
Assign rand_sets[2]: 1921  LLC: 2048
rand_sets[2]: 1921
Assign rand_sets[3]: 1131  LLC: 2048
rand_sets[3]: 1131
Assign rand_sets[4]: 331  LLC: 2048
rand_sets[4]: 331
Assign rand_sets[5]: 1531  LLC: 2048
rand_sets[5]: 1531
Assign rand_sets[6]: 482  LLC: 2048
rand_sets[6]: 482
Assign rand_sets[7]: 1275  LLC: 2048
rand_sets[7]: 1275
Assign rand_sets[8]: 1876  LLC: 2048
rand_sets[8]: 1876
Assign rand_sets[9]: 2038  LLC: 2048
rand_sets[9]: 2038
Assign rand_sets[10]: 701  LLC: 2048
rand_sets[10]: 701
Assign rand_sets[11]: 479  LLC: 2048
rand_sets[11]: 479
Assign rand_sets[12]: 892  LLC: 2048
rand_sets[12]: 892
Assign rand_sets[13]: 1820  LLC: 2048
rand_sets[13]: 1820
Assign rand_sets[14]: 1505  LLC: 2048
rand_sets[14]: 1505
Assign rand_sets[15]: 1159  LLC: 2048
rand_sets[15]: 1159
Assign rand_sets[16]: 513  LLC: 2048
rand_sets[16]: 513
Assign rand_sets[17]: 703  LLC: 2048
rand_sets[17]: 703
Assign rand_sets[18]: 561  LLC: 2048
rand_sets[18]: 561
Assign rand_sets[19]: 990  LLC: 2048
rand_sets[19]: 990
Assign rand_sets[20]: 342  LLC: 2048
rand_sets[20]: 342
Assign rand_sets[21]: 882  LLC: 2048
rand_sets[21]: 882
Assign rand_sets[22]: 15  LLC: 2048
rand_sets[22]: 15
Assign rand_sets[23]: 71  LLC: 2048
rand_sets[23]: 71
Assign rand_sets[24]: 1127  LLC: 2048
rand_sets[24]: 1127
Assign rand_sets[25]: 1382  LLC: 2048
rand_sets[25]: 1382
Assign rand_sets[26]: 647  LLC: 2048
rand_sets[26]: 647
Assign rand_sets[27]: 857  LLC: 2048
rand_sets[27]: 857
Assign rand_sets[28]: 1450  LLC: 2048
rand_sets[28]: 1450
Assign rand_sets[29]: 1160  LLC: 2048
rand_sets[29]: 1160
Assign rand_sets[30]: 1852  LLC: 2048
rand_sets[30]: 1852
Assign rand_sets[31]: 1881  LLC: 2048
rand_sets[31]: 1881
Assign rand_sets[32]: 1770  LLC: 2048
rand_sets[32]: 1770
Assign rand_sets[33]: 1622  LLC: 2048
rand_sets[33]: 1622
Assign rand_sets[34]: 275  LLC: 2048
rand_sets[34]: 275
Assign rand_sets[35]: 635  LLC: 2048
rand_sets[35]: 635
Assign rand_sets[36]: 466  LLC: 2048
rand_sets[36]: 466
Assign rand_sets[37]: 1413  LLC: 2048
rand_sets[37]: 1413
Assign rand_sets[38]: 417  LLC: 2048
rand_sets[38]: 417
Assign rand_sets[39]: 472  LLC: 2048
rand_sets[39]: 472
Assign rand_sets[40]: 1340  LLC: 2048
rand_sets[40]: 1340
Assign rand_sets[41]: 852  LLC: 2048
rand_sets[41]: 852
Assign rand_sets[42]: 1365  LLC: 2048
rand_sets[42]: 1365
Assign rand_sets[43]: 47  LLC: 2048
rand_sets[43]: 47
Assign rand_sets[44]: 823  LLC: 2048
rand_sets[44]: 823
Assign rand_sets[45]: 686  LLC: 2048
rand_sets[45]: 686
Assign rand_sets[46]: 1637  LLC: 2048
rand_sets[46]: 1637
Assign rand_sets[47]: 1115  LLC: 2048
rand_sets[47]: 1115
Assign rand_sets[48]: 986  LLC: 2048
rand_sets[48]: 986
Assign rand_sets[49]: 258  LLC: 2048
rand_sets[49]: 258
Assign rand_sets[50]: 633  LLC: 2048
rand_sets[50]: 633
Assign rand_sets[51]: 920  LLC: 2048
rand_sets[51]: 920
Assign rand_sets[52]: 204  LLC: 2048
rand_sets[52]: 204
Assign rand_sets[53]: 227  LLC: 2048
rand_sets[53]: 227
Assign rand_sets[54]: 1818  LLC: 2048
rand_sets[54]: 1818
Assign rand_sets[55]: 886  LLC: 2048
rand_sets[55]: 886
Assign rand_sets[56]: 1422  LLC: 2048
rand_sets[56]: 1422
Assign rand_sets[57]: 607  LLC: 2048
rand_sets[57]: 607
Assign rand_sets[58]: 217  LLC: 2048
rand_sets[58]: 217
Assign rand_sets[59]: 1945  LLC: 2048
rand_sets[59]: 1945
Assign rand_sets[60]: 143  LLC: 2048
rand_sets[60]: 143
Assign rand_sets[61]: 1311  LLC: 2048
rand_sets[61]: 1311
Assign rand_sets[62]: 319  LLC: 2048
rand_sets[62]: 319
Assign rand_sets[63]: 1846  LLC: 2048
rand_sets[63]: 1846
 CLEAN-RRIP-POLICY-1: 2-2-1-1-2-3-0-2- CLEAN-RRIP-POLICY-2: 2-2-1-1-2-3-0-2-
 DIRTY-RRIP-POLICY-1: 1-2-0-1-1-3-0-2- DIRTY-RRIP-POLICY-2: 1-2-0-1-1-3-0-2-
 PSEL width: 10
Heartbeat CPU 0 instructions: 10000000 cycles: 4859184 heartbeat IPC: 2.05796 cumulative IPC: 2.05796 (Simulation time: 0 hr 0 min 18 sec) 
Heartbeat CPU 0 instructions: 20000000 cycles: 9790761 heartbeat IPC: 2.02775 cumulative IPC: 2.04274 (Simulation time: 0 hr 0 min 34 sec) 
Heartbeat CPU 0 instructions: 30000001 cycles: 14562931 heartbeat IPC: 2.09548 cumulative IPC: 2.06002 (Simulation time: 0 hr 0 min 50 sec) 
Heartbeat CPU 0 instructions: 40000000 cycles: 19400006 heartbeat IPC: 2.06736 cumulative IPC: 2.06186 (Simulation time: 0 hr 1 min 7 sec) 
Heartbeat CPU 0 instructions: 50000000 cycles: 24256560 heartbeat IPC: 2.05907 cumulative IPC: 2.0613 (Simulation time: 0 hr 1 min 25 sec) 
Heartbeat CPU 0 instructions: 60000000 cycles: 29182026 heartbeat IPC: 2.03026 cumulative IPC: 2.05606 (Simulation time: 0 hr 1 min 42 sec) 
Heartbeat CPU 0 instructions: 70000001 cycles: 33957076 heartbeat IPC: 2.09422 cumulative IPC: 2.06143 (Simulation time: 0 hr 1 min 58 sec) 
Heartbeat CPU 0 instructions: 80000000 cycles: 38793393 heartbeat IPC: 2.06769 cumulative IPC: 2.06221 (Simulation time: 0 hr 2 min 15 sec) 
Heartbeat CPU 0 instructions: 90000002 cycles: 43647469 heartbeat IPC: 2.06012 cumulative IPC: 2.06198 (Simulation time: 0 hr 2 min 33 sec) 
Heartbeat CPU 0 instructions: 100000000 cycles: 48566310 heartbeat IPC: 2.033 cumulative IPC: 2.05904 (Simulation time: 0 hr 2 min 50 sec) 

Warmup complete CPU 0 instructions: 100000001 cycles: 48566311 (Simulation time: 0 hr 2 min 50 sec) 

Heartbeat CPU 0 instructions: 110000000 cycles: 61826432 heartbeat IPC: 0.754141 cumulative IPC: 0.754141 (Simulation time: 0 hr 3 min 14 sec) 
Heartbeat CPU 0 instructions: 120000000 cycles: 75597262 heartbeat IPC: 0.726173 cumulative IPC: 0.739893 (Simulation time: 0 hr 3 min 40 sec) 
Heartbeat CPU 0 instructions: 130000000 cycles: 89348476 heartbeat IPC: 0.727208 cumulative IPC: 0.735616 (Simulation time: 0 hr 4 min 7 sec) 
Heartbeat CPU 0 instructions: 140000000 cycles: 103631790 heartbeat IPC: 0.700118 cumulative IPC: 0.726408 (Simulation time: 0 hr 4 min 33 sec) 
Heartbeat CPU 0 instructions: 150000003 cycles: 116915431 heartbeat IPC: 0.752806 cumulative IPC: 0.731538 (Simulation time: 0 hr 4 min 57 sec) 
Heartbeat CPU 0 instructions: 160000000 cycles: 130679563 heartbeat IPC: 0.726526 cumulative IPC: 0.730698 (Simulation time: 0 hr 5 min 23 sec) 
Heartbeat CPU 0 instructions: 170000001 cycles: 144471316 heartbeat IPC: 0.725071 cumulative IPC: 0.729889 (Simulation time: 0 hr 5 min 50 sec) 
Heartbeat CPU 0 instructions: 180000000 cycles: 158735924 heartbeat IPC: 0.701036 cumulative IPC: 0.726153 (Simulation time: 0 hr 6 min 16 sec) 
Heartbeat CPU 0 instructions: 190000003 cycles: 171990785 heartbeat IPC: 0.75444 cumulative IPC: 0.729191 (Simulation time: 0 hr 6 min 40 sec) 
Heartbeat CPU 0 instructions: 200000000 cycles: 185755899 heartbeat IPC: 0.726474 cumulative IPC: 0.728918 (Simulation time: 0 hr 7 min 6 sec) 
Heartbeat CPU 0 instructions: 210000002 cycles: 199549669 heartbeat IPC: 0.724965 cumulative IPC: 0.728557 (Simulation time: 0 hr 7 min 32 sec) 
Heartbeat CPU 0 instructions: 220000000 cycles: 213821939 heartbeat IPC: 0.700659 cumulative IPC: 0.726148 (Simulation time: 0 hr 7 min 59 sec) 
Heartbeat CPU 0 instructions: 230000001 cycles: 227007809 heartbeat IPC: 0.758388 cumulative IPC: 0.72853 (Simulation time: 0 hr 8 min 23 sec) 
Heartbeat CPU 0 instructions: 240000000 cycles: 240765783 heartbeat IPC: 0.726851 cumulative IPC: 0.72841 (Simulation time: 0 hr 8 min 49 sec) 
Heartbeat CPU 0 instructions: 250000001 cycles: 254504510 heartbeat IPC: 0.72787 cumulative IPC: 0.728374 (Simulation time: 0 hr 9 min 15 sec) 
Heartbeat CPU 0 instructions: 260000000 cycles: 268657616 heartbeat IPC: 0.706559 cumulative IPC: 0.726971 (Simulation time: 0 hr 9 min 41 sec) 
Heartbeat CPU 0 instructions: 270000003 cycles: 281980940 heartbeat IPC: 0.750564 cumulative IPC: 0.728318 (Simulation time: 0 hr 10 min 5 sec) 
Heartbeat CPU 0 instructions: 280000000 cycles: 295752305 heartbeat IPC: 0.726144 cumulative IPC: 0.728197 (Simulation time: 0 hr 10 min 31 sec) 
Heartbeat CPU 0 instructions: 290000001 cycles: 309539959 heartbeat IPC: 0.725287 cumulative IPC: 0.728043 (Simulation time: 0 hr 10 min 58 sec) 
Heartbeat CPU 0 instructions: 300000000 cycles: 323633417 heartbeat IPC: 0.709549 cumulative IPC: 0.727095 (Simulation time: 0 hr 11 min 24 sec) 
Heartbeat CPU 0 instructions: 310000000 cycles: 336990931 heartbeat IPC: 0.748642 cumulative IPC: 0.728093 (Simulation time: 0 hr 11 min 48 sec) 
Heartbeat CPU 0 instructions: 320000000 cycles: 350808579 heartbeat IPC: 0.723712 cumulative IPC: 0.727893 (Simulation time: 0 hr 12 min 14 sec) 
Heartbeat CPU 0 instructions: 330000000 cycles: 364615656 heartbeat IPC: 0.724266 cumulative IPC: 0.727734 (Simulation time: 0 hr 12 min 40 sec) 
Heartbeat CPU 0 instructions: 340000000 cycles: 378678596 heartbeat IPC: 0.711089 cumulative IPC: 0.727025 (Simulation time: 0 hr 13 min 6 sec) 
Heartbeat CPU 0 instructions: 350000000 cycles: 392091079 heartbeat IPC: 0.745574 cumulative IPC: 0.72775 (Simulation time: 0 hr 13 min 29 sec) 
Heartbeat CPU 0 instructions: 360000000 cycles: 405944977 heartbeat IPC: 0.721819 cumulative IPC: 0.72752 (Simulation time: 0 hr 13 min 54 sec) 
Heartbeat CPU 0 instructions: 370000003 cycles: 419750286 heartbeat IPC: 0.724359 cumulative IPC: 0.727402 (Simulation time: 0 hr 14 min 20 sec) 
Heartbeat CPU 0 instructions: 380000000 cycles: 433781691 heartbeat IPC: 0.712687 cumulative IPC: 0.726866 (Simulation time: 0 hr 14 min 45 sec) 
Heartbeat CPU 0 instructions: 390000003 cycles: 447205740 heartbeat IPC: 0.744932 cumulative IPC: 0.727474 (Simulation time: 0 hr 15 min 9 sec) 
Heartbeat CPU 0 instructions: 400000000 cycles: 461055835 heartbeat IPC: 0.722017 cumulative IPC: 0.727291 (Simulation time: 0 hr 15 min 34 sec) 
Heartbeat CPU 0 instructions: 410000000 cycles: 474834912 heartbeat IPC: 0.725738 cumulative IPC: 0.727241 (Simulation time: 0 hr 16 min 0 sec) 
Heartbeat CPU 0 instructions: 420000000 cycles: 488851981 heartbeat IPC: 0.713416 cumulative IPC: 0.726801 (Simulation time: 0 hr 16 min 25 sec) 
Heartbeat CPU 0 instructions: 430000003 cycles: 502291535 heartbeat IPC: 0.744073 cumulative IPC: 0.727312 (Simulation time: 0 hr 16 min 48 sec) 
Heartbeat CPU 0 instructions: 440000000 cycles: 516137641 heartbeat IPC: 0.722224 cumulative IPC: 0.727162 (Simulation time: 0 hr 17 min 13 sec) 
Heartbeat CPU 0 instructions: 450000000 cycles: 529938611 heartbeat IPC: 0.724587 cumulative IPC: 0.727088 (Simulation time: 0 hr 17 min 37 sec) 
Heartbeat CPU 0 instructions: 460000000 cycles: 543939313 heartbeat IPC: 0.71425 cumulative IPC: 0.726725 (Simulation time: 0 hr 18 min 2 sec) 
Heartbeat CPU 0 instructions: 470000001 cycles: 557388194 heartbeat IPC: 0.743556 cumulative IPC: 0.72717 (Simulation time: 0 hr 18 min 25 sec) 
Heartbeat CPU 0 instructions: 480000000 cycles: 571216519 heartbeat IPC: 0.723153 cumulative IPC: 0.727064 (Simulation time: 0 hr 18 min 50 sec) 
Heartbeat CPU 0 instructions: 490000002 cycles: 584988640 heartbeat IPC: 0.726105 cumulative IPC: 0.727039 (Simulation time: 0 hr 19 min 15 sec) 
Heartbeat CPU 0 instructions: 500000000 cycles: 598985976 heartbeat IPC: 0.714422 cumulative IPC: 0.726718 (Simulation time: 0 hr 19 min 40 sec) 
Heartbeat CPU 0 instructions: 510000002 cycles: 612404484 heartbeat IPC: 0.745239 cumulative IPC: 0.727159 (Simulation time: 0 hr 20 min 2 sec) 
Heartbeat CPU 0 instructions: 520000000 cycles: 626217925 heartbeat IPC: 0.723932 cumulative IPC: 0.727082 (Simulation time: 0 hr 20 min 27 sec) 
Heartbeat CPU 0 instructions: 530000003 cycles: 639971537 heartbeat IPC: 0.727082 cumulative IPC: 0.727082 (Simulation time: 0 hr 20 min 52 sec) 
Heartbeat CPU 0 instructions: 540000000 cycles: 653992791 heartbeat IPC: 0.713203 cumulative IPC: 0.72676 (Simulation time: 0 hr 21 min 17 sec) 
Heartbeat CPU 0 instructions: 550000003 cycles: 667422458 heartbeat IPC: 0.74462 cumulative IPC: 0.727148 (Simulation time: 0 hr 21 min 39 sec) 
Heartbeat CPU 0 instructions: 560000000 cycles: 681219160 heartbeat IPC: 0.724811 cumulative IPC: 0.727097 (Simulation time: 0 hr 22 min 4 sec) 
Heartbeat CPU 0 instructions: 570000001 cycles: 695002106 heartbeat IPC: 0.725534 cumulative IPC: 0.727064 (Simulation time: 0 hr 22 min 29 sec) 
Heartbeat CPU 0 instructions: 580000000 cycles: 709045958 heartbeat IPC: 0.712055 cumulative IPC: 0.726745 (Simulation time: 0 hr 22 min 54 sec) 
Heartbeat CPU 0 instructions: 590000000 cycles: 722424577 heartbeat IPC: 0.747461 cumulative IPC: 0.727156 (Simulation time: 0 hr 23 min 16 sec) 
Heartbeat CPU 0 instructions: 600000000 cycles: 736217892 heartbeat IPC: 0.724989 cumulative IPC: 0.727112 (Simulation time: 0 hr 23 min 41 sec) 
Finished CPU 0 instructions: 500000001 cycles: 687651589 cumulative IPC: 0.727112 (Simulation time: 0 hr 23 min 41 sec) 

CPU 0 Branch Prediction Accuracy: 97.5275% MPKI: 2.1997
Number of Branches: 44482865 Number of Mispredictions: 1099852
Number of LOAD Instructions: 144955155
Number of LOAD Instructions (ROI): 144955155
Number of STORE Instructions: 55921098
Number of STORE Instructions (ROI): 55921098
Total Destination Memory Operands: 57111147
Total Destination Memory Operands (ROI): 57111147
Total Source Memory Operands: 144955155
Total Source Memory Operands (ROI): 144955155
Number of DEPENDED LOADS: 13454631
Number of DEPENDED LOADS (ROI): 13454631
Number of SQ_ADDED: 57111126
Number of SQ_ADDED (ROI): 57111126
Number of LQ_ADDED: 174378384
Number of LQ_ADDED (ROI): 174378384
Number of Instructions read from trace: 600000256

ChampSim completed all CPUs

Region of Interest Statistics

CPU 0 cumulative IPC: 0.727112 instructions: 500000001 cycles: 687651589
ITLB TOTAL     ACCESS:  136066895  HIT:  136064342  MISS:       2553
ITLB LOAD      ACCESS:  136066895  HIT:  136064342  MISS:       2553
ITLB RFO       ACCESS:          0  HIT:          0  MISS:          0
ITLB PREFETCH  ACCESS:          0  HIT:          0  MISS:          0
ITLB WRITEBACK ACCESS:          0  HIT:          0  MISS:          0
ITLB PREFETCH  REQUESTED:          0  ISSUED:          0  USEFUL:          0  USELESS:          0
ITLB TOTAL MSHR MERGED:       4364
ITLB LOAD MSHR MERGED:       4364
ITLB RFO MSHR MERGED:          0
ITLB PREFETCH MSHR MERGED:          0
ITLB WRITEBACK MSHR MERGED:          0
ITLB TOTAL ACCESSES:  136071259 HITS:  136064342 MISSES:       6917
ITLB LOAD ACCESSES:  136071259 HITS:  136064342 MISSES:       6917
ITLB RFO ACCESSES:          0 HITS:          0 MISSES:          0
ITLB PREFETCH ACCESSES:          0 HITS:          0 MISSES:          0
ITLB WRITEBACK ACCESSES:          0 HITS:          0 MISSES:          0
ITLB RQ ACCESS:  500000202
ITLB RQ TO_CACHE:  136071259
ITLB RQ MERGED:  363928943
ITLB RQ FORWARD:          0
ITLB WQ ACCESS:          0
ITLB WQ TO_CACHE:          0
ITLB WQ MERGED:          0
ITLB WQ FORWARD:          0
DTLB TOTAL     ACCESS:  111548698  HIT:  111412502  MISS:     136196
DTLB LOAD      ACCESS:   78952040  HIT:   78826413  MISS:     125627
DTLB RFO       ACCESS:   32596658  HIT:   32586089  MISS:      10569
DTLB PREFETCH  ACCESS:          0  HIT:          0  MISS:          0
DTLB WRITEBACK ACCESS:          0  HIT:          0  MISS:          0
DTLB PREFETCH  REQUESTED:          0  ISSUED:          0  USEFUL:          0  USELESS:          0
DTLB TOTAL MSHR MERGED:      63181
DTLB LOAD MSHR MERGED:      50870
DTLB RFO MSHR MERGED:      12311
DTLB PREFETCH MSHR MERGED:          0
DTLB WRITEBACK MSHR MERGED:          0
DTLB TOTAL ACCESSES:  111611879 HITS:  111412502 MISSES:     199377
DTLB LOAD ACCESSES:   79002910 HITS:   78826413 MISSES:     176497
DTLB RFO ACCESSES:   32608969 HITS:   32586089 MISSES:      22880
DTLB PREFETCH ACCESSES:          0 HITS:          0 MISSES:          0
DTLB WRITEBACK ACCESSES:          0 HITS:          0 MISSES:          0
DTLB RQ ACCESS:  157180793
DTLB RQ TO_CACHE:  111611879
DTLB RQ MERGED:   45568914
DTLB RQ FORWARD:          0
DTLB WQ ACCESS:          0
DTLB WQ TO_CACHE:          0
DTLB WQ MERGED:          0
DTLB WQ FORWARD:          0
L1D TOTAL     ACCESS:  198224529  HIT:  188383492  MISS:    9841037
L1D LOAD      ACCESS:   79952062  HIT:   75690995  MISS:    4261067
L1D RFO       ACCESS:   44512290  HIT:   43611761  MISS:     900529
L1D PREFETCH  ACCESS:   73760177  HIT:   69080736  MISS:    4679441
L1D WRITEBACK ACCESS:          0  HIT:          0  MISS:          0
L1D PREFETCH  REQUESTED:   80347338  ISSUED:   79891933  USEFUL:    1821163  USELESS:    2858187
L1D TOTAL MSHR MERGED:    2505541
L1D LOAD MSHR MERGED:     517522
L1D RFO MSHR MERGED:    1440378
L1D PREFETCH MSHR MERGED:     547641
L1D WRITEBACK MSHR MERGED:          0
L1D TOTAL ACCESSES:  200751573 HITS:  188404995 MISSES:   12346578
L1D LOAD ACCESSES:   80360228 HITS:   75703885 MISSES:    4656343
L1D RFO ACCESSES:   45949449 HITS:   43611761 MISSES:    2337688
L1D PREFETCH ACCESSES:   74441896 HITS:   69089349 MISSES:    5352547
L1D WRITEBACK ACCESSES:          0 HITS:          0 MISSES:          0
L1D RQ ACCESS:  109538823
L1D RQ TO_CACHE:   80347338
L1D RQ MERGED:   29178595
L1D RQ FORWARD:          0
L1D WQ ACCESS:   47641970
L1D WQ TO_CACHE:   45949449
L1D WQ MERGED:    1692521
L1D WQ FORWARD:      21503
L1I TOTAL     ACCESS:  161536897  HIT:  161272924  MISS:     263973
L1I LOAD      ACCESS:  161536897  HIT:  161272924  MISS:     263973
L1I RFO       ACCESS:          0  HIT:          0  MISS:          0
L1I PREFETCH  ACCESS:          0  HIT:          0  MISS:          0
L1I WRITEBACK ACCESS:          0  HIT:          0  MISS:          0
L1I PREFETCH  REQUESTED:          0  ISSUED:          0  USEFUL:          0  USELESS:          0
L1I TOTAL MSHR MERGED:     261177
L1I LOAD MSHR MERGED:     261177
L1I RFO MSHR MERGED:          0
L1I PREFETCH MSHR MERGED:          0
L1I WRITEBACK MSHR MERGED:          0
L1I TOTAL ACCESSES:  161798074 HITS:  161272924 MISSES:     525150
L1I LOAD ACCESSES:  161798074 HITS:  161272924 MISSES:     525150
L1I RFO ACCESSES:          0 HITS:          0 MISSES:          0
L1I PREFETCH ACCESSES:          0 HITS:          0 MISSES:          0
L1I WRITEBACK ACCESSES:          0 HITS:          0 MISSES:          0
L1I RQ ACCESS:  500000202
L1I RQ TO_CACHE:  161798074
L1I RQ MERGED:  338202128
L1I RQ FORWARD:          0
L1I WQ ACCESS:          0
L1I WQ TO_CACHE:          0
L1I WQ MERGED:          0
L1I WQ FORWARD:          0
L2C TOTAL     ACCESS:   11771828  HIT:   10382536  MISS:    1389292
L2C LOAD      ACCESS:    4402728  HIT:    3906040  MISS:     496688
L2C RFO       ACCESS:     897244  HIT:     536207  MISS:     361037
L2C PREFETCH  ACCESS:    5284337  HIT:    4755715  MISS:     528622
L2C WRITEBACK ACCESS:    1187519  HIT:    1184574  MISS:       2945
L2C PREFETCH  REQUESTED:     504690  ISSUED:     504690  USEFUL:     114969  USELESS:     413846
L2C TOTAL MSHR MERGED:       1872
L2C LOAD MSHR MERGED:        361
L2C RFO MSHR MERGED:          0
L2C PREFETCH MSHR MERGED:       1511
L2C WRITEBACK MSHR MERGED:          0
L2C TOTAL ACCESSES:   11776489 HITS:   10382756 MISSES:    1393733
L2C LOAD ACCESSES:    4402794 HITS:    3906106 MISSES:     496688
L2C RFO ACCESSES:     897310 HITS:     536273 MISSES:     361037
L2C PREFETCH ACCESSES:    5288866 HITS:    4755803 MISSES:     533063
L2C WRITEBACK ACCESSES:    1187519 HITS:    1184574 MISSES:       2945
L2C RQ ACCESS:    5300104
L2C RQ TO_CACHE:    5299972
L2C RQ MERGED:          0
L2C RQ FORWARD:          0
L2C WQ ACCESS:    1187519
L2C WQ TO_CACHE:    1187519
L2C WQ MERGED:          0
L2C WQ FORWARD:        220
LLC TOTAL     ACCESS:    1849535  HIT:    1013393  MISS:     836142
LLC LOAD      ACCESS:     496325  HIT:     208378  MISS:     287947
LLC RFO       ACCESS:     361032  HIT:     180187  MISS:     180845
LLC PREFETCH  ACCESS:     531438  HIT:     324653  MISS:     206785
LLC WRITEBACK ACCESS:     460740  HIT:     300175  MISS:     160565
LLC PREFETCH  REQUESTED:          0  ISSUED:          0  USEFUL:      11053  USELESS:     195341
LLC TOTAL MSHR MERGED:         85
LLC LOAD MSHR MERGED:         33
LLC RFO MSHR MERGED:          0
LLC PREFETCH MSHR MERGED:         52
LLC WRITEBACK MSHR MERGED:          0
LLC TOTAL ACCESSES:    1849644 HITS:    1013417 MISSES:     836227
LLC LOAD ACCESSES:     496327 HITS:     208380 MISSES:     287947
LLC RFO ACCESSES:     361037 HITS:     180192 MISSES:     180845
LLC PREFETCH ACCESSES:     531540 HITS:     324670 MISSES:     206870
LLC WRITEBACK ACCESSES:     460740 HITS:     300175 MISSES:     160565
LLC 0 RQ ACCESS:     857364
LLC 0 RQ TO_CACHE:     857357
LLC 0 RQ MERGED:          0
LLC 0 RQ FORWARD:          0
LLC WQ ACCESS:     460740
LLC WQ TO_CACHE:     460740
LLC WQ MERGED:          0
LLC WQ FORWARD:         24
Major fault: 0 Minor fault: 3073
CPU 0 L1D next line prefetcher final stats
CPU 0 L2C PC-based stride prefetcher final stats
All Misses: 999396
All Hits: 1176830
SD Algo Stats - Switches: 0 SRR-Repls: 327530 BRR-Repls: 0

DRAM Statistics
 CHANNEL 0
 RQ ROW_BUFFER_HIT:     447925  ROW_BUFFER_MISS:     227380
 DBUS_CONGESTED:     545344
 WQ ROW_BUFFER_HIT:      25550  ROW_BUFFER_MISS:     164341  FULL:          0

 AVG_CONGESTED_CYCLE: 13
LOADS RETIRED: 120673965
INSTR RETIRED: 500000000
