
*** ChampSim Multicore Out-of-Order Simulator ***

Warmup Instructions: 100000000
Simulation Instructions: 500000000
Number of CPUs: 1
LLC sets: 2048
LLC ways: 16
Clean RRIP Policies: 1213230112132301 Dirty RRIP Policies: 2203130122031301 PSEL Width: 10 Track Set: 4294967295 PSEL Mask: 1 Demote Mask: 3210100032101000DS Algo: 0Window size: 0
Off-chip DRAM Size: 4096 MB Channels: 1 Width: 64-bit Data Rate: 1600 MT/s

CPU 0 runs /mnt/beegfs/iconst01/spec2017/Wrf.trace.gz
NOT SORTED
TRACE STRING: /mnt/beegfs/iconst01/spec2017/Wrf.trace.gz
SORTED
TRACE STRING: /mnt/beegfs/iconst01/spec2017/Wrf.trace.gz
INITIAL
TRACE STRING: /mnt/beegfs/iconst01/spec2017/Wrf.trace.gz

champsim_seed used: 303

CPU 0 L1D next line prefetcher
CPU 0 L2C IP-based stride prefetcher
Initialize DRRIP state
Assign rand_sets[0]: 454  LLC: 2048
rand_sets[0]: 454
Assign rand_sets[1]: 1662  LLC: 2048
rand_sets[1]: 1662
Assign rand_sets[2]: 1921  LLC: 2048
rand_sets[2]: 1921
Assign rand_sets[3]: 1131  LLC: 2048
rand_sets[3]: 1131
Assign rand_sets[4]: 331  LLC: 2048
rand_sets[4]: 331
Assign rand_sets[5]: 1531  LLC: 2048
rand_sets[5]: 1531
Assign rand_sets[6]: 482  LLC: 2048
rand_sets[6]: 482
Assign rand_sets[7]: 1275  LLC: 2048
rand_sets[7]: 1275
Assign rand_sets[8]: 1876  LLC: 2048
rand_sets[8]: 1876
Assign rand_sets[9]: 2038  LLC: 2048
rand_sets[9]: 2038
Assign rand_sets[10]: 701  LLC: 2048
rand_sets[10]: 701
Assign rand_sets[11]: 479  LLC: 2048
rand_sets[11]: 479
Assign rand_sets[12]: 892  LLC: 2048
rand_sets[12]: 892
Assign rand_sets[13]: 1820  LLC: 2048
rand_sets[13]: 1820
Assign rand_sets[14]: 1505  LLC: 2048
rand_sets[14]: 1505
Assign rand_sets[15]: 1159  LLC: 2048
rand_sets[15]: 1159
Assign rand_sets[16]: 513  LLC: 2048
rand_sets[16]: 513
Assign rand_sets[17]: 703  LLC: 2048
rand_sets[17]: 703
Assign rand_sets[18]: 561  LLC: 2048
rand_sets[18]: 561
Assign rand_sets[19]: 990  LLC: 2048
rand_sets[19]: 990
Assign rand_sets[20]: 342  LLC: 2048
rand_sets[20]: 342
Assign rand_sets[21]: 882  LLC: 2048
rand_sets[21]: 882
Assign rand_sets[22]: 15  LLC: 2048
rand_sets[22]: 15
Assign rand_sets[23]: 71  LLC: 2048
rand_sets[23]: 71
Assign rand_sets[24]: 1127  LLC: 2048
rand_sets[24]: 1127
Assign rand_sets[25]: 1382  LLC: 2048
rand_sets[25]: 1382
Assign rand_sets[26]: 647  LLC: 2048
rand_sets[26]: 647
Assign rand_sets[27]: 857  LLC: 2048
rand_sets[27]: 857
Assign rand_sets[28]: 1450  LLC: 2048
rand_sets[28]: 1450
Assign rand_sets[29]: 1160  LLC: 2048
rand_sets[29]: 1160
Assign rand_sets[30]: 1852  LLC: 2048
rand_sets[30]: 1852
Assign rand_sets[31]: 1881  LLC: 2048
rand_sets[31]: 1881
Assign rand_sets[32]: 1770  LLC: 2048
rand_sets[32]: 1770
Assign rand_sets[33]: 1622  LLC: 2048
rand_sets[33]: 1622
Assign rand_sets[34]: 275  LLC: 2048
rand_sets[34]: 275
Assign rand_sets[35]: 635  LLC: 2048
rand_sets[35]: 635
Assign rand_sets[36]: 466  LLC: 2048
rand_sets[36]: 466
Assign rand_sets[37]: 1413  LLC: 2048
rand_sets[37]: 1413
Assign rand_sets[38]: 417  LLC: 2048
rand_sets[38]: 417
Assign rand_sets[39]: 472  LLC: 2048
rand_sets[39]: 472
Assign rand_sets[40]: 1340  LLC: 2048
rand_sets[40]: 1340
Assign rand_sets[41]: 852  LLC: 2048
rand_sets[41]: 852
Assign rand_sets[42]: 1365  LLC: 2048
rand_sets[42]: 1365
Assign rand_sets[43]: 47  LLC: 2048
rand_sets[43]: 47
Assign rand_sets[44]: 823  LLC: 2048
rand_sets[44]: 823
Assign rand_sets[45]: 686  LLC: 2048
rand_sets[45]: 686
Assign rand_sets[46]: 1637  LLC: 2048
rand_sets[46]: 1637
Assign rand_sets[47]: 1115  LLC: 2048
rand_sets[47]: 1115
Assign rand_sets[48]: 986  LLC: 2048
rand_sets[48]: 986
Assign rand_sets[49]: 258  LLC: 2048
rand_sets[49]: 258
Assign rand_sets[50]: 633  LLC: 2048
rand_sets[50]: 633
Assign rand_sets[51]: 920  LLC: 2048
rand_sets[51]: 920
Assign rand_sets[52]: 204  LLC: 2048
rand_sets[52]: 204
Assign rand_sets[53]: 227  LLC: 2048
rand_sets[53]: 227
Assign rand_sets[54]: 1818  LLC: 2048
rand_sets[54]: 1818
Assign rand_sets[55]: 886  LLC: 2048
rand_sets[55]: 886
Assign rand_sets[56]: 1422  LLC: 2048
rand_sets[56]: 1422
Assign rand_sets[57]: 607  LLC: 2048
rand_sets[57]: 607
Assign rand_sets[58]: 217  LLC: 2048
rand_sets[58]: 217
Assign rand_sets[59]: 1945  LLC: 2048
rand_sets[59]: 1945
Assign rand_sets[60]: 143  LLC: 2048
rand_sets[60]: 143
Assign rand_sets[61]: 1311  LLC: 2048
rand_sets[61]: 1311
Assign rand_sets[62]: 319  LLC: 2048
rand_sets[62]: 319
Assign rand_sets[63]: 1846  LLC: 2048
rand_sets[63]: 1846
 CLEAN-RRIP-POLICY-1: 1-2-1-3-2-3-0-1- CLEAN-RRIP-POLICY-2: 1-2-1-3-2-3-0-1-
 DIRTY-RRIP-POLICY-1: 2-2-0-3-1-3-0-1- DIRTY-RRIP-POLICY-2: 2-2-0-3-1-3-0-1-
 PSEL width: 10
Heartbeat CPU 0 instructions: 10000002 cycles: 6559549 heartbeat IPC: 1.5245 cumulative IPC: 1.5245 (Simulation time: 0 hr 0 min 21 sec) 
Heartbeat CPU 0 instructions: 20000000 cycles: 12222162 heartbeat IPC: 1.76597 cumulative IPC: 1.63637 (Simulation time: 0 hr 0 min 41 sec) 
Heartbeat CPU 0 instructions: 30000003 cycles: 18203965 heartbeat IPC: 1.67174 cumulative IPC: 1.64799 (Simulation time: 0 hr 1 min 1 sec) 
Heartbeat CPU 0 instructions: 40000000 cycles: 24059299 heartbeat IPC: 1.70784 cumulative IPC: 1.66256 (Simulation time: 0 hr 1 min 21 sec) 
Heartbeat CPU 0 instructions: 50000000 cycles: 29527721 heartbeat IPC: 1.82868 cumulative IPC: 1.69332 (Simulation time: 0 hr 1 min 41 sec) 
Heartbeat CPU 0 instructions: 60000000 cycles: 35640531 heartbeat IPC: 1.63591 cumulative IPC: 1.68348 (Simulation time: 0 hr 2 min 2 sec) 
Heartbeat CPU 0 instructions: 70000000 cycles: 41360230 heartbeat IPC: 1.74834 cumulative IPC: 1.69245 (Simulation time: 0 hr 2 min 22 sec) 
Heartbeat CPU 0 instructions: 80000000 cycles: 47231122 heartbeat IPC: 1.70332 cumulative IPC: 1.6938 (Simulation time: 0 hr 2 min 42 sec) 
Heartbeat CPU 0 instructions: 90000000 cycles: 52984608 heartbeat IPC: 1.73808 cumulative IPC: 1.69861 (Simulation time: 0 hr 3 min 3 sec) 
Heartbeat CPU 0 instructions: 100000000 cycles: 58537499 heartbeat IPC: 1.80086 cumulative IPC: 1.70831 (Simulation time: 0 hr 3 min 23 sec) 

Warmup complete CPU 0 instructions: 100000004 cycles: 58537501 (Simulation time: 0 hr 3 min 23 sec) 

Heartbeat CPU 0 instructions: 110000001 cycles: 72727245 heartbeat IPC: 0.704734 cumulative IPC: 0.704734 (Simulation time: 0 hr 3 min 48 sec) 
Heartbeat CPU 0 instructions: 120000000 cycles: 84258066 heartbeat IPC: 0.867241 cumulative IPC: 0.777588 (Simulation time: 0 hr 4 min 12 sec) 
Heartbeat CPU 0 instructions: 130000000 cycles: 94620306 heartbeat IPC: 0.965042 cumulative IPC: 0.831421 (Simulation time: 0 hr 4 min 34 sec) 
Heartbeat CPU 0 instructions: 140000000 cycles: 105687830 heartbeat IPC: 0.903544 cumulative IPC: 0.84835 (Simulation time: 0 hr 4 min 57 sec) 
Heartbeat CPU 0 instructions: 150000002 cycles: 117074341 heartbeat IPC: 0.878232 cumulative IPC: 0.854163 (Simulation time: 0 hr 5 min 21 sec) 
Heartbeat CPU 0 instructions: 160000000 cycles: 126112283 heartbeat IPC: 1.10645 cumulative IPC: 0.887905 (Simulation time: 0 hr 5 min 42 sec) 
Heartbeat CPU 0 instructions: 170000003 cycles: 136961803 heartbeat IPC: 0.9217 cumulative IPC: 0.89258 (Simulation time: 0 hr 6 min 5 sec) 
Heartbeat CPU 0 instructions: 180000000 cycles: 149915506 heartbeat IPC: 0.77198 cumulative IPC: 0.875484 (Simulation time: 0 hr 6 min 29 sec) 
Heartbeat CPU 0 instructions: 190000000 cycles: 164996313 heartbeat IPC: 0.663094 cumulative IPC: 0.845397 (Simulation time: 0 hr 6 min 53 sec) 
Heartbeat CPU 0 instructions: 200000000 cycles: 180060869 heartbeat IPC: 0.66381 cumulative IPC: 0.822887 (Simulation time: 0 hr 7 min 17 sec) 
Heartbeat CPU 0 instructions: 210000000 cycles: 195106040 heartbeat IPC: 0.664665 cumulative IPC: 0.805456 (Simulation time: 0 hr 7 min 40 sec) 
Heartbeat CPU 0 instructions: 220000000 cycles: 210861149 heartbeat IPC: 0.634715 cumulative IPC: 0.787796 (Simulation time: 0 hr 8 min 6 sec) 
Heartbeat CPU 0 instructions: 230000003 cycles: 229523885 heartbeat IPC: 0.535827 cumulative IPC: 0.760294 (Simulation time: 0 hr 8 min 34 sec) 
Heartbeat CPU 0 instructions: 240000000 cycles: 239135514 heartbeat IPC: 1.04041 cumulative IPC: 0.775202 (Simulation time: 0 hr 8 min 56 sec) 
Heartbeat CPU 0 instructions: 250000000 cycles: 248331581 heartbeat IPC: 1.08742 cumulative IPC: 0.79033 (Simulation time: 0 hr 9 min 17 sec) 
Heartbeat CPU 0 instructions: 260000000 cycles: 258026905 heartbeat IPC: 1.03142 cumulative IPC: 0.802048 (Simulation time: 0 hr 9 min 39 sec) 
Heartbeat CPU 0 instructions: 270000000 cycles: 267864650 heartbeat IPC: 1.01649 cumulative IPC: 0.812126 (Simulation time: 0 hr 10 min 2 sec) 
Heartbeat CPU 0 instructions: 280000000 cycles: 277613965 heartbeat IPC: 1.02571 cumulative IPC: 0.821631 (Simulation time: 0 hr 10 min 25 sec) 
Heartbeat CPU 0 instructions: 290000000 cycles: 287615779 heartbeat IPC: 0.999819 cumulative IPC: 0.829411 (Simulation time: 0 hr 10 min 49 sec) 
Heartbeat CPU 0 instructions: 300000000 cycles: 296293770 heartbeat IPC: 1.15234 cumulative IPC: 0.841198 (Simulation time: 0 hr 11 min 11 sec) 
Heartbeat CPU 0 instructions: 310000002 cycles: 310028216 heartbeat IPC: 0.728096 cumulative IPC: 0.835021 (Simulation time: 0 hr 11 min 36 sec) 
Heartbeat CPU 0 instructions: 320000000 cycles: 326232868 heartbeat IPC: 0.617107 cumulative IPC: 0.82183 (Simulation time: 0 hr 12 min 4 sec) 
Heartbeat CPU 0 instructions: 330000002 cycles: 336835154 heartbeat IPC: 0.943193 cumulative IPC: 0.826453 (Simulation time: 0 hr 12 min 27 sec) 
Heartbeat CPU 0 instructions: 340000000 cycles: 347331285 heartbeat IPC: 0.952732 cumulative IPC: 0.831043 (Simulation time: 0 hr 12 min 50 sec) 
Heartbeat CPU 0 instructions: 350000002 cycles: 360663948 heartbeat IPC: 0.750038 cumulative IPC: 0.827468 (Simulation time: 0 hr 13 min 16 sec) 
Heartbeat CPU 0 instructions: 360000000 cycles: 371675667 heartbeat IPC: 0.908123 cumulative IPC: 0.830304 (Simulation time: 0 hr 13 min 39 sec) 
Heartbeat CPU 0 instructions: 370000002 cycles: 382395303 heartbeat IPC: 0.932868 cumulative IPC: 0.833699 (Simulation time: 0 hr 14 min 3 sec) 
Heartbeat CPU 0 instructions: 380000000 cycles: 392840672 heartbeat IPC: 0.957362 cumulative IPC: 0.837563 (Simulation time: 0 hr 14 min 26 sec) 
Heartbeat CPU 0 instructions: 390000003 cycles: 410312201 heartbeat IPC: 0.57236 cumulative IPC: 0.824391 (Simulation time: 0 hr 14 min 54 sec) 
Heartbeat CPU 0 instructions: 400000000 cycles: 422236169 heartbeat IPC: 0.838647 cumulative IPC: 0.824859 (Simulation time: 0 hr 15 min 17 sec) 
Heartbeat CPU 0 instructions: 410000002 cycles: 432787444 heartbeat IPC: 0.947753 cumulative IPC: 0.828323 (Simulation time: 0 hr 15 min 39 sec) 
Heartbeat CPU 0 instructions: 420000000 cycles: 442878522 heartbeat IPC: 0.990974 cumulative IPC: 0.832594 (Simulation time: 0 hr 16 min 1 sec) 
Heartbeat CPU 0 instructions: 430000001 cycles: 452949734 heartbeat IPC: 0.992929 cumulative IPC: 0.836688 (Simulation time: 0 hr 16 min 23 sec) 
Heartbeat CPU 0 instructions: 440000000 cycles: 464761277 heartbeat IPC: 0.846629 cumulative IPC: 0.836977 (Simulation time: 0 hr 16 min 45 sec) 
Heartbeat CPU 0 instructions: 450000002 cycles: 479845030 heartbeat IPC: 0.662965 cumulative IPC: 0.830747 (Simulation time: 0 hr 17 min 9 sec) 
Heartbeat CPU 0 instructions: 460000000 cycles: 494908073 heartbeat IPC: 0.663876 cumulative IPC: 0.824987 (Simulation time: 0 hr 17 min 32 sec) 
Heartbeat CPU 0 instructions: 470000003 cycles: 509957094 heartbeat IPC: 0.664495 cumulative IPC: 0.819637 (Simulation time: 0 hr 17 min 56 sec) 
Heartbeat CPU 0 instructions: 480000000 cycles: 525752318 heartbeat IPC: 0.633103 cumulative IPC: 0.81333 (Simulation time: 0 hr 18 min 21 sec) 
Heartbeat CPU 0 instructions: 490000002 cycles: 544507480 heartbeat IPC: 0.533187 cumulative IPC: 0.802519 (Simulation time: 0 hr 18 min 49 sec) 
Heartbeat CPU 0 instructions: 500000000 cycles: 554049734 heartbeat IPC: 1.04797 cumulative IPC: 0.807245 (Simulation time: 0 hr 19 min 10 sec) 
Heartbeat CPU 0 instructions: 510000002 cycles: 563260103 heartbeat IPC: 1.08573 cumulative IPC: 0.812327 (Simulation time: 0 hr 19 min 32 sec) 
Heartbeat CPU 0 instructions: 520000000 cycles: 572936907 heartbeat IPC: 1.0334 cumulative IPC: 0.816486 (Simulation time: 0 hr 19 min 53 sec) 
Heartbeat CPU 0 instructions: 530000002 cycles: 582789625 heartbeat IPC: 1.01495 cumulative IPC: 0.820216 (Simulation time: 0 hr 20 min 16 sec) 
Heartbeat CPU 0 instructions: 540000000 cycles: 592478539 heartbeat IPC: 1.03211 cumulative IPC: 0.824061 (Simulation time: 0 hr 20 min 39 sec) 
Heartbeat CPU 0 instructions: 550000002 cycles: 602504944 heartbeat IPC: 0.997367 cumulative IPC: 0.827255 (Simulation time: 0 hr 21 min 3 sec) 
Heartbeat CPU 0 instructions: 560000000 cycles: 611183958 heartbeat IPC: 1.1522 cumulative IPC: 0.832359 (Simulation time: 0 hr 21 min 24 sec) 
Heartbeat CPU 0 instructions: 570000003 cycles: 624755913 heartbeat IPC: 0.736814 cumulative IPC: 0.830068 (Simulation time: 0 hr 21 min 50 sec) 
Heartbeat CPU 0 instructions: 580000000 cycles: 641082600 heartbeat IPC: 0.612494 cumulative IPC: 0.823971 (Simulation time: 0 hr 22 min 17 sec) 
Heartbeat CPU 0 instructions: 590000002 cycles: 651241859 heartbeat IPC: 0.984324 cumulative IPC: 0.826719 (Simulation time: 0 hr 22 min 40 sec) 
Heartbeat CPU 0 instructions: 600000000 cycles: 662178397 heartbeat IPC: 0.914366 cumulative IPC: 0.828307 (Simulation time: 0 hr 23 min 4 sec) 
Finished CPU 0 instructions: 500000000 cycles: 603640915 cumulative IPC: 0.828307 (Simulation time: 0 hr 23 min 4 sec) 

CPU 0 Branch Prediction Accuracy: 99.5219% MPKI: 0.251582
Number of Branches: 26312578 Number of Mispredictions: 125791
Number of LOAD Instructions: 235643083
Number of LOAD Instructions (ROI): 235643083
Number of STORE Instructions: 37593550
Number of STORE Instructions (ROI): 37593550
Total Destination Memory Operands: 40480968
Total Destination Memory Operands (ROI): 40480968
Total Source Memory Operands: 235643083
Total Source Memory Operands (ROI): 235643083
Number of DEPENDED LOADS: 6699729
Number of DEPENDED LOADS (ROI): 6699729
Number of SQ_ADDED: 40480950
Number of SQ_ADDED (ROI): 40480950
Number of LQ_ADDED: 389704353
Number of LQ_ADDED (ROI): 389704353
Number of Instructions read from trace: 600000259

ChampSim completed all CPUs

Region of Interest Statistics

CPU 0 cumulative IPC: 0.828307 instructions: 500000000 cycles: 603640915
ITLB TOTAL     ACCESS:  109361909  HIT:  109361396  MISS:        513
ITLB LOAD      ACCESS:  109361909  HIT:  109361396  MISS:        513
ITLB RFO       ACCESS:          0  HIT:          0  MISS:          0
ITLB PREFETCH  ACCESS:          0  HIT:          0  MISS:          0
ITLB WRITEBACK ACCESS:          0  HIT:          0  MISS:          0
ITLB PREFETCH  REQUESTED:          0  ISSUED:          0  USEFUL:          0  USELESS:          0
ITLB TOTAL MSHR MERGED:        975
ITLB LOAD MSHR MERGED:        975
ITLB RFO MSHR MERGED:          0
ITLB PREFETCH MSHR MERGED:          0
ITLB WRITEBACK MSHR MERGED:          0
ITLB TOTAL ACCESSES:  109362884 HITS:  109361396 MISSES:       1488
ITLB LOAD ACCESSES:  109362884 HITS:  109361396 MISSES:       1488
ITLB RFO ACCESSES:          0 HITS:          0 MISSES:          0
ITLB PREFETCH ACCESSES:          0 HITS:          0 MISSES:          0
ITLB WRITEBACK ACCESSES:          0 HITS:          0 MISSES:          0
ITLB RQ ACCESS:  500000003
ITLB RQ TO_CACHE:  109362884
ITLB RQ MERGED:  390637119
ITLB RQ FORWARD:          0
ITLB WQ ACCESS:          0
ITLB WQ TO_CACHE:          0
ITLB WQ MERGED:          0
ITLB WQ FORWARD:          0
DTLB TOTAL     ACCESS:  130425248  HIT:  130167622  MISS:     257626
DTLB LOAD      ACCESS:  109055126  HIT:  108834336  MISS:     220790
DTLB RFO       ACCESS:   21370122  HIT:   21333286  MISS:      36836
DTLB PREFETCH  ACCESS:          0  HIT:          0  MISS:          0
DTLB WRITEBACK ACCESS:          0  HIT:          0  MISS:          0
DTLB PREFETCH  REQUESTED:          0  ISSUED:          0  USEFUL:          0  USELESS:          0
DTLB TOTAL MSHR MERGED:     121919
DTLB LOAD MSHR MERGED:      83781
DTLB RFO MSHR MERGED:      38138
DTLB PREFETCH MSHR MERGED:          0
DTLB WRITEBACK MSHR MERGED:          0
DTLB TOTAL ACCESSES:  130547167 HITS:  130167622 MISSES:     379545
DTLB LOAD ACCESSES:  109138907 HITS:  108834336 MISSES:     304571
DTLB RFO ACCESSES:   21408260 HITS:   21333286 MISSES:      74974
DTLB PREFETCH ACCESSES:          0 HITS:          0 MISSES:          0
DTLB WRITEBACK ACCESSES:          0 HITS:          0 MISSES:          0
DTLB RQ ACCESS:  218634685
DTLB RQ TO_CACHE:  130547168
DTLB RQ MERGED:   88087517
DTLB RQ FORWARD:          0
DTLB WQ ACCESS:          0
DTLB WQ TO_CACHE:          0
DTLB WQ MERGED:          0
DTLB WQ FORWARD:          0
L1D TOTAL     ACCESS:  204709690  HIT:  193632232  MISS:   11077458
L1D LOAD      ACCESS:  106274664  HIT:  103112501  MISS:    3162163
L1D RFO       ACCESS:   26947192  HIT:   25197279  MISS:    1749913
L1D PREFETCH  ACCESS:   71487834  HIT:   65322452  MISS:    6165382
L1D WRITEBACK ACCESS:          0  HIT:          0  MISS:          0
L1D PREFETCH  REQUESTED:  108944311  ISSUED:  107285851  USEFUL:    5705459  USELESS:     459917
L1D TOTAL MSHR MERGED:   18294512
L1D LOAD MSHR MERGED:    4668964
L1D RFO MSHR MERGED:    6489644
L1D PREFETCH MSHR MERGED:    7135904
L1D WRITEBACK MSHR MERGED:          0
L1D TOTAL ACCESSES:  223065972 HITS:  193694002 MISSES:   29371970
L1D LOAD ACCESSES:  108970096 HITS:  103138286 MISSES:    5831810
L1D RFO ACCESSES:   33434739 HITS:   25197279 MISSES:    8237460
L1D PREFETCH ACCESSES:   80661137 HITS:   65358437 MISSES:   15302700
L1D WRITEBACK ACCESSES:          0 HITS:          0 MISSES:          0
L1D RQ ACCESS:  184991247
L1D RQ TO_CACHE:  108944311
L1D RQ MERGED:   76021151
L1D RQ FORWARD:          0
L1D WQ ACCESS:   33643426
L1D WQ TO_CACHE:   33434738
L1D WQ MERGED:     208688
L1D WQ FORWARD:      61770
L1I TOTAL     ACCESS:  134043320  HIT:  134018742  MISS:      24578
L1I LOAD      ACCESS:  134043320  HIT:  134018742  MISS:      24578
L1I RFO       ACCESS:          0  HIT:          0  MISS:          0
L1I PREFETCH  ACCESS:          0  HIT:          0  MISS:          0
L1I WRITEBACK ACCESS:          0  HIT:          0  MISS:          0
L1I PREFETCH  REQUESTED:          0  ISSUED:          0  USEFUL:          0  USELESS:          0
L1I TOTAL MSHR MERGED:      30565
L1I LOAD MSHR MERGED:      30565
L1I RFO MSHR MERGED:          0
L1I PREFETCH MSHR MERGED:          0
L1I WRITEBACK MSHR MERGED:          0
L1I TOTAL ACCESSES:  134073885 HITS:  134018742 MISSES:      55143
L1I LOAD ACCESSES:  134073885 HITS:  134018742 MISSES:      55143
L1I RFO ACCESSES:          0 HITS:          0 MISSES:          0
L1I PREFETCH ACCESSES:          0 HITS:          0 MISSES:          0
L1I WRITEBACK ACCESSES:          0 HITS:          0 MISSES:          0
L1I RQ ACCESS:  500000005
L1I RQ TO_CACHE:  134073885
L1I RQ MERGED:  365926120
L1I RQ FORWARD:          0
L1I WQ ACCESS:          0
L1I WQ TO_CACHE:          0
L1I WQ MERGED:          0
L1I WQ FORWARD:          0
L2C TOTAL     ACCESS:   14944985  HIT:    6944133  MISS:    8000852
L2C LOAD      ACCESS:    1187230  HIT:     298428  MISS:     888802
L2C RFO       ACCESS:    1747602  HIT:     369512  MISS:    1378090
L2C PREFETCH  ACCESS:    8328136  HIT:    2602868  MISS:    5725268
L2C WRITEBACK ACCESS:    3682017  HIT:    3673325  MISS:       8692
L2C PREFETCH  REQUESTED:     387475  ISSUED:     387475  USEFUL:     114054  USELESS:    5612048
L2C TOTAL MSHR MERGED:      41823
L2C LOAD MSHR MERGED:       2268
L2C RFO MSHR MERGED:       1326
L2C PREFETCH MSHR MERGED:      38229
L2C WRITEBACK MSHR MERGED:          0
L2C TOTAL ACCESSES:   15108002 HITS:    6944826 MISSES:    8163176
L2C LOAD ACCESSES:    1187424 HITS:     298622 MISSES:     888802
L2C RFO ACCESSES:    1747816 HITS:     369726 MISSES:    1378090
L2C PREFETCH ACCESSES:    8490745 HITS:    2603153 MISSES:    5887592
L2C WRITEBACK ACCESSES:    3682017 HITS:    3673325 MISSES:       8692
L2C RQ ACCESS:    2935240
L2C RQ TO_CACHE:    2934832
L2C RQ MERGED:          0
L2C RQ FORWARD:          0
L2C WQ ACCESS:    3682017
L2C WQ TO_CACHE:    3682017
L2C WQ MERGED:          0
L2C WQ FORWARD:        693
LLC TOTAL     ACCESS:   11188233  HIT:    2871434  MISS:    8316799
LLC LOAD      ACCESS:     886533  HIT:     268560  MISS:     617973
LLC RFO       ACCESS:    1376762  HIT:     218021  MISS:    1158741
LLC PREFETCH  ACCESS:    5819987  HIT:    1124765  MISS:    4695222
LLC WRITEBACK ACCESS:    3104951  HIT:    1260088  MISS:    1844863
LLC PREFETCH  REQUESTED:          0  ISSUED:          0  USEFUL:      31580  USELESS:    4663335
LLC TOTAL MSHR MERGED:      22329
LLC LOAD MSHR MERGED:       6833
LLC RFO MSHR MERGED:        566
LLC PREFETCH MSHR MERGED:      14930
LLC WRITEBACK MSHR MERGED:          0
LLC TOTAL ACCESSES:   11210573 HITS:    2871445 MISSES:    8339128
LLC LOAD ACCESSES:     886534 HITS:     268561 MISSES:     617973
LLC RFO ACCESSES:    1376764 HITS:     218023 MISSES:    1158741
LLC PREFETCH ACCESSES:    5842324 HITS:    1124773 MISSES:    4717551
LLC WRITEBACK ACCESSES:    3104951 HITS:    1260088 MISSES:    1844863
LLC 0 RQ ACCESS:    2263298
LLC 0 RQ TO_CACHE:    2263295
LLC 0 RQ MERGED:          0
LLC 0 RQ FORWARD:          0
LLC WQ ACCESS:    3104951
LLC WQ TO_CACHE:    3104951
LLC WQ MERGED:          0
LLC WQ FORWARD:         11
Major fault: 0 Minor fault: 11519
CPU 0 L1D next line prefetcher final stats
CPU 0 L2C PC-based stride prefetcher final stats
All Misses: 10447377
All Hits: 3352099
SD Algo Stats - Switches: 0 SRR-Repls: 693254 BRR-Repls: 0

DRAM Statistics
 CHANNEL 0
 RQ ROW_BUFFER_HIT:    3921650  ROW_BUFFER_MISS:    2549567
 DBUS_CONGESTED:    4459616
 WQ ROW_BUFFER_HIT:     455225  ROW_BUFFER_MISS:    1766037  FULL:         36

 AVG_CONGESTED_CYCLE: 13
LOADS RETIRED: 190375692
INSTR RETIRED: 500000000
