
*** ChampSim Multicore Out-of-Order Simulator ***

Warmup Instructions: 100000000
Simulation Instructions: 500000000
Number of CPUs: 1
LLC sets: 2048
LLC ways: 16
Clean RRIP Policies: 1023131110231311 Dirty RRIP Policies: 2023131120231311 PSEL Width: 10 Track Set: 4294967295 PSEL Mask: 1 Demote Mask: 1043324310433243DS Algo: 0Window size: 0
Off-chip DRAM Size: 4096 MB Channels: 1 Width: 64-bit Data Rate: 1600 MT/s

CPU 0 runs /mnt/beegfs/iconst01/spec2017/Gcc.trace.gz
NOT SORTED
TRACE STRING: /mnt/beegfs/iconst01/spec2017/Gcc.trace.gz
SORTED
TRACE STRING: /mnt/beegfs/iconst01/spec2017/Gcc.trace.gz
INITIAL
TRACE STRING: /mnt/beegfs/iconst01/spec2017/Gcc.trace.gz

champsim_seed used: 269

CPU 0 L1D next line prefetcher
CPU 0 L2C IP-based stride prefetcher
Initialize DRRIP state
Assign rand_sets[0]: 454  LLC: 2048
rand_sets[0]: 454
Assign rand_sets[1]: 1662  LLC: 2048
rand_sets[1]: 1662
Assign rand_sets[2]: 1921  LLC: 2048
rand_sets[2]: 1921
Assign rand_sets[3]: 1131  LLC: 2048
rand_sets[3]: 1131
Assign rand_sets[4]: 331  LLC: 2048
rand_sets[4]: 331
Assign rand_sets[5]: 1531  LLC: 2048
rand_sets[5]: 1531
Assign rand_sets[6]: 482  LLC: 2048
rand_sets[6]: 482
Assign rand_sets[7]: 1275  LLC: 2048
rand_sets[7]: 1275
Assign rand_sets[8]: 1876  LLC: 2048
rand_sets[8]: 1876
Assign rand_sets[9]: 2038  LLC: 2048
rand_sets[9]: 2038
Assign rand_sets[10]: 701  LLC: 2048
rand_sets[10]: 701
Assign rand_sets[11]: 479  LLC: 2048
rand_sets[11]: 479
Assign rand_sets[12]: 892  LLC: 2048
rand_sets[12]: 892
Assign rand_sets[13]: 1820  LLC: 2048
rand_sets[13]: 1820
Assign rand_sets[14]: 1505  LLC: 2048
rand_sets[14]: 1505
Assign rand_sets[15]: 1159  LLC: 2048
rand_sets[15]: 1159
Assign rand_sets[16]: 513  LLC: 2048
rand_sets[16]: 513
Assign rand_sets[17]: 703  LLC: 2048
rand_sets[17]: 703
Assign rand_sets[18]: 561  LLC: 2048
rand_sets[18]: 561
Assign rand_sets[19]: 990  LLC: 2048
rand_sets[19]: 990
Assign rand_sets[20]: 342  LLC: 2048
rand_sets[20]: 342
Assign rand_sets[21]: 882  LLC: 2048
rand_sets[21]: 882
Assign rand_sets[22]: 15  LLC: 2048
rand_sets[22]: 15
Assign rand_sets[23]: 71  LLC: 2048
rand_sets[23]: 71
Assign rand_sets[24]: 1127  LLC: 2048
rand_sets[24]: 1127
Assign rand_sets[25]: 1382  LLC: 2048
rand_sets[25]: 1382
Assign rand_sets[26]: 647  LLC: 2048
rand_sets[26]: 647
Assign rand_sets[27]: 857  LLC: 2048
rand_sets[27]: 857
Assign rand_sets[28]: 1450  LLC: 2048
rand_sets[28]: 1450
Assign rand_sets[29]: 1160  LLC: 2048
rand_sets[29]: 1160
Assign rand_sets[30]: 1852  LLC: 2048
rand_sets[30]: 1852
Assign rand_sets[31]: 1881  LLC: 2048
rand_sets[31]: 1881
Assign rand_sets[32]: 1770  LLC: 2048
rand_sets[32]: 1770
Assign rand_sets[33]: 1622  LLC: 2048
rand_sets[33]: 1622
Assign rand_sets[34]: 275  LLC: 2048
rand_sets[34]: 275
Assign rand_sets[35]: 635  LLC: 2048
rand_sets[35]: 635
Assign rand_sets[36]: 466  LLC: 2048
rand_sets[36]: 466
Assign rand_sets[37]: 1413  LLC: 2048
rand_sets[37]: 1413
Assign rand_sets[38]: 417  LLC: 2048
rand_sets[38]: 417
Assign rand_sets[39]: 472  LLC: 2048
rand_sets[39]: 472
Assign rand_sets[40]: 1340  LLC: 2048
rand_sets[40]: 1340
Assign rand_sets[41]: 852  LLC: 2048
rand_sets[41]: 852
Assign rand_sets[42]: 1365  LLC: 2048
rand_sets[42]: 1365
Assign rand_sets[43]: 47  LLC: 2048
rand_sets[43]: 47
Assign rand_sets[44]: 823  LLC: 2048
rand_sets[44]: 823
Assign rand_sets[45]: 686  LLC: 2048
rand_sets[45]: 686
Assign rand_sets[46]: 1637  LLC: 2048
rand_sets[46]: 1637
Assign rand_sets[47]: 1115  LLC: 2048
rand_sets[47]: 1115
Assign rand_sets[48]: 986  LLC: 2048
rand_sets[48]: 986
Assign rand_sets[49]: 258  LLC: 2048
rand_sets[49]: 258
Assign rand_sets[50]: 633  LLC: 2048
rand_sets[50]: 633
Assign rand_sets[51]: 920  LLC: 2048
rand_sets[51]: 920
Assign rand_sets[52]: 204  LLC: 2048
rand_sets[52]: 204
Assign rand_sets[53]: 227  LLC: 2048
rand_sets[53]: 227
Assign rand_sets[54]: 1818  LLC: 2048
rand_sets[54]: 1818
Assign rand_sets[55]: 886  LLC: 2048
rand_sets[55]: 886
Assign rand_sets[56]: 1422  LLC: 2048
rand_sets[56]: 1422
Assign rand_sets[57]: 607  LLC: 2048
rand_sets[57]: 607
Assign rand_sets[58]: 217  LLC: 2048
rand_sets[58]: 217
Assign rand_sets[59]: 1945  LLC: 2048
rand_sets[59]: 1945
Assign rand_sets[60]: 143  LLC: 2048
rand_sets[60]: 143
Assign rand_sets[61]: 1311  LLC: 2048
rand_sets[61]: 1311
Assign rand_sets[62]: 319  LLC: 2048
rand_sets[62]: 319
Assign rand_sets[63]: 1846  LLC: 2048
rand_sets[63]: 1846
 CLEAN-RRIP-POLICY-1: 1-0-2-3-1-3-1-1- CLEAN-RRIP-POLICY-2: 1-0-2-3-1-3-1-1-
 DIRTY-RRIP-POLICY-1: 2-0-2-3-1-3-1-1- DIRTY-RRIP-POLICY-2: 2-0-2-3-1-3-1-1-
 PSEL width: 10
Heartbeat CPU 0 instructions: 10000001 cycles: 7315988 heartbeat IPC: 1.36687 cumulative IPC: 1.36687 (Simulation time: 0 hr 0 min 13 sec) 
Heartbeat CPU 0 instructions: 20000000 cycles: 14307754 heartbeat IPC: 1.43025 cumulative IPC: 1.39784 (Simulation time: 0 hr 0 min 27 sec) 
Heartbeat CPU 0 instructions: 30000001 cycles: 21020859 heartbeat IPC: 1.48962 cumulative IPC: 1.42715 (Simulation time: 0 hr 0 min 43 sec) 
Heartbeat CPU 0 instructions: 40000000 cycles: 27481740 heartbeat IPC: 1.54778 cumulative IPC: 1.45551 (Simulation time: 0 hr 0 min 58 sec) 
Heartbeat CPU 0 instructions: 50000001 cycles: 33583200 heartbeat IPC: 1.63895 cumulative IPC: 1.48884 (Simulation time: 0 hr 1 min 13 sec) 
Heartbeat CPU 0 instructions: 60000000 cycles: 40064161 heartbeat IPC: 1.54298 cumulative IPC: 1.4976 (Simulation time: 0 hr 1 min 29 sec) 
Heartbeat CPU 0 instructions: 70000000 cycles: 47101895 heartbeat IPC: 1.42091 cumulative IPC: 1.48614 (Simulation time: 0 hr 1 min 43 sec) 
Heartbeat CPU 0 instructions: 80000000 cycles: 54191839 heartbeat IPC: 1.41045 cumulative IPC: 1.47624 (Simulation time: 0 hr 1 min 57 sec) 
Heartbeat CPU 0 instructions: 90000003 cycles: 61196536 heartbeat IPC: 1.42761 cumulative IPC: 1.47067 (Simulation time: 0 hr 2 min 11 sec) 
Heartbeat CPU 0 instructions: 100000000 cycles: 68364252 heartbeat IPC: 1.39514 cumulative IPC: 1.46275 (Simulation time: 0 hr 2 min 26 sec) 

Warmup complete CPU 0 instructions: 100000004 cycles: 68364253 (Simulation time: 0 hr 2 min 26 sec) 

Heartbeat CPU 0 instructions: 110000003 cycles: 96175002 heartbeat IPC: 0.359573 cumulative IPC: 0.359573 (Simulation time: 0 hr 2 min 53 sec) 
Heartbeat CPU 0 instructions: 120000000 cycles: 123686766 heartbeat IPC: 0.363481 cumulative IPC: 0.361516 (Simulation time: 0 hr 3 min 21 sec) 
Heartbeat CPU 0 instructions: 130000000 cycles: 148671619 heartbeat IPC: 0.400243 cumulative IPC: 0.373565 (Simulation time: 0 hr 3 min 48 sec) 
Heartbeat CPU 0 instructions: 140000000 cycles: 178316176 heartbeat IPC: 0.33733 cumulative IPC: 0.363795 (Simulation time: 0 hr 4 min 15 sec) 
Heartbeat CPU 0 instructions: 150000000 cycles: 208380346 heartbeat IPC: 0.332622 cumulative IPC: 0.357102 (Simulation time: 0 hr 4 min 42 sec) 
Heartbeat CPU 0 instructions: 160000000 cycles: 235792637 heartbeat IPC: 0.3648 cumulative IPC: 0.358362 (Simulation time: 0 hr 5 min 8 sec) 
Heartbeat CPU 0 instructions: 170000001 cycles: 263874954 heartbeat IPC: 0.356096 cumulative IPC: 0.358037 (Simulation time: 0 hr 5 min 37 sec) 
Heartbeat CPU 0 instructions: 180000000 cycles: 292452196 heartbeat IPC: 0.349929 cumulative IPC: 0.357003 (Simulation time: 0 hr 6 min 5 sec) 
Heartbeat CPU 0 instructions: 190000002 cycles: 320531180 heartbeat IPC: 0.356138 cumulative IPC: 0.356906 (Simulation time: 0 hr 6 min 32 sec) 
Heartbeat CPU 0 instructions: 200000000 cycles: 349078112 heartbeat IPC: 0.3503 cumulative IPC: 0.356235 (Simulation time: 0 hr 7 min 0 sec) 
Heartbeat CPU 0 instructions: 210000002 cycles: 376963294 heartbeat IPC: 0.358613 cumulative IPC: 0.35645 (Simulation time: 0 hr 7 min 27 sec) 
Heartbeat CPU 0 instructions: 220000000 cycles: 406254138 heartbeat IPC: 0.341404 cumulative IPC: 0.355145 (Simulation time: 0 hr 7 min 54 sec) 
Heartbeat CPU 0 instructions: 230000000 cycles: 433962833 heartbeat IPC: 0.360898 cumulative IPC: 0.355581 (Simulation time: 0 hr 8 min 20 sec) 
Heartbeat CPU 0 instructions: 240000000 cycles: 460285916 heartbeat IPC: 0.379895 cumulative IPC: 0.357214 (Simulation time: 0 hr 8 min 46 sec) 
Heartbeat CPU 0 instructions: 250000000 cycles: 490517650 heartbeat IPC: 0.330778 cumulative IPC: 0.355321 (Simulation time: 0 hr 9 min 15 sec) 
Heartbeat CPU 0 instructions: 260000000 cycles: 517641472 heartbeat IPC: 0.36868 cumulative IPC: 0.356128 (Simulation time: 0 hr 9 min 42 sec) 
Heartbeat CPU 0 instructions: 270000003 cycles: 546037368 heartbeat IPC: 0.352164 cumulative IPC: 0.355892 (Simulation time: 0 hr 10 min 10 sec) 
Heartbeat CPU 0 instructions: 280000000 cycles: 574380798 heartbeat IPC: 0.352815 cumulative IPC: 0.35572 (Simulation time: 0 hr 10 min 39 sec) 
Heartbeat CPU 0 instructions: 290000000 cycles: 603212452 heartbeat IPC: 0.346841 cumulative IPC: 0.355241 (Simulation time: 0 hr 11 min 7 sec) 
Heartbeat CPU 0 instructions: 300000000 cycles: 633256752 heartbeat IPC: 0.332842 cumulative IPC: 0.35405 (Simulation time: 0 hr 11 min 34 sec) 
Heartbeat CPU 0 instructions: 310000001 cycles: 662885968 heartbeat IPC: 0.337505 cumulative IPC: 0.353225 (Simulation time: 0 hr 12 min 1 sec) 
Heartbeat CPU 0 instructions: 320000000 cycles: 691261433 heartbeat IPC: 0.352417 cumulative IPC: 0.353188 (Simulation time: 0 hr 12 min 28 sec) 
Heartbeat CPU 0 instructions: 330000000 cycles: 719907720 heartbeat IPC: 0.349085 cumulative IPC: 0.353008 (Simulation time: 0 hr 12 min 54 sec) 
Heartbeat CPU 0 instructions: 340000000 cycles: 749508045 heartbeat IPC: 0.337834 cumulative IPC: 0.352349 (Simulation time: 0 hr 13 min 21 sec) 
Heartbeat CPU 0 instructions: 350000003 cycles: 776542580 heartbeat IPC: 0.369897 cumulative IPC: 0.353018 (Simulation time: 0 hr 13 min 47 sec) 
Heartbeat CPU 0 instructions: 360000000 cycles: 805012671 heartbeat IPC: 0.351246 cumulative IPC: 0.35295 (Simulation time: 0 hr 14 min 13 sec) 
Heartbeat CPU 0 instructions: 370000000 cycles: 833521547 heartbeat IPC: 0.350768 cumulative IPC: 0.352869 (Simulation time: 0 hr 14 min 39 sec) 
Heartbeat CPU 0 instructions: 380000000 cycles: 862392563 heartbeat IPC: 0.346368 cumulative IPC: 0.352632 (Simulation time: 0 hr 15 min 4 sec) 
Heartbeat CPU 0 instructions: 390000001 cycles: 890272892 heartbeat IPC: 0.358676 cumulative IPC: 0.352837 (Simulation time: 0 hr 15 min 30 sec) 
Heartbeat CPU 0 instructions: 400000000 cycles: 919212803 heartbeat IPC: 0.345544 cumulative IPC: 0.352589 (Simulation time: 0 hr 15 min 55 sec) 
Heartbeat CPU 0 instructions: 410000001 cycles: 946774268 heartbeat IPC: 0.362825 cumulative IPC: 0.35291 (Simulation time: 0 hr 16 min 21 sec) 
Heartbeat CPU 0 instructions: 420000000 cycles: 974308737 heartbeat IPC: 0.363181 cumulative IPC: 0.353223 (Simulation time: 0 hr 16 min 46 sec) 
Heartbeat CPU 0 instructions: 430000002 cycles: 1002238088 heartbeat IPC: 0.358046 cumulative IPC: 0.353367 (Simulation time: 0 hr 17 min 11 sec) 
Heartbeat CPU 0 instructions: 440000000 cycles: 1031996094 heartbeat IPC: 0.336044 cumulative IPC: 0.352832 (Simulation time: 0 hr 17 min 36 sec) 
Heartbeat CPU 0 instructions: 450000002 cycles: 1061563505 heartbeat IPC: 0.33821 cumulative IPC: 0.352397 (Simulation time: 0 hr 18 min 2 sec) 
Heartbeat CPU 0 instructions: 460000000 cycles: 1089498346 heartbeat IPC: 0.357976 cumulative IPC: 0.352549 (Simulation time: 0 hr 18 min 27 sec) 
Heartbeat CPU 0 instructions: 470000000 cycles: 1117335570 heartbeat IPC: 0.359231 cumulative IPC: 0.352727 (Simulation time: 0 hr 18 min 52 sec) 
Heartbeat CPU 0 instructions: 480000000 cycles: 1145409550 heartbeat IPC: 0.356202 cumulative IPC: 0.352817 (Simulation time: 0 hr 19 min 17 sec) 
Heartbeat CPU 0 instructions: 490000000 cycles: 1173200251 heartbeat IPC: 0.359833 cumulative IPC: 0.352994 (Simulation time: 0 hr 19 min 42 sec) 
Heartbeat CPU 0 instructions: 500000000 cycles: 1201624223 heartbeat IPC: 0.351816 cumulative IPC: 0.352964 (Simulation time: 0 hr 20 min 8 sec) 
Heartbeat CPU 0 instructions: 510000000 cycles: 1236646204 heartbeat IPC: 0.285535 cumulative IPC: 0.350943 (Simulation time: 0 hr 20 min 37 sec) 
Heartbeat CPU 0 instructions: 520000000 cycles: 1264265664 heartbeat IPC: 0.362064 cumulative IPC: 0.3512 (Simulation time: 0 hr 21 min 3 sec) 
Heartbeat CPU 0 instructions: 530000001 cycles: 1293780396 heartbeat IPC: 0.338814 cumulative IPC: 0.350901 (Simulation time: 0 hr 21 min 29 sec) 
Heartbeat CPU 0 instructions: 540000000 cycles: 1322148719 heartbeat IPC: 0.352506 cumulative IPC: 0.350938 (Simulation time: 0 hr 21 min 55 sec) 
Heartbeat CPU 0 instructions: 550000001 cycles: 1351559298 heartbeat IPC: 0.340014 cumulative IPC: 0.350687 (Simulation time: 0 hr 22 min 23 sec) 
Heartbeat CPU 0 instructions: 560000000 cycles: 1377068272 heartbeat IPC: 0.392019 cumulative IPC: 0.351493 (Simulation time: 0 hr 22 min 49 sec) 
Heartbeat CPU 0 instructions: 570000000 cycles: 1406756556 heartbeat IPC: 0.336833 cumulative IPC: 0.351168 (Simulation time: 0 hr 23 min 15 sec) 
Heartbeat CPU 0 instructions: 580000000 cycles: 1435010911 heartbeat IPC: 0.353928 cumulative IPC: 0.351225 (Simulation time: 0 hr 23 min 42 sec) 
Heartbeat CPU 0 instructions: 590000001 cycles: 1460161755 heartbeat IPC: 0.397601 cumulative IPC: 0.352063 (Simulation time: 0 hr 24 min 7 sec) 
Heartbeat CPU 0 instructions: 600000000 cycles: 1487137797 heartbeat IPC: 0.370699 cumulative IPC: 0.352417 (Simulation time: 0 hr 24 min 32 sec) 
Finished CPU 0 instructions: 500000000 cycles: 1418773566 cumulative IPC: 0.352417 (Simulation time: 0 hr 24 min 32 sec) 

CPU 0 Branch Prediction Accuracy: 86.4311% MPKI: 26.2662
Number of Branches: 96788573 Number of Mispredictions: 13133102
Number of LOAD Instructions: 164682285
Number of LOAD Instructions (ROI): 164682285
Number of STORE Instructions: 78194750
Number of STORE Instructions (ROI): 78194750
Total Destination Memory Operands: 83268534
Total Destination Memory Operands (ROI): 83268534
Total Source Memory Operands: 164712438
Total Source Memory Operands (ROI): 164712438
Number of DEPENDED LOADS: 7070947
Number of DEPENDED LOADS (ROI): 7070947
Number of SQ_ADDED: 83268522
Number of SQ_ADDED (ROI): 83268522
Number of LQ_ADDED: 236835779
Number of LQ_ADDED (ROI): 236835779
Number of Instructions read from trace: 600000066

ChampSim completed all CPUs

Region of Interest Statistics

CPU 0 cumulative IPC: 0.352417 instructions: 500000000 cycles: 1418773566
ITLB TOTAL     ACCESS:  100499037  HIT:  100294591  MISS:     204446
ITLB LOAD      ACCESS:  100499037  HIT:  100294591  MISS:     204446
ITLB RFO       ACCESS:          0  HIT:          0  MISS:          0
ITLB PREFETCH  ACCESS:          0  HIT:          0  MISS:          0
ITLB WRITEBACK ACCESS:          0  HIT:          0  MISS:          0
ITLB PREFETCH  REQUESTED:          0  ISSUED:          0  USEFUL:          0  USELESS:          0
ITLB TOTAL MSHR MERGED:     172424
ITLB LOAD MSHR MERGED:     172424
ITLB RFO MSHR MERGED:          0
ITLB PREFETCH MSHR MERGED:          0
ITLB WRITEBACK MSHR MERGED:          0
ITLB TOTAL ACCESSES:  100671461 HITS:  100294591 MISSES:     376870
ITLB LOAD ACCESSES:  100671461 HITS:  100294591 MISSES:     376870
ITLB RFO ACCESSES:          0 HITS:          0 MISSES:          0
ITLB PREFETCH ACCESSES:          0 HITS:          0 MISSES:          0
ITLB WRITEBACK ACCESSES:          0 HITS:          0 MISSES:          0
ITLB RQ ACCESS:  500000057
ITLB RQ TO_CACHE:  100671461
ITLB RQ MERGED:  399328596
ITLB RQ FORWARD:          0
ITLB WQ ACCESS:          0
ITLB WQ TO_CACHE:          0
ITLB WQ MERGED:          0
ITLB WQ FORWARD:          0
DTLB TOTAL     ACCESS:  165326200  HIT:  164691848  MISS:     634352
DTLB LOAD      ACCESS:  106283208  HIT:  105713203  MISS:     570005
DTLB RFO       ACCESS:   59042992  HIT:   58978645  MISS:      64347
DTLB PREFETCH  ACCESS:          0  HIT:          0  MISS:          0
DTLB WRITEBACK ACCESS:          0  HIT:          0  MISS:          0
DTLB PREFETCH  REQUESTED:          0  ISSUED:          0  USEFUL:          0  USELESS:          0
DTLB TOTAL MSHR MERGED:      99776
DTLB LOAD MSHR MERGED:      59351
DTLB RFO MSHR MERGED:      40425
DTLB PREFETCH MSHR MERGED:          0
DTLB WRITEBACK MSHR MERGED:          0
DTLB TOTAL ACCESSES:  165425976 HITS:  164691848 MISSES:     734128
DTLB LOAD ACCESSES:  106342559 HITS:  105713203 MISSES:     629356
DTLB RFO ACCESSES:   59083417 HITS:   58978645 MISSES:     104772
DTLB PREFETCH ACCESSES:          0 HITS:          0 MISSES:          0
DTLB WRITEBACK ACCESSES:          0 HITS:          0 MISSES:          0
DTLB RQ ACCESS:  200299967
DTLB RQ TO_CACHE:  165425976
DTLB RQ MERGED:   34873991
DTLB RQ FORWARD:          0
DTLB WQ ACCESS:          0
DTLB WQ TO_CACHE:          0
DTLB WQ MERGED:          0
DTLB WQ FORWARD:          0
L1D TOTAL     ACCESS:  281738438  HIT:  273829250  MISS:    7909188
L1D LOAD      ACCESS:  110400097  HIT:  107117635  MISS:    3282462
L1D RFO       ACCESS:   67083905  HIT:   66191712  MISS:     892193
L1D PREFETCH  ACCESS:  104254436  HIT:  100519903  MISS:    3734533
L1D WRITEBACK ACCESS:          0  HIT:          0  MISS:          0
L1D PREFETCH  REQUESTED:  110809029  ISSUED:  109109779  USEFUL:    1655478  USELESS:    2079019
L1D TOTAL MSHR MERGED:    2950953
L1D LOAD MSHR MERGED:     511047
L1D RFO MSHR MERGED:    1903139
L1D PREFETCH MSHR MERGED:     536767
L1D WRITEBACK MSHR MERGED:          0
L1D TOTAL ACCESSES:  284717160 HITS:  273857019 MISSES:   10860141
L1D LOAD ACCESSES:  110810798 HITS:  107119404 MISSES:    3691394
L1D RFO ACCESSES:   68973641 HITS:   66191712 MISSES:    2781929
L1D PREFETCH ACCESSES:  104932721 HITS:  100545903 MISSES:    4386818
L1D WRITEBACK ACCESSES:          0 HITS:          0 MISSES:          0
L1D RQ ACCESS:  130747364
L1D RQ TO_CACHE:  110809032
L1D RQ MERGED:   19936563
L1D RQ FORWARD:          0
L1D WQ ACCESS:   69552603
L1D WQ TO_CACHE:   68973642
L1D WQ MERGED:     578961
L1D WQ FORWARD:      27769
L1I TOTAL     ACCESS:  126546118  HIT:  122307564  MISS:    4238554
L1I LOAD      ACCESS:  126546118  HIT:  122307564  MISS:    4238554
L1I RFO       ACCESS:          0  HIT:          0  MISS:          0
L1I PREFETCH  ACCESS:          0  HIT:          0  MISS:          0
L1I WRITEBACK ACCESS:          0  HIT:          0  MISS:          0
L1I PREFETCH  REQUESTED:          0  ISSUED:          0  USEFUL:          0  USELESS:          0
L1I TOTAL MSHR MERGED:    1834426
L1I LOAD MSHR MERGED:    1834426
L1I RFO MSHR MERGED:          0
L1I PREFETCH MSHR MERGED:          0
L1I WRITEBACK MSHR MERGED:          0
L1I TOTAL ACCESSES:  128380547 HITS:  122307564 MISSES:    6072983
L1I LOAD ACCESSES:  128380547 HITS:  122307564 MISSES:    6072983
L1I RFO ACCESSES:          0 HITS:          0 MISSES:          0
L1I PREFETCH ACCESSES:          0 HITS:          0 MISSES:          0
L1I WRITEBACK ACCESSES:          0 HITS:          0 MISSES:          0
L1I RQ ACCESS:  500000057
L1I RQ TO_CACHE:  128380547
L1I RQ MERGED:  371619510
L1I RQ FORWARD:          0
L1I WQ ACCESS:          0
L1I WQ TO_CACHE:          0
L1I WQ MERGED:          0
L1I WQ FORWARD:          0
L2C TOTAL     ACCESS:   14903172  HIT:   11156724  MISS:    3746448
L2C LOAD      ACCESS:    7418692  HIT:    5098256  MISS:    2320436
L2C RFO       ACCESS:     878694  HIT:     409913  MISS:     468781
L2C PREFETCH  ACCESS:    4566575  HIT:    3626602  MISS:     939973
L2C WRITEBACK ACCESS:    2039211  HIT:    2021953  MISS:      17258
L2C PREFETCH  REQUESTED:     842404  ISSUED:     842404  USEFUL:     202900  USELESS:     736779
L2C TOTAL MSHR MERGED:       8713
L2C LOAD MSHR MERGED:       1239
L2C RFO MSHR MERGED:          0
L2C PREFETCH MSHR MERGED:       7474
L2C WRITEBACK MSHR MERGED:          0
L2C TOTAL ACCESSES:   14912811 HITS:   11157171 MISSES:    3755640
L2C LOAD ACCESSES:    7418901 HITS:    5098465 MISSES:    2320436
L2C RFO ACCESSES:     878790 HITS:     410009 MISSES:     468781
L2C PREFETCH ACCESSES:    4575909 HITS:    3626744 MISSES:     949165
L2C WRITEBACK ACCESSES:    2039211 HITS:    2021953 MISSES:      17258
L2C RQ ACCESS:    8297694
L2C RQ TO_CACHE:    8297389
L2C RQ MERGED:          0
L2C RQ FORWARD:          0
L2C WQ ACCESS:    2039211
L2C WQ TO_CACHE:    2039211
L2C WQ MERGED:          0
L2C WQ FORWARD:        447
LLC TOTAL     ACCESS:    4609805  HIT:    3657358  MISS:     952447
LLC LOAD      ACCESS:    2319184  HIT:    2031464  MISS:     287720
LLC RFO       ACCESS:     468772  HIT:     335943  MISS:     132829
LLC PREFETCH  ACCESS:     941565  HIT:     556076  MISS:     385489
LLC WRITEBACK ACCESS:     880284  HIT:     733875  MISS:     146409
LLC PREFETCH  REQUESTED:          0  ISSUED:          0  USEFUL:      16969  USELESS:     368549
LLC TOTAL MSHR MERGED:        113
LLC LOAD MSHR MERGED:         39
LLC RFO MSHR MERGED:          0
LLC PREFETCH MSHR MERGED:         74
LLC WRITEBACK MSHR MERGED:          0
LLC TOTAL ACCESSES:    4609950 HITS:    3657390 MISSES:     952560
LLC LOAD ACCESSES:    2319197 HITS:    2031477 MISSES:     287720
LLC RFO ACCESSES:     468781 HITS:     335952 MISSES:     132829
LLC PREFETCH ACCESSES:     941688 HITS:     556086 MISSES:     385602
LLC WRITEBACK ACCESSES:     880284 HITS:     733875 MISSES:     146409
LLC 0 RQ ACCESS:    2787978
LLC 0 RQ TO_CACHE:    2787956
LLC 0 RQ MERGED:          0
LLC 0 RQ FORWARD:          0
LLC WQ ACCESS:     880284
LLC WQ TO_CACHE:     880284
LLC WQ MERGED:          0
LLC WQ FORWARD:         32
Major fault: 0 Minor fault: 12862
CPU 0 L1D next line prefetcher final stats
CPU 0 L2C PC-based stride prefetcher final stats
All Misses: 1101172
All Hits: 4325639
SD Algo Stats - Switches: 0 SRR-Repls: 328545 BRR-Repls: 0

DRAM Statistics
 CHANNEL 0
 RQ ROW_BUFFER_HIT:     160066  ROW_BUFFER_MISS:     642787
 DBUS_CONGESTED:     521897
 WQ ROW_BUFFER_HIT:      32613  ROW_BUFFER_MISS:     295000  FULL:          0

 AVG_CONGESTED_CYCLE: 13
LOADS RETIRED: 136549171
INSTR RETIRED: 500000000
