
*** ChampSim Multicore Out-of-Order Simulator ***

Warmup Instructions: 100000000
Simulation Instructions: 500000000
Number of CPUs: 1
LLC sets: 2048
LLC ways: 16
Clean RRIP Policies: 1023131110231311 Dirty RRIP Policies: 2023131120231311 PSEL Width: 10 Track Set: 4294967295 PSEL Mask: 1 Demote Mask: 1043324310433243DS Algo: 0Window size: 0
Off-chip DRAM Size: 4096 MB Channels: 1 Width: 64-bit Data Rate: 1600 MT/s

CPU 0 runs /mnt/beegfs/iconst01/spec2017/Roms.trace.gz
NOT SORTED
TRACE STRING: /mnt/beegfs/iconst01/spec2017/Roms.trace.gz
SORTED
TRACE STRING: /mnt/beegfs/iconst01/spec2017/Roms.trace.gz
INITIAL
TRACE STRING: /mnt/beegfs/iconst01/spec2017/Roms.trace.gz

champsim_seed used: 417

CPU 0 L1D next line prefetcher
CPU 0 L2C IP-based stride prefetcher
Initialize DRRIP state
Assign rand_sets[0]: 454  LLC: 2048
rand_sets[0]: 454
Assign rand_sets[1]: 1662  LLC: 2048
rand_sets[1]: 1662
Assign rand_sets[2]: 1921  LLC: 2048
rand_sets[2]: 1921
Assign rand_sets[3]: 1131  LLC: 2048
rand_sets[3]: 1131
Assign rand_sets[4]: 331  LLC: 2048
rand_sets[4]: 331
Assign rand_sets[5]: 1531  LLC: 2048
rand_sets[5]: 1531
Assign rand_sets[6]: 482  LLC: 2048
rand_sets[6]: 482
Assign rand_sets[7]: 1275  LLC: 2048
rand_sets[7]: 1275
Assign rand_sets[8]: 1876  LLC: 2048
rand_sets[8]: 1876
Assign rand_sets[9]: 2038  LLC: 2048
rand_sets[9]: 2038
Assign rand_sets[10]: 701  LLC: 2048
rand_sets[10]: 701
Assign rand_sets[11]: 479  LLC: 2048
rand_sets[11]: 479
Assign rand_sets[12]: 892  LLC: 2048
rand_sets[12]: 892
Assign rand_sets[13]: 1820  LLC: 2048
rand_sets[13]: 1820
Assign rand_sets[14]: 1505  LLC: 2048
rand_sets[14]: 1505
Assign rand_sets[15]: 1159  LLC: 2048
rand_sets[15]: 1159
Assign rand_sets[16]: 513  LLC: 2048
rand_sets[16]: 513
Assign rand_sets[17]: 703  LLC: 2048
rand_sets[17]: 703
Assign rand_sets[18]: 561  LLC: 2048
rand_sets[18]: 561
Assign rand_sets[19]: 990  LLC: 2048
rand_sets[19]: 990
Assign rand_sets[20]: 342  LLC: 2048
rand_sets[20]: 342
Assign rand_sets[21]: 882  LLC: 2048
rand_sets[21]: 882
Assign rand_sets[22]: 15  LLC: 2048
rand_sets[22]: 15
Assign rand_sets[23]: 71  LLC: 2048
rand_sets[23]: 71
Assign rand_sets[24]: 1127  LLC: 2048
rand_sets[24]: 1127
Assign rand_sets[25]: 1382  LLC: 2048
rand_sets[25]: 1382
Assign rand_sets[26]: 647  LLC: 2048
rand_sets[26]: 647
Assign rand_sets[27]: 857  LLC: 2048
rand_sets[27]: 857
Assign rand_sets[28]: 1450  LLC: 2048
rand_sets[28]: 1450
Assign rand_sets[29]: 1160  LLC: 2048
rand_sets[29]: 1160
Assign rand_sets[30]: 1852  LLC: 2048
rand_sets[30]: 1852
Assign rand_sets[31]: 1881  LLC: 2048
rand_sets[31]: 1881
Assign rand_sets[32]: 1770  LLC: 2048
rand_sets[32]: 1770
Assign rand_sets[33]: 1622  LLC: 2048
rand_sets[33]: 1622
Assign rand_sets[34]: 275  LLC: 2048
rand_sets[34]: 275
Assign rand_sets[35]: 635  LLC: 2048
rand_sets[35]: 635
Assign rand_sets[36]: 466  LLC: 2048
rand_sets[36]: 466
Assign rand_sets[37]: 1413  LLC: 2048
rand_sets[37]: 1413
Assign rand_sets[38]: 417  LLC: 2048
rand_sets[38]: 417
Assign rand_sets[39]: 472  LLC: 2048
rand_sets[39]: 472
Assign rand_sets[40]: 1340  LLC: 2048
rand_sets[40]: 1340
Assign rand_sets[41]: 852  LLC: 2048
rand_sets[41]: 852
Assign rand_sets[42]: 1365  LLC: 2048
rand_sets[42]: 1365
Assign rand_sets[43]: 47  LLC: 2048
rand_sets[43]: 47
Assign rand_sets[44]: 823  LLC: 2048
rand_sets[44]: 823
Assign rand_sets[45]: 686  LLC: 2048
rand_sets[45]: 686
Assign rand_sets[46]: 1637  LLC: 2048
rand_sets[46]: 1637
Assign rand_sets[47]: 1115  LLC: 2048
rand_sets[47]: 1115
Assign rand_sets[48]: 986  LLC: 2048
rand_sets[48]: 986
Assign rand_sets[49]: 258  LLC: 2048
rand_sets[49]: 258
Assign rand_sets[50]: 633  LLC: 2048
rand_sets[50]: 633
Assign rand_sets[51]: 920  LLC: 2048
rand_sets[51]: 920
Assign rand_sets[52]: 204  LLC: 2048
rand_sets[52]: 204
Assign rand_sets[53]: 227  LLC: 2048
rand_sets[53]: 227
Assign rand_sets[54]: 1818  LLC: 2048
rand_sets[54]: 1818
Assign rand_sets[55]: 886  LLC: 2048
rand_sets[55]: 886
Assign rand_sets[56]: 1422  LLC: 2048
rand_sets[56]: 1422
Assign rand_sets[57]: 607  LLC: 2048
rand_sets[57]: 607
Assign rand_sets[58]: 217  LLC: 2048
rand_sets[58]: 217
Assign rand_sets[59]: 1945  LLC: 2048
rand_sets[59]: 1945
Assign rand_sets[60]: 143  LLC: 2048
rand_sets[60]: 143
Assign rand_sets[61]: 1311  LLC: 2048
rand_sets[61]: 1311
Assign rand_sets[62]: 319  LLC: 2048
rand_sets[62]: 319
Assign rand_sets[63]: 1846  LLC: 2048
rand_sets[63]: 1846
 CLEAN-RRIP-POLICY-1: 1-0-2-3-1-3-1-1- CLEAN-RRIP-POLICY-2: 1-0-2-3-1-3-1-1-
 DIRTY-RRIP-POLICY-1: 2-0-2-3-1-3-1-1- DIRTY-RRIP-POLICY-2: 2-0-2-3-1-3-1-1-
 PSEL width: 10
Heartbeat CPU 0 instructions: 10000000 cycles: 4688066 heartbeat IPC: 2.13308 cumulative IPC: 2.13308 (Simulation time: 0 hr 0 min 17 sec) 
Heartbeat CPU 0 instructions: 20000000 cycles: 9325334 heartbeat IPC: 2.15644 cumulative IPC: 2.1447 (Simulation time: 0 hr 0 min 34 sec) 
Heartbeat CPU 0 instructions: 30000003 cycles: 14019734 heartbeat IPC: 2.1302 cumulative IPC: 2.13984 (Simulation time: 0 hr 0 min 52 sec) 
Heartbeat CPU 0 instructions: 40000000 cycles: 18670165 heartbeat IPC: 2.15034 cumulative IPC: 2.14246 (Simulation time: 0 hr 1 min 9 sec) 
Heartbeat CPU 0 instructions: 50000003 cycles: 23323504 heartbeat IPC: 2.149 cumulative IPC: 2.14376 (Simulation time: 0 hr 1 min 26 sec) 
Heartbeat CPU 0 instructions: 60000000 cycles: 27976111 heartbeat IPC: 2.14933 cumulative IPC: 2.14469 (Simulation time: 0 hr 1 min 43 sec) 
Heartbeat CPU 0 instructions: 70000002 cycles: 32367278 heartbeat IPC: 2.2773 cumulative IPC: 2.16268 (Simulation time: 0 hr 1 min 58 sec) 
Heartbeat CPU 0 instructions: 80000000 cycles: 36304039 heartbeat IPC: 2.54016 cumulative IPC: 2.20361 (Simulation time: 0 hr 2 min 10 sec) 
Heartbeat CPU 0 instructions: 90000000 cycles: 40249237 heartbeat IPC: 2.53473 cumulative IPC: 2.23607 (Simulation time: 0 hr 2 min 22 sec) 
Heartbeat CPU 0 instructions: 100000000 cycles: 44211542 heartbeat IPC: 2.52378 cumulative IPC: 2.26185 (Simulation time: 0 hr 2 min 35 sec) 

Warmup complete CPU 0 instructions: 100000002 cycles: 44211543 (Simulation time: 0 hr 2 min 35 sec) 

Heartbeat CPU 0 instructions: 110000000 cycles: 53258057 heartbeat IPC: 1.1054 cumulative IPC: 1.1054 (Simulation time: 0 hr 2 min 54 sec) 
Heartbeat CPU 0 instructions: 120000000 cycles: 62306885 heartbeat IPC: 1.10512 cumulative IPC: 1.10526 (Simulation time: 0 hr 3 min 14 sec) 
Heartbeat CPU 0 instructions: 130000002 cycles: 71442463 heartbeat IPC: 1.09462 cumulative IPC: 1.10169 (Simulation time: 0 hr 3 min 33 sec) 
Heartbeat CPU 0 instructions: 140000000 cycles: 80499469 heartbeat IPC: 1.10412 cumulative IPC: 1.10229 (Simulation time: 0 hr 3 min 53 sec) 
Heartbeat CPU 0 instructions: 150000003 cycles: 89793781 heartbeat IPC: 1.07593 cumulative IPC: 1.09692 (Simulation time: 0 hr 4 min 12 sec) 
Heartbeat CPU 0 instructions: 160000000 cycles: 100609859 heartbeat IPC: 0.924549 cumulative IPC: 1.06386 (Simulation time: 0 hr 4 min 34 sec) 
Heartbeat CPU 0 instructions: 170000000 cycles: 113268500 heartbeat IPC: 0.789974 cumulative IPC: 1.01366 (Simulation time: 0 hr 4 min 58 sec) 
Heartbeat CPU 0 instructions: 180000000 cycles: 125844692 heartbeat IPC: 0.795153 cumulative IPC: 0.979994 (Simulation time: 0 hr 5 min 23 sec) 
Heartbeat CPU 0 instructions: 190000000 cycles: 138655391 heartbeat IPC: 0.780598 cumulative IPC: 0.952947 (Simulation time: 0 hr 5 min 47 sec) 
Heartbeat CPU 0 instructions: 200000000 cycles: 152460322 heartbeat IPC: 0.724379 cumulative IPC: 0.923798 (Simulation time: 0 hr 6 min 11 sec) 
Heartbeat CPU 0 instructions: 210000003 cycles: 166342164 heartbeat IPC: 0.720366 cumulative IPC: 0.900675 (Simulation time: 0 hr 6 min 36 sec) 
Heartbeat CPU 0 instructions: 220000000 cycles: 180091954 heartbeat IPC: 0.727284 cumulative IPC: 0.883129 (Simulation time: 0 hr 7 min 0 sec) 
Heartbeat CPU 0 instructions: 230000000 cycles: 193739108 heartbeat IPC: 0.732754 cumulative IPC: 0.869405 (Simulation time: 0 hr 7 min 26 sec) 
Heartbeat CPU 0 instructions: 240000000 cycles: 207473791 heartbeat IPC: 0.728084 cumulative IPC: 0.857516 (Simulation time: 0 hr 7 min 51 sec) 
Heartbeat CPU 0 instructions: 250000003 cycles: 218647226 heartbeat IPC: 0.89498 cumulative IPC: 0.859916 (Simulation time: 0 hr 8 min 14 sec) 
Heartbeat CPU 0 instructions: 260000000 cycles: 226616512 heartbeat IPC: 1.25482 cumulative IPC: 0.877169 (Simulation time: 0 hr 8 min 34 sec) 
Heartbeat CPU 0 instructions: 270000003 cycles: 235085518 heartbeat IPC: 1.18078 cumulative IPC: 0.89064 (Simulation time: 0 hr 8 min 55 sec) 
Heartbeat CPU 0 instructions: 280000000 cycles: 244067710 heartbeat IPC: 1.11331 cumulative IPC: 0.900648 (Simulation time: 0 hr 9 min 16 sec) 
Heartbeat CPU 0 instructions: 290000000 cycles: 253113474 heartbeat IPC: 1.10549 cumulative IPC: 0.909518 (Simulation time: 0 hr 9 min 38 sec) 
Heartbeat CPU 0 instructions: 300000000 cycles: 262161200 heartbeat IPC: 1.10525 cumulative IPC: 0.917643 (Simulation time: 0 hr 9 min 59 sec) 
Heartbeat CPU 0 instructions: 310000000 cycles: 271322236 heartbeat IPC: 1.09158 cumulative IPC: 0.924659 (Simulation time: 0 hr 10 min 21 sec) 
Heartbeat CPU 0 instructions: 320000000 cycles: 280514463 heartbeat IPC: 1.08788 cumulative IPC: 0.931008 (Simulation time: 0 hr 10 min 44 sec) 
Heartbeat CPU 0 instructions: 330000002 cycles: 289681634 heartbeat IPC: 1.09085 cumulative IPC: 0.936978 (Simulation time: 0 hr 11 min 6 sec) 
Heartbeat CPU 0 instructions: 340000000 cycles: 300263222 heartbeat IPC: 0.945038 cumulative IPC: 0.937311 (Simulation time: 0 hr 11 min 30 sec) 
Heartbeat CPU 0 instructions: 350000001 cycles: 309533989 heartbeat IPC: 1.07866 cumulative IPC: 0.94225 (Simulation time: 0 hr 11 min 52 sec) 
Heartbeat CPU 0 instructions: 360000000 cycles: 318844257 heartbeat IPC: 1.07408 cumulative IPC: 0.946719 (Simulation time: 0 hr 12 min 14 sec) 
Heartbeat CPU 0 instructions: 370000001 cycles: 328172234 heartbeat IPC: 1.07204 cumulative IPC: 0.950836 (Simulation time: 0 hr 12 min 35 sec) 
Heartbeat CPU 0 instructions: 380000000 cycles: 337428567 heartbeat IPC: 1.08034 cumulative IPC: 0.954924 (Simulation time: 0 hr 12 min 56 sec) 
Heartbeat CPU 0 instructions: 390000001 cycles: 346541545 heartbeat IPC: 1.09734 cumulative IPC: 0.959217 (Simulation time: 0 hr 13 min 18 sec) 
Heartbeat CPU 0 instructions: 400000000 cycles: 355767324 heartbeat IPC: 1.08392 cumulative IPC: 0.962909 (Simulation time: 0 hr 13 min 39 sec) 
Heartbeat CPU 0 instructions: 410000003 cycles: 364889319 heartbeat IPC: 1.09625 cumulative IPC: 0.966702 (Simulation time: 0 hr 14 min 0 sec) 
Heartbeat CPU 0 instructions: 420000000 cycles: 374111463 heartbeat IPC: 1.08435 cumulative IPC: 0.969991 (Simulation time: 0 hr 14 min 22 sec) 
Heartbeat CPU 0 instructions: 430000001 cycles: 383234672 heartbeat IPC: 1.09611 cumulative IPC: 0.973385 (Simulation time: 0 hr 14 min 43 sec) 
Heartbeat CPU 0 instructions: 440000000 cycles: 392328699 heartbeat IPC: 1.09962 cumulative IPC: 0.976683 (Simulation time: 0 hr 15 min 4 sec) 
Heartbeat CPU 0 instructions: 450000001 cycles: 403118744 heartbeat IPC: 0.92678 cumulative IPC: 0.975182 (Simulation time: 0 hr 15 min 27 sec) 
Heartbeat CPU 0 instructions: 460000000 cycles: 412184863 heartbeat IPC: 1.10301 cumulative IPC: 0.978332 (Simulation time: 0 hr 15 min 49 sec) 
Heartbeat CPU 0 instructions: 470000003 cycles: 421175147 heartbeat IPC: 1.11231 cumulative IPC: 0.981527 (Simulation time: 0 hr 16 min 10 sec) 
Heartbeat CPU 0 instructions: 480000000 cycles: 430177813 heartbeat IPC: 1.11078 cumulative IPC: 0.984542 (Simulation time: 0 hr 16 min 31 sec) 
Heartbeat CPU 0 instructions: 490000000 cycles: 439170526 heartbeat IPC: 1.11201 cumulative IPC: 0.987444 (Simulation time: 0 hr 16 min 52 sec) 
Heartbeat CPU 0 instructions: 500000000 cycles: 448151251 heartbeat IPC: 1.1135 cumulative IPC: 0.990247 (Simulation time: 0 hr 17 min 12 sec) 
Heartbeat CPU 0 instructions: 510000001 cycles: 457123093 heartbeat IPC: 1.1146 cumulative IPC: 0.992949 (Simulation time: 0 hr 17 min 33 sec) 
Heartbeat CPU 0 instructions: 520000000 cycles: 466118696 heartbeat IPC: 1.11165 cumulative IPC: 0.99548 (Simulation time: 0 hr 17 min 54 sec) 
Heartbeat CPU 0 instructions: 530000001 cycles: 475098260 heartbeat IPC: 1.11364 cumulative IPC: 0.997942 (Simulation time: 0 hr 18 min 15 sec) 
Heartbeat CPU 0 instructions: 540000000 cycles: 484302043 heartbeat IPC: 1.08651 cumulative IPC: 0.999794 (Simulation time: 0 hr 18 min 36 sec) 
Heartbeat CPU 0 instructions: 550000000 cycles: 493518297 heartbeat IPC: 1.08504 cumulative IPC: 1.00154 (Simulation time: 0 hr 18 min 58 sec) 
Heartbeat CPU 0 instructions: 560000000 cycles: 502633074 heartbeat IPC: 1.09712 cumulative IPC: 1.00344 (Simulation time: 0 hr 19 min 19 sec) 
Heartbeat CPU 0 instructions: 570000001 cycles: 515237960 heartbeat IPC: 0.793343 cumulative IPC: 0.997821 (Simulation time: 0 hr 19 min 42 sec) 
Heartbeat CPU 0 instructions: 580000000 cycles: 527846724 heartbeat IPC: 0.793099 cumulative IPC: 0.992484 (Simulation time: 0 hr 20 min 5 sec) 
Heartbeat CPU 0 instructions: 590000001 cycles: 540558078 heartbeat IPC: 0.786698 cumulative IPC: 0.987213 (Simulation time: 0 hr 20 min 29 sec) 
Heartbeat CPU 0 instructions: 600000000 cycles: 553231710 heartbeat IPC: 0.78904 cumulative IPC: 0.982279 (Simulation time: 0 hr 20 min 52 sec) 
Finished CPU 0 instructions: 500000001 cycles: 509020180 cumulative IPC: 0.982279 (Simulation time: 0 hr 20 min 52 sec) 

CPU 0 Branch Prediction Accuracy: 99.7422% MPKI: 0.173296
Number of Branches: 33608403 Number of Mispredictions: 86648
Number of LOAD Instructions: 180215231
Number of LOAD Instructions (ROI): 180215231
Number of STORE Instructions: 36067263
Number of STORE Instructions (ROI): 36067263
Total Destination Memory Operands: 38428915
Total Destination Memory Operands (ROI): 38428915
Total Source Memory Operands: 180215231
Total Source Memory Operands (ROI): 180215231
Number of DEPENDED LOADS: 3041946
Number of DEPENDED LOADS (ROI): 3041946
Number of SQ_ADDED: 38428892
Number of SQ_ADDED (ROI): 38428892
Number of LQ_ADDED: 208396099
Number of LQ_ADDED (ROI): 208396099
Number of Instructions read from trace: 600000257

ChampSim completed all CPUs

Region of Interest Statistics

CPU 0 cumulative IPC: 0.982279 instructions: 500000001 cycles: 509020180
ITLB TOTAL     ACCESS:   92021418  HIT:   92021399  MISS:         19
ITLB LOAD      ACCESS:   92021418  HIT:   92021399  MISS:         19
ITLB RFO       ACCESS:          0  HIT:          0  MISS:          0
ITLB PREFETCH  ACCESS:          0  HIT:          0  MISS:          0
ITLB WRITEBACK ACCESS:          0  HIT:          0  MISS:          0
ITLB PREFETCH  REQUESTED:          0  ISSUED:          0  USEFUL:          0  USELESS:          0
ITLB TOTAL MSHR MERGED:         40
ITLB LOAD MSHR MERGED:         40
ITLB RFO MSHR MERGED:          0
ITLB PREFETCH MSHR MERGED:          0
ITLB WRITEBACK MSHR MERGED:          0
ITLB TOTAL ACCESSES:   92021458 HITS:   92021399 MISSES:         59
ITLB LOAD ACCESSES:   92021458 HITS:   92021399 MISSES:         59
ITLB RFO ACCESSES:          0 HITS:          0 MISSES:          0
ITLB PREFETCH ACCESSES:          0 HITS:          0 MISSES:          0
ITLB WRITEBACK ACCESSES:          0 HITS:          0 MISSES:          0
ITLB RQ ACCESS:  500000003
ITLB RQ TO_CACHE:   92021458
ITLB RQ MERGED:  407978545
ITLB RQ FORWARD:          0
ITLB WQ ACCESS:          0
ITLB WQ TO_CACHE:          0
ITLB WQ MERGED:          0
ITLB WQ FORWARD:          0
DTLB TOTAL     ACCESS:  141896509  HIT:  141530045  MISS:     366464
DTLB LOAD      ACCESS:  119283833  HIT:  118970245  MISS:     313588
DTLB RFO       ACCESS:   22612676  HIT:   22559800  MISS:      52876
DTLB PREFETCH  ACCESS:          0  HIT:          0  MISS:          0
DTLB WRITEBACK ACCESS:          0  HIT:          0  MISS:          0
DTLB PREFETCH  REQUESTED:          0  ISSUED:          0  USEFUL:          0  USELESS:          0
DTLB TOTAL MSHR MERGED:     288620
DTLB LOAD MSHR MERGED:     240082
DTLB RFO MSHR MERGED:      48538
DTLB PREFETCH MSHR MERGED:          0
DTLB WRITEBACK MSHR MERGED:          0
DTLB TOTAL ACCESSES:  142185129 HITS:  141530045 MISSES:     655084
DTLB LOAD ACCESSES:  119523915 HITS:  118970245 MISSES:     553670
DTLB RFO ACCESSES:   22661214 HITS:   22559800 MISSES:     101414
DTLB PREFETCH ACCESSES:          0 HITS:          0 MISSES:          0
DTLB WRITEBACK ACCESSES:          0 HITS:          0 MISSES:          0
DTLB RQ ACCESS:  184791031
DTLB RQ TO_CACHE:  142185129
DTLB RQ MERGED:   42605902
DTLB RQ FORWARD:          0
DTLB WQ ACCESS:          0
DTLB WQ TO_CACHE:          0
DTLB WQ MERGED:          0
DTLB WQ FORWARD:          0
L1D TOTAL     ACCESS:  185013015  HIT:  171577306  MISS:   13435709
L1D LOAD      ACCESS:  111521012  HIT:  107992791  MISS:    3528221
L1D RFO       ACCESS:   16237364  HIT:   13455612  MISS:    2781752
L1D PREFETCH  ACCESS:   57254639  HIT:   50128903  MISS:    7125736
L1D WRITEBACK ACCESS:          0  HIT:          0  MISS:          0
L1D PREFETCH  REQUESTED:  116425647  ISSUED:  115070083  USEFUL:    6916629  USELESS:     209108
L1D TOTAL MSHR MERGED:   36897079
L1D LOAD MSHR MERGED:    7876561
L1D RFO MSHR MERGED:   12015253
L1D PREFETCH MSHR MERGED:   17005265
L1D WRITEBACK MSHR MERGED:          0
L1D TOTAL ACCESSES:  221910582 HITS:  171577792 MISSES:   50332790
L1D LOAD ACCESSES:  116425766 HITS:  107992910 MISSES:    8432856
L1D RFO ACCESSES:   28252554 HITS:   13455612 MISSES:   14796942
L1D PREFETCH ACCESSES:   77232262 HITS:   50129270 MISSES:   27102992
L1D WRITEBACK ACCESSES:          0 HITS:          0 MISSES:          0
L1D RQ ACCESS:  156534965
L1D RQ TO_CACHE:  116425650
L1D RQ MERGED:   40109196
L1D RQ FORWARD:          0
L1D WQ ACCESS:   28256066
L1D WQ TO_CACHE:   28252554
L1D WQ MERGED:       3512
L1D WQ FORWARD:        486
L1I TOTAL     ACCESS:  116024093  HIT:  116023145  MISS:        948
L1I LOAD      ACCESS:  116024093  HIT:  116023145  MISS:        948
L1I RFO       ACCESS:          0  HIT:          0  MISS:          0
L1I PREFETCH  ACCESS:          0  HIT:          0  MISS:          0
L1I WRITEBACK ACCESS:          0  HIT:          0  MISS:          0
L1I PREFETCH  REQUESTED:          0  ISSUED:          0  USEFUL:          0  USELESS:          0
L1I TOTAL MSHR MERGED:       1605
L1I LOAD MSHR MERGED:       1605
L1I RFO MSHR MERGED:          0
L1I PREFETCH MSHR MERGED:          0
L1I WRITEBACK MSHR MERGED:          0
L1I TOTAL ACCESSES:  116025698 HITS:  116023145 MISSES:       2553
L1I LOAD ACCESSES:  116025698 HITS:  116023145 MISSES:       2553
L1I RFO ACCESSES:          0 HITS:          0 MISSES:          0
L1I PREFETCH ACCESSES:          0 HITS:          0 MISSES:          0
L1I WRITEBACK ACCESSES:          0 HITS:          0 MISSES:          0
L1I RQ ACCESS:  500000007
L1I RQ TO_CACHE:  116025698
L1I RQ MERGED:  383974309
L1I RQ FORWARD:          0
L1I WQ ACCESS:          0
L1I WQ TO_CACHE:          0
L1I WQ MERGED:          0
L1I WQ FORWARD:          0
L2C TOTAL     ACCESS:   16680882  HIT:    4836517  MISS:   11844365
L2C LOAD      ACCESS:     557213  HIT:      94948  MISS:     462265
L2C RFO       ACCESS:    2781689  HIT:     266745  MISS:    2514944
L2C PREFETCH  ACCESS:   10121376  HIT:    1256502  MISS:    8864874
L2C WRITEBACK ACCESS:    3220604  HIT:    3218322  MISS:       2282
L2C PREFETCH  REQUESTED:      25993  ISSUED:      25993  USEFUL:      92177  USELESS:    8770786
L2C TOTAL MSHR MERGED:        479
L2C LOAD MSHR MERGED:          3
L2C RFO MSHR MERGED:          0
L2C PREFETCH MSHR MERGED:        476
L2C WRITEBACK MSHR MERGED:          0
L2C TOTAL ACCESSES:   16681759 HITS:    4836563 MISSES:   11845196
L2C LOAD ACCESSES:     557243 HITS:      94978 MISSES:     462265
L2C RFO ACCESSES:    2781689 HITS:     266745 MISSES:    2514944
L2C PREFETCH ACCESSES:   10122223 HITS:    1256518 MISSES:    8865705
L2C WRITEBACK ACCESSES:    3220604 HITS:    3218322 MISSES:       2282
L2C RQ ACCESS:    3338932
L2C RQ TO_CACHE:    3338902
L2C RQ MERGED:          0
L2C RQ FORWARD:          0
L2C WQ ACCESS:    3220605
L2C WQ TO_CACHE:    3220605
L2C WQ MERGED:          0
L2C WQ FORWARD:         46
LLC TOTAL     ACCESS:   14742523  HIT:    4935974  MISS:    9806549
LLC LOAD      ACCESS:     462259  HIT:     220929  MISS:     241330
LLC RFO       ACCESS:    2514926  HIT:     961236  MISS:    1553690
LLC PREFETCH  ACCESS:    8865128  HIT:    2396218  MISS:    6468910
LLC WRITEBACK ACCESS:    2900210  HIT:    1357591  MISS:    1542619
LLC PREFETCH  REQUESTED:          0  ISSUED:          0  USEFUL:       3412  USELESS:    6469047
LLC TOTAL MSHR MERGED:         11
LLC LOAD MSHR MERGED:          0
LLC RFO MSHR MERGED:          0
LLC PREFETCH MSHR MERGED:         11
LLC WRITEBACK MSHR MERGED:          0
LLC TOTAL ACCESSES:   14742613 HITS:    4936051 MISSES:    9806562
LLC LOAD ACCESSES:     462262 HITS:     220932 MISSES:     241330
LLC RFO ACCESSES:    2514944 HITS:     961254 MISSES:    1553690
LLC PREFETCH ACCESSES:    8865197 HITS:    2396274 MISSES:    6468923
LLC WRITEBACK ACCESSES:    2900210 HITS:    1357591 MISSES:    1542619
LLC 0 RQ ACCESS:    2977206
LLC 0 RQ TO_CACHE:    2977185
LLC 0 RQ MERGED:          0
LLC 0 RQ FORWARD:          0
LLC WQ ACCESS:    2900210
LLC WQ TO_CACHE:    2900210
LLC WQ MERGED:          0
LLC WQ FORWARD:         77
Major fault: 0 Minor fault: 57518
CPU 0 L1D next line prefetcher final stats
CPU 0 L2C PC-based stride prefetcher final stats
All Misses: 10442820
All Hits: 5795876
SD Algo Stats - Switches: 0 SRR-Repls: 250925 BRR-Repls: 0

DRAM Statistics
 CHANNEL 0
 RQ ROW_BUFFER_HIT:    4080826  ROW_BUFFER_MISS:    4179063
 DBUS_CONGESTED:    4630369
 WQ ROW_BUFFER_HIT:     209166  ROW_BUFFER_MISS:    1630488  FULL:          0

 AVG_CONGESTED_CYCLE: 12
LOADS RETIRED: 157818985
INSTR RETIRED: 500000000
