
*** ChampSim Multicore Out-of-Order Simulator ***

Warmup Instructions: 100000000
Simulation Instructions: 500000000
Number of CPUs: 1
LLC sets: 2048
LLC ways: 16
Clean RRIP Policies: 2213230222132302 Dirty RRIP Policies: 203130202031302 PSEL Width: 10 Track Set: 4294967295 PSEL Mask: 1 Demote Mask: 1040100010401000DS Algo: 0Window size: 0
Off-chip DRAM Size: 4096 MB Channels: 1 Width: 64-bit Data Rate: 1600 MT/s

CPU 0 runs /mnt/beegfs/iconst01/spec2017/Blender.trace.gz
NOT SORTED
TRACE STRING: /mnt/beegfs/iconst01/spec2017/Blender.trace.gz
SORTED
TRACE STRING: /mnt/beegfs/iconst01/spec2017/Blender.trace.gz
INITIAL
TRACE STRING: /mnt/beegfs/iconst01/spec2017/Blender.trace.gz

champsim_seed used: 700

CPU 0 L1D next line prefetcher
CPU 0 L2C IP-based stride prefetcher
Initialize DRRIP state
Assign rand_sets[0]: 454  LLC: 2048
rand_sets[0]: 454
Assign rand_sets[1]: 1662  LLC: 2048
rand_sets[1]: 1662
Assign rand_sets[2]: 1921  LLC: 2048
rand_sets[2]: 1921
Assign rand_sets[3]: 1131  LLC: 2048
rand_sets[3]: 1131
Assign rand_sets[4]: 331  LLC: 2048
rand_sets[4]: 331
Assign rand_sets[5]: 1531  LLC: 2048
rand_sets[5]: 1531
Assign rand_sets[6]: 482  LLC: 2048
rand_sets[6]: 482
Assign rand_sets[7]: 1275  LLC: 2048
rand_sets[7]: 1275
Assign rand_sets[8]: 1876  LLC: 2048
rand_sets[8]: 1876
Assign rand_sets[9]: 2038  LLC: 2048
rand_sets[9]: 2038
Assign rand_sets[10]: 701  LLC: 2048
rand_sets[10]: 701
Assign rand_sets[11]: 479  LLC: 2048
rand_sets[11]: 479
Assign rand_sets[12]: 892  LLC: 2048
rand_sets[12]: 892
Assign rand_sets[13]: 1820  LLC: 2048
rand_sets[13]: 1820
Assign rand_sets[14]: 1505  LLC: 2048
rand_sets[14]: 1505
Assign rand_sets[15]: 1159  LLC: 2048
rand_sets[15]: 1159
Assign rand_sets[16]: 513  LLC: 2048
rand_sets[16]: 513
Assign rand_sets[17]: 703  LLC: 2048
rand_sets[17]: 703
Assign rand_sets[18]: 561  LLC: 2048
rand_sets[18]: 561
Assign rand_sets[19]: 990  LLC: 2048
rand_sets[19]: 990
Assign rand_sets[20]: 342  LLC: 2048
rand_sets[20]: 342
Assign rand_sets[21]: 882  LLC: 2048
rand_sets[21]: 882
Assign rand_sets[22]: 15  LLC: 2048
rand_sets[22]: 15
Assign rand_sets[23]: 71  LLC: 2048
rand_sets[23]: 71
Assign rand_sets[24]: 1127  LLC: 2048
rand_sets[24]: 1127
Assign rand_sets[25]: 1382  LLC: 2048
rand_sets[25]: 1382
Assign rand_sets[26]: 647  LLC: 2048
rand_sets[26]: 647
Assign rand_sets[27]: 857  LLC: 2048
rand_sets[27]: 857
Assign rand_sets[28]: 1450  LLC: 2048
rand_sets[28]: 1450
Assign rand_sets[29]: 1160  LLC: 2048
rand_sets[29]: 1160
Assign rand_sets[30]: 1852  LLC: 2048
rand_sets[30]: 1852
Assign rand_sets[31]: 1881  LLC: 2048
rand_sets[31]: 1881
Assign rand_sets[32]: 1770  LLC: 2048
rand_sets[32]: 1770
Assign rand_sets[33]: 1622  LLC: 2048
rand_sets[33]: 1622
Assign rand_sets[34]: 275  LLC: 2048
rand_sets[34]: 275
Assign rand_sets[35]: 635  LLC: 2048
rand_sets[35]: 635
Assign rand_sets[36]: 466  LLC: 2048
rand_sets[36]: 466
Assign rand_sets[37]: 1413  LLC: 2048
rand_sets[37]: 1413
Assign rand_sets[38]: 417  LLC: 2048
rand_sets[38]: 417
Assign rand_sets[39]: 472  LLC: 2048
rand_sets[39]: 472
Assign rand_sets[40]: 1340  LLC: 2048
rand_sets[40]: 1340
Assign rand_sets[41]: 852  LLC: 2048
rand_sets[41]: 852
Assign rand_sets[42]: 1365  LLC: 2048
rand_sets[42]: 1365
Assign rand_sets[43]: 47  LLC: 2048
rand_sets[43]: 47
Assign rand_sets[44]: 823  LLC: 2048
rand_sets[44]: 823
Assign rand_sets[45]: 686  LLC: 2048
rand_sets[45]: 686
Assign rand_sets[46]: 1637  LLC: 2048
rand_sets[46]: 1637
Assign rand_sets[47]: 1115  LLC: 2048
rand_sets[47]: 1115
Assign rand_sets[48]: 986  LLC: 2048
rand_sets[48]: 986
Assign rand_sets[49]: 258  LLC: 2048
rand_sets[49]: 258
Assign rand_sets[50]: 633  LLC: 2048
rand_sets[50]: 633
Assign rand_sets[51]: 920  LLC: 2048
rand_sets[51]: 920
Assign rand_sets[52]: 204  LLC: 2048
rand_sets[52]: 204
Assign rand_sets[53]: 227  LLC: 2048
rand_sets[53]: 227
Assign rand_sets[54]: 1818  LLC: 2048
rand_sets[54]: 1818
Assign rand_sets[55]: 886  LLC: 2048
rand_sets[55]: 886
Assign rand_sets[56]: 1422  LLC: 2048
rand_sets[56]: 1422
Assign rand_sets[57]: 607  LLC: 2048
rand_sets[57]: 607
Assign rand_sets[58]: 217  LLC: 2048
rand_sets[58]: 217
Assign rand_sets[59]: 1945  LLC: 2048
rand_sets[59]: 1945
Assign rand_sets[60]: 143  LLC: 2048
rand_sets[60]: 143
Assign rand_sets[61]: 1311  LLC: 2048
rand_sets[61]: 1311
Assign rand_sets[62]: 319  LLC: 2048
rand_sets[62]: 319
Assign rand_sets[63]: 1846  LLC: 2048
rand_sets[63]: 1846
 CLEAN-RRIP-POLICY-1: 2-2-1-3-2-3-0-2- CLEAN-RRIP-POLICY-2: 2-2-1-3-2-3-0-2-
 DIRTY-RRIP-POLICY-1: 0-2-0-3-1-3-0-2- DIRTY-RRIP-POLICY-2: 0-2-0-3-1-3-0-2-
 PSEL width: 10
Heartbeat CPU 0 instructions: 10000002 cycles: 5480930 heartbeat IPC: 1.82451 cumulative IPC: 1.82451 (Simulation time: 0 hr 0 min 13 sec) 
Heartbeat CPU 0 instructions: 20000000 cycles: 10913520 heartbeat IPC: 1.84074 cumulative IPC: 1.83259 (Simulation time: 0 hr 0 min 27 sec) 
Heartbeat CPU 0 instructions: 30000000 cycles: 16447385 heartbeat IPC: 1.80706 cumulative IPC: 1.824 (Simulation time: 0 hr 0 min 40 sec) 
Heartbeat CPU 0 instructions: 40000000 cycles: 21898184 heartbeat IPC: 1.83459 cumulative IPC: 1.82664 (Simulation time: 0 hr 0 min 53 sec) 
Heartbeat CPU 0 instructions: 50000000 cycles: 27400082 heartbeat IPC: 1.81755 cumulative IPC: 1.82481 (Simulation time: 0 hr 1 min 6 sec) 
Heartbeat CPU 0 instructions: 60000000 cycles: 32778879 heartbeat IPC: 1.85915 cumulative IPC: 1.83045 (Simulation time: 0 hr 1 min 20 sec) 
Heartbeat CPU 0 instructions: 70000001 cycles: 38335137 heartbeat IPC: 1.79977 cumulative IPC: 1.826 (Simulation time: 0 hr 1 min 33 sec) 
Heartbeat CPU 0 instructions: 80000000 cycles: 43795282 heartbeat IPC: 1.83145 cumulative IPC: 1.82668 (Simulation time: 0 hr 1 min 46 sec) 
Heartbeat CPU 0 instructions: 90000000 cycles: 49241887 heartbeat IPC: 1.83601 cumulative IPC: 1.82771 (Simulation time: 0 hr 2 min 0 sec) 
Heartbeat CPU 0 instructions: 100000000 cycles: 54786903 heartbeat IPC: 1.80342 cumulative IPC: 1.82525 (Simulation time: 0 hr 2 min 13 sec) 

Warmup complete CPU 0 instructions: 100000002 cycles: 54786904 (Simulation time: 0 hr 2 min 13 sec) 

Heartbeat CPU 0 instructions: 110000001 cycles: 69146429 heartbeat IPC: 0.696402 cumulative IPC: 0.696402 (Simulation time: 0 hr 2 min 32 sec) 
Heartbeat CPU 0 instructions: 120000000 cycles: 84104852 heartbeat IPC: 0.66852 cumulative IPC: 0.682176 (Simulation time: 0 hr 2 min 52 sec) 
Heartbeat CPU 0 instructions: 130000000 cycles: 98572083 heartbeat IPC: 0.691217 cumulative IPC: 0.685163 (Simulation time: 0 hr 3 min 11 sec) 
Heartbeat CPU 0 instructions: 140000000 cycles: 112896535 heartbeat IPC: 0.698107 cumulative IPC: 0.688354 (Simulation time: 0 hr 3 min 31 sec) 
Heartbeat CPU 0 instructions: 150000000 cycles: 127560777 heartbeat IPC: 0.681931 cumulative IPC: 0.68706 (Simulation time: 0 hr 3 min 50 sec) 
Heartbeat CPU 0 instructions: 160000000 cycles: 142613639 heartbeat IPC: 0.664325 cumulative IPC: 0.683163 (Simulation time: 0 hr 4 min 10 sec) 
Heartbeat CPU 0 instructions: 170000001 cycles: 157441316 heartbeat IPC: 0.674415 cumulative IPC: 0.6819 (Simulation time: 0 hr 4 min 29 sec) 
Heartbeat CPU 0 instructions: 180000000 cycles: 172313285 heartbeat IPC: 0.672406 cumulative IPC: 0.680698 (Simulation time: 0 hr 4 min 48 sec) 
Heartbeat CPU 0 instructions: 190000002 cycles: 186749845 heartbeat IPC: 0.692686 cumulative IPC: 0.68201 (Simulation time: 0 hr 5 min 8 sec) 
Heartbeat CPU 0 instructions: 200000000 cycles: 201090981 heartbeat IPC: 0.697295 cumulative IPC: 0.683508 (Simulation time: 0 hr 5 min 27 sec) 
Heartbeat CPU 0 instructions: 210000003 cycles: 215678932 heartbeat IPC: 0.685497 cumulative IPC: 0.683688 (Simulation time: 0 hr 5 min 47 sec) 
Heartbeat CPU 0 instructions: 220000000 cycles: 230332560 heartbeat IPC: 0.682425 cumulative IPC: 0.683583 (Simulation time: 0 hr 6 min 6 sec) 
Heartbeat CPU 0 instructions: 230000001 cycles: 245390600 heartbeat IPC: 0.664097 cumulative IPC: 0.682043 (Simulation time: 0 hr 6 min 26 sec) 
Heartbeat CPU 0 instructions: 240000000 cycles: 260266242 heartbeat IPC: 0.67224 cumulative IPC: 0.681334 (Simulation time: 0 hr 6 min 46 sec) 
Heartbeat CPU 0 instructions: 250000003 cycles: 275046790 heartbeat IPC: 0.676565 cumulative IPC: 0.681014 (Simulation time: 0 hr 7 min 5 sec) 
Heartbeat CPU 0 instructions: 260000000 cycles: 290483514 heartbeat IPC: 0.647806 cumulative IPC: 0.678839 (Simulation time: 0 hr 7 min 24 sec) 
Heartbeat CPU 0 instructions: 270000003 cycles: 305058886 heartbeat IPC: 0.686089 cumulative IPC: 0.679261 (Simulation time: 0 hr 7 min 44 sec) 
Heartbeat CPU 0 instructions: 280000000 cycles: 319485681 heartbeat IPC: 0.693154 cumulative IPC: 0.680018 (Simulation time: 0 hr 8 min 3 sec) 
Heartbeat CPU 0 instructions: 290000002 cycles: 333892988 heartbeat IPC: 0.694092 cumulative IPC: 0.680745 (Simulation time: 0 hr 8 min 23 sec) 
Heartbeat CPU 0 instructions: 300000000 cycles: 349246784 heartbeat IPC: 0.651305 cumulative IPC: 0.67921 (Simulation time: 0 hr 8 min 43 sec) 
Heartbeat CPU 0 instructions: 310000000 cycles: 364173528 heartbeat IPC: 0.669938 cumulative IPC: 0.678762 (Simulation time: 0 hr 9 min 2 sec) 
Heartbeat CPU 0 instructions: 320000000 cycles: 378941734 heartbeat IPC: 0.67713 cumulative IPC: 0.678688 (Simulation time: 0 hr 9 min 21 sec) 
Heartbeat CPU 0 instructions: 330000000 cycles: 394646877 heartbeat IPC: 0.636734 cumulative IPC: 0.676749 (Simulation time: 0 hr 9 min 41 sec) 
Heartbeat CPU 0 instructions: 340000000 cycles: 409250238 heartbeat IPC: 0.684774 cumulative IPC: 0.67708 (Simulation time: 0 hr 10 min 0 sec) 
Heartbeat CPU 0 instructions: 350000000 cycles: 423826665 heartbeat IPC: 0.686039 cumulative IPC: 0.677434 (Simulation time: 0 hr 10 min 19 sec) 
Heartbeat CPU 0 instructions: 360000000 cycles: 438446717 heartbeat IPC: 0.683992 cumulative IPC: 0.677684 (Simulation time: 0 hr 10 min 39 sec) 
Heartbeat CPU 0 instructions: 370000002 cycles: 453819444 heartbeat IPC: 0.650503 cumulative IPC: 0.676637 (Simulation time: 0 hr 10 min 59 sec) 
Heartbeat CPU 0 instructions: 380000000 cycles: 468618877 heartbeat IPC: 0.675701 cumulative IPC: 0.676603 (Simulation time: 0 hr 11 min 18 sec) 
Heartbeat CPU 0 instructions: 390000003 cycles: 483523504 heartbeat IPC: 0.670933 cumulative IPC: 0.676406 (Simulation time: 0 hr 11 min 37 sec) 
Heartbeat CPU 0 instructions: 400000000 cycles: 499304803 heartbeat IPC: 0.633661 cumulative IPC: 0.674888 (Simulation time: 0 hr 11 min 57 sec) 
Heartbeat CPU 0 instructions: 410000001 cycles: 514282425 heartbeat IPC: 0.667663 cumulative IPC: 0.674653 (Simulation time: 0 hr 12 min 16 sec) 
Heartbeat CPU 0 instructions: 420000000 cycles: 528990539 heartbeat IPC: 0.679897 cumulative IPC: 0.674816 (Simulation time: 0 hr 12 min 35 sec) 
Heartbeat CPU 0 instructions: 430000000 cycles: 544353371 heartbeat IPC: 0.650922 cumulative IPC: 0.674066 (Simulation time: 0 hr 12 min 55 sec) 
Heartbeat CPU 0 instructions: 440000000 cycles: 559135172 heartbeat IPC: 0.676508 cumulative IPC: 0.674137 (Simulation time: 0 hr 13 min 13 sec) 
Heartbeat CPU 0 instructions: 450000000 cycles: 574053396 heartbeat IPC: 0.670321 cumulative IPC: 0.674028 (Simulation time: 0 hr 13 min 32 sec) 
Heartbeat CPU 0 instructions: 460000000 cycles: 589751654 heartbeat IPC: 0.637013 cumulative IPC: 0.672942 (Simulation time: 0 hr 13 min 52 sec) 
Heartbeat CPU 0 instructions: 470000000 cycles: 604780886 heartbeat IPC: 0.66537 cumulative IPC: 0.672735 (Simulation time: 0 hr 14 min 11 sec) 
Heartbeat CPU 0 instructions: 480000000 cycles: 619627395 heartbeat IPC: 0.673559 cumulative IPC: 0.672756 (Simulation time: 0 hr 14 min 30 sec) 
Heartbeat CPU 0 instructions: 490000002 cycles: 634856724 heartbeat IPC: 0.656628 cumulative IPC: 0.672333 (Simulation time: 0 hr 14 min 49 sec) 
Heartbeat CPU 0 instructions: 500000000 cycles: 649695159 heartbeat IPC: 0.673925 cumulative IPC: 0.672373 (Simulation time: 0 hr 15 min 8 sec) 
Heartbeat CPU 0 instructions: 510000001 cycles: 664755198 heartbeat IPC: 0.664009 cumulative IPC: 0.672166 (Simulation time: 0 hr 15 min 27 sec) 
Heartbeat CPU 0 instructions: 520000000 cycles: 680165811 heartbeat IPC: 0.648903 cumulative IPC: 0.671593 (Simulation time: 0 hr 15 min 46 sec) 
Heartbeat CPU 0 instructions: 530000001 cycles: 695542370 heartbeat IPC: 0.650341 cumulative IPC: 0.671083 (Simulation time: 0 hr 16 min 5 sec) 
Heartbeat CPU 0 instructions: 540000000 cycles: 710090383 heartbeat IPC: 0.687379 cumulative IPC: 0.671445 (Simulation time: 0 hr 16 min 24 sec) 
Heartbeat CPU 0 instructions: 550000001 cycles: 725299053 heartbeat IPC: 0.65752 cumulative IPC: 0.671129 (Simulation time: 0 hr 16 min 43 sec) 
Heartbeat CPU 0 instructions: 560000000 cycles: 740066504 heartbeat IPC: 0.677165 cumulative IPC: 0.671259 (Simulation time: 0 hr 17 min 2 sec) 
Heartbeat CPU 0 instructions: 570000002 cycles: 755161379 heartbeat IPC: 0.662477 cumulative IPC: 0.67107 (Simulation time: 0 hr 17 min 20 sec) 
Heartbeat CPU 0 instructions: 580000000 cycles: 770130114 heartbeat IPC: 0.668059 cumulative IPC: 0.671007 (Simulation time: 0 hr 17 min 39 sec) 
Heartbeat CPU 0 instructions: 590000001 cycles: 785079841 heartbeat IPC: 0.668909 cumulative IPC: 0.670964 (Simulation time: 0 hr 17 min 58 sec) 
Heartbeat CPU 0 instructions: 600000000 cycles: 799699280 heartbeat IPC: 0.684021 cumulative IPC: 0.67122 (Simulation time: 0 hr 18 min 17 sec) 
Finished CPU 0 instructions: 500000000 cycles: 744912384 cumulative IPC: 0.67122 (Simulation time: 0 hr 18 min 17 sec) 

CPU 0 Branch Prediction Accuracy: 93.7783% MPKI: 10.0718
Number of Branches: 80940586 Number of Mispredictions: 5035908
Number of LOAD Instructions: 184238101
Number of LOAD Instructions (ROI): 184238101
Number of STORE Instructions: 33143298
Number of STORE Instructions (ROI): 33143298
Total Destination Memory Operands: 33324321
Total Destination Memory Operands (ROI): 33324321
Total Source Memory Operands: 184238101
Total Source Memory Operands (ROI): 184238101
Number of DEPENDED LOADS: 4461255
Number of DEPENDED LOADS (ROI): 4461255
Number of SQ_ADDED: 33324292
Number of SQ_ADDED (ROI): 33324292
Number of LQ_ADDED: 184865684
Number of LQ_ADDED (ROI): 184865684
Number of Instructions read from trace: 600000256

ChampSim completed all CPUs

Region of Interest Statistics

CPU 0 cumulative IPC: 0.67122 instructions: 500000000 cycles: 744912384
ITLB TOTAL     ACCESS:   77745125  HIT:   77745125  MISS:          0
ITLB LOAD      ACCESS:   77745125  HIT:   77745125  MISS:          0
ITLB RFO       ACCESS:          0  HIT:          0  MISS:          0
ITLB PREFETCH  ACCESS:          0  HIT:          0  MISS:          0
ITLB WRITEBACK ACCESS:          0  HIT:          0  MISS:          0
ITLB PREFETCH  REQUESTED:          0  ISSUED:          0  USEFUL:          0  USELESS:          0
ITLB TOTAL MSHR MERGED:          0
ITLB LOAD MSHR MERGED:          0
ITLB RFO MSHR MERGED:          0
ITLB PREFETCH MSHR MERGED:          0
ITLB WRITEBACK MSHR MERGED:          0
ITLB TOTAL ACCESSES:   77745125 HITS:   77745125 MISSES:          0
ITLB LOAD ACCESSES:   77745125 HITS:   77745125 MISSES:          0
ITLB RFO ACCESSES:          0 HITS:          0 MISSES:          0
ITLB PREFETCH ACCESSES:          0 HITS:          0 MISSES:          0
ITLB WRITEBACK ACCESSES:          0 HITS:          0 MISSES:          0
ITLB RQ ACCESS:  500000245
ITLB RQ TO_CACHE:   77745125
ITLB RQ MERGED:  422255120
ITLB RQ FORWARD:          0
ITLB WQ ACCESS:          0
ITLB WQ TO_CACHE:          0
ITLB WQ MERGED:          0
ITLB WQ FORWARD:          0
DTLB TOTAL     ACCESS:   88436439  HIT:   87299589  MISS:    1136850
DTLB LOAD      ACCESS:   66309842  HIT:   65177232  MISS:    1132610
DTLB RFO       ACCESS:   22126597  HIT:   22122357  MISS:       4240
DTLB PREFETCH  ACCESS:          0  HIT:          0  MISS:          0
DTLB WRITEBACK ACCESS:          0  HIT:          0  MISS:          0
DTLB PREFETCH  REQUESTED:          0  ISSUED:          0  USEFUL:          0  USELESS:          0
DTLB TOTAL MSHR MERGED:     135521
DTLB LOAD MSHR MERGED:     133704
DTLB RFO MSHR MERGED:       1817
DTLB PREFETCH MSHR MERGED:          0
DTLB WRITEBACK MSHR MERGED:          0
DTLB TOTAL ACCESSES:   88571960 HITS:   87299589 MISSES:    1272371
DTLB LOAD ACCESSES:   66443546 HITS:   65177232 MISSES:    1266314
DTLB RFO ACCESSES:   22128414 HITS:   22122357 MISSES:       6057
DTLB PREFETCH ACCESSES:          0 HITS:          0 MISSES:          0
DTLB WRITEBACK ACCESSES:          0 HITS:          0 MISSES:          0
DTLB RQ ACCESS:  177579455
DTLB RQ TO_CACHE:   88571960
DTLB RQ MERGED:   89007495
DTLB RQ FORWARD:          0
DTLB WQ ACCESS:          0
DTLB WQ TO_CACHE:          0
DTLB WQ MERGED:          0
DTLB WQ FORWARD:          0
L1D TOTAL     ACCESS:  142099255  HIT:  136540197  MISS:    5559058
L1D LOAD      ACCESS:   61384090  HIT:   58280212  MISS:    3103878
L1D RFO       ACCESS:   27669079  HIT:   27587270  MISS:      81809
L1D PREFETCH  ACCESS:   53046086  HIT:   50672715  MISS:    2373371
L1D WRITEBACK ACCESS:          0  HIT:          0  MISS:          0
L1D PREFETCH  REQUESTED:   61669775  ISSUED:   60751614  USEFUL:     666483  USELESS:    1706893
L1D TOTAL MSHR MERGED:    1179493
L1D LOAD MSHR MERGED:     383924
L1D RFO MSHR MERGED:     164001
L1D PREFETCH MSHR MERGED:     631568
L1D WRITEBACK MSHR MERGED:          0
L1D TOTAL ACCESSES:  143376364 HITS:  136637813 MISSES:    6738551
L1D LOAD ACCESSES:   61669786 HITS:   58280223 MISSES:    3389563
L1D RFO ACCESSES:   27829288 HITS:   27587270 MISSES:     242018
L1D PREFETCH ACCESSES:   53877290 HITS:   50770320 MISSES:    3106970
L1D WRITEBACK ACCESSES:          0 HITS:          0 MISSES:          0
L1D RQ ACCESS:  149746489
L1D RQ TO_CACHE:   61669775
L1D RQ MERGED:   88076703
L1D RQ FORWARD:          0
L1D WQ ACCESS:   27832966
L1D WQ TO_CACHE:   27829288
L1D WQ MERGED:       3678
L1D WQ FORWARD:      97616
L1I TOTAL     ACCESS:   96222404  HIT:   96063136  MISS:     159268
L1I LOAD      ACCESS:   96222404  HIT:   96063136  MISS:     159268
L1I RFO       ACCESS:          0  HIT:          0  MISS:          0
L1I PREFETCH  ACCESS:          0  HIT:          0  MISS:          0
L1I WRITEBACK ACCESS:          0  HIT:          0  MISS:          0
L1I PREFETCH  REQUESTED:          0  ISSUED:          0  USEFUL:          0  USELESS:          0
L1I TOTAL MSHR MERGED:     130260
L1I LOAD MSHR MERGED:     130260
L1I RFO MSHR MERGED:          0
L1I PREFETCH MSHR MERGED:          0
L1I WRITEBACK MSHR MERGED:          0
L1I TOTAL ACCESSES:   96352664 HITS:   96063136 MISSES:     289528
L1I LOAD ACCESSES:   96352664 HITS:   96063136 MISSES:     289528
L1I RFO ACCESSES:          0 HITS:          0 MISSES:          0
L1I PREFETCH ACCESSES:          0 HITS:          0 MISSES:          0
L1I WRITEBACK ACCESSES:          0 HITS:          0 MISSES:          0
L1I RQ ACCESS:  500000245
L1I RQ TO_CACHE:   96352664
L1I RQ MERGED:  403647581
L1I RQ FORWARD:          0
L1I WQ ACCESS:          0
L1I WQ TO_CACHE:          0
L1I WQ MERGED:          0
L1I WQ FORWARD:          0
L2C TOTAL     ACCESS:    5911356  HIT:    3062678  MISS:    2848678
L2C LOAD      ACCESS:    3164897  HIT:    1583131  MISS:    1581766
L2C RFO       ACCESS:      77943  HIT:      45089  MISS:      32854
L2C PREFETCH  ACCESS:    2524986  HIT:    1296511  MISS:    1228475
L2C WRITEBACK ACCESS:     143530  HIT:     137947  MISS:       5583
L2C PREFETCH  REQUESTED:      52724  ISSUED:      52724  USEFUL:      18788  USELESS:    1209727
L2C TOTAL MSHR MERGED:       2209
L2C LOAD MSHR MERGED:        822
L2C RFO MSHR MERGED:          0
L2C PREFETCH MSHR MERGED:       1387
L2C WRITEBACK MSHR MERGED:          0
L2C TOTAL ACCESSES:    5913654 HITS:    3062762 MISSES:    2850892
L2C LOAD ACCESSES:    3164907 HITS:    1583141 MISSES:    1581766
L2C RFO ACCESSES:      78017 HITS:      45163 MISSES:      32854
L2C PREFETCH ACCESSES:    2527200 HITS:    1296511 MISSES:    1230689
L2C WRITEBACK ACCESSES:     143530 HITS:     137947 MISSES:       5583
L2C RQ ACCESS:    3242924
L2C RQ TO_CACHE:    3242840
L2C RQ MERGED:          0
L2C RQ FORWARD:          0
L2C WQ ACCESS:     143530
L2C WQ TO_CACHE:     143530
L2C WQ MERGED:          0
L2C WQ FORWARD:         84
LLC TOTAL     ACCESS:    2892635  HIT:    1889472  MISS:    1003163
LLC LOAD      ACCESS:    1580944  HIT:    1150284  MISS:     430660
LLC RFO       ACCESS:      32844  HIT:      32670  MISS:        174
LLC PREFETCH  ACCESS:    1229302  HIT:     657165  MISS:     572137
LLC WRITEBACK ACCESS:      49545  HIT:      49353  MISS:        192
LLC PREFETCH  REQUESTED:          0  ISSUED:          0  USEFUL:       3114  USELESS:     568971
LLC TOTAL MSHR MERGED:          0
LLC LOAD MSHR MERGED:          0
LLC RFO MSHR MERGED:          0
LLC PREFETCH MSHR MERGED:          0
LLC WRITEBACK MSHR MERGED:          0
LLC TOTAL ACCESSES:    2892645 HITS:    1889482 MISSES:    1003163
LLC LOAD ACCESSES:    1580944 HITS:    1150284 MISSES:     430660
LLC RFO ACCESSES:      32854 HITS:      32680 MISSES:        174
LLC PREFETCH ACCESSES:    1229302 HITS:     657165 MISSES:     572137
LLC WRITEBACK ACCESSES:      49545 HITS:      49353 MISSES:        192
LLC 0 RQ ACCESS:    1613798
LLC 0 RQ TO_CACHE:    1613788
LLC 0 RQ MERGED:          0
LLC 0 RQ FORWARD:          0
LLC WQ ACCESS:      49545
LLC WQ TO_CACHE:      49545
LLC WQ MERGED:          0
LLC WQ FORWARD:         10
Major fault: 0 Minor fault: 8460
CPU 0 L1D next line prefetcher final stats
CPU 0 L2C PC-based stride prefetcher final stats
All Misses: 1226052
All Hits: 2203178
SD Algo Stats - Switches: 0 SRR-Repls: 500659 BRR-Repls: 0

DRAM Statistics
 CHANNEL 0
 RQ ROW_BUFFER_HIT:     337038  ROW_BUFFER_MISS:     665928
 DBUS_CONGESTED:     316136
 WQ ROW_BUFFER_HIT:         44  ROW_BUFFER_MISS:        467  FULL:          0

 AVG_CONGESTED_CYCLE: 12
LOADS RETIRED: 153532848
INSTR RETIRED: 500000000
