
*** ChampSim Multicore Out-of-Order Simulator ***

Warmup Instructions: 100000000
Simulation Instructions: 500000000
Number of CPUs: 1
LLC sets: 2048
LLC ways: 16
Clean RRIP Policies: 1213030112130301 Dirty RRIP Policies: 2203130122031301 PSEL Width: 10 Track Set: 4294967295 PSEL Mask: 1 Demote Mask: 3040201030402010DS Algo: 0Window size: 0
Off-chip DRAM Size: 4096 MB Channels: 1 Width: 64-bit Data Rate: 1600 MT/s

CPU 0 runs /mnt/beegfs/iconst01/spec2017/Xalancbmk.trace.gz
NOT SORTED
TRACE STRING: /mnt/beegfs/iconst01/spec2017/Xalancbmk.trace.gz
SORTED
TRACE STRING: /mnt/beegfs/iconst01/spec2017/Xalancbmk.trace.gz
INITIAL
TRACE STRING: /mnt/beegfs/iconst01/spec2017/Xalancbmk.trace.gz

champsim_seed used: 913

CPU 0 L1D next line prefetcher
CPU 0 L2C IP-based stride prefetcher
Initialize DRRIP state
Assign rand_sets[0]: 454  LLC: 2048
rand_sets[0]: 454
Assign rand_sets[1]: 1662  LLC: 2048
rand_sets[1]: 1662
Assign rand_sets[2]: 1921  LLC: 2048
rand_sets[2]: 1921
Assign rand_sets[3]: 1131  LLC: 2048
rand_sets[3]: 1131
Assign rand_sets[4]: 331  LLC: 2048
rand_sets[4]: 331
Assign rand_sets[5]: 1531  LLC: 2048
rand_sets[5]: 1531
Assign rand_sets[6]: 482  LLC: 2048
rand_sets[6]: 482
Assign rand_sets[7]: 1275  LLC: 2048
rand_sets[7]: 1275
Assign rand_sets[8]: 1876  LLC: 2048
rand_sets[8]: 1876
Assign rand_sets[9]: 2038  LLC: 2048
rand_sets[9]: 2038
Assign rand_sets[10]: 701  LLC: 2048
rand_sets[10]: 701
Assign rand_sets[11]: 479  LLC: 2048
rand_sets[11]: 479
Assign rand_sets[12]: 892  LLC: 2048
rand_sets[12]: 892
Assign rand_sets[13]: 1820  LLC: 2048
rand_sets[13]: 1820
Assign rand_sets[14]: 1505  LLC: 2048
rand_sets[14]: 1505
Assign rand_sets[15]: 1159  LLC: 2048
rand_sets[15]: 1159
Assign rand_sets[16]: 513  LLC: 2048
rand_sets[16]: 513
Assign rand_sets[17]: 703  LLC: 2048
rand_sets[17]: 703
Assign rand_sets[18]: 561  LLC: 2048
rand_sets[18]: 561
Assign rand_sets[19]: 990  LLC: 2048
rand_sets[19]: 990
Assign rand_sets[20]: 342  LLC: 2048
rand_sets[20]: 342
Assign rand_sets[21]: 882  LLC: 2048
rand_sets[21]: 882
Assign rand_sets[22]: 15  LLC: 2048
rand_sets[22]: 15
Assign rand_sets[23]: 71  LLC: 2048
rand_sets[23]: 71
Assign rand_sets[24]: 1127  LLC: 2048
rand_sets[24]: 1127
Assign rand_sets[25]: 1382  LLC: 2048
rand_sets[25]: 1382
Assign rand_sets[26]: 647  LLC: 2048
rand_sets[26]: 647
Assign rand_sets[27]: 857  LLC: 2048
rand_sets[27]: 857
Assign rand_sets[28]: 1450  LLC: 2048
rand_sets[28]: 1450
Assign rand_sets[29]: 1160  LLC: 2048
rand_sets[29]: 1160
Assign rand_sets[30]: 1852  LLC: 2048
rand_sets[30]: 1852
Assign rand_sets[31]: 1881  LLC: 2048
rand_sets[31]: 1881
Assign rand_sets[32]: 1770  LLC: 2048
rand_sets[32]: 1770
Assign rand_sets[33]: 1622  LLC: 2048
rand_sets[33]: 1622
Assign rand_sets[34]: 275  LLC: 2048
rand_sets[34]: 275
Assign rand_sets[35]: 635  LLC: 2048
rand_sets[35]: 635
Assign rand_sets[36]: 466  LLC: 2048
rand_sets[36]: 466
Assign rand_sets[37]: 1413  LLC: 2048
rand_sets[37]: 1413
Assign rand_sets[38]: 417  LLC: 2048
rand_sets[38]: 417
Assign rand_sets[39]: 472  LLC: 2048
rand_sets[39]: 472
Assign rand_sets[40]: 1340  LLC: 2048
rand_sets[40]: 1340
Assign rand_sets[41]: 852  LLC: 2048
rand_sets[41]: 852
Assign rand_sets[42]: 1365  LLC: 2048
rand_sets[42]: 1365
Assign rand_sets[43]: 47  LLC: 2048
rand_sets[43]: 47
Assign rand_sets[44]: 823  LLC: 2048
rand_sets[44]: 823
Assign rand_sets[45]: 686  LLC: 2048
rand_sets[45]: 686
Assign rand_sets[46]: 1637  LLC: 2048
rand_sets[46]: 1637
Assign rand_sets[47]: 1115  LLC: 2048
rand_sets[47]: 1115
Assign rand_sets[48]: 986  LLC: 2048
rand_sets[48]: 986
Assign rand_sets[49]: 258  LLC: 2048
rand_sets[49]: 258
Assign rand_sets[50]: 633  LLC: 2048
rand_sets[50]: 633
Assign rand_sets[51]: 920  LLC: 2048
rand_sets[51]: 920
Assign rand_sets[52]: 204  LLC: 2048
rand_sets[52]: 204
Assign rand_sets[53]: 227  LLC: 2048
rand_sets[53]: 227
Assign rand_sets[54]: 1818  LLC: 2048
rand_sets[54]: 1818
Assign rand_sets[55]: 886  LLC: 2048
rand_sets[55]: 886
Assign rand_sets[56]: 1422  LLC: 2048
rand_sets[56]: 1422
Assign rand_sets[57]: 607  LLC: 2048
rand_sets[57]: 607
Assign rand_sets[58]: 217  LLC: 2048
rand_sets[58]: 217
Assign rand_sets[59]: 1945  LLC: 2048
rand_sets[59]: 1945
Assign rand_sets[60]: 143  LLC: 2048
rand_sets[60]: 143
Assign rand_sets[61]: 1311  LLC: 2048
rand_sets[61]: 1311
Assign rand_sets[62]: 319  LLC: 2048
rand_sets[62]: 319
Assign rand_sets[63]: 1846  LLC: 2048
rand_sets[63]: 1846
 CLEAN-RRIP-POLICY-1: 1-2-1-3-0-3-0-1- CLEAN-RRIP-POLICY-2: 1-2-1-3-0-3-0-1-
 DIRTY-RRIP-POLICY-1: 2-2-0-3-1-3-0-1- DIRTY-RRIP-POLICY-2: 2-2-0-3-1-3-0-1-
 PSEL width: 10
Heartbeat CPU 0 instructions: 10000003 cycles: 4586200 heartbeat IPC: 2.18045 cumulative IPC: 2.18045 (Simulation time: 0 hr 0 min 15 sec) 
Heartbeat CPU 0 instructions: 20000000 cycles: 8977063 heartbeat IPC: 2.27746 cumulative IPC: 2.2279 (Simulation time: 0 hr 0 min 28 sec) 
Heartbeat CPU 0 instructions: 30000000 cycles: 13386361 heartbeat IPC: 2.26793 cumulative IPC: 2.24109 (Simulation time: 0 hr 0 min 42 sec) 
Heartbeat CPU 0 instructions: 40000000 cycles: 18011582 heartbeat IPC: 2.16206 cumulative IPC: 2.22079 (Simulation time: 0 hr 0 min 57 sec) 
Heartbeat CPU 0 instructions: 50000002 cycles: 22423440 heartbeat IPC: 2.26662 cumulative IPC: 2.22981 (Simulation time: 0 hr 1 min 11 sec) 
Heartbeat CPU 0 instructions: 60000000 cycles: 27075217 heartbeat IPC: 2.14972 cumulative IPC: 2.21605 (Simulation time: 0 hr 1 min 26 sec) 
Heartbeat CPU 0 instructions: 70000003 cycles: 31478155 heartbeat IPC: 2.27121 cumulative IPC: 2.22376 (Simulation time: 0 hr 1 min 40 sec) 
Heartbeat CPU 0 instructions: 80000000 cycles: 35902366 heartbeat IPC: 2.26029 cumulative IPC: 2.22827 (Simulation time: 0 hr 1 min 53 sec) 
Heartbeat CPU 0 instructions: 90000002 cycles: 40359204 heartbeat IPC: 2.24374 cumulative IPC: 2.22997 (Simulation time: 0 hr 2 min 7 sec) 
Heartbeat CPU 0 instructions: 100000000 cycles: 44833452 heartbeat IPC: 2.23501 cumulative IPC: 2.23048 (Simulation time: 0 hr 2 min 21 sec) 

Warmup complete CPU 0 instructions: 100000003 cycles: 44833453 (Simulation time: 0 hr 2 min 21 sec) 

Heartbeat CPU 0 instructions: 110000000 cycles: 71344883 heartbeat IPC: 0.377196 cumulative IPC: 0.377196 (Simulation time: 0 hr 2 min 51 sec) 
Heartbeat CPU 0 instructions: 120000000 cycles: 99535198 heartbeat IPC: 0.354732 cumulative IPC: 0.365619 (Simulation time: 0 hr 3 min 22 sec) 
Heartbeat CPU 0 instructions: 130000000 cycles: 123068292 heartbeat IPC: 0.424933 cumulative IPC: 0.383461 (Simulation time: 0 hr 3 min 49 sec) 
Heartbeat CPU 0 instructions: 140000000 cycles: 145612122 heartbeat IPC: 0.44358 cumulative IPC: 0.396909 (Simulation time: 0 hr 4 min 16 sec) 
Heartbeat CPU 0 instructions: 150000000 cycles: 170020231 heartbeat IPC: 0.4097 cumulative IPC: 0.399403 (Simulation time: 0 hr 4 min 44 sec) 
Heartbeat CPU 0 instructions: 160000000 cycles: 194806598 heartbeat IPC: 0.403448 cumulative IPC: 0.400072 (Simulation time: 0 hr 5 min 13 sec) 
Heartbeat CPU 0 instructions: 170000002 cycles: 216069783 heartbeat IPC: 0.470297 cumulative IPC: 0.408792 (Simulation time: 0 hr 5 min 39 sec) 
Heartbeat CPU 0 instructions: 180000000 cycles: 239050366 heartbeat IPC: 0.43515 cumulative IPC: 0.411911 (Simulation time: 0 hr 6 min 6 sec) 
Heartbeat CPU 0 instructions: 190000000 cycles: 258117923 heartbeat IPC: 0.524451 cumulative IPC: 0.421972 (Simulation time: 0 hr 6 min 31 sec) 
Heartbeat CPU 0 instructions: 200000000 cycles: 279396876 heartbeat IPC: 0.469948 cumulative IPC: 0.426324 (Simulation time: 0 hr 6 min 57 sec) 
Heartbeat CPU 0 instructions: 210000001 cycles: 305702403 heartbeat IPC: 0.380148 cumulative IPC: 0.421668 (Simulation time: 0 hr 7 min 26 sec) 
Heartbeat CPU 0 instructions: 220000000 cycles: 331507532 heartbeat IPC: 0.38752 cumulative IPC: 0.418594 (Simulation time: 0 hr 7 min 55 sec) 
Heartbeat CPU 0 instructions: 230000000 cycles: 353728340 heartbeat IPC: 0.450029 cumulative IPC: 0.420855 (Simulation time: 0 hr 8 min 22 sec) 
Heartbeat CPU 0 instructions: 240000000 cycles: 379319672 heartbeat IPC: 0.390757 cumulative IPC: 0.418552 (Simulation time: 0 hr 8 min 51 sec) 
Heartbeat CPU 0 instructions: 250000001 cycles: 404170720 heartbeat IPC: 0.402398 cumulative IPC: 0.417435 (Simulation time: 0 hr 9 min 19 sec) 
Heartbeat CPU 0 instructions: 260000000 cycles: 425196286 heartbeat IPC: 0.475611 cumulative IPC: 0.420651 (Simulation time: 0 hr 9 min 45 sec) 
Heartbeat CPU 0 instructions: 270000000 cycles: 447183283 heartbeat IPC: 0.454814 cumulative IPC: 0.422518 (Simulation time: 0 hr 10 min 11 sec) 
Heartbeat CPU 0 instructions: 280000000 cycles: 474663767 heartbeat IPC: 0.363895 cumulative IPC: 0.41877 (Simulation time: 0 hr 10 min 42 sec) 
Heartbeat CPU 0 instructions: 290000000 cycles: 495893918 heartbeat IPC: 0.471028 cumulative IPC: 0.42123 (Simulation time: 0 hr 11 min 8 sec) 
Heartbeat CPU 0 instructions: 300000000 cycles: 516547528 heartbeat IPC: 0.484177 cumulative IPC: 0.423986 (Simulation time: 0 hr 11 min 33 sec) 
Heartbeat CPU 0 instructions: 310000000 cycles: 535842858 heartbeat IPC: 0.51826 cumulative IPC: 0.42769 (Simulation time: 0 hr 11 min 58 sec) 
Heartbeat CPU 0 instructions: 320000000 cycles: 565036296 heartbeat IPC: 0.342543 cumulative IPC: 0.422912 (Simulation time: 0 hr 12 min 29 sec) 
Heartbeat CPU 0 instructions: 330000001 cycles: 584412538 heartbeat IPC: 0.516096 cumulative IPC: 0.426258 (Simulation time: 0 hr 12 min 54 sec) 
Heartbeat CPU 0 instructions: 340000000 cycles: 603787964 heartbeat IPC: 0.516118 cumulative IPC: 0.429373 (Simulation time: 0 hr 13 min 18 sec) 
Heartbeat CPU 0 instructions: 350000002 cycles: 628617448 heartbeat IPC: 0.402747 cumulative IPC: 0.428241 (Simulation time: 0 hr 13 min 47 sec) 
Heartbeat CPU 0 instructions: 360000000 cycles: 650905177 heartbeat IPC: 0.448677 cumulative IPC: 0.428992 (Simulation time: 0 hr 14 min 13 sec) 
Heartbeat CPU 0 instructions: 370000001 cycles: 676004090 heartbeat IPC: 0.398424 cumulative IPC: 0.427777 (Simulation time: 0 hr 14 min 41 sec) 
Heartbeat CPU 0 instructions: 380000000 cycles: 698987394 heartbeat IPC: 0.435098 cumulative IPC: 0.428034 (Simulation time: 0 hr 15 min 8 sec) 
Heartbeat CPU 0 instructions: 390000000 cycles: 717750729 heartbeat IPC: 0.532954 cumulative IPC: 0.430959 (Simulation time: 0 hr 15 min 33 sec) 
Heartbeat CPU 0 instructions: 400000000 cycles: 737623385 heartbeat IPC: 0.503204 cumulative IPC: 0.433032 (Simulation time: 0 hr 15 min 58 sec) 
Heartbeat CPU 0 instructions: 410000001 cycles: 763504544 heartbeat IPC: 0.386382 cumulative IPC: 0.431352 (Simulation time: 0 hr 16 min 27 sec) 
Heartbeat CPU 0 instructions: 420000000 cycles: 788092589 heartbeat IPC: 0.406702 cumulative IPC: 0.430536 (Simulation time: 0 hr 16 min 55 sec) 
Heartbeat CPU 0 instructions: 430000002 cycles: 809464103 heartbeat IPC: 0.467913 cumulative IPC: 0.431581 (Simulation time: 0 hr 17 min 21 sec) 
Heartbeat CPU 0 instructions: 440000000 cycles: 829884058 heartbeat IPC: 0.489717 cumulative IPC: 0.433093 (Simulation time: 0 hr 17 min 46 sec) 
Heartbeat CPU 0 instructions: 450000002 cycles: 856370328 heartbeat IPC: 0.377554 cumulative IPC: 0.43128 (Simulation time: 0 hr 18 min 15 sec) 
Heartbeat CPU 0 instructions: 460000000 cycles: 882240477 heartbeat IPC: 0.386546 cumulative IPC: 0.429898 (Simulation time: 0 hr 18 min 44 sec) 
Heartbeat CPU 0 instructions: 470000002 cycles: 908129175 heartbeat IPC: 0.386269 cumulative IPC: 0.42859 (Simulation time: 0 hr 19 min 13 sec) 
Heartbeat CPU 0 instructions: 480000000 cycles: 932803705 heartbeat IPC: 0.405276 cumulative IPC: 0.427942 (Simulation time: 0 hr 19 min 41 sec) 
Heartbeat CPU 0 instructions: 490000000 cycles: 953675172 heartbeat IPC: 0.479123 cumulative IPC: 0.429118 (Simulation time: 0 hr 20 min 7 sec) 
Heartbeat CPU 0 instructions: 500000000 cycles: 978429413 heartbeat IPC: 0.403971 cumulative IPC: 0.428451 (Simulation time: 0 hr 20 min 35 sec) 
Heartbeat CPU 0 instructions: 510000000 cycles: 1003469191 heartbeat IPC: 0.399365 cumulative IPC: 0.427691 (Simulation time: 0 hr 21 min 3 sec) 
Heartbeat CPU 0 instructions: 520000000 cycles: 1024621832 heartbeat IPC: 0.472754 cumulative IPC: 0.428664 (Simulation time: 0 hr 21 min 29 sec) 
Heartbeat CPU 0 instructions: 530000003 cycles: 1050163447 heartbeat IPC: 0.391518 cumulative IPC: 0.42772 (Simulation time: 0 hr 21 min 57 sec) 
Heartbeat CPU 0 instructions: 540000000 cycles: 1073002283 heartbeat IPC: 0.437851 cumulative IPC: 0.427945 (Simulation time: 0 hr 22 min 24 sec) 
Heartbeat CPU 0 instructions: 550000000 cycles: 1098265956 heartbeat IPC: 0.395825 cumulative IPC: 0.427175 (Simulation time: 0 hr 22 min 53 sec) 
Heartbeat CPU 0 instructions: 560000000 cycles: 1121939172 heartbeat IPC: 0.422418 cumulative IPC: 0.42707 (Simulation time: 0 hr 23 min 20 sec) 
Heartbeat CPU 0 instructions: 570000002 cycles: 1145354859 heartbeat IPC: 0.427064 cumulative IPC: 0.42707 (Simulation time: 0 hr 23 min 47 sec) 
Heartbeat CPU 0 instructions: 580000000 cycles: 1166521515 heartbeat IPC: 0.472441 cumulative IPC: 0.427926 (Simulation time: 0 hr 24 min 13 sec) 
Heartbeat CPU 0 instructions: 590000001 cycles: 1190404055 heartbeat IPC: 0.418716 cumulative IPC: 0.427734 (Simulation time: 0 hr 24 min 40 sec) 
Heartbeat CPU 0 instructions: 600000000 cycles: 1209622456 heartbeat IPC: 0.520335 cumulative IPC: 0.429262 (Simulation time: 0 hr 25 min 5 sec) 
Finished CPU 0 instructions: 500000000 cycles: 1164789024 cumulative IPC: 0.429262 (Simulation time: 0 hr 25 min 5 sec) 

CPU 0 Branch Prediction Accuracy: 99.5434% MPKI: 1.33026
Number of Branches: 145676990 Number of Mispredictions: 665128
Number of LOAD Instructions: 188863207
Number of LOAD Instructions (ROI): 188863207
Number of STORE Instructions: 7332002
Number of STORE Instructions (ROI): 7332002
Total Destination Memory Operands: 10029285
Total Destination Memory Operands (ROI): 10029285
Total Source Memory Operands: 188863207
Total Source Memory Operands (ROI): 188863207
Number of DEPENDED LOADS: 291891
Number of DEPENDED LOADS (ROI): 291891
Number of SQ_ADDED: 10029285
Number of SQ_ADDED (ROI): 10029285
Number of LQ_ADDED: 200683185
Number of LQ_ADDED (ROI): 200683185
Number of Instructions read from trace: 600000010

ChampSim completed all CPUs

Region of Interest Statistics

CPU 0 cumulative IPC: 0.429262 instructions: 500000000 cycles: 1164789024
ITLB TOTAL     ACCESS:  145805527  HIT:  145766000  MISS:      39527
ITLB LOAD      ACCESS:  145805527  HIT:  145766000  MISS:      39527
ITLB RFO       ACCESS:          0  HIT:          0  MISS:          0
ITLB PREFETCH  ACCESS:          0  HIT:          0  MISS:          0
ITLB WRITEBACK ACCESS:          0  HIT:          0  MISS:          0
ITLB PREFETCH  REQUESTED:          0  ISSUED:          0  USEFUL:          0  USELESS:          0
ITLB TOTAL MSHR MERGED:      57383
ITLB LOAD MSHR MERGED:      57383
ITLB RFO MSHR MERGED:          0
ITLB PREFETCH MSHR MERGED:          0
ITLB WRITEBACK MSHR MERGED:          0
ITLB TOTAL ACCESSES:  145862910 HITS:  145766000 MISSES:      96910
ITLB LOAD ACCESSES:  145862910 HITS:  145766000 MISSES:      96910
ITLB RFO ACCESSES:          0 HITS:          0 MISSES:          0
ITLB PREFETCH ACCESSES:          0 HITS:          0 MISSES:          0
ITLB WRITEBACK ACCESSES:          0 HITS:          0 MISSES:          0
ITLB RQ ACCESS:  499999754
ITLB RQ TO_CACHE:  145862910
ITLB RQ MERGED:  354136844
ITLB RQ FORWARD:          0
ITLB WQ ACCESS:          0
ITLB WQ TO_CACHE:          0
ITLB WQ MERGED:          0
ITLB WQ FORWARD:          0
DTLB TOTAL     ACCESS:  135188173  HIT:  134019812  MISS:    1168361
DTLB LOAD      ACCESS:  127147236  HIT:  125987978  MISS:    1159258
DTLB RFO       ACCESS:    8040937  HIT:    8031834  MISS:       9103
DTLB PREFETCH  ACCESS:          0  HIT:          0  MISS:          0
DTLB WRITEBACK ACCESS:          0  HIT:          0  MISS:          0
DTLB PREFETCH  REQUESTED:          0  ISSUED:          0  USEFUL:          0  USELESS:          0
DTLB TOTAL MSHR MERGED:     581561
DTLB LOAD MSHR MERGED:     577181
DTLB RFO MSHR MERGED:       4380
DTLB PREFETCH MSHR MERGED:          0
DTLB WRITEBACK MSHR MERGED:          0
DTLB TOTAL ACCESSES:  135769734 HITS:  134019812 MISSES:    1749922
DTLB LOAD ACCESSES:  127724417 HITS:  125987978 MISSES:    1736439
DTLB RFO ACCESSES:    8045317 HITS:    8031834 MISSES:      13483
DTLB PREFETCH ACCESSES:          0 HITS:          0 MISSES:          0
DTLB WRITEBACK ACCESSES:          0 HITS:          0 MISSES:          0
DTLB RQ ACCESS:  165762445
DTLB RQ TO_CACHE:  135769734
DTLB RQ MERGED:   29992711
DTLB RQ FORWARD:          0
DTLB WQ ACCESS:          0
DTLB WQ TO_CACHE:          0
DTLB WQ MERGED:          0
DTLB WQ FORWARD:          0
L1D TOTAL     ACCESS:  156947571  HIT:  139631886  MISS:   17315685
L1D LOAD      ACCESS:   89975812  HIT:   78831836  MISS:   11143976
L1D RFO       ACCESS:    8497464  HIT:    8410264  MISS:      87200
L1D PREFETCH  ACCESS:   58474295  HIT:   52389786  MISS:    6084509
L1D WRITEBACK ACCESS:          0  HIT:          0  MISS:          0
L1D PREFETCH  REQUESTED:   93716512  ISSUED:   92849017  USEFUL:    2003081  USELESS:    4081502
L1D TOTAL MSHR MERGED:   15109484
L1D LOAD MSHR MERGED:    7140470
L1D RFO MSHR MERGED:     127172
L1D PREFETCH MSHR MERGED:    7841842
L1D WRITEBACK MSHR MERGED:          0
L1D TOTAL ACCESSES:  172057215 HITS:  139632045 MISSES:   32425170
L1D LOAD ACCESSES:   93716515 HITS:   78831839 MISSES:   14884676
L1D RFO ACCESSES:    8622747 HITS:    8410264 MISSES:     212483
L1D PREFETCH ACCESSES:   69717953 HITS:   52389942 MISSES:   17328011
L1D WRITEBACK ACCESSES:          0 HITS:          0 MISSES:          0
L1D RQ ACCESS:  157123239
L1D RQ TO_CACHE:   93716512
L1D RQ MERGED:   63406724
L1D RQ FORWARD:          0
L1D WQ ACCESS:    8639208
L1D WQ TO_CACHE:    8622747
L1D WQ MERGED:      16461
L1D WQ FORWARD:        159
L1I TOTAL     ACCESS:  178794192  HIT:  178130529  MISS:     663663
L1I LOAD      ACCESS:  178794192  HIT:  178130529  MISS:     663663
L1I RFO       ACCESS:          0  HIT:          0  MISS:          0
L1I PREFETCH  ACCESS:          0  HIT:          0  MISS:          0
L1I WRITEBACK ACCESS:          0  HIT:          0  MISS:          0
L1I PREFETCH  REQUESTED:          0  ISSUED:          0  USEFUL:          0  USELESS:          0
L1I TOTAL MSHR MERGED:     597781
L1I LOAD MSHR MERGED:     597781
L1I RFO MSHR MERGED:          0
L1I PREFETCH MSHR MERGED:          0
L1I WRITEBACK MSHR MERGED:          0
L1I TOTAL ACCESSES:  179391973 HITS:  178130529 MISSES:    1261444
L1I LOAD ACCESSES:  179391973 HITS:  178130529 MISSES:    1261444
L1I RFO ACCESSES:          0 HITS:          0 MISSES:          0
L1I PREFETCH ACCESSES:          0 HITS:          0 MISSES:          0
L1I WRITEBACK ACCESSES:          0 HITS:          0 MISSES:          0
L1I RQ ACCESS:  499999757
L1I RQ TO_CACHE:  179391973
L1I RQ MERGED:  320607784
L1I RQ FORWARD:          0
L1I WQ ACCESS:          0
L1I WQ TO_CACHE:          0
L1I WQ MERGED:          0
L1I WQ FORWARD:          0
L2C TOTAL     ACCESS:   19276653  HIT:    2057202  MISS:   17219451
L2C LOAD      ACCESS:    8407765  HIT:     951102  MISS:    7456663
L2C RFO       ACCESS:      85287  HIT:      53728  MISS:      31559
L2C PREFETCH  ACCESS:   10498596  HIT:     770177  MISS:    9728419
L2C WRITEBACK ACCESS:     285005  HIT:     282195  MISS:       2810
L2C PREFETCH  REQUESTED:    1016863  ISSUED:    1016863  USEFUL:     274769  USELESS:    9452745
L2C TOTAL MSHR MERGED:       1074
L2C LOAD MSHR MERGED:        224
L2C RFO MSHR MERGED:          1
L2C PREFETCH MSHR MERGED:        849
L2C WRITEBACK MSHR MERGED:          0
L2C TOTAL ACCESSES:   19279957 HITS:    2057396 MISSES:   17222561
L2C LOAD ACCESSES:    8407869 HITS:     951206 MISSES:    7456663
L2C RFO ACCESSES:      85311 HITS:      53752 MISSES:      31559
L2C PREFETCH ACCESSES:   10501772 HITS:     770243 MISSES:    9731529
L2C WRITEBACK ACCESSES:     285005 HITS:     282195 MISSES:       2810
L2C RQ ACCESS:    8493180
L2C RQ TO_CACHE:    8493052
L2C RQ MERGED:          0
L2C RQ FORWARD:          0
L2C WQ ACCESS:     285005
L2C WQ TO_CACHE:     285005
L2C WQ MERGED:          0
L2C WQ FORWARD:        194
LLC TOTAL     ACCESS:   17324733  HIT:    4860494  MISS:   12464239
LLC LOAD      ACCESS:    7456439  HIT:    3998922  MISS:    3457517
LLC RFO       ACCESS:      31558  HIT:      14354  MISS:      17204
LLC PREFETCH  ACCESS:    9730677  HIT:     767425  MISS:    8963252
LLC WRITEBACK ACCESS:     106059  HIT:      79793  MISS:      26266
LLC PREFETCH  REQUESTED:          0  ISSUED:          0  USEFUL:       2114  USELESS:    8960416
LLC TOTAL MSHR MERGED:          2
LLC LOAD MSHR MERGED:          0
LLC RFO MSHR MERGED:          0
LLC PREFETCH MSHR MERGED:          2
LLC WRITEBACK MSHR MERGED:          0
LLC TOTAL ACCESSES:   17324736 HITS:    4860494 MISSES:   12464242
LLC LOAD ACCESSES:    7456439 HITS:    3998922 MISSES:    3457517
LLC RFO ACCESSES:      31558 HITS:      14354 MISSES:      17204
LLC PREFETCH ACCESSES:    9730680 HITS:     767425 MISSES:    8963255
LLC WRITEBACK ACCESSES:     106059 HITS:      79793 MISSES:      26266
LLC 0 RQ ACCESS:    7487997
LLC 0 RQ TO_CACHE:    7487997
LLC 0 RQ MERGED:          0
LLC 0 RQ FORWARD:          0
LLC WQ ACCESS:     106059
LLC WQ TO_CACHE:     106059
LLC WQ MERGED:          0
LLC WQ FORWARD:          0
Major fault: 0 Minor fault: 6432
CPU 0 L1D next line prefetcher final stats
CPU 0 L2C PC-based stride prefetcher final stats
All Misses: 14697415
All Hits: 5846989
SD Algo Stats - Switches: 0 SRR-Repls: 3685693 BRR-Repls: 0

DRAM Statistics
 CHANNEL 0
 RQ ROW_BUFFER_HIT:    9395039  ROW_BUFFER_MISS:    3037063
 DBUS_CONGESTED:    5793736
 WQ ROW_BUFFER_HIT:       1551  ROW_BUFFER_MISS:      48865  FULL:          0

 AVG_CONGESTED_CYCLE: 12
LOADS RETIRED: 157382665
INSTR RETIRED: 500000000
