
*** ChampSim Multicore Out-of-Order Simulator ***

Warmup Instructions: 100000000
Simulation Instructions: 500000000
Number of CPUs: 1
LLC sets: 2048
LLC ways: 16
Clean RRIP Policies: 1213230112132301 Dirty RRIP Policies: 2203130122031301 PSEL Width: 10 Track Set: 4294967295 PSEL Mask: 1 Demote Mask: 3014100030141000DS Algo: 0Window size: 0
Off-chip DRAM Size: 4096 MB Channels: 1 Width: 64-bit Data Rate: 1600 MT/s

CPU 0 runs /mnt/beegfs/iconst01/spec2017/Xalancbmk.trace.gz
NOT SORTED
TRACE STRING: /mnt/beegfs/iconst01/spec2017/Xalancbmk.trace.gz
SORTED
TRACE STRING: /mnt/beegfs/iconst01/spec2017/Xalancbmk.trace.gz
INITIAL
TRACE STRING: /mnt/beegfs/iconst01/spec2017/Xalancbmk.trace.gz

champsim_seed used: 913

CPU 0 L1D next line prefetcher
CPU 0 L2C IP-based stride prefetcher
Initialize DRRIP state
Assign rand_sets[0]: 454  LLC: 2048
rand_sets[0]: 454
Assign rand_sets[1]: 1662  LLC: 2048
rand_sets[1]: 1662
Assign rand_sets[2]: 1921  LLC: 2048
rand_sets[2]: 1921
Assign rand_sets[3]: 1131  LLC: 2048
rand_sets[3]: 1131
Assign rand_sets[4]: 331  LLC: 2048
rand_sets[4]: 331
Assign rand_sets[5]: 1531  LLC: 2048
rand_sets[5]: 1531
Assign rand_sets[6]: 482  LLC: 2048
rand_sets[6]: 482
Assign rand_sets[7]: 1275  LLC: 2048
rand_sets[7]: 1275
Assign rand_sets[8]: 1876  LLC: 2048
rand_sets[8]: 1876
Assign rand_sets[9]: 2038  LLC: 2048
rand_sets[9]: 2038
Assign rand_sets[10]: 701  LLC: 2048
rand_sets[10]: 701
Assign rand_sets[11]: 479  LLC: 2048
rand_sets[11]: 479
Assign rand_sets[12]: 892  LLC: 2048
rand_sets[12]: 892
Assign rand_sets[13]: 1820  LLC: 2048
rand_sets[13]: 1820
Assign rand_sets[14]: 1505  LLC: 2048
rand_sets[14]: 1505
Assign rand_sets[15]: 1159  LLC: 2048
rand_sets[15]: 1159
Assign rand_sets[16]: 513  LLC: 2048
rand_sets[16]: 513
Assign rand_sets[17]: 703  LLC: 2048
rand_sets[17]: 703
Assign rand_sets[18]: 561  LLC: 2048
rand_sets[18]: 561
Assign rand_sets[19]: 990  LLC: 2048
rand_sets[19]: 990
Assign rand_sets[20]: 342  LLC: 2048
rand_sets[20]: 342
Assign rand_sets[21]: 882  LLC: 2048
rand_sets[21]: 882
Assign rand_sets[22]: 15  LLC: 2048
rand_sets[22]: 15
Assign rand_sets[23]: 71  LLC: 2048
rand_sets[23]: 71
Assign rand_sets[24]: 1127  LLC: 2048
rand_sets[24]: 1127
Assign rand_sets[25]: 1382  LLC: 2048
rand_sets[25]: 1382
Assign rand_sets[26]: 647  LLC: 2048
rand_sets[26]: 647
Assign rand_sets[27]: 857  LLC: 2048
rand_sets[27]: 857
Assign rand_sets[28]: 1450  LLC: 2048
rand_sets[28]: 1450
Assign rand_sets[29]: 1160  LLC: 2048
rand_sets[29]: 1160
Assign rand_sets[30]: 1852  LLC: 2048
rand_sets[30]: 1852
Assign rand_sets[31]: 1881  LLC: 2048
rand_sets[31]: 1881
Assign rand_sets[32]: 1770  LLC: 2048
rand_sets[32]: 1770
Assign rand_sets[33]: 1622  LLC: 2048
rand_sets[33]: 1622
Assign rand_sets[34]: 275  LLC: 2048
rand_sets[34]: 275
Assign rand_sets[35]: 635  LLC: 2048
rand_sets[35]: 635
Assign rand_sets[36]: 466  LLC: 2048
rand_sets[36]: 466
Assign rand_sets[37]: 1413  LLC: 2048
rand_sets[37]: 1413
Assign rand_sets[38]: 417  LLC: 2048
rand_sets[38]: 417
Assign rand_sets[39]: 472  LLC: 2048
rand_sets[39]: 472
Assign rand_sets[40]: 1340  LLC: 2048
rand_sets[40]: 1340
Assign rand_sets[41]: 852  LLC: 2048
rand_sets[41]: 852
Assign rand_sets[42]: 1365  LLC: 2048
rand_sets[42]: 1365
Assign rand_sets[43]: 47  LLC: 2048
rand_sets[43]: 47
Assign rand_sets[44]: 823  LLC: 2048
rand_sets[44]: 823
Assign rand_sets[45]: 686  LLC: 2048
rand_sets[45]: 686
Assign rand_sets[46]: 1637  LLC: 2048
rand_sets[46]: 1637
Assign rand_sets[47]: 1115  LLC: 2048
rand_sets[47]: 1115
Assign rand_sets[48]: 986  LLC: 2048
rand_sets[48]: 986
Assign rand_sets[49]: 258  LLC: 2048
rand_sets[49]: 258
Assign rand_sets[50]: 633  LLC: 2048
rand_sets[50]: 633
Assign rand_sets[51]: 920  LLC: 2048
rand_sets[51]: 920
Assign rand_sets[52]: 204  LLC: 2048
rand_sets[52]: 204
Assign rand_sets[53]: 227  LLC: 2048
rand_sets[53]: 227
Assign rand_sets[54]: 1818  LLC: 2048
rand_sets[54]: 1818
Assign rand_sets[55]: 886  LLC: 2048
rand_sets[55]: 886
Assign rand_sets[56]: 1422  LLC: 2048
rand_sets[56]: 1422
Assign rand_sets[57]: 607  LLC: 2048
rand_sets[57]: 607
Assign rand_sets[58]: 217  LLC: 2048
rand_sets[58]: 217
Assign rand_sets[59]: 1945  LLC: 2048
rand_sets[59]: 1945
Assign rand_sets[60]: 143  LLC: 2048
rand_sets[60]: 143
Assign rand_sets[61]: 1311  LLC: 2048
rand_sets[61]: 1311
Assign rand_sets[62]: 319  LLC: 2048
rand_sets[62]: 319
Assign rand_sets[63]: 1846  LLC: 2048
rand_sets[63]: 1846
 CLEAN-RRIP-POLICY-1: 1-2-1-3-2-3-0-1- CLEAN-RRIP-POLICY-2: 1-2-1-3-2-3-0-1-
 DIRTY-RRIP-POLICY-1: 2-2-0-3-1-3-0-1- DIRTY-RRIP-POLICY-2: 2-2-0-3-1-3-0-1-
 PSEL width: 10
Heartbeat CPU 0 instructions: 10000003 cycles: 4586240 heartbeat IPC: 2.18044 cumulative IPC: 2.18044 (Simulation time: 0 hr 0 min 15 sec) 
Heartbeat CPU 0 instructions: 20000000 cycles: 8977076 heartbeat IPC: 2.27747 cumulative IPC: 2.2279 (Simulation time: 0 hr 0 min 29 sec) 
Heartbeat CPU 0 instructions: 30000000 cycles: 13386285 heartbeat IPC: 2.26798 cumulative IPC: 2.2411 (Simulation time: 0 hr 0 min 43 sec) 
Heartbeat CPU 0 instructions: 40000000 cycles: 18011582 heartbeat IPC: 2.16202 cumulative IPC: 2.22079 (Simulation time: 0 hr 0 min 59 sec) 
Heartbeat CPU 0 instructions: 50000002 cycles: 22423414 heartbeat IPC: 2.26663 cumulative IPC: 2.22981 (Simulation time: 0 hr 1 min 13 sec) 
Heartbeat CPU 0 instructions: 60000000 cycles: 27075129 heartbeat IPC: 2.14974 cumulative IPC: 2.21606 (Simulation time: 0 hr 1 min 29 sec) 
Heartbeat CPU 0 instructions: 70000003 cycles: 31477965 heartbeat IPC: 2.27126 cumulative IPC: 2.22378 (Simulation time: 0 hr 1 min 44 sec) 
Heartbeat CPU 0 instructions: 80000000 cycles: 35902135 heartbeat IPC: 2.26031 cumulative IPC: 2.22828 (Simulation time: 0 hr 1 min 58 sec) 
Heartbeat CPU 0 instructions: 90000002 cycles: 40358890 heartbeat IPC: 2.24379 cumulative IPC: 2.22999 (Simulation time: 0 hr 2 min 12 sec) 
Heartbeat CPU 0 instructions: 100000000 cycles: 44833257 heartbeat IPC: 2.23495 cumulative IPC: 2.23049 (Simulation time: 0 hr 2 min 27 sec) 

Warmup complete CPU 0 instructions: 100000003 cycles: 44833258 (Simulation time: 0 hr 2 min 27 sec) 

Heartbeat CPU 0 instructions: 110000000 cycles: 71340454 heartbeat IPC: 0.377256 cumulative IPC: 0.377256 (Simulation time: 0 hr 2 min 58 sec) 
Heartbeat CPU 0 instructions: 120000000 cycles: 99549180 heartbeat IPC: 0.3545 cumulative IPC: 0.365524 (Simulation time: 0 hr 3 min 32 sec) 
Heartbeat CPU 0 instructions: 130000000 cycles: 123089275 heartbeat IPC: 0.424807 cumulative IPC: 0.383357 (Simulation time: 0 hr 4 min 1 sec) 
Heartbeat CPU 0 instructions: 140000000 cycles: 145625719 heartbeat IPC: 0.443726 cumulative IPC: 0.396855 (Simulation time: 0 hr 4 min 29 sec) 
Heartbeat CPU 0 instructions: 150000000 cycles: 170023724 heartbeat IPC: 0.40987 cumulative IPC: 0.399391 (Simulation time: 0 hr 4 min 59 sec) 
Heartbeat CPU 0 instructions: 160000000 cycles: 194799356 heartbeat IPC: 0.403622 cumulative IPC: 0.40009 (Simulation time: 0 hr 5 min 30 sec) 
Heartbeat CPU 0 instructions: 170000002 cycles: 216055736 heartbeat IPC: 0.470447 cumulative IPC: 0.408825 (Simulation time: 0 hr 5 min 57 sec) 
Heartbeat CPU 0 instructions: 180000000 cycles: 239020385 heartbeat IPC: 0.435452 cumulative IPC: 0.411974 (Simulation time: 0 hr 6 min 26 sec) 
Heartbeat CPU 0 instructions: 190000000 cycles: 258084524 heartbeat IPC: 0.524545 cumulative IPC: 0.422037 (Simulation time: 0 hr 6 min 53 sec) 
Heartbeat CPU 0 instructions: 200000000 cycles: 279355050 heartbeat IPC: 0.470134 cumulative IPC: 0.4264 (Simulation time: 0 hr 7 min 20 sec) 
Heartbeat CPU 0 instructions: 210000001 cycles: 305643446 heartbeat IPC: 0.380396 cumulative IPC: 0.421763 (Simulation time: 0 hr 7 min 52 sec) 
Heartbeat CPU 0 instructions: 220000000 cycles: 331442093 heartbeat IPC: 0.387617 cumulative IPC: 0.418689 (Simulation time: 0 hr 8 min 23 sec) 
Heartbeat CPU 0 instructions: 230000000 cycles: 353659890 heartbeat IPC: 0.45009 cumulative IPC: 0.420948 (Simulation time: 0 hr 8 min 51 sec) 
Heartbeat CPU 0 instructions: 240000000 cycles: 379240938 heartbeat IPC: 0.390914 cumulative IPC: 0.418651 (Simulation time: 0 hr 9 min 22 sec) 
Heartbeat CPU 0 instructions: 250000001 cycles: 404102567 heartbeat IPC: 0.402226 cumulative IPC: 0.417514 (Simulation time: 0 hr 9 min 53 sec) 
Heartbeat CPU 0 instructions: 260000000 cycles: 425124679 heartbeat IPC: 0.47569 cumulative IPC: 0.42073 (Simulation time: 0 hr 10 min 20 sec) 
Heartbeat CPU 0 instructions: 270000000 cycles: 447108749 heartbeat IPC: 0.454875 cumulative IPC: 0.422596 (Simulation time: 0 hr 10 min 48 sec) 
Heartbeat CPU 0 instructions: 280000000 cycles: 474586561 heartbeat IPC: 0.36393 cumulative IPC: 0.418845 (Simulation time: 0 hr 11 min 21 sec) 
Heartbeat CPU 0 instructions: 290000000 cycles: 495816576 heartbeat IPC: 0.471031 cumulative IPC: 0.421302 (Simulation time: 0 hr 11 min 48 sec) 
Heartbeat CPU 0 instructions: 300000000 cycles: 516469951 heartbeat IPC: 0.484182 cumulative IPC: 0.424055 (Simulation time: 0 hr 12 min 16 sec) 
Heartbeat CPU 0 instructions: 310000000 cycles: 535765104 heartbeat IPC: 0.518265 cumulative IPC: 0.427758 (Simulation time: 0 hr 12 min 41 sec) 
Heartbeat CPU 0 instructions: 320000000 cycles: 564941258 heartbeat IPC: 0.342746 cumulative IPC: 0.422989 (Simulation time: 0 hr 13 min 14 sec) 
Heartbeat CPU 0 instructions: 330000001 cycles: 584314094 heartbeat IPC: 0.516187 cumulative IPC: 0.426336 (Simulation time: 0 hr 13 min 40 sec) 
Heartbeat CPU 0 instructions: 340000000 cycles: 603690273 heartbeat IPC: 0.516098 cumulative IPC: 0.429448 (Simulation time: 0 hr 14 min 6 sec) 
Heartbeat CPU 0 instructions: 350000002 cycles: 628508335 heartbeat IPC: 0.402932 cumulative IPC: 0.42832 (Simulation time: 0 hr 14 min 36 sec) 
Heartbeat CPU 0 instructions: 360000000 cycles: 650790657 heartbeat IPC: 0.448786 cumulative IPC: 0.429073 (Simulation time: 0 hr 15 min 4 sec) 
Heartbeat CPU 0 instructions: 370000001 cycles: 675883556 heartbeat IPC: 0.398519 cumulative IPC: 0.427858 (Simulation time: 0 hr 15 min 34 sec) 
Heartbeat CPU 0 instructions: 380000000 cycles: 698856347 heartbeat IPC: 0.435298 cumulative IPC: 0.428119 (Simulation time: 0 hr 16 min 2 sec) 
Heartbeat CPU 0 instructions: 390000000 cycles: 717621382 heartbeat IPC: 0.532906 cumulative IPC: 0.431042 (Simulation time: 0 hr 16 min 28 sec) 
Heartbeat CPU 0 instructions: 400000000 cycles: 737496301 heartbeat IPC: 0.503147 cumulative IPC: 0.433111 (Simulation time: 0 hr 16 min 54 sec) 
Heartbeat CPU 0 instructions: 410000001 cycles: 763370861 heartbeat IPC: 0.38648 cumulative IPC: 0.431432 (Simulation time: 0 hr 17 min 24 sec) 
Heartbeat CPU 0 instructions: 420000000 cycles: 787952312 heartbeat IPC: 0.406811 cumulative IPC: 0.430617 (Simulation time: 0 hr 17 min 53 sec) 
Heartbeat CPU 0 instructions: 430000002 cycles: 809321272 heartbeat IPC: 0.467969 cumulative IPC: 0.431661 (Simulation time: 0 hr 18 min 20 sec) 
Heartbeat CPU 0 instructions: 440000000 cycles: 829742524 heartbeat IPC: 0.489686 cumulative IPC: 0.433171 (Simulation time: 0 hr 18 min 47 sec) 
Heartbeat CPU 0 instructions: 450000002 cycles: 856231352 heartbeat IPC: 0.377518 cumulative IPC: 0.431354 (Simulation time: 0 hr 19 min 18 sec) 
Heartbeat CPU 0 instructions: 460000000 cycles: 882108966 heartbeat IPC: 0.386434 cumulative IPC: 0.429966 (Simulation time: 0 hr 19 min 48 sec) 
Heartbeat CPU 0 instructions: 470000002 cycles: 907983295 heartbeat IPC: 0.386484 cumulative IPC: 0.428662 (Simulation time: 0 hr 20 min 18 sec) 
Heartbeat CPU 0 instructions: 480000000 cycles: 932647703 heartbeat IPC: 0.405442 cumulative IPC: 0.428017 (Simulation time: 0 hr 20 min 47 sec) 
Heartbeat CPU 0 instructions: 490000000 cycles: 953514918 heartbeat IPC: 0.479221 cumulative IPC: 0.429193 (Simulation time: 0 hr 21 min 14 sec) 
Heartbeat CPU 0 instructions: 500000000 cycles: 978262249 heartbeat IPC: 0.404084 cumulative IPC: 0.428528 (Simulation time: 0 hr 21 min 44 sec) 
Heartbeat CPU 0 instructions: 510000000 cycles: 1003298385 heartbeat IPC: 0.399423 cumulative IPC: 0.427767 (Simulation time: 0 hr 22 min 13 sec) 
Heartbeat CPU 0 instructions: 520000000 cycles: 1024439540 heartbeat IPC: 0.473011 cumulative IPC: 0.428744 (Simulation time: 0 hr 22 min 40 sec) 
Heartbeat CPU 0 instructions: 530000003 cycles: 1049974681 heartbeat IPC: 0.391617 cumulative IPC: 0.427801 (Simulation time: 0 hr 23 min 10 sec) 
Heartbeat CPU 0 instructions: 540000000 cycles: 1072822727 heartbeat IPC: 0.437674 cumulative IPC: 0.42802 (Simulation time: 0 hr 23 min 38 sec) 
Heartbeat CPU 0 instructions: 550000000 cycles: 1098087844 heartbeat IPC: 0.395803 cumulative IPC: 0.427247 (Simulation time: 0 hr 24 min 8 sec) 
Heartbeat CPU 0 instructions: 560000000 cycles: 1121752022 heartbeat IPC: 0.42258 cumulative IPC: 0.427145 (Simulation time: 0 hr 24 min 37 sec) 
Heartbeat CPU 0 instructions: 570000002 cycles: 1145176315 heartbeat IPC: 0.426907 cumulative IPC: 0.42714 (Simulation time: 0 hr 25 min 5 sec) 
Heartbeat CPU 0 instructions: 580000000 cycles: 1166332744 heartbeat IPC: 0.472669 cumulative IPC: 0.427998 (Simulation time: 0 hr 25 min 32 sec) 
Heartbeat CPU 0 instructions: 590000001 cycles: 1190211412 heartbeat IPC: 0.418784 cumulative IPC: 0.427806 (Simulation time: 0 hr 26 min 1 sec) 
Heartbeat CPU 0 instructions: 600000000 cycles: 1209425937 heartbeat IPC: 0.52044 cumulative IPC: 0.429335 (Simulation time: 0 hr 26 min 26 sec) 
Finished CPU 0 instructions: 500000000 cycles: 1164592700 cumulative IPC: 0.429335 (Simulation time: 0 hr 26 min 26 sec) 

CPU 0 Branch Prediction Accuracy: 99.5434% MPKI: 1.33026
Number of Branches: 145676990 Number of Mispredictions: 665128
Number of LOAD Instructions: 188863207
Number of LOAD Instructions (ROI): 188863207
Number of STORE Instructions: 7332002
Number of STORE Instructions (ROI): 7332002
Total Destination Memory Operands: 10029285
Total Destination Memory Operands (ROI): 10029285
Total Source Memory Operands: 188863207
Total Source Memory Operands (ROI): 188863207
Number of DEPENDED LOADS: 291117
Number of DEPENDED LOADS (ROI): 291117
Number of SQ_ADDED: 10029285
Number of SQ_ADDED (ROI): 10029285
Number of LQ_ADDED: 200648519
Number of LQ_ADDED (ROI): 200648519
Number of Instructions read from trace: 600000010

ChampSim completed all CPUs

Region of Interest Statistics

CPU 0 cumulative IPC: 0.429335 instructions: 500000000 cycles: 1164592700
ITLB TOTAL     ACCESS:  145807780  HIT:  145768253  MISS:      39527
ITLB LOAD      ACCESS:  145807780  HIT:  145768253  MISS:      39527
ITLB RFO       ACCESS:          0  HIT:          0  MISS:          0
ITLB PREFETCH  ACCESS:          0  HIT:          0  MISS:          0
ITLB WRITEBACK ACCESS:          0  HIT:          0  MISS:          0
ITLB PREFETCH  REQUESTED:          0  ISSUED:          0  USEFUL:          0  USELESS:          0
ITLB TOTAL MSHR MERGED:      57378
ITLB LOAD MSHR MERGED:      57378
ITLB RFO MSHR MERGED:          0
ITLB PREFETCH MSHR MERGED:          0
ITLB WRITEBACK MSHR MERGED:          0
ITLB TOTAL ACCESSES:  145865158 HITS:  145768253 MISSES:      96905
ITLB LOAD ACCESSES:  145865158 HITS:  145768253 MISSES:      96905
ITLB RFO ACCESSES:          0 HITS:          0 MISSES:          0
ITLB PREFETCH ACCESSES:          0 HITS:          0 MISSES:          0
ITLB WRITEBACK ACCESSES:          0 HITS:          0 MISSES:          0
ITLB RQ ACCESS:  499999754
ITLB RQ TO_CACHE:  145865158
ITLB RQ MERGED:  354134596
ITLB RQ FORWARD:          0
ITLB WQ ACCESS:          0
ITLB WQ TO_CACHE:          0
ITLB WQ MERGED:          0
ITLB WQ FORWARD:          0
DTLB TOTAL     ACCESS:  135190084  HIT:  134021724  MISS:    1168360
DTLB LOAD      ACCESS:  127149086  HIT:  125989831  MISS:    1159255
DTLB RFO       ACCESS:    8040998  HIT:    8031893  MISS:       9105
DTLB PREFETCH  ACCESS:          0  HIT:          0  MISS:          0
DTLB WRITEBACK ACCESS:          0  HIT:          0  MISS:          0
DTLB PREFETCH  REQUESTED:          0  ISSUED:          0  USEFUL:          0  USELESS:          0
DTLB TOTAL MSHR MERGED:     581479
DTLB LOAD MSHR MERGED:     577101
DTLB RFO MSHR MERGED:       4378
DTLB PREFETCH MSHR MERGED:          0
DTLB WRITEBACK MSHR MERGED:          0
DTLB TOTAL ACCESSES:  135771563 HITS:  134021724 MISSES:    1749839
DTLB LOAD ACCESSES:  127726187 HITS:  125989831 MISSES:    1736356
DTLB RFO ACCESSES:    8045376 HITS:    8031893 MISSES:      13483
DTLB PREFETCH ACCESSES:          0 HITS:          0 MISSES:          0
DTLB WRITEBACK ACCESSES:          0 HITS:          0 MISSES:          0
DTLB RQ ACCESS:  165763220
DTLB RQ TO_CACHE:  135771563
DTLB RQ MERGED:   29991657
DTLB RQ FORWARD:          0
DTLB WQ ACCESS:          0
DTLB WQ TO_CACHE:          0
DTLB WQ MERGED:          0
DTLB WQ FORWARD:          0
L1D TOTAL     ACCESS:  156954958  HIT:  139639282  MISS:   17315676
L1D LOAD      ACCESS:   89978397  HIT:   78834819  MISS:   11143578
L1D RFO       ACCESS:    8498614  HIT:    8411418  MISS:      87196
L1D PREFETCH  ACCESS:   58477947  HIT:   52393045  MISS:    6084902
L1D WRITEBACK ACCESS:          0  HIT:          0  MISS:          0
L1D PREFETCH  REQUESTED:   93718586  ISSUED:   92851070  USEFUL:    2003487  USELESS:    4081489
L1D TOTAL MSHR MERGED:   15106298
L1D LOAD MSHR MERGED:    7139886
L1D RFO MSHR MERGED:     125996
L1D PREFETCH MSHR MERGED:    7840416
L1D WRITEBACK MSHR MERGED:          0
L1D TOTAL ACCESSES:  172061420 HITS:  139639445 MISSES:   32421975
L1D LOAD ACCESSES:   93718589 HITS:   78834822 MISSES:   14883767
L1D RFO ACCESSES:    8622724 HITS:    8411418 MISSES:     211306
L1D PREFETCH ACCESSES:   69720107 HITS:   52393205 MISSES:   17326902
L1D WRITEBACK ACCESSES:          0 HITS:          0 MISSES:          0
L1D RQ ACCESS:  157124014
L1D RQ TO_CACHE:   93718586
L1D RQ MERGED:   63405425
L1D RQ FORWARD:          0
L1D WQ ACCESS:    8639208
L1D WQ TO_CACHE:    8622724
L1D WQ MERGED:      16484
L1D WQ FORWARD:        163
L1I TOTAL     ACCESS:  178795698  HIT:  178132054  MISS:     663644
L1I LOAD      ACCESS:  178795698  HIT:  178132054  MISS:     663644
L1I RFO       ACCESS:          0  HIT:          0  MISS:          0
L1I PREFETCH  ACCESS:          0  HIT:          0  MISS:          0
L1I WRITEBACK ACCESS:          0  HIT:          0  MISS:          0
L1I PREFETCH  REQUESTED:          0  ISSUED:          0  USEFUL:          0  USELESS:          0
L1I TOTAL MSHR MERGED:     597867
L1I LOAD MSHR MERGED:     597867
L1I RFO MSHR MERGED:          0
L1I PREFETCH MSHR MERGED:          0
L1I WRITEBACK MSHR MERGED:          0
L1I TOTAL ACCESSES:  179393565 HITS:  178132054 MISSES:    1261511
L1I LOAD ACCESSES:  179393565 HITS:  178132054 MISSES:    1261511
L1I RFO ACCESSES:          0 HITS:          0 MISSES:          0
L1I PREFETCH ACCESSES:          0 HITS:          0 MISSES:          0
L1I WRITEBACK ACCESSES:          0 HITS:          0 MISSES:          0
L1I RQ ACCESS:  499999757
L1I RQ TO_CACHE:  179393565
L1I RQ MERGED:  320606192
L1I RQ FORWARD:          0
L1I WQ ACCESS:          0
L1I WQ TO_CACHE:          0
L1I WQ MERGED:          0
L1I WQ FORWARD:          0
L2C TOTAL     ACCESS:   19276746  HIT:    2057277  MISS:   17219469
L2C LOAD      ACCESS:    8407419  HIT:     951110  MISS:    7456309
L2C RFO       ACCESS:      85287  HIT:      53725  MISS:      31562
L2C PREFETCH  ACCESS:   10499037  HIT:     770249  MISS:    9728788
L2C WRITEBACK ACCESS:     285003  HIT:     282193  MISS:       2810
L2C PREFETCH  REQUESTED:    1016893  ISSUED:    1016893  USEFUL:     274771  USELESS:    9453111
L2C TOTAL MSHR MERGED:       1070
L2C LOAD MSHR MERGED:        225
L2C RFO MSHR MERGED:          1
L2C PREFETCH MSHR MERGED:        844
L2C WRITEBACK MSHR MERGED:          0
L2C TOTAL ACCESSES:   19279958 HITS:    2057472 MISSES:   17222486
L2C LOAD ACCESSES:    8407525 HITS:     951216 MISSES:    7456309
L2C RFO ACCESSES:      85310 HITS:      53748 MISSES:      31562
L2C PREFETCH ACCESSES:   10502120 HITS:     770315 MISSES:    9731805
L2C WRITEBACK ACCESSES:     285003 HITS:     282193 MISSES:       2810
L2C RQ ACCESS:    8492835
L2C RQ TO_CACHE:    8492706
L2C RQ MERGED:          0
L2C RQ FORWARD:          0
L2C WQ ACCESS:     285003
L2C WQ TO_CACHE:     285003
L2C WQ MERGED:          0
L2C WQ FORWARD:        195
LLC TOTAL     ACCESS:   17324662  HIT:    4863415  MISS:   12461247
LLC LOAD      ACCESS:    7456084  HIT:    3994428  MISS:    3461656
LLC RFO       ACCESS:      31561  HIT:      16225  MISS:      15336
LLC PREFETCH  ACCESS:    9730959  HIT:     769817  MISS:    8961142
LLC WRITEBACK ACCESS:     106058  HIT:      82945  MISS:      23113
LLC PREFETCH  REQUESTED:          0  ISSUED:          0  USEFUL:       2185  USELESS:    8958250
LLC TOTAL MSHR MERGED:          1
LLC LOAD MSHR MERGED:          0
LLC RFO MSHR MERGED:          0
LLC PREFETCH MSHR MERGED:          1
LLC WRITEBACK MSHR MERGED:          0
LLC TOTAL ACCESSES:   17324664 HITS:    4863415 MISSES:   12461249
LLC LOAD ACCESSES:    7456084 HITS:    3994428 MISSES:    3461656
LLC RFO ACCESSES:      31561 HITS:      16225 MISSES:      15336
LLC PREFETCH ACCESSES:    9730961 HITS:     769817 MISSES:    8961144
LLC WRITEBACK ACCESSES:     106058 HITS:      82945 MISSES:      23113
LLC 0 RQ ACCESS:    7487645
LLC 0 RQ TO_CACHE:    7487645
LLC 0 RQ MERGED:          0
LLC 0 RQ FORWARD:          0
LLC WQ ACCESS:     106058
LLC WQ TO_CACHE:     106058
LLC WQ MERGED:          0
LLC WQ FORWARD:          0
Major fault: 0 Minor fault: 6432
CPU 0 L1D next line prefetcher final stats
CPU 0 L2C PC-based stride prefetcher final stats
All Misses: 14694394
All Hits: 5849938
SD Algo Stats - Switches: 0 SRR-Repls: 3689896 BRR-Repls: 0

DRAM Statistics
 CHANNEL 0
 RQ ROW_BUFFER_HIT:    9403207  ROW_BUFFER_MISS:    3029469
 DBUS_CONGESTED:    5790520
 WQ ROW_BUFFER_HIT:       1465  ROW_BUFFER_MISS:      41499  FULL:          0

 AVG_CONGESTED_CYCLE: 12
LOADS RETIRED: 157382665
INSTR RETIRED: 500000000
