
*** ChampSim Multicore Out-of-Order Simulator ***

Warmup Instructions: 100000000
Simulation Instructions: 500000000
Number of CPUs: 1
LLC sets: 2048
LLC ways: 16
Clean RRIP Policies: 1213230112132301 Dirty RRIP Policies: 2203130122031301 PSEL Width: 10 Track Set: 4294967295 PSEL Mask: 1 Demote Mask: 3010100030101000DS Algo: 0Window size: 0
Off-chip DRAM Size: 4096 MB Channels: 1 Width: 64-bit Data Rate: 1600 MT/s

CPU 0 runs /mnt/beegfs/iconst01/spec2017/Xalancbmk.trace.gz
NOT SORTED
TRACE STRING: /mnt/beegfs/iconst01/spec2017/Xalancbmk.trace.gz
SORTED
TRACE STRING: /mnt/beegfs/iconst01/spec2017/Xalancbmk.trace.gz
INITIAL
TRACE STRING: /mnt/beegfs/iconst01/spec2017/Xalancbmk.trace.gz

champsim_seed used: 913

CPU 0 L1D next line prefetcher
CPU 0 L2C IP-based stride prefetcher
Initialize DRRIP state
Assign rand_sets[0]: 454  LLC: 2048
rand_sets[0]: 454
Assign rand_sets[1]: 1662  LLC: 2048
rand_sets[1]: 1662
Assign rand_sets[2]: 1921  LLC: 2048
rand_sets[2]: 1921
Assign rand_sets[3]: 1131  LLC: 2048
rand_sets[3]: 1131
Assign rand_sets[4]: 331  LLC: 2048
rand_sets[4]: 331
Assign rand_sets[5]: 1531  LLC: 2048
rand_sets[5]: 1531
Assign rand_sets[6]: 482  LLC: 2048
rand_sets[6]: 482
Assign rand_sets[7]: 1275  LLC: 2048
rand_sets[7]: 1275
Assign rand_sets[8]: 1876  LLC: 2048
rand_sets[8]: 1876
Assign rand_sets[9]: 2038  LLC: 2048
rand_sets[9]: 2038
Assign rand_sets[10]: 701  LLC: 2048
rand_sets[10]: 701
Assign rand_sets[11]: 479  LLC: 2048
rand_sets[11]: 479
Assign rand_sets[12]: 892  LLC: 2048
rand_sets[12]: 892
Assign rand_sets[13]: 1820  LLC: 2048
rand_sets[13]: 1820
Assign rand_sets[14]: 1505  LLC: 2048
rand_sets[14]: 1505
Assign rand_sets[15]: 1159  LLC: 2048
rand_sets[15]: 1159
Assign rand_sets[16]: 513  LLC: 2048
rand_sets[16]: 513
Assign rand_sets[17]: 703  LLC: 2048
rand_sets[17]: 703
Assign rand_sets[18]: 561  LLC: 2048
rand_sets[18]: 561
Assign rand_sets[19]: 990  LLC: 2048
rand_sets[19]: 990
Assign rand_sets[20]: 342  LLC: 2048
rand_sets[20]: 342
Assign rand_sets[21]: 882  LLC: 2048
rand_sets[21]: 882
Assign rand_sets[22]: 15  LLC: 2048
rand_sets[22]: 15
Assign rand_sets[23]: 71  LLC: 2048
rand_sets[23]: 71
Assign rand_sets[24]: 1127  LLC: 2048
rand_sets[24]: 1127
Assign rand_sets[25]: 1382  LLC: 2048
rand_sets[25]: 1382
Assign rand_sets[26]: 647  LLC: 2048
rand_sets[26]: 647
Assign rand_sets[27]: 857  LLC: 2048
rand_sets[27]: 857
Assign rand_sets[28]: 1450  LLC: 2048
rand_sets[28]: 1450
Assign rand_sets[29]: 1160  LLC: 2048
rand_sets[29]: 1160
Assign rand_sets[30]: 1852  LLC: 2048
rand_sets[30]: 1852
Assign rand_sets[31]: 1881  LLC: 2048
rand_sets[31]: 1881
Assign rand_sets[32]: 1770  LLC: 2048
rand_sets[32]: 1770
Assign rand_sets[33]: 1622  LLC: 2048
rand_sets[33]: 1622
Assign rand_sets[34]: 275  LLC: 2048
rand_sets[34]: 275
Assign rand_sets[35]: 635  LLC: 2048
rand_sets[35]: 635
Assign rand_sets[36]: 466  LLC: 2048
rand_sets[36]: 466
Assign rand_sets[37]: 1413  LLC: 2048
rand_sets[37]: 1413
Assign rand_sets[38]: 417  LLC: 2048
rand_sets[38]: 417
Assign rand_sets[39]: 472  LLC: 2048
rand_sets[39]: 472
Assign rand_sets[40]: 1340  LLC: 2048
rand_sets[40]: 1340
Assign rand_sets[41]: 852  LLC: 2048
rand_sets[41]: 852
Assign rand_sets[42]: 1365  LLC: 2048
rand_sets[42]: 1365
Assign rand_sets[43]: 47  LLC: 2048
rand_sets[43]: 47
Assign rand_sets[44]: 823  LLC: 2048
rand_sets[44]: 823
Assign rand_sets[45]: 686  LLC: 2048
rand_sets[45]: 686
Assign rand_sets[46]: 1637  LLC: 2048
rand_sets[46]: 1637
Assign rand_sets[47]: 1115  LLC: 2048
rand_sets[47]: 1115
Assign rand_sets[48]: 986  LLC: 2048
rand_sets[48]: 986
Assign rand_sets[49]: 258  LLC: 2048
rand_sets[49]: 258
Assign rand_sets[50]: 633  LLC: 2048
rand_sets[50]: 633
Assign rand_sets[51]: 920  LLC: 2048
rand_sets[51]: 920
Assign rand_sets[52]: 204  LLC: 2048
rand_sets[52]: 204
Assign rand_sets[53]: 227  LLC: 2048
rand_sets[53]: 227
Assign rand_sets[54]: 1818  LLC: 2048
rand_sets[54]: 1818
Assign rand_sets[55]: 886  LLC: 2048
rand_sets[55]: 886
Assign rand_sets[56]: 1422  LLC: 2048
rand_sets[56]: 1422
Assign rand_sets[57]: 607  LLC: 2048
rand_sets[57]: 607
Assign rand_sets[58]: 217  LLC: 2048
rand_sets[58]: 217
Assign rand_sets[59]: 1945  LLC: 2048
rand_sets[59]: 1945
Assign rand_sets[60]: 143  LLC: 2048
rand_sets[60]: 143
Assign rand_sets[61]: 1311  LLC: 2048
rand_sets[61]: 1311
Assign rand_sets[62]: 319  LLC: 2048
rand_sets[62]: 319
Assign rand_sets[63]: 1846  LLC: 2048
rand_sets[63]: 1846
 CLEAN-RRIP-POLICY-1: 1-2-1-3-2-3-0-1- CLEAN-RRIP-POLICY-2: 1-2-1-3-2-3-0-1-
 DIRTY-RRIP-POLICY-1: 2-2-0-3-1-3-0-1- DIRTY-RRIP-POLICY-2: 2-2-0-3-1-3-0-1-
 PSEL width: 10
Heartbeat CPU 0 instructions: 10000003 cycles: 4586234 heartbeat IPC: 2.18044 cumulative IPC: 2.18044 (Simulation time: 0 hr 0 min 16 sec) 
Heartbeat CPU 0 instructions: 20000000 cycles: 8977097 heartbeat IPC: 2.27746 cumulative IPC: 2.22789 (Simulation time: 0 hr 0 min 29 sec) 
Heartbeat CPU 0 instructions: 30000000 cycles: 13386392 heartbeat IPC: 2.26794 cumulative IPC: 2.24108 (Simulation time: 0 hr 0 min 43 sec) 
Heartbeat CPU 0 instructions: 40000000 cycles: 18011653 heartbeat IPC: 2.16204 cumulative IPC: 2.22078 (Simulation time: 0 hr 0 min 59 sec) 
Heartbeat CPU 0 instructions: 50000002 cycles: 22423499 heartbeat IPC: 2.26663 cumulative IPC: 2.2298 (Simulation time: 0 hr 1 min 13 sec) 
Heartbeat CPU 0 instructions: 60000000 cycles: 27075284 heartbeat IPC: 2.14971 cumulative IPC: 2.21604 (Simulation time: 0 hr 1 min 28 sec) 
Heartbeat CPU 0 instructions: 70000003 cycles: 31478212 heartbeat IPC: 2.27122 cumulative IPC: 2.22376 (Simulation time: 0 hr 1 min 42 sec) 
Heartbeat CPU 0 instructions: 80000000 cycles: 35902454 heartbeat IPC: 2.26027 cumulative IPC: 2.22826 (Simulation time: 0 hr 1 min 56 sec) 
Heartbeat CPU 0 instructions: 90000002 cycles: 40359263 heartbeat IPC: 2.24376 cumulative IPC: 2.22997 (Simulation time: 0 hr 2 min 10 sec) 
Heartbeat CPU 0 instructions: 100000000 cycles: 44833495 heartbeat IPC: 2.23502 cumulative IPC: 2.23048 (Simulation time: 0 hr 2 min 24 sec) 

Warmup complete CPU 0 instructions: 100000003 cycles: 44833496 (Simulation time: 0 hr 2 min 24 sec) 

Heartbeat CPU 0 instructions: 110000000 cycles: 71348950 heartbeat IPC: 0.377139 cumulative IPC: 0.377138 (Simulation time: 0 hr 2 min 55 sec) 
Heartbeat CPU 0 instructions: 120000000 cycles: 99558953 heartbeat IPC: 0.354484 cumulative IPC: 0.365461 (Simulation time: 0 hr 3 min 27 sec) 
Heartbeat CPU 0 instructions: 130000000 cycles: 123096449 heartbeat IPC: 0.424854 cumulative IPC: 0.383323 (Simulation time: 0 hr 3 min 55 sec) 
Heartbeat CPU 0 instructions: 140000000 cycles: 145639734 heartbeat IPC: 0.443591 cumulative IPC: 0.396801 (Simulation time: 0 hr 4 min 23 sec) 
Heartbeat CPU 0 instructions: 150000000 cycles: 170054797 heartbeat IPC: 0.409583 cumulative IPC: 0.399293 (Simulation time: 0 hr 4 min 51 sec) 
Heartbeat CPU 0 instructions: 160000000 cycles: 194851991 heartbeat IPC: 0.403271 cumulative IPC: 0.399951 (Simulation time: 0 hr 5 min 21 sec) 
Heartbeat CPU 0 instructions: 170000002 cycles: 216115104 heartbeat IPC: 0.470298 cumulative IPC: 0.408684 (Simulation time: 0 hr 5 min 47 sec) 
Heartbeat CPU 0 instructions: 180000000 cycles: 239088633 heartbeat IPC: 0.435283 cumulative IPC: 0.41183 (Simulation time: 0 hr 6 min 15 sec) 
Heartbeat CPU 0 instructions: 190000000 cycles: 258151294 heartbeat IPC: 0.524586 cumulative IPC: 0.421906 (Simulation time: 0 hr 6 min 40 sec) 
Heartbeat CPU 0 instructions: 200000000 cycles: 279428883 heartbeat IPC: 0.469978 cumulative IPC: 0.426266 (Simulation time: 0 hr 7 min 7 sec) 
Heartbeat CPU 0 instructions: 210000001 cycles: 305738846 heartbeat IPC: 0.380084 cumulative IPC: 0.421609 (Simulation time: 0 hr 7 min 37 sec) 
Heartbeat CPU 0 instructions: 220000000 cycles: 331541367 heartbeat IPC: 0.387559 cumulative IPC: 0.418544 (Simulation time: 0 hr 8 min 7 sec) 
Heartbeat CPU 0 instructions: 230000000 cycles: 353760274 heartbeat IPC: 0.450067 cumulative IPC: 0.420812 (Simulation time: 0 hr 8 min 34 sec) 
Heartbeat CPU 0 instructions: 240000000 cycles: 379352376 heartbeat IPC: 0.390746 cumulative IPC: 0.418512 (Simulation time: 0 hr 9 min 4 sec) 
Heartbeat CPU 0 instructions: 250000001 cycles: 404216048 heartbeat IPC: 0.402193 cumulative IPC: 0.417383 (Simulation time: 0 hr 9 min 33 sec) 
Heartbeat CPU 0 instructions: 260000000 cycles: 425239931 heartbeat IPC: 0.475649 cumulative IPC: 0.420603 (Simulation time: 0 hr 10 min 0 sec) 
Heartbeat CPU 0 instructions: 270000000 cycles: 447226380 heartbeat IPC: 0.454826 cumulative IPC: 0.422473 (Simulation time: 0 hr 10 min 27 sec) 
Heartbeat CPU 0 instructions: 280000000 cycles: 474699382 heartbeat IPC: 0.363994 cumulative IPC: 0.418735 (Simulation time: 0 hr 10 min 58 sec) 
Heartbeat CPU 0 instructions: 290000000 cycles: 495930155 heartbeat IPC: 0.471014 cumulative IPC: 0.421196 (Simulation time: 0 hr 11 min 25 sec) 
Heartbeat CPU 0 instructions: 300000000 cycles: 516579956 heartbeat IPC: 0.484266 cumulative IPC: 0.423957 (Simulation time: 0 hr 11 min 51 sec) 
Heartbeat CPU 0 instructions: 310000000 cycles: 535873280 heartbeat IPC: 0.518314 cumulative IPC: 0.427664 (Simulation time: 0 hr 12 min 16 sec) 
Heartbeat CPU 0 instructions: 320000000 cycles: 565051721 heartbeat IPC: 0.342719 cumulative IPC: 0.422899 (Simulation time: 0 hr 12 min 48 sec) 
Heartbeat CPU 0 instructions: 330000001 cycles: 584424796 heartbeat IPC: 0.51618 cumulative IPC: 0.426249 (Simulation time: 0 hr 13 min 14 sec) 
Heartbeat CPU 0 instructions: 340000000 cycles: 603795626 heartbeat IPC: 0.51624 cumulative IPC: 0.429367 (Simulation time: 0 hr 13 min 39 sec) 
Heartbeat CPU 0 instructions: 350000002 cycles: 628631409 heartbeat IPC: 0.402645 cumulative IPC: 0.42823 (Simulation time: 0 hr 14 min 8 sec) 
Heartbeat CPU 0 instructions: 360000000 cycles: 650918063 heartbeat IPC: 0.448699 cumulative IPC: 0.428983 (Simulation time: 0 hr 14 min 36 sec) 
Heartbeat CPU 0 instructions: 370000001 cycles: 676016572 heartbeat IPC: 0.39843 cumulative IPC: 0.427768 (Simulation time: 0 hr 15 min 5 sec) 
Heartbeat CPU 0 instructions: 380000000 cycles: 698996992 heartbeat IPC: 0.435153 cumulative IPC: 0.428028 (Simulation time: 0 hr 15 min 33 sec) 
Heartbeat CPU 0 instructions: 390000000 cycles: 717757283 heartbeat IPC: 0.533041 cumulative IPC: 0.430955 (Simulation time: 0 hr 15 min 58 sec) 
Heartbeat CPU 0 instructions: 400000000 cycles: 737631816 heartbeat IPC: 0.503156 cumulative IPC: 0.433026 (Simulation time: 0 hr 16 min 24 sec) 
Heartbeat CPU 0 instructions: 410000001 cycles: 763515233 heartbeat IPC: 0.386348 cumulative IPC: 0.431345 (Simulation time: 0 hr 16 min 54 sec) 
Heartbeat CPU 0 instructions: 420000000 cycles: 788105680 heartbeat IPC: 0.406662 cumulative IPC: 0.430529 (Simulation time: 0 hr 17 min 23 sec) 
Heartbeat CPU 0 instructions: 430000002 cycles: 809478731 heartbeat IPC: 0.467879 cumulative IPC: 0.431573 (Simulation time: 0 hr 17 min 49 sec) 
Heartbeat CPU 0 instructions: 440000000 cycles: 829901600 heartbeat IPC: 0.489647 cumulative IPC: 0.433083 (Simulation time: 0 hr 18 min 15 sec) 
Heartbeat CPU 0 instructions: 450000002 cycles: 856392347 heartbeat IPC: 0.37749 cumulative IPC: 0.431269 (Simulation time: 0 hr 18 min 46 sec) 
Heartbeat CPU 0 instructions: 460000000 cycles: 882266312 heartbeat IPC: 0.386489 cumulative IPC: 0.429885 (Simulation time: 0 hr 19 min 16 sec) 
Heartbeat CPU 0 instructions: 470000002 cycles: 908155478 heartbeat IPC: 0.386262 cumulative IPC: 0.428577 (Simulation time: 0 hr 19 min 46 sec) 
Heartbeat CPU 0 instructions: 480000000 cycles: 932828877 heartbeat IPC: 0.405295 cumulative IPC: 0.42793 (Simulation time: 0 hr 20 min 14 sec) 
Heartbeat CPU 0 instructions: 490000000 cycles: 953701404 heartbeat IPC: 0.479099 cumulative IPC: 0.429105 (Simulation time: 0 hr 20 min 41 sec) 
Heartbeat CPU 0 instructions: 500000000 cycles: 978452382 heartbeat IPC: 0.404024 cumulative IPC: 0.42844 (Simulation time: 0 hr 21 min 10 sec) 
Heartbeat CPU 0 instructions: 510000000 cycles: 1003489591 heartbeat IPC: 0.399406 cumulative IPC: 0.427682 (Simulation time: 0 hr 21 min 39 sec) 
Heartbeat CPU 0 instructions: 520000000 cycles: 1024639127 heartbeat IPC: 0.472824 cumulative IPC: 0.428656 (Simulation time: 0 hr 22 min 6 sec) 
Heartbeat CPU 0 instructions: 530000003 cycles: 1050175926 heartbeat IPC: 0.391592 cumulative IPC: 0.427715 (Simulation time: 0 hr 22 min 35 sec) 
Heartbeat CPU 0 instructions: 540000000 cycles: 1073013527 heartbeat IPC: 0.437874 cumulative IPC: 0.427941 (Simulation time: 0 hr 23 min 3 sec) 
Heartbeat CPU 0 instructions: 550000000 cycles: 1098286071 heartbeat IPC: 0.395686 cumulative IPC: 0.427167 (Simulation time: 0 hr 23 min 33 sec) 
Heartbeat CPU 0 instructions: 560000000 cycles: 1121950963 heartbeat IPC: 0.422567 cumulative IPC: 0.427066 (Simulation time: 0 hr 24 min 1 sec) 
Heartbeat CPU 0 instructions: 570000002 cycles: 1145371604 heartbeat IPC: 0.426974 cumulative IPC: 0.427064 (Simulation time: 0 hr 24 min 29 sec) 
Heartbeat CPU 0 instructions: 580000000 cycles: 1166540699 heartbeat IPC: 0.472387 cumulative IPC: 0.427919 (Simulation time: 0 hr 24 min 56 sec) 
Heartbeat CPU 0 instructions: 590000001 cycles: 1190421333 heartbeat IPC: 0.418749 cumulative IPC: 0.427728 (Simulation time: 0 hr 25 min 24 sec) 
Heartbeat CPU 0 instructions: 600000000 cycles: 1209639280 heartbeat IPC: 0.520347 cumulative IPC: 0.429256 (Simulation time: 0 hr 25 min 49 sec) 
Finished CPU 0 instructions: 500000000 cycles: 1164805805 cumulative IPC: 0.429256 (Simulation time: 0 hr 25 min 49 sec) 

CPU 0 Branch Prediction Accuracy: 99.5434% MPKI: 1.33026
Number of Branches: 145676990 Number of Mispredictions: 665128
Number of LOAD Instructions: 188863207
Number of LOAD Instructions (ROI): 188863207
Number of STORE Instructions: 7332002
Number of STORE Instructions (ROI): 7332002
Total Destination Memory Operands: 10029285
Total Destination Memory Operands (ROI): 10029285
Total Source Memory Operands: 188863207
Total Source Memory Operands (ROI): 188863207
Number of DEPENDED LOADS: 291828
Number of DEPENDED LOADS (ROI): 291828
Number of SQ_ADDED: 10029285
Number of SQ_ADDED (ROI): 10029285
Number of LQ_ADDED: 200678686
Number of LQ_ADDED (ROI): 200678686
Number of Instructions read from trace: 600000010

ChampSim completed all CPUs

Region of Interest Statistics

CPU 0 cumulative IPC: 0.429256 instructions: 500000000 cycles: 1164805805
ITLB TOTAL     ACCESS:  145805733  HIT:  145766206  MISS:      39527
ITLB LOAD      ACCESS:  145805733  HIT:  145766206  MISS:      39527
ITLB RFO       ACCESS:          0  HIT:          0  MISS:          0
ITLB PREFETCH  ACCESS:          0  HIT:          0  MISS:          0
ITLB WRITEBACK ACCESS:          0  HIT:          0  MISS:          0
ITLB PREFETCH  REQUESTED:          0  ISSUED:          0  USEFUL:          0  USELESS:          0
ITLB TOTAL MSHR MERGED:      57382
ITLB LOAD MSHR MERGED:      57382
ITLB RFO MSHR MERGED:          0
ITLB PREFETCH MSHR MERGED:          0
ITLB WRITEBACK MSHR MERGED:          0
ITLB TOTAL ACCESSES:  145863115 HITS:  145766206 MISSES:      96909
ITLB LOAD ACCESSES:  145863115 HITS:  145766206 MISSES:      96909
ITLB RFO ACCESSES:          0 HITS:          0 MISSES:          0
ITLB PREFETCH ACCESSES:          0 HITS:          0 MISSES:          0
ITLB WRITEBACK ACCESSES:          0 HITS:          0 MISSES:          0
ITLB RQ ACCESS:  499999754
ITLB RQ TO_CACHE:  145863115
ITLB RQ MERGED:  354136639
ITLB RQ FORWARD:          0
ITLB WQ ACCESS:          0
ITLB WQ TO_CACHE:          0
ITLB WQ MERGED:          0
ITLB WQ FORWARD:          0
DTLB TOTAL     ACCESS:  135188718  HIT:  134020357  MISS:    1168361
DTLB LOAD      ACCESS:  127147745  HIT:  125988487  MISS:    1159258
DTLB RFO       ACCESS:    8040973  HIT:    8031870  MISS:       9103
DTLB PREFETCH  ACCESS:          0  HIT:          0  MISS:          0
DTLB WRITEBACK ACCESS:          0  HIT:          0  MISS:          0
DTLB PREFETCH  REQUESTED:          0  ISSUED:          0  USEFUL:          0  USELESS:          0
DTLB TOTAL MSHR MERGED:     581454
DTLB LOAD MSHR MERGED:     577074
DTLB RFO MSHR MERGED:       4380
DTLB PREFETCH MSHR MERGED:          0
DTLB WRITEBACK MSHR MERGED:          0
DTLB TOTAL ACCESSES:  135770172 HITS:  134020357 MISSES:    1749815
DTLB LOAD ACCESSES:  127724819 HITS:  125988487 MISSES:    1736332
DTLB RFO ACCESSES:    8045353 HITS:    8031870 MISSES:      13483
DTLB PREFETCH ACCESSES:          0 HITS:          0 MISSES:          0
DTLB WRITEBACK ACCESSES:          0 HITS:          0 MISSES:          0
DTLB RQ ACCESS:  165762508
DTLB RQ TO_CACHE:  135770172
DTLB RQ MERGED:   29992336
DTLB RQ FORWARD:          0
DTLB WQ ACCESS:          0
DTLB WQ TO_CACHE:          0
DTLB WQ MERGED:          0
DTLB WQ FORWARD:          0
L1D TOTAL     ACCESS:  156948293  HIT:  139632610  MISS:   17315683
L1D LOAD      ACCESS:   89975470  HIT:   78831355  MISS:   11144115
L1D RFO       ACCESS:    8497504  HIT:    8410303  MISS:      87201
L1D PREFETCH  ACCESS:   58475319  HIT:   52390952  MISS:    6084367
L1D WRITEBACK ACCESS:          0  HIT:          0  MISS:          0
L1D PREFETCH  REQUESTED:   93716884  ISSUED:   92849379  USEFUL:    2002939  USELESS:    4081502
L1D TOTAL MSHR MERGED:   15109610
L1D LOAD MSHR MERGED:    7141396
L1D RFO MSHR MERGED:     127128
L1D PREFETCH MSHR MERGED:    7841086
L1D WRITEBACK MSHR MERGED:          0
L1D TOTAL ACCESSES:  172058063 HITS:  139632769 MISSES:   32425294
L1D LOAD ACCESSES:   93716887 HITS:   78831358 MISSES:   14885529
L1D RFO ACCESSES:    8622744 HITS:    8410303 MISSES:     212441
L1D PREFETCH ACCESSES:   69718432 HITS:   52391108 MISSES:   17327324
L1D WRITEBACK ACCESSES:          0 HITS:          0 MISSES:          0
L1D RQ ACCESS:  157123302
L1D RQ TO_CACHE:   93716884
L1D RQ MERGED:   63406415
L1D RQ FORWARD:          0
L1D WQ ACCESS:    8639208
L1D WQ TO_CACHE:    8622744
L1D WQ MERGED:      16464
L1D WQ FORWARD:        159
L1I TOTAL     ACCESS:  178794042  HIT:  178130372  MISS:     663670
L1I LOAD      ACCESS:  178794042  HIT:  178130372  MISS:     663670
L1I RFO       ACCESS:          0  HIT:          0  MISS:          0
L1I PREFETCH  ACCESS:          0  HIT:          0  MISS:          0
L1I WRITEBACK ACCESS:          0  HIT:          0  MISS:          0
L1I PREFETCH  REQUESTED:          0  ISSUED:          0  USEFUL:          0  USELESS:          0
L1I TOTAL MSHR MERGED:     597711
L1I LOAD MSHR MERGED:     597711
L1I RFO MSHR MERGED:          0
L1I PREFETCH MSHR MERGED:          0
L1I WRITEBACK MSHR MERGED:          0
L1I TOTAL ACCESSES:  179391753 HITS:  178130372 MISSES:    1261381
L1I LOAD ACCESSES:  179391753 HITS:  178130372 MISSES:    1261381
L1I RFO ACCESSES:          0 HITS:          0 MISSES:          0
L1I PREFETCH ACCESSES:          0 HITS:          0 MISSES:          0
L1I WRITEBACK ACCESSES:          0 HITS:          0 MISSES:          0
L1I RQ ACCESS:  499999757
L1I RQ TO_CACHE:  179391753
L1I RQ MERGED:  320608004
L1I RQ FORWARD:          0
L1I WQ ACCESS:          0
L1I WQ TO_CACHE:          0
L1I WQ MERGED:          0
L1I WQ FORWARD:          0
L2C TOTAL     ACCESS:   19276689  HIT:    2057268  MISS:   17219421
L2C LOAD      ACCESS:    8407696  HIT:     951131  MISS:    7456565
L2C RFO       ACCESS:      85289  HIT:      53727  MISS:      31562
L2C PREFETCH  ACCESS:   10498702  HIT:     770218  MISS:    9728484
L2C WRITEBACK ACCESS:     285002  HIT:     282192  MISS:       2810
L2C PREFETCH  REQUESTED:    1016887  ISSUED:    1016887  USEFUL:     274794  USELESS:    9452786
L2C TOTAL MSHR MERGED:       1071
L2C LOAD MSHR MERGED:        225
L2C RFO MSHR MERGED:          1
L2C PREFETCH MSHR MERGED:        845
L2C WRITEBACK MSHR MERGED:          0
L2C TOTAL ACCESSES:   19279984 HITS:    2057465 MISSES:   17222519
L2C LOAD ACCESSES:    8407803 HITS:     951238 MISSES:    7456565
L2C RFO ACCESSES:      85313 HITS:      53751 MISSES:      31562
L2C PREFETCH ACCESSES:   10501866 HITS:     770284 MISSES:    9731582
L2C WRITEBACK ACCESSES:     285002 HITS:     282192 MISSES:       2810
L2C RQ ACCESS:    8493116
L2C RQ TO_CACHE:    8492985
L2C RQ MERGED:          0
L2C RQ FORWARD:          0
L2C WQ ACCESS:     285002
L2C WQ TO_CACHE:     285002
L2C WQ MERGED:          0
L2C WQ FORWARD:        197
LLC TOTAL     ACCESS:   17324696  HIT:    4858324  MISS:   12466372
LLC LOAD      ACCESS:    7456340  HIT:    3996490  MISS:    3459850
LLC RFO       ACCESS:      31561  HIT:      14517  MISS:      17044
LLC PREFETCH  ACCESS:    9730735  HIT:     767323  MISS:    8963412
LLC WRITEBACK ACCESS:     106060  HIT:      79994  MISS:      26066
LLC PREFETCH  REQUESTED:          0  ISSUED:          0  USEFUL:       2109  USELESS:    8960580
LLC TOTAL MSHR MERGED:          1
LLC LOAD MSHR MERGED:          0
LLC RFO MSHR MERGED:          0
LLC PREFETCH MSHR MERGED:          1
LLC WRITEBACK MSHR MERGED:          0
LLC TOTAL ACCESSES:   17324698 HITS:    4858324 MISSES:   12466374
LLC LOAD ACCESSES:    7456340 HITS:    3996490 MISSES:    3459850
LLC RFO ACCESSES:      31561 HITS:      14517 MISSES:      17044
LLC PREFETCH ACCESSES:    9730737 HITS:     767323 MISSES:    8963414
LLC WRITEBACK ACCESSES:     106060 HITS:      79994 MISSES:      26066
LLC 0 RQ ACCESS:    7487901
LLC 0 RQ TO_CACHE:    7487901
LLC 0 RQ MERGED:          0
LLC 0 RQ FORWARD:          0
LLC WQ ACCESS:     106060
LLC WQ TO_CACHE:     106060
LLC WQ MERGED:          0
LLC WQ FORWARD:          0
Major fault: 0 Minor fault: 6432
CPU 0 L1D next line prefetcher final stats
CPU 0 L2C PC-based stride prefetcher final stats
All Misses: 14699669
All Hits: 5844698
SD Algo Stats - Switches: 0 SRR-Repls: 3688136 BRR-Repls: 0

DRAM Statistics
 CHANNEL 0
 RQ ROW_BUFFER_HIT:    9397383  ROW_BUFFER_MISS:    3037030
 DBUS_CONGESTED:    5795631
 WQ ROW_BUFFER_HIT:       1550  ROW_BUFFER_MISS:      48796  FULL:          0

 AVG_CONGESTED_CYCLE: 12
LOADS RETIRED: 157382665
INSTR RETIRED: 500000000
