
*** ChampSim Multicore Out-of-Order Simulator ***

Warmup Instructions: 100000000
Simulation Instructions: 500000000
Number of CPUs: 1
LLC sets: 2048
LLC ways: 16
Clean RRIP Policies: 2213230222132302 Dirty RRIP Policies: 2203131222031312 PSEL Width: 10 Track Set: 4294967295 PSEL Mask: 1 Demote Mask: 3040100030401000DS Algo: 0Window size: 0
Off-chip DRAM Size: 4096 MB Channels: 1 Width: 64-bit Data Rate: 1600 MT/s

CPU 0 runs /mnt/beegfs/iconst01/spec2017/Parest.trace.gz
NOT SORTED
TRACE STRING: /mnt/beegfs/iconst01/spec2017/Parest.trace.gz
SORTED
TRACE STRING: /mnt/beegfs/iconst01/spec2017/Parest.trace.gz
INITIAL
TRACE STRING: /mnt/beegfs/iconst01/spec2017/Parest.trace.gz

champsim_seed used: 623

CPU 0 L1D next line prefetcher
CPU 0 L2C IP-based stride prefetcher
Initialize DRRIP state
Assign rand_sets[0]: 454  LLC: 2048
rand_sets[0]: 454
Assign rand_sets[1]: 1662  LLC: 2048
rand_sets[1]: 1662
Assign rand_sets[2]: 1921  LLC: 2048
rand_sets[2]: 1921
Assign rand_sets[3]: 1131  LLC: 2048
rand_sets[3]: 1131
Assign rand_sets[4]: 331  LLC: 2048
rand_sets[4]: 331
Assign rand_sets[5]: 1531  LLC: 2048
rand_sets[5]: 1531
Assign rand_sets[6]: 482  LLC: 2048
rand_sets[6]: 482
Assign rand_sets[7]: 1275  LLC: 2048
rand_sets[7]: 1275
Assign rand_sets[8]: 1876  LLC: 2048
rand_sets[8]: 1876
Assign rand_sets[9]: 2038  LLC: 2048
rand_sets[9]: 2038
Assign rand_sets[10]: 701  LLC: 2048
rand_sets[10]: 701
Assign rand_sets[11]: 479  LLC: 2048
rand_sets[11]: 479
Assign rand_sets[12]: 892  LLC: 2048
rand_sets[12]: 892
Assign rand_sets[13]: 1820  LLC: 2048
rand_sets[13]: 1820
Assign rand_sets[14]: 1505  LLC: 2048
rand_sets[14]: 1505
Assign rand_sets[15]: 1159  LLC: 2048
rand_sets[15]: 1159
Assign rand_sets[16]: 513  LLC: 2048
rand_sets[16]: 513
Assign rand_sets[17]: 703  LLC: 2048
rand_sets[17]: 703
Assign rand_sets[18]: 561  LLC: 2048
rand_sets[18]: 561
Assign rand_sets[19]: 990  LLC: 2048
rand_sets[19]: 990
Assign rand_sets[20]: 342  LLC: 2048
rand_sets[20]: 342
Assign rand_sets[21]: 882  LLC: 2048
rand_sets[21]: 882
Assign rand_sets[22]: 15  LLC: 2048
rand_sets[22]: 15
Assign rand_sets[23]: 71  LLC: 2048
rand_sets[23]: 71
Assign rand_sets[24]: 1127  LLC: 2048
rand_sets[24]: 1127
Assign rand_sets[25]: 1382  LLC: 2048
rand_sets[25]: 1382
Assign rand_sets[26]: 647  LLC: 2048
rand_sets[26]: 647
Assign rand_sets[27]: 857  LLC: 2048
rand_sets[27]: 857
Assign rand_sets[28]: 1450  LLC: 2048
rand_sets[28]: 1450
Assign rand_sets[29]: 1160  LLC: 2048
rand_sets[29]: 1160
Assign rand_sets[30]: 1852  LLC: 2048
rand_sets[30]: 1852
Assign rand_sets[31]: 1881  LLC: 2048
rand_sets[31]: 1881
Assign rand_sets[32]: 1770  LLC: 2048
rand_sets[32]: 1770
Assign rand_sets[33]: 1622  LLC: 2048
rand_sets[33]: 1622
Assign rand_sets[34]: 275  LLC: 2048
rand_sets[34]: 275
Assign rand_sets[35]: 635  LLC: 2048
rand_sets[35]: 635
Assign rand_sets[36]: 466  LLC: 2048
rand_sets[36]: 466
Assign rand_sets[37]: 1413  LLC: 2048
rand_sets[37]: 1413
Assign rand_sets[38]: 417  LLC: 2048
rand_sets[38]: 417
Assign rand_sets[39]: 472  LLC: 2048
rand_sets[39]: 472
Assign rand_sets[40]: 1340  LLC: 2048
rand_sets[40]: 1340
Assign rand_sets[41]: 852  LLC: 2048
rand_sets[41]: 852
Assign rand_sets[42]: 1365  LLC: 2048
rand_sets[42]: 1365
Assign rand_sets[43]: 47  LLC: 2048
rand_sets[43]: 47
Assign rand_sets[44]: 823  LLC: 2048
rand_sets[44]: 823
Assign rand_sets[45]: 686  LLC: 2048
rand_sets[45]: 686
Assign rand_sets[46]: 1637  LLC: 2048
rand_sets[46]: 1637
Assign rand_sets[47]: 1115  LLC: 2048
rand_sets[47]: 1115
Assign rand_sets[48]: 986  LLC: 2048
rand_sets[48]: 986
Assign rand_sets[49]: 258  LLC: 2048
rand_sets[49]: 258
Assign rand_sets[50]: 633  LLC: 2048
rand_sets[50]: 633
Assign rand_sets[51]: 920  LLC: 2048
rand_sets[51]: 920
Assign rand_sets[52]: 204  LLC: 2048
rand_sets[52]: 204
Assign rand_sets[53]: 227  LLC: 2048
rand_sets[53]: 227
Assign rand_sets[54]: 1818  LLC: 2048
rand_sets[54]: 1818
Assign rand_sets[55]: 886  LLC: 2048
rand_sets[55]: 886
Assign rand_sets[56]: 1422  LLC: 2048
rand_sets[56]: 1422
Assign rand_sets[57]: 607  LLC: 2048
rand_sets[57]: 607
Assign rand_sets[58]: 217  LLC: 2048
rand_sets[58]: 217
Assign rand_sets[59]: 1945  LLC: 2048
rand_sets[59]: 1945
Assign rand_sets[60]: 143  LLC: 2048
rand_sets[60]: 143
Assign rand_sets[61]: 1311  LLC: 2048
rand_sets[61]: 1311
Assign rand_sets[62]: 319  LLC: 2048
rand_sets[62]: 319
Assign rand_sets[63]: 1846  LLC: 2048
rand_sets[63]: 1846
 CLEAN-RRIP-POLICY-1: 2-2-1-3-2-3-0-2- CLEAN-RRIP-POLICY-2: 2-2-1-3-2-3-0-2-
 DIRTY-RRIP-POLICY-1: 2-2-0-3-1-3-1-2- DIRTY-RRIP-POLICY-2: 2-2-0-3-1-3-1-2-
 PSEL width: 10
Heartbeat CPU 0 instructions: 10000001 cycles: 4387144 heartbeat IPC: 2.27939 cumulative IPC: 2.27939 (Simulation time: 0 hr 0 min 14 sec) 
Heartbeat CPU 0 instructions: 20000000 cycles: 8781339 heartbeat IPC: 2.27573 cumulative IPC: 2.27756 (Simulation time: 0 hr 0 min 28 sec) 
Heartbeat CPU 0 instructions: 30000003 cycles: 13213275 heartbeat IPC: 2.25635 cumulative IPC: 2.27044 (Simulation time: 0 hr 0 min 42 sec) 
Heartbeat CPU 0 instructions: 40000000 cycles: 17643873 heartbeat IPC: 2.25703 cumulative IPC: 2.26708 (Simulation time: 0 hr 0 min 56 sec) 
Heartbeat CPU 0 instructions: 50000000 cycles: 22052169 heartbeat IPC: 2.26845 cumulative IPC: 2.26735 (Simulation time: 0 hr 1 min 9 sec) 
Heartbeat CPU 0 instructions: 60000000 cycles: 26457941 heartbeat IPC: 2.26975 cumulative IPC: 2.26775 (Simulation time: 0 hr 1 min 23 sec) 
Heartbeat CPU 0 instructions: 70000000 cycles: 30858857 heartbeat IPC: 2.27225 cumulative IPC: 2.26839 (Simulation time: 0 hr 1 min 37 sec) 
Heartbeat CPU 0 instructions: 80000000 cycles: 35254467 heartbeat IPC: 2.275 cumulative IPC: 2.26922 (Simulation time: 0 hr 1 min 51 sec) 
Heartbeat CPU 0 instructions: 90000000 cycles: 39648755 heartbeat IPC: 2.27568 cumulative IPC: 2.26993 (Simulation time: 0 hr 2 min 6 sec) 
Heartbeat CPU 0 instructions: 100000000 cycles: 44046087 heartbeat IPC: 2.27411 cumulative IPC: 2.27035 (Simulation time: 0 hr 2 min 20 sec) 

Warmup complete CPU 0 instructions: 100000002 cycles: 44046097 (Simulation time: 0 hr 2 min 20 sec) 

Heartbeat CPU 0 instructions: 110000000 cycles: 54023339 heartbeat IPC: 1.00228 cumulative IPC: 1.00228 (Simulation time: 0 hr 2 min 38 sec) 
Heartbeat CPU 0 instructions: 120000000 cycles: 63033396 heartbeat IPC: 1.10987 cumulative IPC: 1.05334 (Simulation time: 0 hr 2 min 56 sec) 
Heartbeat CPU 0 instructions: 130000000 cycles: 72087973 heartbeat IPC: 1.10441 cumulative IPC: 1.06983 (Simulation time: 0 hr 3 min 14 sec) 
Heartbeat CPU 0 instructions: 140000000 cycles: 81319177 heartbeat IPC: 1.08328 cumulative IPC: 1.07316 (Simulation time: 0 hr 3 min 32 sec) 
Heartbeat CPU 0 instructions: 150000000 cycles: 92383530 heartbeat IPC: 0.903803 cumulative IPC: 1.03439 (Simulation time: 0 hr 3 min 50 sec) 
Heartbeat CPU 0 instructions: 160000000 cycles: 102443722 heartbeat IPC: 0.994017 cumulative IPC: 1.02744 (Simulation time: 0 hr 4 min 8 sec) 
Heartbeat CPU 0 instructions: 170000000 cycles: 112289625 heartbeat IPC: 1.01565 cumulative IPC: 1.02574 (Simulation time: 0 hr 4 min 26 sec) 
Heartbeat CPU 0 instructions: 180000000 cycles: 121996262 heartbeat IPC: 1.03022 cumulative IPC: 1.0263 (Simulation time: 0 hr 4 min 44 sec) 
Heartbeat CPU 0 instructions: 190000002 cycles: 131822332 heartbeat IPC: 1.0177 cumulative IPC: 1.02533 (Simulation time: 0 hr 5 min 2 sec) 
Heartbeat CPU 0 instructions: 200000000 cycles: 141114557 heartbeat IPC: 1.07617 cumulative IPC: 1.0302 (Simulation time: 0 hr 5 min 19 sec) 
Heartbeat CPU 0 instructions: 210000000 cycles: 150794612 heartbeat IPC: 1.03305 cumulative IPC: 1.03046 (Simulation time: 0 hr 5 min 37 sec) 
Heartbeat CPU 0 instructions: 220000000 cycles: 159835855 heartbeat IPC: 1.10604 cumulative IPC: 1.03636 (Simulation time: 0 hr 5 min 55 sec) 
Heartbeat CPU 0 instructions: 230000001 cycles: 172000061 heartbeat IPC: 0.822084 cumulative IPC: 1.01599 (Simulation time: 0 hr 6 min 14 sec) 
Heartbeat CPU 0 instructions: 240000000 cycles: 182463007 heartbeat IPC: 0.955754 cumulative IPC: 1.01144 (Simulation time: 0 hr 6 min 32 sec) 
Heartbeat CPU 0 instructions: 250000002 cycles: 192332742 heartbeat IPC: 1.0132 cumulative IPC: 1.01155 (Simulation time: 0 hr 6 min 50 sec) 
Heartbeat CPU 0 instructions: 260000000 cycles: 201939480 heartbeat IPC: 1.04094 cumulative IPC: 1.01334 (Simulation time: 0 hr 7 min 8 sec) 
Heartbeat CPU 0 instructions: 270000001 cycles: 211390490 heartbeat IPC: 1.05809 cumulative IPC: 1.01587 (Simulation time: 0 hr 7 min 25 sec) 
Heartbeat CPU 0 instructions: 280000000 cycles: 221130213 heartbeat IPC: 1.02672 cumulative IPC: 1.01647 (Simulation time: 0 hr 7 min 43 sec) 
Heartbeat CPU 0 instructions: 290000002 cycles: 230276245 heartbeat IPC: 1.09337 cumulative IPC: 1.02024 (Simulation time: 0 hr 8 min 1 sec) 
Heartbeat CPU 0 instructions: 300000000 cycles: 239874756 heartbeat IPC: 1.04183 cumulative IPC: 1.0213 (Simulation time: 0 hr 8 min 18 sec) 
Heartbeat CPU 0 instructions: 310000000 cycles: 248965401 heartbeat IPC: 1.10003 cumulative IPC: 1.02479 (Simulation time: 0 hr 8 min 36 sec) 
Heartbeat CPU 0 instructions: 320000000 cycles: 258175459 heartbeat IPC: 1.08577 cumulative IPC: 1.02742 (Simulation time: 0 hr 8 min 54 sec) 
Heartbeat CPU 0 instructions: 330000002 cycles: 267560737 heartbeat IPC: 1.0655 cumulative IPC: 1.02902 (Simulation time: 0 hr 9 min 11 sec) 
Heartbeat CPU 0 instructions: 340000000 cycles: 277536371 heartbeat IPC: 1.00244 cumulative IPC: 1.02788 (Simulation time: 0 hr 9 min 29 sec) 
Heartbeat CPU 0 instructions: 350000000 cycles: 287826166 heartbeat IPC: 0.971837 cumulative IPC: 1.02551 (Simulation time: 0 hr 9 min 47 sec) 
Heartbeat CPU 0 instructions: 360000000 cycles: 297606537 heartbeat IPC: 1.02246 cumulative IPC: 1.0254 (Simulation time: 0 hr 10 min 5 sec) 
Heartbeat CPU 0 instructions: 370000000 cycles: 307144779 heartbeat IPC: 1.04841 cumulative IPC: 1.02623 (Simulation time: 0 hr 10 min 22 sec) 
Heartbeat CPU 0 instructions: 380000000 cycles: 316527412 heartbeat IPC: 1.0658 cumulative IPC: 1.02759 (Simulation time: 0 hr 10 min 40 sec) 
Heartbeat CPU 0 instructions: 390000002 cycles: 325692043 heartbeat IPC: 1.09115 cumulative IPC: 1.02966 (Simulation time: 0 hr 10 min 57 sec) 
Heartbeat CPU 0 instructions: 400000000 cycles: 335262941 heartbeat IPC: 1.04483 cumulative IPC: 1.03016 (Simulation time: 0 hr 11 min 15 sec) 
Heartbeat CPU 0 instructions: 410000000 cycles: 344244036 heartbeat IPC: 1.11345 cumulative IPC: 1.03265 (Simulation time: 0 hr 11 min 33 sec) 
Heartbeat CPU 0 instructions: 420000000 cycles: 355135798 heartbeat IPC: 0.918125 cumulative IPC: 1.02864 (Simulation time: 0 hr 11 min 51 sec) 
Heartbeat CPU 0 instructions: 430000000 cycles: 365973235 heartbeat IPC: 0.922727 cumulative IPC: 1.02508 (Simulation time: 0 hr 12 min 9 sec) 
Heartbeat CPU 0 instructions: 440000000 cycles: 375875579 heartbeat IPC: 1.00986 cumulative IPC: 1.02462 (Simulation time: 0 hr 12 min 27 sec) 
Heartbeat CPU 0 instructions: 450000000 cycles: 385674860 heartbeat IPC: 1.02048 cumulative IPC: 1.0245 (Simulation time: 0 hr 12 min 44 sec) 
Heartbeat CPU 0 instructions: 460000000 cycles: 395431104 heartbeat IPC: 1.02498 cumulative IPC: 1.02452 (Simulation time: 0 hr 13 min 2 sec) 
Heartbeat CPU 0 instructions: 470000001 cycles: 405235986 heartbeat IPC: 1.0199 cumulative IPC: 1.02439 (Simulation time: 0 hr 13 min 19 sec) 
Heartbeat CPU 0 instructions: 480000000 cycles: 414497772 heartbeat IPC: 1.07971 cumulative IPC: 1.02577 (Simulation time: 0 hr 13 min 37 sec) 
Heartbeat CPU 0 instructions: 490000002 cycles: 424264893 heartbeat IPC: 1.02384 cumulative IPC: 1.02573 (Simulation time: 0 hr 13 min 54 sec) 
Heartbeat CPU 0 instructions: 500000000 cycles: 433646040 heartbeat IPC: 1.06597 cumulative IPC: 1.02669 (Simulation time: 0 hr 14 min 12 sec) 
Heartbeat CPU 0 instructions: 510000000 cycles: 442840671 heartbeat IPC: 1.08759 cumulative IPC: 1.0281 (Simulation time: 0 hr 14 min 29 sec) 
Heartbeat CPU 0 instructions: 520000000 cycles: 452318067 heartbeat IPC: 1.05514 cumulative IPC: 1.02873 (Simulation time: 0 hr 14 min 47 sec) 
Heartbeat CPU 0 instructions: 530000001 cycles: 462535752 heartbeat IPC: 0.978695 cumulative IPC: 1.0275 (Simulation time: 0 hr 15 min 5 sec) 
Heartbeat CPU 0 instructions: 540000000 cycles: 473000851 heartbeat IPC: 0.955557 cumulative IPC: 1.02575 (Simulation time: 0 hr 15 min 23 sec) 
Heartbeat CPU 0 instructions: 550000003 cycles: 482978846 heartbeat IPC: 1.00221 cumulative IPC: 1.02521 (Simulation time: 0 hr 15 min 40 sec) 
Heartbeat CPU 0 instructions: 560000000 cycles: 492708362 heartbeat IPC: 1.0278 cumulative IPC: 1.02527 (Simulation time: 0 hr 15 min 57 sec) 
Heartbeat CPU 0 instructions: 570000002 cycles: 502258544 heartbeat IPC: 1.0471 cumulative IPC: 1.02573 (Simulation time: 0 hr 16 min 15 sec) 
Heartbeat CPU 0 instructions: 580000000 cycles: 511605842 heartbeat IPC: 1.06983 cumulative IPC: 1.02661 (Simulation time: 0 hr 16 min 32 sec) 
Heartbeat CPU 0 instructions: 590000002 cycles: 521302072 heartbeat IPC: 1.03133 cumulative IPC: 1.0267 (Simulation time: 0 hr 16 min 50 sec) 
Heartbeat CPU 0 instructions: 600000000 cycles: 530565897 heartbeat IPC: 1.07947 cumulative IPC: 1.02771 (Simulation time: 0 hr 17 min 7 sec) 
Finished CPU 0 instructions: 500000000 cycles: 486519814 cumulative IPC: 1.02771 (Simulation time: 0 hr 17 min 7 sec) 

CPU 0 Branch Prediction Accuracy: 97.8526% MPKI: 2.66709
Number of Branches: 62099103 Number of Mispredictions: 1333545
Number of LOAD Instructions: 210576465
Number of LOAD Instructions (ROI): 210576465
Number of STORE Instructions: 16915507
Number of STORE Instructions (ROI): 16915507
Total Destination Memory Operands: 16918869
Total Destination Memory Operands (ROI): 16918869
Total Source Memory Operands: 210576465
Total Source Memory Operands (ROI): 210576465
Number of DEPENDED LOADS: 345274
Number of DEPENDED LOADS (ROI): 345274
Number of SQ_ADDED: 16918826
Number of SQ_ADDED (ROI): 16918826
Number of LQ_ADDED: 210610822
Number of LQ_ADDED (ROI): 210610822
Number of Instructions read from trace: 600000257

ChampSim completed all CPUs

Region of Interest Statistics

CPU 0 cumulative IPC: 1.02771 instructions: 500000000 cycles: 486519814
ITLB TOTAL     ACCESS:   76338929  HIT:   76338891  MISS:         38
ITLB LOAD      ACCESS:   76338929  HIT:   76338891  MISS:         38
ITLB RFO       ACCESS:          0  HIT:          0  MISS:          0
ITLB PREFETCH  ACCESS:          0  HIT:          0  MISS:          0
ITLB WRITEBACK ACCESS:          0  HIT:          0  MISS:          0
ITLB PREFETCH  REQUESTED:          0  ISSUED:          0  USEFUL:          0  USELESS:          0
ITLB TOTAL MSHR MERGED:         37
ITLB LOAD MSHR MERGED:         37
ITLB RFO MSHR MERGED:          0
ITLB PREFETCH MSHR MERGED:          0
ITLB WRITEBACK MSHR MERGED:          0
ITLB TOTAL ACCESSES:   76338966 HITS:   76338891 MISSES:         75
ITLB LOAD ACCESSES:   76338966 HITS:   76338891 MISSES:         75
ITLB RFO ACCESSES:          0 HITS:          0 MISSES:          0
ITLB PREFETCH ACCESSES:          0 HITS:          0 MISSES:          0
ITLB WRITEBACK ACCESSES:          0 HITS:          0 MISSES:          0
ITLB RQ ACCESS:  500000188
ITLB RQ TO_CACHE:   76338967
ITLB RQ MERGED:  423661221
ITLB RQ FORWARD:          0
ITLB WQ ACCESS:          0
ITLB WQ TO_CACHE:          0
ITLB WQ MERGED:          0
ITLB WQ FORWARD:          0
DTLB TOTAL     ACCESS:  136732408  HIT:  136529609  MISS:     202799
DTLB LOAD      ACCESS:  128670242  HIT:  128470164  MISS:     200078
DTLB RFO       ACCESS:    8062166  HIT:    8059445  MISS:       2721
DTLB PREFETCH  ACCESS:          0  HIT:          0  MISS:          0
DTLB WRITEBACK ACCESS:          0  HIT:          0  MISS:          0
DTLB PREFETCH  REQUESTED:          0  ISSUED:          0  USEFUL:          0  USELESS:          0
DTLB TOTAL MSHR MERGED:     449035
DTLB LOAD MSHR MERGED:     445325
DTLB RFO MSHR MERGED:       3710
DTLB PREFETCH MSHR MERGED:          0
DTLB WRITEBACK MSHR MERGED:          0
DTLB TOTAL ACCESSES:  137181443 HITS:  136529609 MISSES:     651834
DTLB LOAD ACCESSES:  129115567 HITS:  128470164 MISSES:     645403
DTLB RFO ACCESSES:    8065876 HITS:    8059445 MISSES:       6431
DTLB PREFETCH ACCESSES:          0 HITS:          0 MISSES:          0
DTLB WRITEBACK ACCESSES:          0 HITS:          0 MISSES:          0
DTLB RQ ACCESS:  189419290
DTLB RQ TO_CACHE:  137181443
DTLB RQ MERGED:   52237847
DTLB RQ FORWARD:          0
DTLB WQ ACCESS:          0
DTLB WQ TO_CACHE:          0
DTLB WQ MERGED:          0
DTLB WQ FORWARD:          0
L1D TOTAL     ACCESS:  125219621  HIT:  107662589  MISS:   17557032
L1D LOAD      ACCESS:   72283834  HIT:   62008223  MISS:   10275611
L1D RFO       ACCESS:   14014087  HIT:   13861252  MISS:     152835
L1D PREFETCH  ACCESS:   38921700  HIT:   31793114  MISS:    7128586
L1D WRITEBACK ACCESS:          0  HIT:          0  MISS:          0
L1D PREFETCH  REQUESTED:   85472583  ISSUED:   84151770  USEFUL:    5869152  USELESS:    1259445
L1D TOTAL MSHR MERGED:   31599086
L1D LOAD MSHR MERGED:   18353068
L1D RFO MSHR MERGED:     266518
L1D PREFETCH MSHR MERGED:   12979500
L1D WRITEBACK MSHR MERGED:          0
L1D TOTAL ACCESSES:  156819201 HITS:  107663084 MISSES:   49156117
L1D LOAD ACCESSES:   85472602 HITS:   62008242 MISSES:   23464360
L1D RFO ACCESSES:   14280577 HITS:   13861252 MISSES:     419325
L1D PREFETCH ACCESSES:   57066022 HITS:   31793590 MISSES:   25272432
L1D WRITEBACK ACCESSES:          0 HITS:          0 MISSES:          0
L1D RQ ACCESS:  175130268
L1D RQ TO_CACHE:   85472583
L1D RQ MERGED:   89657666
L1D RQ FORWARD:          0
L1D WQ ACCESS:   14289037
L1D WQ TO_CACHE:   14280577
L1D WQ MERGED:       8460
L1D WQ FORWARD:        495
L1I TOTAL     ACCESS:   93369980  HIT:   93368184  MISS:       1796
L1I LOAD      ACCESS:   93369980  HIT:   93368184  MISS:       1796
L1I RFO       ACCESS:          0  HIT:          0  MISS:          0
L1I PREFETCH  ACCESS:          0  HIT:          0  MISS:          0
L1I WRITEBACK ACCESS:          0  HIT:          0  MISS:          0
L1I PREFETCH  REQUESTED:          0  ISSUED:          0  USEFUL:          0  USELESS:          0
L1I TOTAL MSHR MERGED:       2339
L1I LOAD MSHR MERGED:       2339
L1I RFO MSHR MERGED:          0
L1I PREFETCH MSHR MERGED:          0
L1I WRITEBACK MSHR MERGED:          0
L1I TOTAL ACCESSES:   93372319 HITS:   93368184 MISSES:       4135
L1I LOAD ACCESSES:   93372319 HITS:   93368184 MISSES:       4135
L1I RFO ACCESSES:          0 HITS:          0 MISSES:          0
L1I PREFETCH ACCESSES:          0 HITS:          0 MISSES:          0
L1I WRITEBACK ACCESSES:          0 HITS:          0 MISSES:          0
L1I RQ ACCESS:  500000187
L1I RQ TO_CACHE:   93372319
L1I RQ MERGED:  406627868
L1I RQ FORWARD:          0
L1I WQ ACCESS:          0
L1I WQ TO_CACHE:          0
L1I WQ MERGED:          0
L1I WQ FORWARD:          0
L2C TOTAL     ACCESS:   20903758  HIT:    8674385  MISS:   12229373
L2C LOAD      ACCESS:    5113064  HIT:    2145984  MISS:    2967080
L2C RFO       ACCESS:     152807  HIT:       6517  MISS:     146290
L2C PREFETCH  ACCESS:   13865134  HIT:    4749243  MISS:    9115891
L2C WRITEBACK ACCESS:    1772753  HIT:    1772641  MISS:        112
L2C PREFETCH  REQUESTED:    1812040  ISSUED:    1812040  USEFUL:    1066907  USELESS:    8050640
L2C TOTAL MSHR MERGED:      96788
L2C LOAD MSHR MERGED:      21977
L2C RFO MSHR MERGED:          0
L2C PREFETCH MSHR MERGED:      74811
L2C WRITEBACK MSHR MERGED:          0
L2C TOTAL ACCESSES:   21024423 HITS:    8674422 MISSES:   12350001
L2C LOAD ACCESSES:    5113088 HITS:    2146008 MISSES:    2967080
L2C RFO ACCESSES:     152807 HITS:       6517 MISSES:     146290
L2C PREFETCH ACCESSES:   13985775 HITS:    4749256 MISSES:    9236519
L2C WRITEBACK ACCESSES:    1772753 HITS:    1772641 MISSES:        112
L2C RQ ACCESS:    5265895
L2C RQ TO_CACHE:    5265871
L2C RQ MERGED:          0
L2C RQ FORWARD:          0
L2C WQ ACCESS:    1772753
L2C WQ TO_CACHE:    1772753
L2C WQ MERGED:          0
L2C WQ FORWARD:         37
LLC TOTAL     ACCESS:   12533777  HIT:    6795478  MISS:    5738299
LLC LOAD      ACCESS:    2945088  HIT:    2478262  MISS:     466826
LLC RFO       ACCESS:     146290  HIT:      74298  MISS:      71992
LLC PREFETCH  ACCESS:    9156420  HIT:    4011853  MISS:    5144567
LLC WRITEBACK ACCESS:     285979  HIT:     231065  MISS:      54914
LLC PREFETCH  REQUESTED:          0  ISSUED:          0  USEFUL:      10398  USELESS:    5133943
LLC TOTAL MSHR MERGED:       1113
LLC LOAD MSHR MERGED:        242
LLC RFO MSHR MERGED:          0
LLC PREFETCH MSHR MERGED:        871
LLC WRITEBACK MSHR MERGED:          0
LLC TOTAL ACCESSES:   12534916 HITS:    6795504 MISSES:    5739412
LLC LOAD ACCESSES:    2945103 HITS:    2478277 MISSES:     466826
LLC RFO ACCESSES:     146290 HITS:      74298 MISSES:      71992
LLC PREFETCH ACCESSES:    9157544 HITS:    4011864 MISSES:    5145680
LLC WRITEBACK ACCESSES:     285979 HITS:     231065 MISSES:      54914
LLC 0 RQ ACCESS:    3091393
LLC 0 RQ TO_CACHE:    3091378
LLC 0 RQ MERGED:          0
LLC 0 RQ FORWARD:          0
LLC WQ ACCESS:     285979
LLC WQ TO_CACHE:     285979
LLC WQ MERGED:          0
LLC WQ FORWARD:         26
Major fault: 0 Minor fault: 6524
CPU 0 L1D next line prefetcher final stats
CPU 0 L2C PC-based stride prefetcher final stats
All Misses: 7537712
All Hits: 7521079
SD Algo Stats - Switches: 0 SRR-Repls: 497237 BRR-Repls: 0

DRAM Statistics
 CHANNEL 0
 RQ ROW_BUFFER_HIT:    4865103  ROW_BUFFER_MISS:     810299
 DBUS_CONGESTED:    2053203
 WQ ROW_BUFFER_HIT:      14244  ROW_BUFFER_MISS:      78105  FULL:          0

 AVG_CONGESTED_CYCLE: 12
LOADS RETIRED: 175418235
INSTR RETIRED: 500000000
