
*** ChampSim Multicore Out-of-Order Simulator ***

Warmup Instructions: 100000000
Simulation Instructions: 500000000
Number of CPUs: 1
LLC sets: 2048
LLC ways: 16
Clean RRIP Policies: 1213030112130301 Dirty RRIP Policies: 2213130122131301 PSEL Width: 10 Track Set: 4294967295 PSEL Mask: 1 Demote Mask: 3040111030401110DS Algo: 0Window size: 0
Off-chip DRAM Size: 4096 MB Channels: 1 Width: 64-bit Data Rate: 1600 MT/s

CPU 0 runs /mnt/beegfs/iconst01/spec2017/Gcc.trace.gz
NOT SORTED
TRACE STRING: /mnt/beegfs/iconst01/spec2017/Gcc.trace.gz
SORTED
TRACE STRING: /mnt/beegfs/iconst01/spec2017/Gcc.trace.gz
INITIAL
TRACE STRING: /mnt/beegfs/iconst01/spec2017/Gcc.trace.gz

champsim_seed used: 269

CPU 0 L1D next line prefetcher
CPU 0 L2C IP-based stride prefetcher
Initialize DRRIP state
Assign rand_sets[0]: 454  LLC: 2048
rand_sets[0]: 454
Assign rand_sets[1]: 1662  LLC: 2048
rand_sets[1]: 1662
Assign rand_sets[2]: 1921  LLC: 2048
rand_sets[2]: 1921
Assign rand_sets[3]: 1131  LLC: 2048
rand_sets[3]: 1131
Assign rand_sets[4]: 331  LLC: 2048
rand_sets[4]: 331
Assign rand_sets[5]: 1531  LLC: 2048
rand_sets[5]: 1531
Assign rand_sets[6]: 482  LLC: 2048
rand_sets[6]: 482
Assign rand_sets[7]: 1275  LLC: 2048
rand_sets[7]: 1275
Assign rand_sets[8]: 1876  LLC: 2048
rand_sets[8]: 1876
Assign rand_sets[9]: 2038  LLC: 2048
rand_sets[9]: 2038
Assign rand_sets[10]: 701  LLC: 2048
rand_sets[10]: 701
Assign rand_sets[11]: 479  LLC: 2048
rand_sets[11]: 479
Assign rand_sets[12]: 892  LLC: 2048
rand_sets[12]: 892
Assign rand_sets[13]: 1820  LLC: 2048
rand_sets[13]: 1820
Assign rand_sets[14]: 1505  LLC: 2048
rand_sets[14]: 1505
Assign rand_sets[15]: 1159  LLC: 2048
rand_sets[15]: 1159
Assign rand_sets[16]: 513  LLC: 2048
rand_sets[16]: 513
Assign rand_sets[17]: 703  LLC: 2048
rand_sets[17]: 703
Assign rand_sets[18]: 561  LLC: 2048
rand_sets[18]: 561
Assign rand_sets[19]: 990  LLC: 2048
rand_sets[19]: 990
Assign rand_sets[20]: 342  LLC: 2048
rand_sets[20]: 342
Assign rand_sets[21]: 882  LLC: 2048
rand_sets[21]: 882
Assign rand_sets[22]: 15  LLC: 2048
rand_sets[22]: 15
Assign rand_sets[23]: 71  LLC: 2048
rand_sets[23]: 71
Assign rand_sets[24]: 1127  LLC: 2048
rand_sets[24]: 1127
Assign rand_sets[25]: 1382  LLC: 2048
rand_sets[25]: 1382
Assign rand_sets[26]: 647  LLC: 2048
rand_sets[26]: 647
Assign rand_sets[27]: 857  LLC: 2048
rand_sets[27]: 857
Assign rand_sets[28]: 1450  LLC: 2048
rand_sets[28]: 1450
Assign rand_sets[29]: 1160  LLC: 2048
rand_sets[29]: 1160
Assign rand_sets[30]: 1852  LLC: 2048
rand_sets[30]: 1852
Assign rand_sets[31]: 1881  LLC: 2048
rand_sets[31]: 1881
Assign rand_sets[32]: 1770  LLC: 2048
rand_sets[32]: 1770
Assign rand_sets[33]: 1622  LLC: 2048
rand_sets[33]: 1622
Assign rand_sets[34]: 275  LLC: 2048
rand_sets[34]: 275
Assign rand_sets[35]: 635  LLC: 2048
rand_sets[35]: 635
Assign rand_sets[36]: 466  LLC: 2048
rand_sets[36]: 466
Assign rand_sets[37]: 1413  LLC: 2048
rand_sets[37]: 1413
Assign rand_sets[38]: 417  LLC: 2048
rand_sets[38]: 417
Assign rand_sets[39]: 472  LLC: 2048
rand_sets[39]: 472
Assign rand_sets[40]: 1340  LLC: 2048
rand_sets[40]: 1340
Assign rand_sets[41]: 852  LLC: 2048
rand_sets[41]: 852
Assign rand_sets[42]: 1365  LLC: 2048
rand_sets[42]: 1365
Assign rand_sets[43]: 47  LLC: 2048
rand_sets[43]: 47
Assign rand_sets[44]: 823  LLC: 2048
rand_sets[44]: 823
Assign rand_sets[45]: 686  LLC: 2048
rand_sets[45]: 686
Assign rand_sets[46]: 1637  LLC: 2048
rand_sets[46]: 1637
Assign rand_sets[47]: 1115  LLC: 2048
rand_sets[47]: 1115
Assign rand_sets[48]: 986  LLC: 2048
rand_sets[48]: 986
Assign rand_sets[49]: 258  LLC: 2048
rand_sets[49]: 258
Assign rand_sets[50]: 633  LLC: 2048
rand_sets[50]: 633
Assign rand_sets[51]: 920  LLC: 2048
rand_sets[51]: 920
Assign rand_sets[52]: 204  LLC: 2048
rand_sets[52]: 204
Assign rand_sets[53]: 227  LLC: 2048
rand_sets[53]: 227
Assign rand_sets[54]: 1818  LLC: 2048
rand_sets[54]: 1818
Assign rand_sets[55]: 886  LLC: 2048
rand_sets[55]: 886
Assign rand_sets[56]: 1422  LLC: 2048
rand_sets[56]: 1422
Assign rand_sets[57]: 607  LLC: 2048
rand_sets[57]: 607
Assign rand_sets[58]: 217  LLC: 2048
rand_sets[58]: 217
Assign rand_sets[59]: 1945  LLC: 2048
rand_sets[59]: 1945
Assign rand_sets[60]: 143  LLC: 2048
rand_sets[60]: 143
Assign rand_sets[61]: 1311  LLC: 2048
rand_sets[61]: 1311
Assign rand_sets[62]: 319  LLC: 2048
rand_sets[62]: 319
Assign rand_sets[63]: 1846  LLC: 2048
rand_sets[63]: 1846
 CLEAN-RRIP-POLICY-1: 1-2-1-3-0-3-0-1- CLEAN-RRIP-POLICY-2: 1-2-1-3-0-3-0-1-
 DIRTY-RRIP-POLICY-1: 2-2-1-3-1-3-0-1- DIRTY-RRIP-POLICY-2: 2-2-1-3-1-3-0-1-
 PSEL width: 10
Heartbeat CPU 0 instructions: 10000001 cycles: 7315979 heartbeat IPC: 1.36687 cumulative IPC: 1.36687 (Simulation time: 0 hr 0 min 14 sec) 
Heartbeat CPU 0 instructions: 20000000 cycles: 14307438 heartbeat IPC: 1.43032 cumulative IPC: 1.39787 (Simulation time: 0 hr 0 min 28 sec) 
Heartbeat CPU 0 instructions: 30000001 cycles: 21020220 heartbeat IPC: 1.4897 cumulative IPC: 1.4272 (Simulation time: 0 hr 0 min 44 sec) 
Heartbeat CPU 0 instructions: 40000000 cycles: 27481051 heartbeat IPC: 1.54779 cumulative IPC: 1.45555 (Simulation time: 0 hr 0 min 59 sec) 
Heartbeat CPU 0 instructions: 50000001 cycles: 33582707 heartbeat IPC: 1.6389 cumulative IPC: 1.48886 (Simulation time: 0 hr 1 min 14 sec) 
Heartbeat CPU 0 instructions: 60000000 cycles: 40063831 heartbeat IPC: 1.54294 cumulative IPC: 1.49761 (Simulation time: 0 hr 1 min 30 sec) 
Heartbeat CPU 0 instructions: 70000000 cycles: 47101668 heartbeat IPC: 1.42089 cumulative IPC: 1.48615 (Simulation time: 0 hr 1 min 44 sec) 
Heartbeat CPU 0 instructions: 80000000 cycles: 54191067 heartbeat IPC: 1.41056 cumulative IPC: 1.47626 (Simulation time: 0 hr 1 min 58 sec) 
Heartbeat CPU 0 instructions: 90000003 cycles: 61195281 heartbeat IPC: 1.42771 cumulative IPC: 1.4707 (Simulation time: 0 hr 2 min 13 sec) 
Heartbeat CPU 0 instructions: 100000000 cycles: 68362304 heartbeat IPC: 1.39528 cumulative IPC: 1.46279 (Simulation time: 0 hr 2 min 27 sec) 

Warmup complete CPU 0 instructions: 100000004 cycles: 68362305 (Simulation time: 0 hr 2 min 27 sec) 

Heartbeat CPU 0 instructions: 110000003 cycles: 95984384 heartbeat IPC: 0.362029 cumulative IPC: 0.362029 (Simulation time: 0 hr 2 min 54 sec) 
Heartbeat CPU 0 instructions: 120000000 cycles: 123442924 heartbeat IPC: 0.364185 cumulative IPC: 0.363104 (Simulation time: 0 hr 3 min 22 sec) 
Heartbeat CPU 0 instructions: 130000000 cycles: 148415216 heartbeat IPC: 0.400444 cumulative IPC: 0.374752 (Simulation time: 0 hr 3 min 49 sec) 
Heartbeat CPU 0 instructions: 140000000 cycles: 177809674 heartbeat IPC: 0.3402 cumulative IPC: 0.365472 (Simulation time: 0 hr 4 min 16 sec) 
Heartbeat CPU 0 instructions: 150000000 cycles: 207614062 heartbeat IPC: 0.335521 cumulative IPC: 0.359062 (Simulation time: 0 hr 4 min 44 sec) 
Heartbeat CPU 0 instructions: 160000000 cycles: 235001447 heartbeat IPC: 0.365132 cumulative IPC: 0.360059 (Simulation time: 0 hr 5 min 11 sec) 
Heartbeat CPU 0 instructions: 170000001 cycles: 263005258 heartbeat IPC: 0.357094 cumulative IPC: 0.359633 (Simulation time: 0 hr 5 min 39 sec) 
Heartbeat CPU 0 instructions: 180000000 cycles: 291420260 heartbeat IPC: 0.351927 cumulative IPC: 0.358651 (Simulation time: 0 hr 6 min 7 sec) 
Heartbeat CPU 0 instructions: 190000002 cycles: 319383925 heartbeat IPC: 0.357607 cumulative IPC: 0.358535 (Simulation time: 0 hr 6 min 35 sec) 
Heartbeat CPU 0 instructions: 200000000 cycles: 347678619 heartbeat IPC: 0.353423 cumulative IPC: 0.358017 (Simulation time: 0 hr 7 min 3 sec) 
Heartbeat CPU 0 instructions: 210000002 cycles: 375469851 heartbeat IPC: 0.359826 cumulative IPC: 0.358181 (Simulation time: 0 hr 7 min 31 sec) 
Heartbeat CPU 0 instructions: 220000000 cycles: 404511674 heartbeat IPC: 0.344331 cumulative IPC: 0.356984 (Simulation time: 0 hr 7 min 57 sec) 
Heartbeat CPU 0 instructions: 230000000 cycles: 432017577 heartbeat IPC: 0.363558 cumulative IPC: 0.357481 (Simulation time: 0 hr 8 min 24 sec) 
Heartbeat CPU 0 instructions: 240000000 cycles: 457936671 heartbeat IPC: 0.385816 cumulative IPC: 0.359367 (Simulation time: 0 hr 8 min 50 sec) 
Heartbeat CPU 0 instructions: 250000000 cycles: 488042332 heartbeat IPC: 0.332163 cumulative IPC: 0.357415 (Simulation time: 0 hr 9 min 19 sec) 
Heartbeat CPU 0 instructions: 260000000 cycles: 515117594 heartbeat IPC: 0.369341 cumulative IPC: 0.358138 (Simulation time: 0 hr 9 min 46 sec) 
Heartbeat CPU 0 instructions: 270000003 cycles: 543532700 heartbeat IPC: 0.351926 cumulative IPC: 0.357766 (Simulation time: 0 hr 10 min 15 sec) 
Heartbeat CPU 0 instructions: 280000000 cycles: 571679642 heartbeat IPC: 0.355278 cumulative IPC: 0.357627 (Simulation time: 0 hr 10 min 43 sec) 
Heartbeat CPU 0 instructions: 290000000 cycles: 600527595 heartbeat IPC: 0.346645 cumulative IPC: 0.357032 (Simulation time: 0 hr 11 min 12 sec) 
Heartbeat CPU 0 instructions: 300000000 cycles: 630339727 heartbeat IPC: 0.335434 cumulative IPC: 0.355886 (Simulation time: 0 hr 11 min 39 sec) 
Heartbeat CPU 0 instructions: 310000001 cycles: 659660225 heartbeat IPC: 0.341058 cumulative IPC: 0.355151 (Simulation time: 0 hr 12 min 7 sec) 
Heartbeat CPU 0 instructions: 320000000 cycles: 687807467 heartbeat IPC: 0.355275 cumulative IPC: 0.355157 (Simulation time: 0 hr 12 min 33 sec) 
Heartbeat CPU 0 instructions: 330000000 cycles: 716392255 heartbeat IPC: 0.349836 cumulative IPC: 0.354922 (Simulation time: 0 hr 13 min 0 sec) 
Heartbeat CPU 0 instructions: 340000000 cycles: 745630593 heartbeat IPC: 0.342017 cumulative IPC: 0.354365 (Simulation time: 0 hr 13 min 27 sec) 
Heartbeat CPU 0 instructions: 350000003 cycles: 772608116 heartbeat IPC: 0.370679 cumulative IPC: 0.35499 (Simulation time: 0 hr 13 min 54 sec) 
Heartbeat CPU 0 instructions: 360000000 cycles: 800672185 heartbeat IPC: 0.356327 cumulative IPC: 0.355041 (Simulation time: 0 hr 14 min 19 sec) 
Heartbeat CPU 0 instructions: 370000000 cycles: 828847711 heartbeat IPC: 0.354918 cumulative IPC: 0.355036 (Simulation time: 0 hr 14 min 45 sec) 
Heartbeat CPU 0 instructions: 380000000 cycles: 857345880 heartbeat IPC: 0.3509 cumulative IPC: 0.354887 (Simulation time: 0 hr 15 min 11 sec) 
Heartbeat CPU 0 instructions: 390000001 cycles: 884955829 heartbeat IPC: 0.362188 cumulative IPC: 0.355134 (Simulation time: 0 hr 15 min 37 sec) 
Heartbeat CPU 0 instructions: 400000000 cycles: 913566854 heartbeat IPC: 0.349516 cumulative IPC: 0.354944 (Simulation time: 0 hr 16 min 2 sec) 
Heartbeat CPU 0 instructions: 410000001 cycles: 940871639 heartbeat IPC: 0.366236 cumulative IPC: 0.355297 (Simulation time: 0 hr 16 min 27 sec) 
Heartbeat CPU 0 instructions: 420000000 cycles: 968188125 heartbeat IPC: 0.366079 cumulative IPC: 0.355624 (Simulation time: 0 hr 16 min 52 sec) 
Heartbeat CPU 0 instructions: 430000002 cycles: 995869054 heartbeat IPC: 0.36126 cumulative IPC: 0.355793 (Simulation time: 0 hr 17 min 18 sec) 
Heartbeat CPU 0 instructions: 440000000 cycles: 1025352294 heartbeat IPC: 0.339176 cumulative IPC: 0.355281 (Simulation time: 0 hr 17 min 43 sec) 
Heartbeat CPU 0 instructions: 450000002 cycles: 1054569210 heartbeat IPC: 0.342268 cumulative IPC: 0.354895 (Simulation time: 0 hr 18 min 8 sec) 
Heartbeat CPU 0 instructions: 460000000 cycles: 1082255719 heartbeat IPC: 0.361187 cumulative IPC: 0.355067 (Simulation time: 0 hr 18 min 34 sec) 
Heartbeat CPU 0 instructions: 470000000 cycles: 1109889842 heartbeat IPC: 0.361871 cumulative IPC: 0.355247 (Simulation time: 0 hr 18 min 59 sec) 
Heartbeat CPU 0 instructions: 480000000 cycles: 1137779549 heartbeat IPC: 0.358555 cumulative IPC: 0.355334 (Simulation time: 0 hr 19 min 24 sec) 
Heartbeat CPU 0 instructions: 490000000 cycles: 1165377965 heartbeat IPC: 0.36234 cumulative IPC: 0.35551 (Simulation time: 0 hr 19 min 49 sec) 
Heartbeat CPU 0 instructions: 500000000 cycles: 1193664833 heartbeat IPC: 0.353521 cumulative IPC: 0.35546 (Simulation time: 0 hr 20 min 14 sec) 
Heartbeat CPU 0 instructions: 510000000 cycles: 1228387163 heartbeat IPC: 0.287999 cumulative IPC: 0.353441 (Simulation time: 0 hr 20 min 43 sec) 
Heartbeat CPU 0 instructions: 520000000 cycles: 1256334387 heartbeat IPC: 0.357817 cumulative IPC: 0.353544 (Simulation time: 0 hr 21 min 9 sec) 
Heartbeat CPU 0 instructions: 530000001 cycles: 1285545467 heartbeat IPC: 0.342336 cumulative IPC: 0.353275 (Simulation time: 0 hr 21 min 35 sec) 
Heartbeat CPU 0 instructions: 540000000 cycles: 1313532076 heartbeat IPC: 0.357314 cumulative IPC: 0.353365 (Simulation time: 0 hr 22 min 1 sec) 
Heartbeat CPU 0 instructions: 550000001 cycles: 1342706529 heartbeat IPC: 0.342766 cumulative IPC: 0.353123 (Simulation time: 0 hr 22 min 29 sec) 
Heartbeat CPU 0 instructions: 560000000 cycles: 1368051219 heartbeat IPC: 0.39456 cumulative IPC: 0.353931 (Simulation time: 0 hr 22 min 54 sec) 
Heartbeat CPU 0 instructions: 570000000 cycles: 1397469162 heartbeat IPC: 0.339929 cumulative IPC: 0.353621 (Simulation time: 0 hr 23 min 21 sec) 
Heartbeat CPU 0 instructions: 580000000 cycles: 1425395414 heartbeat IPC: 0.358086 cumulative IPC: 0.353713 (Simulation time: 0 hr 23 min 47 sec) 
Heartbeat CPU 0 instructions: 590000001 cycles: 1450200005 heartbeat IPC: 0.403151 cumulative IPC: 0.3546 (Simulation time: 0 hr 24 min 12 sec) 
Heartbeat CPU 0 instructions: 600000000 cycles: 1476324086 heartbeat IPC: 0.382789 cumulative IPC: 0.355123 (Simulation time: 0 hr 24 min 38 sec) 
Finished CPU 0 instructions: 500000000 cycles: 1407961803 cumulative IPC: 0.355123 (Simulation time: 0 hr 24 min 38 sec) 

CPU 0 Branch Prediction Accuracy: 86.4311% MPKI: 26.2662
Number of Branches: 96788573 Number of Mispredictions: 13133102
Number of LOAD Instructions: 164682285
Number of LOAD Instructions (ROI): 164682285
Number of STORE Instructions: 78194750
Number of STORE Instructions (ROI): 78194750
Total Destination Memory Operands: 83268534
Total Destination Memory Operands (ROI): 83268534
Total Source Memory Operands: 164712438
Total Source Memory Operands (ROI): 164712438
Number of DEPENDED LOADS: 7061019
Number of DEPENDED LOADS (ROI): 7061019
Number of SQ_ADDED: 83268522
Number of SQ_ADDED (ROI): 83268522
Number of LQ_ADDED: 236762822
Number of LQ_ADDED (ROI): 236762822
Number of Instructions read from trace: 600000066

ChampSim completed all CPUs

Region of Interest Statistics

CPU 0 cumulative IPC: 0.355123 instructions: 500000000 cycles: 1407961803
ITLB TOTAL     ACCESS:  100512329  HIT:  100307883  MISS:     204446
ITLB LOAD      ACCESS:  100512329  HIT:  100307883  MISS:     204446
ITLB RFO       ACCESS:          0  HIT:          0  MISS:          0
ITLB PREFETCH  ACCESS:          0  HIT:          0  MISS:          0
ITLB WRITEBACK ACCESS:          0  HIT:          0  MISS:          0
ITLB PREFETCH  REQUESTED:          0  ISSUED:          0  USEFUL:          0  USELESS:          0
ITLB TOTAL MSHR MERGED:     172424
ITLB LOAD MSHR MERGED:     172424
ITLB RFO MSHR MERGED:          0
ITLB PREFETCH MSHR MERGED:          0
ITLB WRITEBACK MSHR MERGED:          0
ITLB TOTAL ACCESSES:  100684753 HITS:  100307883 MISSES:     376870
ITLB LOAD ACCESSES:  100684753 HITS:  100307883 MISSES:     376870
ITLB RFO ACCESSES:          0 HITS:          0 MISSES:          0
ITLB PREFETCH ACCESSES:          0 HITS:          0 MISSES:          0
ITLB WRITEBACK ACCESSES:          0 HITS:          0 MISSES:          0
ITLB RQ ACCESS:  500000057
ITLB RQ TO_CACHE:  100684753
ITLB RQ MERGED:  399315304
ITLB RQ FORWARD:          0
ITLB WQ ACCESS:          0
ITLB WQ TO_CACHE:          0
ITLB WQ MERGED:          0
ITLB WQ FORWARD:          0
DTLB TOTAL     ACCESS:  165334400  HIT:  164700048  MISS:     634352
DTLB LOAD      ACCESS:  106290746  HIT:  105720790  MISS:     569956
DTLB RFO       ACCESS:   59043654  HIT:   58979258  MISS:      64396
DTLB PREFETCH  ACCESS:          0  HIT:          0  MISS:          0
DTLB WRITEBACK ACCESS:          0  HIT:          0  MISS:          0
DTLB PREFETCH  REQUESTED:          0  ISSUED:          0  USEFUL:          0  USELESS:          0
DTLB TOTAL MSHR MERGED:      99973
DTLB LOAD MSHR MERGED:      59469
DTLB RFO MSHR MERGED:      40504
DTLB PREFETCH MSHR MERGED:          0
DTLB WRITEBACK MSHR MERGED:          0
DTLB TOTAL ACCESSES:  165434373 HITS:  164700048 MISSES:     734325
DTLB LOAD ACCESSES:  106350215 HITS:  105720790 MISSES:     629425
DTLB RFO ACCESSES:   59084158 HITS:   58979258 MISSES:     104900
DTLB PREFETCH ACCESSES:          0 HITS:          0 MISSES:          0
DTLB WRITEBACK ACCESSES:          0 HITS:          0 MISSES:          0
DTLB RQ ACCESS:  200309863
DTLB RQ TO_CACHE:  165434373
DTLB RQ MERGED:   34875490
DTLB RQ FORWARD:          0
DTLB WQ ACCESS:          0
DTLB WQ TO_CACHE:          0
DTLB WQ MERGED:          0
DTLB WQ FORWARD:          0
L1D TOTAL     ACCESS:  281804016  HIT:  273894739  MISS:    7909277
L1D LOAD      ACCESS:  110413821  HIT:  107135205  MISS:    3278616
L1D RFO       ACCESS:   67102273  HIT:   66210984  MISS:     891289
L1D PREFETCH  ACCESS:  104287922  HIT:  100548550  MISS:    3739372
L1D WRITEBACK ACCESS:          0  HIT:          0  MISS:          0
L1D PREFETCH  REQUESTED:  110815607  ISSUED:  109116353  USEFUL:    1660182  USELESS:    2079154
L1D TOTAL MSHR MERGED:    2897108
L1D LOAD MSHR MERGED:     499852
L1D RFO MSHR MERGED:    1884372
L1D PREFETCH MSHR MERGED:     512884
L1D WRITEBACK MSHR MERGED:          0
L1D TOTAL ACCESSES:  284728641 HITS:  273922256 MISSES:   10806385
L1D LOAD ACCESSES:  110817128 HITS:  107136726 MISSES:    3680402
L1D RFO ACCESSES:   68974137 HITS:   66210984 MISSES:    2763153
L1D PREFETCH ACCESSES:  104937376 HITS:  100574546 MISSES:    4362830
L1D WRITEBACK ACCESSES:          0 HITS:          0 MISSES:          0
L1D RQ ACCESS:  130757260
L1D RQ TO_CACHE:  110815610
L1D RQ MERGED:   19940129
L1D RQ FORWARD:          0
L1D WQ ACCESS:   69552603
L1D WQ TO_CACHE:   68974138
L1D WQ MERGED:     578465
L1D WQ FORWARD:      27517
L1I TOTAL     ACCESS:  126559988  HIT:  122321435  MISS:    4238553
L1I LOAD      ACCESS:  126559988  HIT:  122321435  MISS:    4238553
L1I RFO       ACCESS:          0  HIT:          0  MISS:          0
L1I PREFETCH  ACCESS:          0  HIT:          0  MISS:          0
L1I WRITEBACK ACCESS:          0  HIT:          0  MISS:          0
L1I PREFETCH  REQUESTED:          0  ISSUED:          0  USEFUL:          0  USELESS:          0
L1I TOTAL MSHR MERGED:    1834449
L1I LOAD MSHR MERGED:    1834449
L1I RFO MSHR MERGED:          0
L1I PREFETCH MSHR MERGED:          0
L1I WRITEBACK MSHR MERGED:          0
L1I TOTAL ACCESSES:  128394440 HITS:  122321435 MISSES:    6073005
L1I LOAD ACCESSES:  128394440 HITS:  122321435 MISSES:    6073005
L1I RFO ACCESSES:          0 HITS:          0 MISSES:          0
L1I PREFETCH ACCESSES:          0 HITS:          0 MISSES:          0
L1I WRITEBACK ACCESSES:          0 HITS:          0 MISSES:          0
L1I RQ ACCESS:  500000057
L1I RQ TO_CACHE:  128394440
L1I RQ MERGED:  371605617
L1I RQ FORWARD:          0
L1I WQ ACCESS:          0
L1I WQ TO_CACHE:          0
L1I WQ MERGED:          0
L1I WQ FORWARD:          0
L2C TOTAL     ACCESS:   14903963  HIT:   11157579  MISS:    3746384
L2C LOAD      ACCESS:    7418893  HIT:    5098570  MISS:    2320323
L2C RFO       ACCESS:     878682  HIT:     409903  MISS:     468779
L2C PREFETCH  ACCESS:    4567158  HIT:    3627130  MISS:     940028
L2C WRITEBACK ACCESS:    2039230  HIT:    2021976  MISS:      17254
L2C PREFETCH  REQUESTED:     842749  ISSUED:     842749  USEFUL:     203034  USELESS:     736700
L2C TOTAL MSHR MERGED:       8200
L2C LOAD MSHR MERGED:       1111
L2C RFO MSHR MERGED:          0
L2C PREFETCH MSHR MERGED:       7089
L2C WRITEBACK MSHR MERGED:          0
L2C TOTAL ACCESSES:   14913084 HITS:   11158031 MISSES:    3755053
L2C LOAD ACCESSES:    7419103 HITS:    5098780 MISSES:    2320323
L2C RFO ACCESSES:     878781 HITS:     410002 MISSES:     468779
L2C PREFETCH ACCESSES:    4575970 HITS:    3627273 MISSES:     948697
L2C WRITEBACK ACCESSES:    2039230 HITS:    2021976 MISSES:      17254
L2C RQ ACCESS:    8297887
L2C RQ TO_CACHE:    8297578
L2C RQ MERGED:          0
L2C RQ FORWARD:          0
L2C WQ ACCESS:    2039230
L2C WQ TO_CACHE:    2039230
L2C WQ MERGED:          0
L2C WQ FORWARD:        452
LLC TOTAL     ACCESS:    4609702  HIT:    3914367  MISS:     695335
LLC LOAD      ACCESS:    2319197  HIT:    2095276  MISS:     223921
LLC RFO       ACCESS:     468768  HIT:     374399  MISS:      94369
LLC PREFETCH  ACCESS:     941479  HIT:     639673  MISS:     301806
LLC WRITEBACK ACCESS:     880258  HIT:     805019  MISS:      75239
LLC PREFETCH  REQUESTED:          0  ISSUED:          0  USEFUL:      17256  USELESS:     285135
LLC TOTAL MSHR MERGED:        110
LLC LOAD MSHR MERGED:         35
LLC RFO MSHR MERGED:          0
LLC PREFETCH MSHR MERGED:         75
LLC WRITEBACK MSHR MERGED:          0
LLC TOTAL ACCESSES:    4609848 HITS:    3914403 MISSES:     695445
LLC LOAD ACCESSES:    2319212 HITS:    2095291 MISSES:     223921
LLC RFO ACCESSES:     468779 HITS:     374410 MISSES:      94369
LLC PREFETCH ACCESSES:     941599 HITS:     639683 MISSES:     301916
LLC WRITEBACK ACCESSES:     880258 HITS:     805019 MISSES:      75239
LLC 0 RQ ACCESS:    2787991
LLC 0 RQ TO_CACHE:    2787965
LLC 0 RQ MERGED:          0
LLC 0 RQ FORWARD:          0
LLC WQ ACCESS:     880258
LLC WQ TO_CACHE:     880258
LLC WQ MERGED:          0
LLC WQ FORWARD:         36
Major fault: 0 Minor fault: 12862
CPU 0 L1D next line prefetcher final stats
CPU 0 L2C PC-based stride prefetcher final stats
All Misses: 826095
All Hits: 4600612
SD Algo Stats - Switches: 0 SRR-Repls: 262548 BRR-Repls: 0

DRAM Statistics
 CHANNEL 0
 RQ ROW_BUFFER_HIT:     127026  ROW_BUFFER_MISS:     490909
 DBUS_CONGESTED:     393489
 WQ ROW_BUFFER_HIT:      19374  ROW_BUFFER_MISS:     209914  FULL:          0

 AVG_CONGESTED_CYCLE: 13
LOADS RETIRED: 136549171
INSTR RETIRED: 500000000
