
*** ChampSim Multicore Out-of-Order Simulator ***

Warmup Instructions: 100000000
Simulation Instructions: 500000000
Number of CPUs: 1
LLC sets: 2048
LLC ways: 16
Clean RRIP Policies: 1213030112130301 Dirty RRIP Policies: 2213130122131301 PSEL Width: 10 Track Set: 4294967295 PSEL Mask: 1 Demote Mask: 3040111030401110DS Algo: 0Window size: 0
Off-chip DRAM Size: 4096 MB Channels: 1 Width: 64-bit Data Rate: 1600 MT/s

CPU 0 runs /mnt/beegfs/iconst01/spec2017/Wrf.trace.gz
NOT SORTED
TRACE STRING: /mnt/beegfs/iconst01/spec2017/Wrf.trace.gz
SORTED
TRACE STRING: /mnt/beegfs/iconst01/spec2017/Wrf.trace.gz
INITIAL
TRACE STRING: /mnt/beegfs/iconst01/spec2017/Wrf.trace.gz

champsim_seed used: 303

CPU 0 L1D next line prefetcher
CPU 0 L2C IP-based stride prefetcher
Initialize DRRIP state
Assign rand_sets[0]: 454  LLC: 2048
rand_sets[0]: 454
Assign rand_sets[1]: 1662  LLC: 2048
rand_sets[1]: 1662
Assign rand_sets[2]: 1921  LLC: 2048
rand_sets[2]: 1921
Assign rand_sets[3]: 1131  LLC: 2048
rand_sets[3]: 1131
Assign rand_sets[4]: 331  LLC: 2048
rand_sets[4]: 331
Assign rand_sets[5]: 1531  LLC: 2048
rand_sets[5]: 1531
Assign rand_sets[6]: 482  LLC: 2048
rand_sets[6]: 482
Assign rand_sets[7]: 1275  LLC: 2048
rand_sets[7]: 1275
Assign rand_sets[8]: 1876  LLC: 2048
rand_sets[8]: 1876
Assign rand_sets[9]: 2038  LLC: 2048
rand_sets[9]: 2038
Assign rand_sets[10]: 701  LLC: 2048
rand_sets[10]: 701
Assign rand_sets[11]: 479  LLC: 2048
rand_sets[11]: 479
Assign rand_sets[12]: 892  LLC: 2048
rand_sets[12]: 892
Assign rand_sets[13]: 1820  LLC: 2048
rand_sets[13]: 1820
Assign rand_sets[14]: 1505  LLC: 2048
rand_sets[14]: 1505
Assign rand_sets[15]: 1159  LLC: 2048
rand_sets[15]: 1159
Assign rand_sets[16]: 513  LLC: 2048
rand_sets[16]: 513
Assign rand_sets[17]: 703  LLC: 2048
rand_sets[17]: 703
Assign rand_sets[18]: 561  LLC: 2048
rand_sets[18]: 561
Assign rand_sets[19]: 990  LLC: 2048
rand_sets[19]: 990
Assign rand_sets[20]: 342  LLC: 2048
rand_sets[20]: 342
Assign rand_sets[21]: 882  LLC: 2048
rand_sets[21]: 882
Assign rand_sets[22]: 15  LLC: 2048
rand_sets[22]: 15
Assign rand_sets[23]: 71  LLC: 2048
rand_sets[23]: 71
Assign rand_sets[24]: 1127  LLC: 2048
rand_sets[24]: 1127
Assign rand_sets[25]: 1382  LLC: 2048
rand_sets[25]: 1382
Assign rand_sets[26]: 647  LLC: 2048
rand_sets[26]: 647
Assign rand_sets[27]: 857  LLC: 2048
rand_sets[27]: 857
Assign rand_sets[28]: 1450  LLC: 2048
rand_sets[28]: 1450
Assign rand_sets[29]: 1160  LLC: 2048
rand_sets[29]: 1160
Assign rand_sets[30]: 1852  LLC: 2048
rand_sets[30]: 1852
Assign rand_sets[31]: 1881  LLC: 2048
rand_sets[31]: 1881
Assign rand_sets[32]: 1770  LLC: 2048
rand_sets[32]: 1770
Assign rand_sets[33]: 1622  LLC: 2048
rand_sets[33]: 1622
Assign rand_sets[34]: 275  LLC: 2048
rand_sets[34]: 275
Assign rand_sets[35]: 635  LLC: 2048
rand_sets[35]: 635
Assign rand_sets[36]: 466  LLC: 2048
rand_sets[36]: 466
Assign rand_sets[37]: 1413  LLC: 2048
rand_sets[37]: 1413
Assign rand_sets[38]: 417  LLC: 2048
rand_sets[38]: 417
Assign rand_sets[39]: 472  LLC: 2048
rand_sets[39]: 472
Assign rand_sets[40]: 1340  LLC: 2048
rand_sets[40]: 1340
Assign rand_sets[41]: 852  LLC: 2048
rand_sets[41]: 852
Assign rand_sets[42]: 1365  LLC: 2048
rand_sets[42]: 1365
Assign rand_sets[43]: 47  LLC: 2048
rand_sets[43]: 47
Assign rand_sets[44]: 823  LLC: 2048
rand_sets[44]: 823
Assign rand_sets[45]: 686  LLC: 2048
rand_sets[45]: 686
Assign rand_sets[46]: 1637  LLC: 2048
rand_sets[46]: 1637
Assign rand_sets[47]: 1115  LLC: 2048
rand_sets[47]: 1115
Assign rand_sets[48]: 986  LLC: 2048
rand_sets[48]: 986
Assign rand_sets[49]: 258  LLC: 2048
rand_sets[49]: 258
Assign rand_sets[50]: 633  LLC: 2048
rand_sets[50]: 633
Assign rand_sets[51]: 920  LLC: 2048
rand_sets[51]: 920
Assign rand_sets[52]: 204  LLC: 2048
rand_sets[52]: 204
Assign rand_sets[53]: 227  LLC: 2048
rand_sets[53]: 227
Assign rand_sets[54]: 1818  LLC: 2048
rand_sets[54]: 1818
Assign rand_sets[55]: 886  LLC: 2048
rand_sets[55]: 886
Assign rand_sets[56]: 1422  LLC: 2048
rand_sets[56]: 1422
Assign rand_sets[57]: 607  LLC: 2048
rand_sets[57]: 607
Assign rand_sets[58]: 217  LLC: 2048
rand_sets[58]: 217
Assign rand_sets[59]: 1945  LLC: 2048
rand_sets[59]: 1945
Assign rand_sets[60]: 143  LLC: 2048
rand_sets[60]: 143
Assign rand_sets[61]: 1311  LLC: 2048
rand_sets[61]: 1311
Assign rand_sets[62]: 319  LLC: 2048
rand_sets[62]: 319
Assign rand_sets[63]: 1846  LLC: 2048
rand_sets[63]: 1846
 CLEAN-RRIP-POLICY-1: 1-2-1-3-0-3-0-1- CLEAN-RRIP-POLICY-2: 1-2-1-3-0-3-0-1-
 DIRTY-RRIP-POLICY-1: 2-2-1-3-1-3-0-1- DIRTY-RRIP-POLICY-2: 2-2-1-3-1-3-0-1-
 PSEL width: 10
Heartbeat CPU 0 instructions: 10000002 cycles: 6559549 heartbeat IPC: 1.5245 cumulative IPC: 1.5245 (Simulation time: 0 hr 0 min 22 sec) 
Heartbeat CPU 0 instructions: 20000000 cycles: 12222119 heartbeat IPC: 1.76598 cumulative IPC: 1.63638 (Simulation time: 0 hr 0 min 43 sec) 
Heartbeat CPU 0 instructions: 30000003 cycles: 18203894 heartbeat IPC: 1.67175 cumulative IPC: 1.648 (Simulation time: 0 hr 1 min 4 sec) 
Heartbeat CPU 0 instructions: 40000000 cycles: 24059237 heartbeat IPC: 1.70784 cumulative IPC: 1.66256 (Simulation time: 0 hr 1 min 25 sec) 
Heartbeat CPU 0 instructions: 50000000 cycles: 29527607 heartbeat IPC: 1.8287 cumulative IPC: 1.69333 (Simulation time: 0 hr 1 min 46 sec) 
Heartbeat CPU 0 instructions: 60000000 cycles: 35640400 heartbeat IPC: 1.63591 cumulative IPC: 1.68348 (Simulation time: 0 hr 2 min 8 sec) 
Heartbeat CPU 0 instructions: 70000000 cycles: 41360052 heartbeat IPC: 1.74836 cumulative IPC: 1.69245 (Simulation time: 0 hr 2 min 29 sec) 
Heartbeat CPU 0 instructions: 80000000 cycles: 47230984 heartbeat IPC: 1.70331 cumulative IPC: 1.6938 (Simulation time: 0 hr 2 min 50 sec) 
Heartbeat CPU 0 instructions: 90000000 cycles: 52984460 heartbeat IPC: 1.73808 cumulative IPC: 1.69861 (Simulation time: 0 hr 3 min 11 sec) 
Heartbeat CPU 0 instructions: 100000000 cycles: 58537165 heartbeat IPC: 1.80092 cumulative IPC: 1.70832 (Simulation time: 0 hr 3 min 32 sec) 

Warmup complete CPU 0 instructions: 100000004 cycles: 58537167 (Simulation time: 0 hr 3 min 32 sec) 

Heartbeat CPU 0 instructions: 110000001 cycles: 72813024 heartbeat IPC: 0.700483 cumulative IPC: 0.700483 (Simulation time: 0 hr 3 min 59 sec) 
Heartbeat CPU 0 instructions: 120000000 cycles: 84097951 heartbeat IPC: 0.886138 cumulative IPC: 0.782448 (Simulation time: 0 hr 4 min 24 sec) 
Heartbeat CPU 0 instructions: 130000000 cycles: 94130260 heartbeat IPC: 0.99678 cumulative IPC: 0.84286 (Simulation time: 0 hr 4 min 47 sec) 
Heartbeat CPU 0 instructions: 140000000 cycles: 105326122 heartbeat IPC: 0.893187 cumulative IPC: 0.854903 (Simulation time: 0 hr 5 min 12 sec) 
Heartbeat CPU 0 instructions: 150000002 cycles: 116732034 heartbeat IPC: 0.876738 cumulative IPC: 0.859182 (Simulation time: 0 hr 5 min 37 sec) 
Heartbeat CPU 0 instructions: 160000000 cycles: 125614650 heartbeat IPC: 1.12579 cumulative IPC: 0.894488 (Simulation time: 0 hr 6 min 0 sec) 
Heartbeat CPU 0 instructions: 170000003 cycles: 136398192 heartbeat IPC: 0.927339 cumulative IPC: 0.899038 (Simulation time: 0 hr 6 min 24 sec) 
Heartbeat CPU 0 instructions: 180000000 cycles: 149172892 heartbeat IPC: 0.782797 cumulative IPC: 0.882654 (Simulation time: 0 hr 6 min 49 sec) 
Heartbeat CPU 0 instructions: 190000000 cycles: 164250947 heartbeat IPC: 0.663216 cumulative IPC: 0.851355 (Simulation time: 0 hr 7 min 14 sec) 
Heartbeat CPU 0 instructions: 200000000 cycles: 179298204 heartbeat IPC: 0.664573 cumulative IPC: 0.828082 (Simulation time: 0 hr 7 min 39 sec) 
Heartbeat CPU 0 instructions: 210000000 cycles: 194344705 heartbeat IPC: 0.664606 cumulative IPC: 0.80997 (Simulation time: 0 hr 8 min 4 sec) 
Heartbeat CPU 0 instructions: 220000000 cycles: 210290234 heartbeat IPC: 0.627135 cumulative IPC: 0.790758 (Simulation time: 0 hr 8 min 32 sec) 
Heartbeat CPU 0 instructions: 230000003 cycles: 228744418 heartbeat IPC: 0.541883 cumulative IPC: 0.763775 (Simulation time: 0 hr 9 min 1 sec) 
Heartbeat CPU 0 instructions: 240000000 cycles: 238005970 heartbeat IPC: 1.07973 cumulative IPC: 0.78008 (Simulation time: 0 hr 9 min 24 sec) 
Heartbeat CPU 0 instructions: 250000000 cycles: 246789185 heartbeat IPC: 1.13854 cumulative IPC: 0.796804 (Simulation time: 0 hr 9 min 46 sec) 
Heartbeat CPU 0 instructions: 260000000 cycles: 255971375 heartbeat IPC: 1.08906 cumulative IPC: 0.810397 (Simulation time: 0 hr 10 min 9 sec) 
Heartbeat CPU 0 instructions: 270000000 cycles: 265621848 heartbeat IPC: 1.03622 cumulative IPC: 0.82092 (Simulation time: 0 hr 10 min 33 sec) 
Heartbeat CPU 0 instructions: 280000000 cycles: 275491624 heartbeat IPC: 1.01319 cumulative IPC: 0.829667 (Simulation time: 0 hr 10 min 57 sec) 
Heartbeat CPU 0 instructions: 290000000 cycles: 285741311 heartbeat IPC: 0.97564 cumulative IPC: 0.836252 (Simulation time: 0 hr 11 min 23 sec) 
Heartbeat CPU 0 instructions: 300000000 cycles: 294888025 heartbeat IPC: 1.09329 cumulative IPC: 0.8462 (Simulation time: 0 hr 11 min 46 sec) 
Heartbeat CPU 0 instructions: 310000002 cycles: 309822323 heartbeat IPC: 0.6696 cumulative IPC: 0.835704 (Simulation time: 0 hr 12 min 14 sec) 
Heartbeat CPU 0 instructions: 320000000 cycles: 325908435 heartbeat IPC: 0.621654 cumulative IPC: 0.822826 (Simulation time: 0 hr 12 min 43 sec) 
Heartbeat CPU 0 instructions: 330000002 cycles: 336680568 heartbeat IPC: 0.928321 cumulative IPC: 0.826912 (Simulation time: 0 hr 13 min 8 sec) 
Heartbeat CPU 0 instructions: 340000000 cycles: 347440801 heartbeat IPC: 0.929348 cumulative IPC: 0.830727 (Simulation time: 0 hr 13 min 32 sec) 
Heartbeat CPU 0 instructions: 350000002 cycles: 361013284 heartbeat IPC: 0.736785 cumulative IPC: 0.826512 (Simulation time: 0 hr 13 min 59 sec) 
Heartbeat CPU 0 instructions: 360000000 cycles: 372423145 heartbeat IPC: 0.876435 cumulative IPC: 0.828326 (Simulation time: 0 hr 14 min 24 sec) 
Heartbeat CPU 0 instructions: 370000000 cycles: 383457631 heartbeat IPC: 0.90625 cumulative IPC: 0.830973 (Simulation time: 0 hr 14 min 49 sec) 
Heartbeat CPU 0 instructions: 380000000 cycles: 394190363 heartbeat IPC: 0.931729 cumulative IPC: 0.834194 (Simulation time: 0 hr 15 min 14 sec) 
Heartbeat CPU 0 instructions: 390000003 cycles: 412170537 heartbeat IPC: 0.556168 cumulative IPC: 0.820058 (Simulation time: 0 hr 15 min 44 sec) 
Heartbeat CPU 0 instructions: 400000000 cycles: 423619065 heartbeat IPC: 0.873474 cumulative IPC: 0.821733 (Simulation time: 0 hr 16 min 8 sec) 
Heartbeat CPU 0 instructions: 410000002 cycles: 434208527 heartbeat IPC: 0.944335 cumulative IPC: 0.825189 (Simulation time: 0 hr 16 min 30 sec) 
Heartbeat CPU 0 instructions: 420000000 cycles: 444535469 heartbeat IPC: 0.968341 cumulative IPC: 0.829019 (Simulation time: 0 hr 16 min 53 sec) 
Heartbeat CPU 0 instructions: 430000001 cycles: 454937798 heartbeat IPC: 0.961323 cumulative IPC: 0.832491 (Simulation time: 0 hr 17 min 15 sec) 
Heartbeat CPU 0 instructions: 440000000 cycles: 466651606 heartbeat IPC: 0.853693 cumulative IPC: 0.8331 (Simulation time: 0 hr 17 min 38 sec) 
Heartbeat CPU 0 instructions: 450000002 cycles: 481750732 heartbeat IPC: 0.66229 cumulative IPC: 0.827006 (Simulation time: 0 hr 18 min 2 sec) 
Heartbeat CPU 0 instructions: 460000000 cycles: 496809489 heartbeat IPC: 0.664065 cumulative IPC: 0.821407 (Simulation time: 0 hr 18 min 26 sec) 
Heartbeat CPU 0 instructions: 470000003 cycles: 511861291 heartbeat IPC: 0.664373 cumulative IPC: 0.816193 (Simulation time: 0 hr 18 min 50 sec) 
Heartbeat CPU 0 instructions: 480000000 cycles: 527713941 heartbeat IPC: 0.630809 cumulative IPC: 0.809929 (Simulation time: 0 hr 19 min 17 sec) 
Heartbeat CPU 0 instructions: 490000002 cycles: 546275586 heartbeat IPC: 0.538745 cumulative IPC: 0.799609 (Simulation time: 0 hr 19 min 45 sec) 
Heartbeat CPU 0 instructions: 500000000 cycles: 555496281 heartbeat IPC: 1.08452 cumulative IPC: 0.804895 (Simulation time: 0 hr 20 min 7 sec) 
Heartbeat CPU 0 instructions: 510000002 cycles: 564350070 heartbeat IPC: 1.12946 cumulative IPC: 0.810576 (Simulation time: 0 hr 20 min 28 sec) 
Heartbeat CPU 0 instructions: 520000000 cycles: 573521119 heartbeat IPC: 1.09039 cumulative IPC: 0.815559 (Simulation time: 0 hr 20 min 50 sec) 
Heartbeat CPU 0 instructions: 530000002 cycles: 583181103 heartbeat IPC: 1.0352 cumulative IPC: 0.819604 (Simulation time: 0 hr 21 min 13 sec) 
Heartbeat CPU 0 instructions: 540000000 cycles: 592984942 heartbeat IPC: 1.02001 cumulative IPC: 0.82328 (Simulation time: 0 hr 21 min 37 sec) 
Heartbeat CPU 0 instructions: 550000002 cycles: 603261665 heartbeat IPC: 0.973073 cumulative IPC: 0.826106 (Simulation time: 0 hr 22 min 1 sec) 
Heartbeat CPU 0 instructions: 560000000 cycles: 612406612 heartbeat IPC: 1.0935 cumulative IPC: 0.830521 (Simulation time: 0 hr 22 min 24 sec) 
Heartbeat CPU 0 instructions: 570000003 cycles: 627194826 heartbeat IPC: 0.676214 cumulative IPC: 0.826508 (Simulation time: 0 hr 22 min 51 sec) 
Heartbeat CPU 0 instructions: 580000000 cycles: 643437441 heartbeat IPC: 0.615664 cumulative IPC: 0.820653 (Simulation time: 0 hr 23 min 19 sec) 
Heartbeat CPU 0 instructions: 590000002 cycles: 653729978 heartbeat IPC: 0.971578 cumulative IPC: 0.823263 (Simulation time: 0 hr 23 min 43 sec) 
Heartbeat CPU 0 instructions: 600000000 cycles: 664986211 heartbeat IPC: 0.888397 cumulative IPC: 0.824472 (Simulation time: 0 hr 24 min 7 sec) 
Finished CPU 0 instructions: 500000000 cycles: 606449063 cumulative IPC: 0.824472 (Simulation time: 0 hr 24 min 7 sec) 

CPU 0 Branch Prediction Accuracy: 99.5219% MPKI: 0.251582
Number of Branches: 26312578 Number of Mispredictions: 125791
Number of LOAD Instructions: 235643083
Number of LOAD Instructions (ROI): 235643083
Number of STORE Instructions: 37593550
Number of STORE Instructions (ROI): 37593550
Total Destination Memory Operands: 40480968
Total Destination Memory Operands (ROI): 40480968
Total Source Memory Operands: 235643083
Total Source Memory Operands (ROI): 235643083
Number of DEPENDED LOADS: 6702247
Number of DEPENDED LOADS (ROI): 6702247
Number of SQ_ADDED: 40480950
Number of SQ_ADDED (ROI): 40480950
Number of LQ_ADDED: 391461048
Number of LQ_ADDED (ROI): 391461048
Number of Instructions read from trace: 600000259

ChampSim completed all CPUs

Region of Interest Statistics

CPU 0 cumulative IPC: 0.824472 instructions: 500000000 cycles: 606449063
ITLB TOTAL     ACCESS:  109378250  HIT:  109377737  MISS:        513
ITLB LOAD      ACCESS:  109378250  HIT:  109377737  MISS:        513
ITLB RFO       ACCESS:          0  HIT:          0  MISS:          0
ITLB PREFETCH  ACCESS:          0  HIT:          0  MISS:          0
ITLB WRITEBACK ACCESS:          0  HIT:          0  MISS:          0
ITLB PREFETCH  REQUESTED:          0  ISSUED:          0  USEFUL:          0  USELESS:          0
ITLB TOTAL MSHR MERGED:        968
ITLB LOAD MSHR MERGED:        968
ITLB RFO MSHR MERGED:          0
ITLB PREFETCH MSHR MERGED:          0
ITLB WRITEBACK MSHR MERGED:          0
ITLB TOTAL ACCESSES:  109379218 HITS:  109377737 MISSES:       1481
ITLB LOAD ACCESSES:  109379218 HITS:  109377737 MISSES:       1481
ITLB RFO ACCESSES:          0 HITS:          0 MISSES:          0
ITLB PREFETCH ACCESSES:          0 HITS:          0 MISSES:          0
ITLB WRITEBACK ACCESSES:          0 HITS:          0 MISSES:          0
ITLB RQ ACCESS:  500000003
ITLB RQ TO_CACHE:  109379218
ITLB RQ MERGED:  390620785
ITLB RQ FORWARD:          0
ITLB WQ ACCESS:          0
ITLB WQ TO_CACHE:          0
ITLB WQ MERGED:          0
ITLB WQ FORWARD:          0
DTLB TOTAL     ACCESS:  130453946  HIT:  130196318  MISS:     257628
DTLB LOAD      ACCESS:  109059586  HIT:  108838789  MISS:     220797
DTLB RFO       ACCESS:   21394360  HIT:   21357529  MISS:      36831
DTLB PREFETCH  ACCESS:          0  HIT:          0  MISS:          0
DTLB WRITEBACK ACCESS:          0  HIT:          0  MISS:          0
DTLB PREFETCH  REQUESTED:          0  ISSUED:          0  USEFUL:          0  USELESS:          0
DTLB TOTAL MSHR MERGED:     121048
DTLB LOAD MSHR MERGED:      83223
DTLB RFO MSHR MERGED:      37825
DTLB PREFETCH MSHR MERGED:          0
DTLB WRITEBACK MSHR MERGED:          0
DTLB TOTAL ACCESSES:  130574994 HITS:  130196318 MISSES:     378676
DTLB LOAD ACCESSES:  109142809 HITS:  108838789 MISSES:     304020
DTLB RFO ACCESSES:   21432185 HITS:   21357529 MISSES:      74656
DTLB PREFETCH ACCESSES:          0 HITS:          0 MISSES:          0
DTLB WRITEBACK ACCESSES:          0 HITS:          0 MISSES:          0
DTLB RQ ACCESS:  218632164
DTLB RQ TO_CACHE:  130574995
DTLB RQ MERGED:   88057169
DTLB RQ FORWARD:          0
DTLB WQ ACCESS:          0
DTLB WQ TO_CACHE:          0
DTLB WQ MERGED:          0
DTLB WQ FORWARD:          0
L1D TOTAL     ACCESS:  204473520  HIT:  193405178  MISS:   11068342
L1D LOAD      ACCESS:  106250903  HIT:  103036647  MISS:    3214256
L1D RFO       ACCESS:   26943784  HIT:   25194705  MISS:    1749079
L1D PREFETCH  ACCESS:   71278833  HIT:   65173826  MISS:    6105007
L1D WRITEBACK ACCESS:          0  HIT:          0  MISS:          0
L1D PREFETCH  REQUESTED:  108932655  ISSUED:  107266009  USEFUL:    5652592  USELESS:     452409
L1D TOTAL MSHR MERGED:   18497149
L1D LOAD MSHR MERGED:    4732783
L1D RFO MSHR MERGED:    6484545
L1D PREFETCH MSHR MERGED:    7279821
L1D WRITEBACK MSHR MERGED:          0
L1D TOTAL ACCESSES:  223035970 HITS:  193470479 MISSES:   29565491
L1D LOAD ACCESSES:  108962031 HITS:  103066023 MISSES:    5896008
L1D RFO ACCESSES:   33426438 HITS:   25194705 MISSES:    8231733
L1D PREFETCH ACCESSES:   80647501 HITS:   65209751 MISSES:   15437750
L1D WRITEBACK ACCESSES:          0 HITS:          0 MISSES:          0
L1D RQ ACCESS:  184988726
L1D RQ TO_CACHE:  108932655
L1D RQ MERGED:   76026695
L1D RQ FORWARD:          0
L1D WQ ACCESS:   33643426
L1D WQ TO_CACHE:   33426437
L1D WQ MERGED:     216989
L1D WQ FORWARD:      65301
L1I TOTAL     ACCESS:  134064827  HIT:  134040249  MISS:      24578
L1I LOAD      ACCESS:  134064827  HIT:  134040249  MISS:      24578
L1I RFO       ACCESS:          0  HIT:          0  MISS:          0
L1I PREFETCH  ACCESS:          0  HIT:          0  MISS:          0
L1I WRITEBACK ACCESS:          0  HIT:          0  MISS:          0
L1I PREFETCH  REQUESTED:          0  ISSUED:          0  USEFUL:          0  USELESS:          0
L1I TOTAL MSHR MERGED:      29829
L1I LOAD MSHR MERGED:      29829
L1I RFO MSHR MERGED:          0
L1I PREFETCH MSHR MERGED:          0
L1I WRITEBACK MSHR MERGED:          0
L1I TOTAL ACCESSES:  134094656 HITS:  134040249 MISSES:      54407
L1I LOAD ACCESSES:  134094656 HITS:  134040249 MISSES:      54407
L1I RFO ACCESSES:          0 HITS:          0 MISSES:          0
L1I PREFETCH ACCESSES:          0 HITS:          0 MISSES:          0
L1I WRITEBACK ACCESSES:          0 HITS:          0 MISSES:          0
L1I RQ ACCESS:  500000005
L1I RQ TO_CACHE:  134094656
L1I RQ MERGED:  365905349
L1I RQ FORWARD:          0
L1I WQ ACCESS:          0
L1I WQ TO_CACHE:          0
L1I WQ MERGED:          0
L1I WQ FORWARD:          0
L2C TOTAL     ACCESS:   14932087  HIT:    6943502  MISS:    7988585
L2C LOAD      ACCESS:    1187613  HIT:     298595  MISS:     889018
L2C RFO       ACCESS:    1746979  HIT:     368471  MISS:    1378508
L2C PREFETCH  ACCESS:    8315766  HIT:    2603385  MISS:    5712381
L2C WRITEBACK ACCESS:    3681729  HIT:    3673051  MISS:       8678
L2C PREFETCH  REQUESTED:     387670  ISSUED:     387662  USEFUL:     113316  USELESS:    5599898
L2C TOTAL MSHR MERGED:      41432
L2C LOAD MSHR MERGED:       2278
L2C RFO MSHR MERGED:       1198
L2C PREFETCH MSHR MERGED:      37956
L2C WRITEBACK MSHR MERGED:          0
L2C TOTAL ACCESSES:   15099334 HITS:    6944189 MISSES:    8155145
L2C LOAD ACCESSES:    1187803 HITS:     298785 MISSES:     889018
L2C RFO ACCESSES:    1747188 HITS:     368680 MISSES:    1378508
L2C PREFETCH ACCESSES:    8482614 HITS:    2603673 MISSES:    5878941
L2C WRITEBACK ACCESSES:    3681729 HITS:    3673051 MISSES:       8678
L2C RQ ACCESS:    2934991
L2C RQ TO_CACHE:    2934592
L2C RQ MERGED:          0
L2C RQ FORWARD:          0
L2C WQ ACCESS:    3681729
L2C WQ TO_CACHE:    3681729
L2C WQ MERGED:          0
L2C WQ FORWARD:        687
LLC TOTAL     ACCESS:   11176918  HIT:    2593412  MISS:    8583506
LLC LOAD      ACCESS:     886734  HIT:     303607  MISS:     583127
LLC RFO       ACCESS:    1377309  HIT:     157489  MISS:    1219820
LLC PREFETCH  ACCESS:    5809451  HIT:     999857  MISS:    4809594
LLC WRITEBACK ACCESS:    3103424  HIT:    1132459  MISS:    1970965
LLC PREFETCH  REQUESTED:          0  ISSUED:          0  USEFUL:      34093  USELESS:    4774751
LLC TOTAL MSHR MERGED:      24209
LLC LOAD MSHR MERGED:       7338
LLC RFO MSHR MERGED:        606
LLC PREFETCH MSHR MERGED:      16265
LLC WRITEBACK MSHR MERGED:          0
LLC TOTAL ACCESSES:   11201146 HITS:    2593431 MISSES:    8607715
LLC LOAD ACCESSES:     886740 HITS:     303613 MISSES:     583127
LLC RFO ACCESSES:    1377310 HITS:     157490 MISSES:    1219820
LLC PREFETCH ACCESSES:    5833672 HITS:     999869 MISSES:    4833803
LLC WRITEBACK ACCESSES:    3103424 HITS:    1132459 MISSES:    1970965
LLC 0 RQ ACCESS:    2264050
LLC 0 RQ TO_CACHE:    2264043
LLC 0 RQ MERGED:          0
LLC 0 RQ FORWARD:          0
LLC WQ ACCESS:    3103424
LLC WQ TO_CACHE:    3103424
LLC WQ MERGED:          0
LLC WQ FORWARD:         19
Major fault: 0 Minor fault: 11519
CPU 0 L1D next line prefetcher final stats
CPU 0 L2C PC-based stride prefetcher final stats
All Misses: 10797360
All Hits: 2990637
SD Algo Stats - Switches: 0 SRR-Repls: 658868 BRR-Repls: 0

DRAM Statistics
 CHANNEL 0
 RQ ROW_BUFFER_HIT:    3975910  ROW_BUFFER_MISS:    2635468
 DBUS_CONGESTED:    4729422
 WQ ROW_BUFFER_HIT:     458022  ROW_BUFFER_MISS:    1939095  FULL:       2523

 AVG_CONGESTED_CYCLE: 13
LOADS RETIRED: 190375692
INSTR RETIRED: 500000000
