
*** ChampSim Multicore Out-of-Order Simulator ***

Warmup Instructions: 100000000
Simulation Instructions: 500000000
Number of CPUs: 1
LLC sets: 2048
LLC ways: 16
Clean RRIP Policies: 2213230222132302 Dirty RRIP Policies: 203130202031302 PSEL Width: 10 Track Set: 4294967295 PSEL Mask: 1 Demote Mask: 1040130010401300DS Algo: 0Window size: 0
Off-chip DRAM Size: 4096 MB Channels: 1 Width: 64-bit Data Rate: 1600 MT/s

CPU 0 runs /mnt/beegfs/iconst01/spec2017/Gcc.trace.gz
NOT SORTED
TRACE STRING: /mnt/beegfs/iconst01/spec2017/Gcc.trace.gz
SORTED
TRACE STRING: /mnt/beegfs/iconst01/spec2017/Gcc.trace.gz
INITIAL
TRACE STRING: /mnt/beegfs/iconst01/spec2017/Gcc.trace.gz

champsim_seed used: 269

CPU 0 L1D next line prefetcher
CPU 0 L2C IP-based stride prefetcher
Initialize DRRIP state
Assign rand_sets[0]: 454  LLC: 2048
rand_sets[0]: 454
Assign rand_sets[1]: 1662  LLC: 2048
rand_sets[1]: 1662
Assign rand_sets[2]: 1921  LLC: 2048
rand_sets[2]: 1921
Assign rand_sets[3]: 1131  LLC: 2048
rand_sets[3]: 1131
Assign rand_sets[4]: 331  LLC: 2048
rand_sets[4]: 331
Assign rand_sets[5]: 1531  LLC: 2048
rand_sets[5]: 1531
Assign rand_sets[6]: 482  LLC: 2048
rand_sets[6]: 482
Assign rand_sets[7]: 1275  LLC: 2048
rand_sets[7]: 1275
Assign rand_sets[8]: 1876  LLC: 2048
rand_sets[8]: 1876
Assign rand_sets[9]: 2038  LLC: 2048
rand_sets[9]: 2038
Assign rand_sets[10]: 701  LLC: 2048
rand_sets[10]: 701
Assign rand_sets[11]: 479  LLC: 2048
rand_sets[11]: 479
Assign rand_sets[12]: 892  LLC: 2048
rand_sets[12]: 892
Assign rand_sets[13]: 1820  LLC: 2048
rand_sets[13]: 1820
Assign rand_sets[14]: 1505  LLC: 2048
rand_sets[14]: 1505
Assign rand_sets[15]: 1159  LLC: 2048
rand_sets[15]: 1159
Assign rand_sets[16]: 513  LLC: 2048
rand_sets[16]: 513
Assign rand_sets[17]: 703  LLC: 2048
rand_sets[17]: 703
Assign rand_sets[18]: 561  LLC: 2048
rand_sets[18]: 561
Assign rand_sets[19]: 990  LLC: 2048
rand_sets[19]: 990
Assign rand_sets[20]: 342  LLC: 2048
rand_sets[20]: 342
Assign rand_sets[21]: 882  LLC: 2048
rand_sets[21]: 882
Assign rand_sets[22]: 15  LLC: 2048
rand_sets[22]: 15
Assign rand_sets[23]: 71  LLC: 2048
rand_sets[23]: 71
Assign rand_sets[24]: 1127  LLC: 2048
rand_sets[24]: 1127
Assign rand_sets[25]: 1382  LLC: 2048
rand_sets[25]: 1382
Assign rand_sets[26]: 647  LLC: 2048
rand_sets[26]: 647
Assign rand_sets[27]: 857  LLC: 2048
rand_sets[27]: 857
Assign rand_sets[28]: 1450  LLC: 2048
rand_sets[28]: 1450
Assign rand_sets[29]: 1160  LLC: 2048
rand_sets[29]: 1160
Assign rand_sets[30]: 1852  LLC: 2048
rand_sets[30]: 1852
Assign rand_sets[31]: 1881  LLC: 2048
rand_sets[31]: 1881
Assign rand_sets[32]: 1770  LLC: 2048
rand_sets[32]: 1770
Assign rand_sets[33]: 1622  LLC: 2048
rand_sets[33]: 1622
Assign rand_sets[34]: 275  LLC: 2048
rand_sets[34]: 275
Assign rand_sets[35]: 635  LLC: 2048
rand_sets[35]: 635
Assign rand_sets[36]: 466  LLC: 2048
rand_sets[36]: 466
Assign rand_sets[37]: 1413  LLC: 2048
rand_sets[37]: 1413
Assign rand_sets[38]: 417  LLC: 2048
rand_sets[38]: 417
Assign rand_sets[39]: 472  LLC: 2048
rand_sets[39]: 472
Assign rand_sets[40]: 1340  LLC: 2048
rand_sets[40]: 1340
Assign rand_sets[41]: 852  LLC: 2048
rand_sets[41]: 852
Assign rand_sets[42]: 1365  LLC: 2048
rand_sets[42]: 1365
Assign rand_sets[43]: 47  LLC: 2048
rand_sets[43]: 47
Assign rand_sets[44]: 823  LLC: 2048
rand_sets[44]: 823
Assign rand_sets[45]: 686  LLC: 2048
rand_sets[45]: 686
Assign rand_sets[46]: 1637  LLC: 2048
rand_sets[46]: 1637
Assign rand_sets[47]: 1115  LLC: 2048
rand_sets[47]: 1115
Assign rand_sets[48]: 986  LLC: 2048
rand_sets[48]: 986
Assign rand_sets[49]: 258  LLC: 2048
rand_sets[49]: 258
Assign rand_sets[50]: 633  LLC: 2048
rand_sets[50]: 633
Assign rand_sets[51]: 920  LLC: 2048
rand_sets[51]: 920
Assign rand_sets[52]: 204  LLC: 2048
rand_sets[52]: 204
Assign rand_sets[53]: 227  LLC: 2048
rand_sets[53]: 227
Assign rand_sets[54]: 1818  LLC: 2048
rand_sets[54]: 1818
Assign rand_sets[55]: 886  LLC: 2048
rand_sets[55]: 886
Assign rand_sets[56]: 1422  LLC: 2048
rand_sets[56]: 1422
Assign rand_sets[57]: 607  LLC: 2048
rand_sets[57]: 607
Assign rand_sets[58]: 217  LLC: 2048
rand_sets[58]: 217
Assign rand_sets[59]: 1945  LLC: 2048
rand_sets[59]: 1945
Assign rand_sets[60]: 143  LLC: 2048
rand_sets[60]: 143
Assign rand_sets[61]: 1311  LLC: 2048
rand_sets[61]: 1311
Assign rand_sets[62]: 319  LLC: 2048
rand_sets[62]: 319
Assign rand_sets[63]: 1846  LLC: 2048
rand_sets[63]: 1846
 CLEAN-RRIP-POLICY-1: 2-2-1-3-2-3-0-2- CLEAN-RRIP-POLICY-2: 2-2-1-3-2-3-0-2-
 DIRTY-RRIP-POLICY-1: 0-2-0-3-1-3-0-2- DIRTY-RRIP-POLICY-2: 0-2-0-3-1-3-0-2-
 PSEL width: 10
Heartbeat CPU 0 instructions: 10000001 cycles: 7315979 heartbeat IPC: 1.36687 cumulative IPC: 1.36687 (Simulation time: 0 hr 0 min 13 sec) 
Heartbeat CPU 0 instructions: 20000000 cycles: 14307716 heartbeat IPC: 1.43026 cumulative IPC: 1.39785 (Simulation time: 0 hr 0 min 26 sec) 
Heartbeat CPU 0 instructions: 30000001 cycles: 21020724 heartbeat IPC: 1.48965 cumulative IPC: 1.42716 (Simulation time: 0 hr 0 min 41 sec) 
Heartbeat CPU 0 instructions: 40000000 cycles: 27481516 heartbeat IPC: 1.5478 cumulative IPC: 1.45552 (Simulation time: 0 hr 0 min 56 sec) 
Heartbeat CPU 0 instructions: 50000001 cycles: 33583320 heartbeat IPC: 1.63886 cumulative IPC: 1.48883 (Simulation time: 0 hr 1 min 10 sec) 
Heartbeat CPU 0 instructions: 60000000 cycles: 40064583 heartbeat IPC: 1.54291 cumulative IPC: 1.49758 (Simulation time: 0 hr 1 min 25 sec) 
Heartbeat CPU 0 instructions: 70000000 cycles: 47103842 heartbeat IPC: 1.4206 cumulative IPC: 1.48608 (Simulation time: 0 hr 1 min 38 sec) 
Heartbeat CPU 0 instructions: 80000000 cycles: 54194242 heartbeat IPC: 1.41036 cumulative IPC: 1.47617 (Simulation time: 0 hr 1 min 52 sec) 
Heartbeat CPU 0 instructions: 90000003 cycles: 61199024 heartbeat IPC: 1.4276 cumulative IPC: 1.47061 (Simulation time: 0 hr 2 min 5 sec) 
Heartbeat CPU 0 instructions: 100000000 cycles: 68366654 heartbeat IPC: 1.39516 cumulative IPC: 1.4627 (Simulation time: 0 hr 2 min 18 sec) 

Warmup complete CPU 0 instructions: 100000004 cycles: 68366655 (Simulation time: 0 hr 2 min 18 sec) 

Heartbeat CPU 0 instructions: 110000003 cycles: 96017913 heartbeat IPC: 0.361647 cumulative IPC: 0.361647 (Simulation time: 0 hr 2 min 44 sec) 
Heartbeat CPU 0 instructions: 120000000 cycles: 123474856 heartbeat IPC: 0.364206 cumulative IPC: 0.362922 (Simulation time: 0 hr 3 min 9 sec) 
Heartbeat CPU 0 instructions: 130000000 cycles: 148450965 heartbeat IPC: 0.400383 cumulative IPC: 0.374605 (Simulation time: 0 hr 3 min 35 sec) 
Heartbeat CPU 0 instructions: 140000000 cycles: 178052875 heartbeat IPC: 0.337816 cumulative IPC: 0.364677 (Simulation time: 0 hr 3 min 59 sec) 
Heartbeat CPU 0 instructions: 150000000 cycles: 207941083 heartbeat IPC: 0.33458 cumulative IPC: 0.358232 (Simulation time: 0 hr 4 min 25 sec) 
Heartbeat CPU 0 instructions: 160000000 cycles: 235366731 heartbeat IPC: 0.364622 cumulative IPC: 0.359281 (Simulation time: 0 hr 4 min 49 sec) 
Heartbeat CPU 0 instructions: 170000001 cycles: 263370511 heartbeat IPC: 0.357095 cumulative IPC: 0.358967 (Simulation time: 0 hr 5 min 16 sec) 
Heartbeat CPU 0 instructions: 180000000 cycles: 291837737 heartbeat IPC: 0.351281 cumulative IPC: 0.357988 (Simulation time: 0 hr 5 min 42 sec) 
Heartbeat CPU 0 instructions: 190000002 cycles: 319857555 heartbeat IPC: 0.35689 cumulative IPC: 0.357866 (Simulation time: 0 hr 6 min 7 sec) 
Heartbeat CPU 0 instructions: 200000000 cycles: 348220429 heartbeat IPC: 0.352574 cumulative IPC: 0.357329 (Simulation time: 0 hr 6 min 33 sec) 
Heartbeat CPU 0 instructions: 210000002 cycles: 376081468 heartbeat IPC: 0.358924 cumulative IPC: 0.357474 (Simulation time: 0 hr 6 min 59 sec) 
Heartbeat CPU 0 instructions: 220000000 cycles: 405310333 heartbeat IPC: 0.342127 cumulative IPC: 0.356143 (Simulation time: 0 hr 7 min 23 sec) 
Heartbeat CPU 0 instructions: 230000000 cycles: 432835990 heartbeat IPC: 0.363297 cumulative IPC: 0.356683 (Simulation time: 0 hr 7 min 48 sec) 
Heartbeat CPU 0 instructions: 240000000 cycles: 458761439 heartbeat IPC: 0.385721 cumulative IPC: 0.358611 (Simulation time: 0 hr 8 min 12 sec) 
Heartbeat CPU 0 instructions: 250000000 cycles: 488890427 heartbeat IPC: 0.331906 cumulative IPC: 0.356698 (Simulation time: 0 hr 8 min 38 sec) 
Heartbeat CPU 0 instructions: 260000000 cycles: 515963532 heartbeat IPC: 0.36937 cumulative IPC: 0.357464 (Simulation time: 0 hr 9 min 3 sec) 
Heartbeat CPU 0 instructions: 270000003 cycles: 544386759 heartbeat IPC: 0.351825 cumulative IPC: 0.357128 (Simulation time: 0 hr 9 min 30 sec) 
Heartbeat CPU 0 instructions: 280000000 cycles: 572587436 heartbeat IPC: 0.354601 cumulative IPC: 0.356986 (Simulation time: 0 hr 9 min 56 sec) 
Heartbeat CPU 0 instructions: 290000000 cycles: 601509083 heartbeat IPC: 0.345762 cumulative IPC: 0.356378 (Simulation time: 0 hr 10 min 22 sec) 
Heartbeat CPU 0 instructions: 300000000 cycles: 631554701 heartbeat IPC: 0.332827 cumulative IPC: 0.355121 (Simulation time: 0 hr 10 min 47 sec) 
Heartbeat CPU 0 instructions: 310000001 cycles: 661008652 heartbeat IPC: 0.339513 cumulative IPC: 0.354345 (Simulation time: 0 hr 11 min 13 sec) 
Heartbeat CPU 0 instructions: 320000000 cycles: 689256199 heartbeat IPC: 0.354013 cumulative IPC: 0.35433 (Simulation time: 0 hr 11 min 37 sec) 
Heartbeat CPU 0 instructions: 330000000 cycles: 717905505 heartbeat IPC: 0.349049 cumulative IPC: 0.354097 (Simulation time: 0 hr 12 min 2 sec) 
Heartbeat CPU 0 instructions: 340000000 cycles: 747191277 heartbeat IPC: 0.341463 cumulative IPC: 0.353552 (Simulation time: 0 hr 12 min 28 sec) 
Heartbeat CPU 0 instructions: 350000003 cycles: 774253663 heartbeat IPC: 0.369517 cumulative IPC: 0.354164 (Simulation time: 0 hr 12 min 52 sec) 
Heartbeat CPU 0 instructions: 360000000 cycles: 802434945 heartbeat IPC: 0.354845 cumulative IPC: 0.35419 (Simulation time: 0 hr 13 min 16 sec) 
Heartbeat CPU 0 instructions: 370000000 cycles: 830623392 heartbeat IPC: 0.354755 cumulative IPC: 0.354211 (Simulation time: 0 hr 13 min 40 sec) 
Heartbeat CPU 0 instructions: 380000000 cycles: 859121284 heartbeat IPC: 0.350903 cumulative IPC: 0.354092 (Simulation time: 0 hr 14 min 4 sec) 
Heartbeat CPU 0 instructions: 390000001 cycles: 886718025 heartbeat IPC: 0.362362 cumulative IPC: 0.354371 (Simulation time: 0 hr 14 min 28 sec) 
Heartbeat CPU 0 instructions: 400000000 cycles: 915355906 heartbeat IPC: 0.349188 cumulative IPC: 0.354196 (Simulation time: 0 hr 14 min 52 sec) 
Heartbeat CPU 0 instructions: 410000001 cycles: 942651481 heartbeat IPC: 0.36636 cumulative IPC: 0.354576 (Simulation time: 0 hr 15 min 16 sec) 
Heartbeat CPU 0 instructions: 420000000 cycles: 969963648 heartbeat IPC: 0.366137 cumulative IPC: 0.354926 (Simulation time: 0 hr 15 min 40 sec) 
Heartbeat CPU 0 instructions: 430000002 cycles: 997653172 heartbeat IPC: 0.361147 cumulative IPC: 0.355111 (Simulation time: 0 hr 16 min 4 sec) 
Heartbeat CPU 0 instructions: 440000000 cycles: 1027202138 heartbeat IPC: 0.338421 cumulative IPC: 0.354597 (Simulation time: 0 hr 16 min 28 sec) 
Heartbeat CPU 0 instructions: 450000002 cycles: 1056442367 heartbeat IPC: 0.341995 cumulative IPC: 0.354224 (Simulation time: 0 hr 16 min 52 sec) 
Heartbeat CPU 0 instructions: 460000000 cycles: 1084141289 heartbeat IPC: 0.361025 cumulative IPC: 0.354409 (Simulation time: 0 hr 17 min 16 sec) 
Heartbeat CPU 0 instructions: 470000000 cycles: 1111770560 heartbeat IPC: 0.361935 cumulative IPC: 0.354609 (Simulation time: 0 hr 17 min 40 sec) 
Heartbeat CPU 0 instructions: 480000000 cycles: 1139644647 heartbeat IPC: 0.358756 cumulative IPC: 0.354717 (Simulation time: 0 hr 18 min 4 sec) 
Heartbeat CPU 0 instructions: 490000000 cycles: 1167227450 heartbeat IPC: 0.362545 cumulative IPC: 0.354913 (Simulation time: 0 hr 18 min 28 sec) 
Heartbeat CPU 0 instructions: 500000000 cycles: 1195534128 heartbeat IPC: 0.353274 cumulative IPC: 0.354872 (Simulation time: 0 hr 18 min 52 sec) 
Heartbeat CPU 0 instructions: 510000000 cycles: 1229871273 heartbeat IPC: 0.29123 cumulative IPC: 0.35299 (Simulation time: 0 hr 19 min 19 sec) 
Heartbeat CPU 0 instructions: 520000000 cycles: 1257869615 heartbeat IPC: 0.357164 cumulative IPC: 0.353089 (Simulation time: 0 hr 19 min 44 sec) 
Heartbeat CPU 0 instructions: 530000001 cycles: 1287393648 heartbeat IPC: 0.338707 cumulative IPC: 0.35274 (Simulation time: 0 hr 20 min 9 sec) 
Heartbeat CPU 0 instructions: 540000000 cycles: 1315475871 heartbeat IPC: 0.356097 cumulative IPC: 0.352816 (Simulation time: 0 hr 20 min 34 sec) 
Heartbeat CPU 0 instructions: 550000001 cycles: 1344651402 heartbeat IPC: 0.342753 cumulative IPC: 0.352586 (Simulation time: 0 hr 21 min 1 sec) 
Heartbeat CPU 0 instructions: 560000000 cycles: 1370033044 heartbeat IPC: 0.393986 cumulative IPC: 0.353393 (Simulation time: 0 hr 21 min 25 sec) 
Heartbeat CPU 0 instructions: 570000000 cycles: 1399555457 heartbeat IPC: 0.338726 cumulative IPC: 0.353068 (Simulation time: 0 hr 21 min 50 sec) 
Heartbeat CPU 0 instructions: 580000000 cycles: 1427526459 heartbeat IPC: 0.357513 cumulative IPC: 0.353159 (Simulation time: 0 hr 22 min 16 sec) 
Heartbeat CPU 0 instructions: 590000001 cycles: 1452263495 heartbeat IPC: 0.404252 cumulative IPC: 0.354073 (Simulation time: 0 hr 22 min 39 sec) 
Heartbeat CPU 0 instructions: 600000000 cycles: 1478313082 heartbeat IPC: 0.383883 cumulative IPC: 0.354623 (Simulation time: 0 hr 23 min 4 sec) 
Finished CPU 0 instructions: 500000000 cycles: 1409946449 cumulative IPC: 0.354623 (Simulation time: 0 hr 23 min 4 sec) 

CPU 0 Branch Prediction Accuracy: 86.4311% MPKI: 26.2662
Number of Branches: 96788573 Number of Mispredictions: 13133102
Number of LOAD Instructions: 164682285
Number of LOAD Instructions (ROI): 164682285
Number of STORE Instructions: 78194750
Number of STORE Instructions (ROI): 78194750
Total Destination Memory Operands: 83268534
Total Destination Memory Operands (ROI): 83268534
Total Source Memory Operands: 164712438
Total Source Memory Operands (ROI): 164712438
Number of DEPENDED LOADS: 7057053
Number of DEPENDED LOADS (ROI): 7057053
Number of SQ_ADDED: 83268522
Number of SQ_ADDED (ROI): 83268522
Number of LQ_ADDED: 236727277
Number of LQ_ADDED (ROI): 236727277
Number of Instructions read from trace: 600000066

ChampSim completed all CPUs

Region of Interest Statistics

CPU 0 cumulative IPC: 0.354623 instructions: 500000000 cycles: 1409946449
ITLB TOTAL     ACCESS:  100517863  HIT:  100313417  MISS:     204446
ITLB LOAD      ACCESS:  100517863  HIT:  100313417  MISS:     204446
ITLB RFO       ACCESS:          0  HIT:          0  MISS:          0
ITLB PREFETCH  ACCESS:          0  HIT:          0  MISS:          0
ITLB WRITEBACK ACCESS:          0  HIT:          0  MISS:          0
ITLB PREFETCH  REQUESTED:          0  ISSUED:          0  USEFUL:          0  USELESS:          0
ITLB TOTAL MSHR MERGED:     172424
ITLB LOAD MSHR MERGED:     172424
ITLB RFO MSHR MERGED:          0
ITLB PREFETCH MSHR MERGED:          0
ITLB WRITEBACK MSHR MERGED:          0
ITLB TOTAL ACCESSES:  100690287 HITS:  100313417 MISSES:     376870
ITLB LOAD ACCESSES:  100690287 HITS:  100313417 MISSES:     376870
ITLB RFO ACCESSES:          0 HITS:          0 MISSES:          0
ITLB PREFETCH ACCESSES:          0 HITS:          0 MISSES:          0
ITLB WRITEBACK ACCESSES:          0 HITS:          0 MISSES:          0
ITLB RQ ACCESS:  500000057
ITLB RQ TO_CACHE:  100690287
ITLB RQ MERGED:  399309770
ITLB RQ FORWARD:          0
ITLB WQ ACCESS:          0
ITLB WQ TO_CACHE:          0
ITLB WQ MERGED:          0
ITLB WQ FORWARD:          0
DTLB TOTAL     ACCESS:  165339711  HIT:  164705357  MISS:     634354
DTLB LOAD      ACCESS:  106294412  HIT:  105724458  MISS:     569954
DTLB RFO       ACCESS:   59045299  HIT:   58980899  MISS:      64400
DTLB PREFETCH  ACCESS:          0  HIT:          0  MISS:          0
DTLB WRITEBACK ACCESS:          0  HIT:          0  MISS:          0
DTLB PREFETCH  REQUESTED:          0  ISSUED:          0  USEFUL:          0  USELESS:          0
DTLB TOTAL MSHR MERGED:      99986
DTLB LOAD MSHR MERGED:      59439
DTLB RFO MSHR MERGED:      40547
DTLB PREFETCH MSHR MERGED:          0
DTLB WRITEBACK MSHR MERGED:          0
DTLB TOTAL ACCESSES:  165439697 HITS:  164705357 MISSES:     734340
DTLB LOAD ACCESSES:  106353851 HITS:  105724458 MISSES:     629393
DTLB RFO ACCESSES:   59085846 HITS:   58980899 MISSES:     104947
DTLB PREFETCH ACCESSES:          0 HITS:          0 MISSES:          0
DTLB WRITEBACK ACCESSES:          0 HITS:          0 MISSES:          0
DTLB RQ ACCESS:  200313829
DTLB RQ TO_CACHE:  165439697
DTLB RQ MERGED:   34874132
DTLB RQ FORWARD:          0
DTLB WQ ACCESS:          0
DTLB WQ TO_CACHE:          0
DTLB WQ MERGED:          0
DTLB WQ FORWARD:          0
L1D TOTAL     ACCESS:  281858244  HIT:  273948881  MISS:    7909363
L1D LOAD      ACCESS:  110421133  HIT:  107143510  MISS:    3277623
L1D RFO       ACCESS:   67132278  HIT:   66242310  MISS:     889968
L1D PREFETCH  ACCESS:  104304833  HIT:  100563061  MISS:    3741772
L1D WRITEBACK ACCESS:          0  HIT:          0  MISS:          0
L1D PREFETCH  REQUESTED:  110819787  ISSUED:  109120472  USEFUL:    1662385  USELESS:    2079351
L1D TOTAL MSHR MERGED:    2851078
L1D LOAD MSHR MERGED:     495725
L1D RFO MSHR MERGED:    1853029
L1D PREFETCH MSHR MERGED:     502324
L1D WRITEBACK MSHR MERGED:          0
L1D TOTAL ACCESSES:  284736730 HITS:  273976289 MISSES:   10760441
L1D LOAD ACCESSES:  110821201 HITS:  107144924 MISSES:    3676277
L1D RFO ACCESSES:   68974139 HITS:   66242310 MISSES:    2731829
L1D PREFETCH ACCESSES:  104941390 HITS:  100589055 MISSES:    4352335
L1D WRITEBACK ACCESSES:          0 HITS:          0 MISSES:          0
L1D RQ ACCESS:  130761226
L1D RQ TO_CACHE:  110819790
L1D RQ MERGED:   19940022
L1D RQ FORWARD:          0
L1D WQ ACCESS:   69552603
L1D WQ TO_CACHE:   68974140
L1D WQ MERGED:     578463
L1D WQ FORWARD:      27408
L1I TOTAL     ACCESS:  126565149  HIT:  122326595  MISS:    4238554
L1I LOAD      ACCESS:  126565149  HIT:  122326595  MISS:    4238554
L1I RFO       ACCESS:          0  HIT:          0  MISS:          0
L1I PREFETCH  ACCESS:          0  HIT:          0  MISS:          0
L1I WRITEBACK ACCESS:          0  HIT:          0  MISS:          0
L1I PREFETCH  REQUESTED:          0  ISSUED:          0  USEFUL:          0  USELESS:          0
L1I TOTAL MSHR MERGED:    1834629
L1I LOAD MSHR MERGED:    1834629
L1I RFO MSHR MERGED:          0
L1I PREFETCH MSHR MERGED:          0
L1I WRITEBACK MSHR MERGED:          0
L1I TOTAL ACCESSES:  128399781 HITS:  122326595 MISSES:    6073186
L1I LOAD ACCESSES:  128399781 HITS:  122326595 MISSES:    6073186
L1I RFO ACCESSES:          0 HITS:          0 MISSES:          0
L1I PREFETCH ACCESSES:          0 HITS:          0 MISSES:          0
L1I WRITEBACK ACCESSES:          0 HITS:          0 MISSES:          0
L1I RQ ACCESS:  500000057
L1I RQ TO_CACHE:  128399781
L1I RQ MERGED:  371600276
L1I RQ FORWARD:          0
L1I WQ ACCESS:          0
L1I WQ TO_CACHE:          0
L1I WQ MERGED:          0
L1I WQ FORWARD:          0
L2C TOTAL     ACCESS:   14905442  HIT:   11159041  MISS:    3746401
L2C LOAD      ACCESS:    7418898  HIT:    5098960  MISS:    2319938
L2C RFO       ACCESS:     878702  HIT:     409917  MISS:     468785
L2C PREFETCH  ACCESS:    4568599  HIT:    3628178  MISS:     940421
L2C WRITEBACK ACCESS:    2039243  HIT:    2021986  MISS:      17257
L2C PREFETCH  REQUESTED:     842786  ISSUED:     842786  USEFUL:     203413  USELESS:     736714
L2C TOTAL MSHR MERGED:       6895
L2C LOAD MSHR MERGED:        749
L2C RFO MSHR MERGED:          0
L2C PREFETCH MSHR MERGED:       6146
L2C WRITEBACK MSHR MERGED:          0
L2C TOTAL ACCESSES:   14913219 HITS:   11159492 MISSES:    3753727
L2C LOAD ACCESSES:    7419106 HITS:    5099168 MISSES:    2319938
L2C RFO ACCESSES:     878800 HITS:     410015 MISSES:     468785
L2C PREFETCH ACCESSES:    4576070 HITS:    3628323 MISSES:     947747
L2C WRITEBACK ACCESSES:    2039243 HITS:    2021986 MISSES:      17257
L2C RQ ACCESS:    8297909
L2C RQ TO_CACHE:    8297603
L2C RQ MERGED:          0
L2C RQ FORWARD:          0
L2C WQ ACCESS:    2039243
L2C WQ TO_CACHE:    2039243
L2C WQ MERGED:          0
L2C WQ FORWARD:        451
LLC TOTAL     ACCESS:    4609692  HIT:    3997106  MISS:     612586
LLC LOAD      ACCESS:    2319175  HIT:    2063801  MISS:     255374
LLC RFO       ACCESS:     468774  HIT:     425798  MISS:      42976
LLC PREFETCH  ACCESS:     941483  HIT:     669377  MISS:     272106
LLC WRITEBACK ACCESS:     880260  HIT:     838130  MISS:      42130
LLC PREFETCH  REQUESTED:          0  ISSUED:          0  USEFUL:      13200  USELESS:     259216
LLC TOTAL MSHR MERGED:         97
LLC LOAD MSHR MERGED:         31
LLC RFO MSHR MERGED:          0
LLC PREFETCH MSHR MERGED:         66
LLC WRITEBACK MSHR MERGED:          0
LLC TOTAL ACCESSES:    4609826 HITS:    3997143 MISSES:     612683
LLC LOAD ACCESSES:    2319189 HITS:    2063815 MISSES:     255374
LLC RFO ACCESSES:     468785 HITS:     425809 MISSES:      42976
LLC PREFETCH ACCESSES:     941592 HITS:     669389 MISSES:     272203
LLC WRITEBACK ACCESSES:     880260 HITS:     838130 MISSES:      42130
LLC 0 RQ ACCESS:    2787974
LLC 0 RQ TO_CACHE:    2787949
LLC 0 RQ MERGED:          0
LLC 0 RQ FORWARD:          0
LLC WQ ACCESS:     880260
LLC WQ TO_CACHE:     880260
LLC WQ MERGED:          0
LLC WQ FORWARD:         37
Major fault: 0 Minor fault: 12862
CPU 0 L1D next line prefetcher final stats
CPU 0 L2C PC-based stride prefetcher final stats
All Misses: 733171
All Hits: 4693527
SD Algo Stats - Switches: 0 SRR-Repls: 302622 BRR-Repls: 0

DRAM Statistics
 CHANNEL 0
 RQ ROW_BUFFER_HIT:     116756  ROW_BUFFER_MISS:     453213
 DBUS_CONGESTED:     303291
 WQ ROW_BUFFER_HIT:       8975  ROW_BUFFER_MISS:     137675  FULL:          0

 AVG_CONGESTED_CYCLE: 13
LOADS RETIRED: 136549171
INSTR RETIRED: 500000000
