
*** ChampSim Multicore Out-of-Order Simulator ***

Warmup Instructions: 100000000
Simulation Instructions: 500000000
Number of CPUs: 1
LLC sets: 2048
LLC ways: 16
Clean RRIP Policies: 2213230222132302 Dirty RRIP Policies: 203130202031302 PSEL Width: 10 Track Set: 4294967295 PSEL Mask: 1 Demote Mask: 1040130010401300DS Algo: 0Window size: 0
Off-chip DRAM Size: 4096 MB Channels: 1 Width: 64-bit Data Rate: 1600 MT/s

CPU 0 runs /mnt/beegfs/iconst01/spec2017/Omnetpp.trace.gz
NOT SORTED
TRACE STRING: /mnt/beegfs/iconst01/spec2017/Omnetpp.trace.gz
SORTED
TRACE STRING: /mnt/beegfs/iconst01/spec2017/Omnetpp.trace.gz
INITIAL
TRACE STRING: /mnt/beegfs/iconst01/spec2017/Omnetpp.trace.gz

champsim_seed used: 739

CPU 0 L1D next line prefetcher
CPU 0 L2C IP-based stride prefetcher
Initialize DRRIP state
Assign rand_sets[0]: 454  LLC: 2048
rand_sets[0]: 454
Assign rand_sets[1]: 1662  LLC: 2048
rand_sets[1]: 1662
Assign rand_sets[2]: 1921  LLC: 2048
rand_sets[2]: 1921
Assign rand_sets[3]: 1131  LLC: 2048
rand_sets[3]: 1131
Assign rand_sets[4]: 331  LLC: 2048
rand_sets[4]: 331
Assign rand_sets[5]: 1531  LLC: 2048
rand_sets[5]: 1531
Assign rand_sets[6]: 482  LLC: 2048
rand_sets[6]: 482
Assign rand_sets[7]: 1275  LLC: 2048
rand_sets[7]: 1275
Assign rand_sets[8]: 1876  LLC: 2048
rand_sets[8]: 1876
Assign rand_sets[9]: 2038  LLC: 2048
rand_sets[9]: 2038
Assign rand_sets[10]: 701  LLC: 2048
rand_sets[10]: 701
Assign rand_sets[11]: 479  LLC: 2048
rand_sets[11]: 479
Assign rand_sets[12]: 892  LLC: 2048
rand_sets[12]: 892
Assign rand_sets[13]: 1820  LLC: 2048
rand_sets[13]: 1820
Assign rand_sets[14]: 1505  LLC: 2048
rand_sets[14]: 1505
Assign rand_sets[15]: 1159  LLC: 2048
rand_sets[15]: 1159
Assign rand_sets[16]: 513  LLC: 2048
rand_sets[16]: 513
Assign rand_sets[17]: 703  LLC: 2048
rand_sets[17]: 703
Assign rand_sets[18]: 561  LLC: 2048
rand_sets[18]: 561
Assign rand_sets[19]: 990  LLC: 2048
rand_sets[19]: 990
Assign rand_sets[20]: 342  LLC: 2048
rand_sets[20]: 342
Assign rand_sets[21]: 882  LLC: 2048
rand_sets[21]: 882
Assign rand_sets[22]: 15  LLC: 2048
rand_sets[22]: 15
Assign rand_sets[23]: 71  LLC: 2048
rand_sets[23]: 71
Assign rand_sets[24]: 1127  LLC: 2048
rand_sets[24]: 1127
Assign rand_sets[25]: 1382  LLC: 2048
rand_sets[25]: 1382
Assign rand_sets[26]: 647  LLC: 2048
rand_sets[26]: 647
Assign rand_sets[27]: 857  LLC: 2048
rand_sets[27]: 857
Assign rand_sets[28]: 1450  LLC: 2048
rand_sets[28]: 1450
Assign rand_sets[29]: 1160  LLC: 2048
rand_sets[29]: 1160
Assign rand_sets[30]: 1852  LLC: 2048
rand_sets[30]: 1852
Assign rand_sets[31]: 1881  LLC: 2048
rand_sets[31]: 1881
Assign rand_sets[32]: 1770  LLC: 2048
rand_sets[32]: 1770
Assign rand_sets[33]: 1622  LLC: 2048
rand_sets[33]: 1622
Assign rand_sets[34]: 275  LLC: 2048
rand_sets[34]: 275
Assign rand_sets[35]: 635  LLC: 2048
rand_sets[35]: 635
Assign rand_sets[36]: 466  LLC: 2048
rand_sets[36]: 466
Assign rand_sets[37]: 1413  LLC: 2048
rand_sets[37]: 1413
Assign rand_sets[38]: 417  LLC: 2048
rand_sets[38]: 417
Assign rand_sets[39]: 472  LLC: 2048
rand_sets[39]: 472
Assign rand_sets[40]: 1340  LLC: 2048
rand_sets[40]: 1340
Assign rand_sets[41]: 852  LLC: 2048
rand_sets[41]: 852
Assign rand_sets[42]: 1365  LLC: 2048
rand_sets[42]: 1365
Assign rand_sets[43]: 47  LLC: 2048
rand_sets[43]: 47
Assign rand_sets[44]: 823  LLC: 2048
rand_sets[44]: 823
Assign rand_sets[45]: 686  LLC: 2048
rand_sets[45]: 686
Assign rand_sets[46]: 1637  LLC: 2048
rand_sets[46]: 1637
Assign rand_sets[47]: 1115  LLC: 2048
rand_sets[47]: 1115
Assign rand_sets[48]: 986  LLC: 2048
rand_sets[48]: 986
Assign rand_sets[49]: 258  LLC: 2048
rand_sets[49]: 258
Assign rand_sets[50]: 633  LLC: 2048
rand_sets[50]: 633
Assign rand_sets[51]: 920  LLC: 2048
rand_sets[51]: 920
Assign rand_sets[52]: 204  LLC: 2048
rand_sets[52]: 204
Assign rand_sets[53]: 227  LLC: 2048
rand_sets[53]: 227
Assign rand_sets[54]: 1818  LLC: 2048
rand_sets[54]: 1818
Assign rand_sets[55]: 886  LLC: 2048
rand_sets[55]: 886
Assign rand_sets[56]: 1422  LLC: 2048
rand_sets[56]: 1422
Assign rand_sets[57]: 607  LLC: 2048
rand_sets[57]: 607
Assign rand_sets[58]: 217  LLC: 2048
rand_sets[58]: 217
Assign rand_sets[59]: 1945  LLC: 2048
rand_sets[59]: 1945
Assign rand_sets[60]: 143  LLC: 2048
rand_sets[60]: 143
Assign rand_sets[61]: 1311  LLC: 2048
rand_sets[61]: 1311
Assign rand_sets[62]: 319  LLC: 2048
rand_sets[62]: 319
Assign rand_sets[63]: 1846  LLC: 2048
rand_sets[63]: 1846
 CLEAN-RRIP-POLICY-1: 2-2-1-3-2-3-0-2- CLEAN-RRIP-POLICY-2: 2-2-1-3-2-3-0-2-
 DIRTY-RRIP-POLICY-1: 0-2-0-3-1-3-0-2- DIRTY-RRIP-POLICY-2: 0-2-0-3-1-3-0-2-
 PSEL width: 10
Heartbeat CPU 0 instructions: 10000000 cycles: 7319752 heartbeat IPC: 1.36617 cumulative IPC: 1.36617 (Simulation time: 0 hr 0 min 19 sec) 
Heartbeat CPU 0 instructions: 20000000 cycles: 14623443 heartbeat IPC: 1.36917 cumulative IPC: 1.36767 (Simulation time: 0 hr 0 min 38 sec) 
Heartbeat CPU 0 instructions: 30000003 cycles: 21924724 heartbeat IPC: 1.36962 cumulative IPC: 1.36832 (Simulation time: 0 hr 0 min 57 sec) 
Heartbeat CPU 0 instructions: 40000000 cycles: 29212931 heartbeat IPC: 1.37208 cumulative IPC: 1.36926 (Simulation time: 0 hr 1 min 16 sec) 
Heartbeat CPU 0 instructions: 50000000 cycles: 36489380 heartbeat IPC: 1.3743 cumulative IPC: 1.37026 (Simulation time: 0 hr 1 min 35 sec) 
Heartbeat CPU 0 instructions: 60000000 cycles: 43769300 heartbeat IPC: 1.37364 cumulative IPC: 1.37082 (Simulation time: 0 hr 1 min 54 sec) 
Heartbeat CPU 0 instructions: 70000001 cycles: 51054560 heartbeat IPC: 1.37263 cumulative IPC: 1.37108 (Simulation time: 0 hr 2 min 13 sec) 
Heartbeat CPU 0 instructions: 80000000 cycles: 58329526 heartbeat IPC: 1.37458 cumulative IPC: 1.37152 (Simulation time: 0 hr 2 min 32 sec) 
Heartbeat CPU 0 instructions: 90000000 cycles: 65635873 heartbeat IPC: 1.36867 cumulative IPC: 1.3712 (Simulation time: 0 hr 2 min 51 sec) 
Heartbeat CPU 0 instructions: 100000000 cycles: 72927934 heartbeat IPC: 1.37135 cumulative IPC: 1.37122 (Simulation time: 0 hr 3 min 10 sec) 

Warmup complete CPU 0 instructions: 100000002 cycles: 72927935 (Simulation time: 0 hr 3 min 10 sec) 

Heartbeat CPU 0 instructions: 110000002 cycles: 113500734 heartbeat IPC: 0.246471 cumulative IPC: 0.246471 (Simulation time: 0 hr 3 min 47 sec) 
Heartbeat CPU 0 instructions: 120000000 cycles: 153784895 heartbeat IPC: 0.248236 cumulative IPC: 0.24735 (Simulation time: 0 hr 4 min 25 sec) 
Heartbeat CPU 0 instructions: 130000002 cycles: 194314334 heartbeat IPC: 0.246734 cumulative IPC: 0.247145 (Simulation time: 0 hr 5 min 2 sec) 
Heartbeat CPU 0 instructions: 140000000 cycles: 234950982 heartbeat IPC: 0.246083 cumulative IPC: 0.246878 (Simulation time: 0 hr 5 min 40 sec) 
Heartbeat CPU 0 instructions: 150000002 cycles: 275157509 heartbeat IPC: 0.248716 cumulative IPC: 0.247244 (Simulation time: 0 hr 6 min 17 sec) 
Heartbeat CPU 0 instructions: 160000000 cycles: 315384601 heartbeat IPC: 0.248589 cumulative IPC: 0.247467 (Simulation time: 0 hr 6 min 55 sec) 
Heartbeat CPU 0 instructions: 170000001 cycles: 354828541 heartbeat IPC: 0.253524 cumulative IPC: 0.248314 (Simulation time: 0 hr 7 min 32 sec) 
Heartbeat CPU 0 instructions: 180000000 cycles: 395029253 heartbeat IPC: 0.248752 cumulative IPC: 0.248369 (Simulation time: 0 hr 8 min 9 sec) 
Heartbeat CPU 0 instructions: 190000002 cycles: 435195658 heartbeat IPC: 0.248964 cumulative IPC: 0.248435 (Simulation time: 0 hr 8 min 46 sec) 
Heartbeat CPU 0 instructions: 200000000 cycles: 476608245 heartbeat IPC: 0.241472 cumulative IPC: 0.247721 (Simulation time: 0 hr 9 min 24 sec) 
Heartbeat CPU 0 instructions: 210000003 cycles: 516850394 heartbeat IPC: 0.248496 cumulative IPC: 0.247791 (Simulation time: 0 hr 10 min 1 sec) 
Heartbeat CPU 0 instructions: 220000000 cycles: 557316997 heartbeat IPC: 0.247117 cumulative IPC: 0.247735 (Simulation time: 0 hr 10 min 39 sec) 
Heartbeat CPU 0 instructions: 230000000 cycles: 597751064 heartbeat IPC: 0.247316 cumulative IPC: 0.247702 (Simulation time: 0 hr 11 min 17 sec) 
Heartbeat CPU 0 instructions: 240000000 cycles: 637907233 heartbeat IPC: 0.249028 cumulative IPC: 0.247797 (Simulation time: 0 hr 11 min 54 sec) 
Heartbeat CPU 0 instructions: 250000000 cycles: 678090573 heartbeat IPC: 0.248859 cumulative IPC: 0.247867 (Simulation time: 0 hr 12 min 31 sec) 
Heartbeat CPU 0 instructions: 260000000 cycles: 718406204 heartbeat IPC: 0.248043 cumulative IPC: 0.247878 (Simulation time: 0 hr 13 min 8 sec) 
Heartbeat CPU 0 instructions: 270000000 cycles: 758785318 heartbeat IPC: 0.247653 cumulative IPC: 0.247865 (Simulation time: 0 hr 13 min 46 sec) 
Heartbeat CPU 0 instructions: 280000000 cycles: 799554027 heartbeat IPC: 0.245286 cumulative IPC: 0.24772 (Simulation time: 0 hr 14 min 24 sec) 
Heartbeat CPU 0 instructions: 290000001 cycles: 839494463 heartbeat IPC: 0.250373 cumulative IPC: 0.247858 (Simulation time: 0 hr 15 min 1 sec) 
Heartbeat CPU 0 instructions: 300000000 cycles: 880063135 heartbeat IPC: 0.246496 cumulative IPC: 0.24779 (Simulation time: 0 hr 15 min 38 sec) 
Heartbeat CPU 0 instructions: 310000000 cycles: 920647638 heartbeat IPC: 0.246399 cumulative IPC: 0.247723 (Simulation time: 0 hr 16 min 15 sec) 
Heartbeat CPU 0 instructions: 320000000 cycles: 960937405 heartbeat IPC: 0.248202 cumulative IPC: 0.247745 (Simulation time: 0 hr 16 min 53 sec) 
Heartbeat CPU 0 instructions: 330000000 cycles: 1001231666 heartbeat IPC: 0.248174 cumulative IPC: 0.247764 (Simulation time: 0 hr 17 min 30 sec) 
Heartbeat CPU 0 instructions: 340000000 cycles: 1042125416 heartbeat IPC: 0.244536 cumulative IPC: 0.247628 (Simulation time: 0 hr 18 min 8 sec) 
Heartbeat CPU 0 instructions: 350000001 cycles: 1082496363 heartbeat IPC: 0.247703 cumulative IPC: 0.247631 (Simulation time: 0 hr 18 min 45 sec) 
Heartbeat CPU 0 instructions: 360000000 cycles: 1123118282 heartbeat IPC: 0.246172 cumulative IPC: 0.247574 (Simulation time: 0 hr 19 min 23 sec) 
Heartbeat CPU 0 instructions: 370000000 cycles: 1162792476 heartbeat IPC: 0.252053 cumulative IPC: 0.247737 (Simulation time: 0 hr 19 min 59 sec) 
Heartbeat CPU 0 instructions: 380000000 cycles: 1203423914 heartbeat IPC: 0.246115 cumulative IPC: 0.247679 (Simulation time: 0 hr 20 min 37 sec) 
Heartbeat CPU 0 instructions: 390000001 cycles: 1243553238 heartbeat IPC: 0.249194 cumulative IPC: 0.247731 (Simulation time: 0 hr 21 min 14 sec) 
Heartbeat CPU 0 instructions: 400000000 cycles: 1283825059 heartbeat IPC: 0.248313 cumulative IPC: 0.24775 (Simulation time: 0 hr 21 min 51 sec) 
Heartbeat CPU 0 instructions: 410000000 cycles: 1323875381 heartbeat IPC: 0.249686 cumulative IPC: 0.247812 (Simulation time: 0 hr 22 min 28 sec) 
Heartbeat CPU 0 instructions: 420000000 cycles: 1363961139 heartbeat IPC: 0.249465 cumulative IPC: 0.247863 (Simulation time: 0 hr 23 min 5 sec) 
Heartbeat CPU 0 instructions: 430000000 cycles: 1404145111 heartbeat IPC: 0.248855 cumulative IPC: 0.247893 (Simulation time: 0 hr 23 min 42 sec) 
Heartbeat CPU 0 instructions: 440000000 cycles: 1444337204 heartbeat IPC: 0.248805 cumulative IPC: 0.24792 (Simulation time: 0 hr 24 min 19 sec) 
Heartbeat CPU 0 instructions: 450000002 cycles: 1484424459 heartbeat IPC: 0.249456 cumulative IPC: 0.247964 (Simulation time: 0 hr 24 min 56 sec) 
Heartbeat CPU 0 instructions: 460000000 cycles: 1523947599 heartbeat IPC: 0.253016 cumulative IPC: 0.248101 (Simulation time: 0 hr 25 min 32 sec) 
Heartbeat CPU 0 instructions: 470000000 cycles: 1564320010 heartbeat IPC: 0.247694 cumulative IPC: 0.24809 (Simulation time: 0 hr 26 min 10 sec) 
Heartbeat CPU 0 instructions: 480000000 cycles: 1604387514 heartbeat IPC: 0.249579 cumulative IPC: 0.248129 (Simulation time: 0 hr 26 min 47 sec) 
Heartbeat CPU 0 instructions: 490000001 cycles: 1644558900 heartbeat IPC: 0.248933 cumulative IPC: 0.24815 (Simulation time: 0 hr 27 min 24 sec) 
Heartbeat CPU 0 instructions: 500000000 cycles: 1684949178 heartbeat IPC: 0.247584 cumulative IPC: 0.248136 (Simulation time: 0 hr 28 min 1 sec) 
Heartbeat CPU 0 instructions: 510000000 cycles: 1724759377 heartbeat IPC: 0.251192 cumulative IPC: 0.248209 (Simulation time: 0 hr 28 min 37 sec) 
Heartbeat CPU 0 instructions: 520000000 cycles: 1765368902 heartbeat IPC: 0.246248 cumulative IPC: 0.248162 (Simulation time: 0 hr 29 min 13 sec) 
Heartbeat CPU 0 instructions: 530000000 cycles: 1805467395 heartbeat IPC: 0.249386 cumulative IPC: 0.248191 (Simulation time: 0 hr 29 min 47 sec) 
Heartbeat CPU 0 instructions: 540000000 cycles: 1845333526 heartbeat IPC: 0.25084 cumulative IPC: 0.24825 (Simulation time: 0 hr 30 min 22 sec) 
Heartbeat CPU 0 instructions: 550000001 cycles: 1885906397 heartbeat IPC: 0.24647 cumulative IPC: 0.24821 (Simulation time: 0 hr 30 min 57 sec) 
Heartbeat CPU 0 instructions: 560000000 cycles: 1926532336 heartbeat IPC: 0.246148 cumulative IPC: 0.248165 (Simulation time: 0 hr 31 min 32 sec) 
Heartbeat CPU 0 instructions: 570000003 cycles: 1967142697 heartbeat IPC: 0.246243 cumulative IPC: 0.248124 (Simulation time: 0 hr 32 min 7 sec) 
Heartbeat CPU 0 instructions: 580000000 cycles: 2007570023 heartbeat IPC: 0.247357 cumulative IPC: 0.248108 (Simulation time: 0 hr 32 min 42 sec) 
Heartbeat CPU 0 instructions: 590000001 cycles: 2048493576 heartbeat IPC: 0.244358 cumulative IPC: 0.24803 (Simulation time: 0 hr 33 min 17 sec) 
Heartbeat CPU 0 instructions: 600000000 cycles: 2089082101 heartbeat IPC: 0.246375 cumulative IPC: 0.247997 (Simulation time: 0 hr 33 min 52 sec) 
Finished CPU 0 instructions: 500000000 cycles: 2016154174 cumulative IPC: 0.247997 (Simulation time: 0 hr 33 min 52 sec) 

CPU 0 Branch Prediction Accuracy: 96.2429% MPKI: 5.85335
Number of Branches: 77897976 Number of Mispredictions: 2926674
Number of LOAD Instructions: 193081861
Number of LOAD Instructions (ROI): 193081861
Number of STORE Instructions: 97310749
Number of STORE Instructions (ROI): 97310749
Total Destination Memory Operands: 106368027
Total Destination Memory Operands (ROI): 106368027
Total Source Memory Operands: 193081861
Total Source Memory Operands (ROI): 193081861
Number of DEPENDED LOADS: 6444036
Number of DEPENDED LOADS (ROI): 6444036
Number of SQ_ADDED: 106367982
Number of SQ_ADDED (ROI): 106367982
Number of LQ_ADDED: 428245496
Number of LQ_ADDED (ROI): 428245496
Number of Instructions read from trace: 600000256

ChampSim completed all CPUs

Region of Interest Statistics

CPU 0 cumulative IPC: 0.247997 instructions: 500000000 cycles: 2016154174
ITLB TOTAL     ACCESS:  151199578  HIT:  151183747  MISS:      15831
ITLB LOAD      ACCESS:  151199578  HIT:  151183747  MISS:      15831
ITLB RFO       ACCESS:          0  HIT:          0  MISS:          0
ITLB PREFETCH  ACCESS:          0  HIT:          0  MISS:          0
ITLB WRITEBACK ACCESS:          0  HIT:          0  MISS:          0
ITLB PREFETCH  REQUESTED:          0  ISSUED:          0  USEFUL:          0  USELESS:          0
ITLB TOTAL MSHR MERGED:      17439
ITLB LOAD MSHR MERGED:      17439
ITLB RFO MSHR MERGED:          0
ITLB PREFETCH MSHR MERGED:          0
ITLB WRITEBACK MSHR MERGED:          0
ITLB TOTAL ACCESSES:  151217017 HITS:  151183747 MISSES:      33270
ITLB LOAD ACCESSES:  151217017 HITS:  151183747 MISSES:      33270
ITLB RFO ACCESSES:          0 HITS:          0 MISSES:          0
ITLB PREFETCH ACCESSES:          0 HITS:          0 MISSES:          0
ITLB WRITEBACK ACCESSES:          0 HITS:          0 MISSES:          0
ITLB RQ ACCESS:  500000242
ITLB RQ TO_CACHE:  151217017
ITLB RQ MERGED:  348783225
ITLB RQ FORWARD:          0
ITLB WQ ACCESS:          0
ITLB WQ TO_CACHE:          0
ITLB WQ MERGED:          0
ITLB WQ FORWARD:          0
DTLB TOTAL     ACCESS:  199559297  HIT:  194180291  MISS:    5379006
DTLB LOAD      ACCESS:  123134138  HIT:  118115624  MISS:    5018514
DTLB RFO       ACCESS:   76425159  HIT:   76064667  MISS:     360492
DTLB PREFETCH  ACCESS:          0  HIT:          0  MISS:          0
DTLB WRITEBACK ACCESS:          0  HIT:          0  MISS:          0
DTLB PREFETCH  REQUESTED:          0  ISSUED:          0  USEFUL:          0  USELESS:          0
DTLB TOTAL MSHR MERGED:     917414
DTLB LOAD MSHR MERGED:     807566
DTLB RFO MSHR MERGED:     109848
DTLB PREFETCH MSHR MERGED:          0
DTLB WRITEBACK MSHR MERGED:          0
DTLB TOTAL ACCESSES:  200476711 HITS:  194180291 MISSES:    6296420
DTLB LOAD ACCESSES:  123941704 HITS:  118115624 MISSES:    5826080
DTLB RFO ACCESSES:   76535007 HITS:   76064667 MISSES:     470340
DTLB PREFETCH ACCESSES:          0 HITS:          0 MISSES:          0
DTLB WRITEBACK ACCESSES:          0 HITS:          0 MISSES:          0
DTLB RQ ACCESS:  243881501
DTLB RQ TO_CACHE:  200476711
DTLB RQ MERGED:   43404790
DTLB RQ FORWARD:          0
DTLB WQ ACCESS:          0
DTLB WQ TO_CACHE:          0
DTLB WQ MERGED:          0
DTLB WQ FORWARD:          0
L1D TOTAL     ACCESS:  335592325  HIT:  317496223  MISS:   18096102
L1D LOAD      ACCESS:  127689900  HIT:  118742821  MISS:    8947079
L1D RFO       ACCESS:   87076138  HIT:   86291464  MISS:     784674
L1D PREFETCH  ACCESS:  120826287  HIT:  112461938  MISS:    8364349
L1D WRITEBACK ACCESS:          0  HIT:          0  MISS:          0
L1D PREFETCH  REQUESTED:  128475776  ISSUED:  126877783  USEFUL:    1738588  USELESS:    6625773
L1D TOTAL MSHR MERGED:    3854457
L1D LOAD MSHR MERGED:     953363
L1D RFO MSHR MERGED:    1067279
L1D PREFETCH MSHR MERGED:    1833815
L1D WRITEBACK MSHR MERGED:          0
L1D TOTAL ACCESSES:  339534331 HITS:  317583772 MISSES:   21950559
L1D LOAD ACCESSES:  128476221 HITS:  118743266 MISSES:    9732955
L1D RFO ACCESSES:   88078857 HITS:   86291464 MISSES:    1787393
L1D PREFETCH ACCESSES:  122979253 HITS:  112549042 MISSES:   10430211
L1D WRITEBACK ACCESSES:          0 HITS:          0 MISSES:          0
L1D RQ ACCESS:  155250116
L1D RQ TO_CACHE:  128475776
L1D RQ MERGED:   26773895
L1D RQ FORWARD:          0
L1D WQ ACCESS:   88631385
L1D WQ TO_CACHE:   88078856
L1D WQ MERGED:     552529
L1D WQ FORWARD:      87549
L1I TOTAL     ACCESS:  175507409  HIT:  175240946  MISS:     266463
L1I LOAD      ACCESS:  175507409  HIT:  175240946  MISS:     266463
L1I RFO       ACCESS:          0  HIT:          0  MISS:          0
L1I PREFETCH  ACCESS:          0  HIT:          0  MISS:          0
L1I WRITEBACK ACCESS:          0  HIT:          0  MISS:          0
L1I PREFETCH  REQUESTED:          0  ISSUED:          0  USEFUL:          0  USELESS:          0
L1I TOTAL MSHR MERGED:     213174
L1I LOAD MSHR MERGED:     213174
L1I RFO MSHR MERGED:          0
L1I PREFETCH MSHR MERGED:          0
L1I WRITEBACK MSHR MERGED:          0
L1I TOTAL ACCESSES:  175720583 HITS:  175240946 MISSES:     479637
L1I LOAD ACCESSES:  175720583 HITS:  175240946 MISSES:     479637
L1I RFO ACCESSES:          0 HITS:          0 MISSES:          0
L1I PREFETCH ACCESSES:          0 HITS:          0 MISSES:          0
L1I WRITEBACK ACCESSES:          0 HITS:          0 MISSES:          0
L1I RQ ACCESS:  500000242
L1I RQ TO_CACHE:  175720583
L1I RQ MERGED:  324279659
L1I RQ FORWARD:          0
L1I WQ ACCESS:          0
L1I WQ TO_CACHE:          0
L1I WQ MERGED:          0
L1I WQ FORWARD:          0
L2C TOTAL     ACCESS:   23738626  HIT:   12112861  MISS:   11625765
L2C LOAD      ACCESS:    9044879  HIT:    3565121  MISS:    5479758
L2C RFO       ACCESS:     720054  HIT:     129985  MISS:     590069
L2C PREFETCH  ACCESS:    8613392  HIT:    3086155  MISS:    5527237
L2C WRITEBACK ACCESS:    5360301  HIT:    5331600  MISS:      28701
L2C PREFETCH  REQUESTED:      18040  ISSUED:      18040  USEFUL:     322963  USELESS:    5204450
L2C TOTAL MSHR MERGED:         25
L2C LOAD MSHR MERGED:          3
L2C RFO MSHR MERGED:          0
L2C PREFETCH MSHR MERGED:         22
L2C WRITEBACK MSHR MERGED:          0
L2C TOTAL ACCESSES:   23740447 HITS:   12114649 MISSES:   11625798
L2C LOAD ACCESSES:    9046055 HITS:    3566297 MISSES:    5479758
L2C RFO ACCESSES:     720114 HITS:     130045 MISSES:     590069
L2C PREFETCH ACCESSES:    8613977 HITS:    3086707 MISSES:    5527270
L2C WRITEBACK ACCESSES:    5360301 HITS:    5331600 MISSES:      28701
L2C RQ ACCESS:    9766169
L2C RQ TO_CACHE:    9764933
L2C RQ MERGED:          0
L2C RQ FORWARD:          0
L2C WQ ACCESS:    5360301
L2C WQ TO_CACHE:    5360301
L2C WQ MERGED:          0
L2C WQ FORWARD:       1788
LLC TOTAL     ACCESS:   15448707  HIT:    6305411  MISS:    9143296
LLC LOAD      ACCESS:    5479726  HIT:    1987636  MISS:    3492090
LLC RFO       ACCESS:     590067  HIT:     258647  MISS:     331420
LLC PREFETCH  ACCESS:    5527233  HIT:    1027347  MISS:    4499886
LLC WRITEBACK ACCESS:    3851681  HIT:    3031781  MISS:     819900
LLC PREFETCH  REQUESTED:          0  ISSUED:          0  USEFUL:      20651  USELESS:    4479717
LLC TOTAL MSHR MERGED:          0
LLC LOAD MSHR MERGED:          0
LLC RFO MSHR MERGED:          0
LLC PREFETCH MSHR MERGED:          0
LLC WRITEBACK MSHR MERGED:          0
LLC TOTAL ACCESSES:   15448753 HITS:    6305457 MISSES:    9143296
LLC LOAD ACCESSES:    5479755 HITS:    1987665 MISSES:    3492090
LLC RFO ACCESSES:     590069 HITS:     258649 MISSES:     331420
LLC PREFETCH ACCESSES:    5527248 HITS:    1027362 MISSES:    4499886
LLC WRITEBACK ACCESSES:    3851681 HITS:    3031781 MISSES:     819900
LLC 0 RQ ACCESS:    6069824
LLC 0 RQ TO_CACHE:    6069793
LLC 0 RQ MERGED:          0
LLC 0 RQ FORWARD:          0
LLC WQ ACCESS:    3851681
LLC WQ TO_CACHE:    3851681
LLC WQ MERGED:          0
LLC WQ FORWARD:         46
Major fault: 0 Minor fault: 44814
CPU 0 L1D next line prefetcher final stats
CPU 0 L2C PC-based stride prefetcher final stats
All Misses: 11076692
All Hits: 7544517
SD Algo Stats - Switches: 0 SRR-Repls: 3987214 BRR-Repls: 0

DRAM Statistics
 CHANNEL 0
 RQ ROW_BUFFER_HIT:    1471116  ROW_BUFFER_MISS:    6850181
 DBUS_CONGESTED:    5632279
 WQ ROW_BUFFER_HIT:     185310  ROW_BUFFER_MISS:    2158820  FULL:          0

 AVG_CONGESTED_CYCLE: 13
LOADS RETIRED: 160808997
INSTR RETIRED: 500000000
