
*** ChampSim Multicore Out-of-Order Simulator ***

Warmup Instructions: 100000000
Simulation Instructions: 500000000
Number of CPUs: 1
LLC sets: 2048
LLC ways: 16
Clean RRIP Policies: 2213230222132302 Dirty RRIP Policies: 203130202031302 PSEL Width: 10 Track Set: 4294967295 PSEL Mask: 1 Demote Mask: 1040130010401300DS Algo: 0Window size: 0
Off-chip DRAM Size: 4096 MB Channels: 1 Width: 64-bit Data Rate: 1600 MT/s

CPU 0 runs /mnt/beegfs/iconst01/spec2017/Xalancbmk.trace.gz
NOT SORTED
TRACE STRING: /mnt/beegfs/iconst01/spec2017/Xalancbmk.trace.gz
SORTED
TRACE STRING: /mnt/beegfs/iconst01/spec2017/Xalancbmk.trace.gz
INITIAL
TRACE STRING: /mnt/beegfs/iconst01/spec2017/Xalancbmk.trace.gz

champsim_seed used: 913

CPU 0 L1D next line prefetcher
CPU 0 L2C IP-based stride prefetcher
Initialize DRRIP state
Assign rand_sets[0]: 454  LLC: 2048
rand_sets[0]: 454
Assign rand_sets[1]: 1662  LLC: 2048
rand_sets[1]: 1662
Assign rand_sets[2]: 1921  LLC: 2048
rand_sets[2]: 1921
Assign rand_sets[3]: 1131  LLC: 2048
rand_sets[3]: 1131
Assign rand_sets[4]: 331  LLC: 2048
rand_sets[4]: 331
Assign rand_sets[5]: 1531  LLC: 2048
rand_sets[5]: 1531
Assign rand_sets[6]: 482  LLC: 2048
rand_sets[6]: 482
Assign rand_sets[7]: 1275  LLC: 2048
rand_sets[7]: 1275
Assign rand_sets[8]: 1876  LLC: 2048
rand_sets[8]: 1876
Assign rand_sets[9]: 2038  LLC: 2048
rand_sets[9]: 2038
Assign rand_sets[10]: 701  LLC: 2048
rand_sets[10]: 701
Assign rand_sets[11]: 479  LLC: 2048
rand_sets[11]: 479
Assign rand_sets[12]: 892  LLC: 2048
rand_sets[12]: 892
Assign rand_sets[13]: 1820  LLC: 2048
rand_sets[13]: 1820
Assign rand_sets[14]: 1505  LLC: 2048
rand_sets[14]: 1505
Assign rand_sets[15]: 1159  LLC: 2048
rand_sets[15]: 1159
Assign rand_sets[16]: 513  LLC: 2048
rand_sets[16]: 513
Assign rand_sets[17]: 703  LLC: 2048
rand_sets[17]: 703
Assign rand_sets[18]: 561  LLC: 2048
rand_sets[18]: 561
Assign rand_sets[19]: 990  LLC: 2048
rand_sets[19]: 990
Assign rand_sets[20]: 342  LLC: 2048
rand_sets[20]: 342
Assign rand_sets[21]: 882  LLC: 2048
rand_sets[21]: 882
Assign rand_sets[22]: 15  LLC: 2048
rand_sets[22]: 15
Assign rand_sets[23]: 71  LLC: 2048
rand_sets[23]: 71
Assign rand_sets[24]: 1127  LLC: 2048
rand_sets[24]: 1127
Assign rand_sets[25]: 1382  LLC: 2048
rand_sets[25]: 1382
Assign rand_sets[26]: 647  LLC: 2048
rand_sets[26]: 647
Assign rand_sets[27]: 857  LLC: 2048
rand_sets[27]: 857
Assign rand_sets[28]: 1450  LLC: 2048
rand_sets[28]: 1450
Assign rand_sets[29]: 1160  LLC: 2048
rand_sets[29]: 1160
Assign rand_sets[30]: 1852  LLC: 2048
rand_sets[30]: 1852
Assign rand_sets[31]: 1881  LLC: 2048
rand_sets[31]: 1881
Assign rand_sets[32]: 1770  LLC: 2048
rand_sets[32]: 1770
Assign rand_sets[33]: 1622  LLC: 2048
rand_sets[33]: 1622
Assign rand_sets[34]: 275  LLC: 2048
rand_sets[34]: 275
Assign rand_sets[35]: 635  LLC: 2048
rand_sets[35]: 635
Assign rand_sets[36]: 466  LLC: 2048
rand_sets[36]: 466
Assign rand_sets[37]: 1413  LLC: 2048
rand_sets[37]: 1413
Assign rand_sets[38]: 417  LLC: 2048
rand_sets[38]: 417
Assign rand_sets[39]: 472  LLC: 2048
rand_sets[39]: 472
Assign rand_sets[40]: 1340  LLC: 2048
rand_sets[40]: 1340
Assign rand_sets[41]: 852  LLC: 2048
rand_sets[41]: 852
Assign rand_sets[42]: 1365  LLC: 2048
rand_sets[42]: 1365
Assign rand_sets[43]: 47  LLC: 2048
rand_sets[43]: 47
Assign rand_sets[44]: 823  LLC: 2048
rand_sets[44]: 823
Assign rand_sets[45]: 686  LLC: 2048
rand_sets[45]: 686
Assign rand_sets[46]: 1637  LLC: 2048
rand_sets[46]: 1637
Assign rand_sets[47]: 1115  LLC: 2048
rand_sets[47]: 1115
Assign rand_sets[48]: 986  LLC: 2048
rand_sets[48]: 986
Assign rand_sets[49]: 258  LLC: 2048
rand_sets[49]: 258
Assign rand_sets[50]: 633  LLC: 2048
rand_sets[50]: 633
Assign rand_sets[51]: 920  LLC: 2048
rand_sets[51]: 920
Assign rand_sets[52]: 204  LLC: 2048
rand_sets[52]: 204
Assign rand_sets[53]: 227  LLC: 2048
rand_sets[53]: 227
Assign rand_sets[54]: 1818  LLC: 2048
rand_sets[54]: 1818
Assign rand_sets[55]: 886  LLC: 2048
rand_sets[55]: 886
Assign rand_sets[56]: 1422  LLC: 2048
rand_sets[56]: 1422
Assign rand_sets[57]: 607  LLC: 2048
rand_sets[57]: 607
Assign rand_sets[58]: 217  LLC: 2048
rand_sets[58]: 217
Assign rand_sets[59]: 1945  LLC: 2048
rand_sets[59]: 1945
Assign rand_sets[60]: 143  LLC: 2048
rand_sets[60]: 143
Assign rand_sets[61]: 1311  LLC: 2048
rand_sets[61]: 1311
Assign rand_sets[62]: 319  LLC: 2048
rand_sets[62]: 319
Assign rand_sets[63]: 1846  LLC: 2048
rand_sets[63]: 1846
 CLEAN-RRIP-POLICY-1: 2-2-1-3-2-3-0-2- CLEAN-RRIP-POLICY-2: 2-2-1-3-2-3-0-2-
 DIRTY-RRIP-POLICY-1: 0-2-0-3-1-3-0-2- DIRTY-RRIP-POLICY-2: 0-2-0-3-1-3-0-2-
 PSEL width: 10
Heartbeat CPU 0 instructions: 10000003 cycles: 4586953 heartbeat IPC: 2.1801 cumulative IPC: 2.1801 (Simulation time: 0 hr 0 min 15 sec) 
Heartbeat CPU 0 instructions: 20000000 cycles: 8981224 heartbeat IPC: 2.27569 cumulative IPC: 2.22687 (Simulation time: 0 hr 0 min 28 sec) 
Heartbeat CPU 0 instructions: 30000000 cycles: 13390819 heartbeat IPC: 2.26778 cumulative IPC: 2.24034 (Simulation time: 0 hr 0 min 42 sec) 
Heartbeat CPU 0 instructions: 40000000 cycles: 18014708 heartbeat IPC: 2.16268 cumulative IPC: 2.22041 (Simulation time: 0 hr 0 min 57 sec) 
Heartbeat CPU 0 instructions: 50000002 cycles: 22431130 heartbeat IPC: 2.26428 cumulative IPC: 2.22905 (Simulation time: 0 hr 1 min 11 sec) 
Heartbeat CPU 0 instructions: 60000000 cycles: 27083546 heartbeat IPC: 2.14942 cumulative IPC: 2.21537 (Simulation time: 0 hr 1 min 26 sec) 
Heartbeat CPU 0 instructions: 70000003 cycles: 31490850 heartbeat IPC: 2.26896 cumulative IPC: 2.22287 (Simulation time: 0 hr 1 min 39 sec) 
Heartbeat CPU 0 instructions: 80000000 cycles: 35915764 heartbeat IPC: 2.25993 cumulative IPC: 2.22743 (Simulation time: 0 hr 1 min 53 sec) 
Heartbeat CPU 0 instructions: 90000002 cycles: 40373758 heartbeat IPC: 2.24316 cumulative IPC: 2.22917 (Simulation time: 0 hr 2 min 7 sec) 
Heartbeat CPU 0 instructions: 100000000 cycles: 44848206 heartbeat IPC: 2.23491 cumulative IPC: 2.22974 (Simulation time: 0 hr 2 min 21 sec) 

Warmup complete CPU 0 instructions: 100000003 cycles: 44848207 (Simulation time: 0 hr 2 min 21 sec) 

Heartbeat CPU 0 instructions: 110000000 cycles: 71250560 heartbeat IPC: 0.378754 cumulative IPC: 0.378754 (Simulation time: 0 hr 2 min 50 sec) 
Heartbeat CPU 0 instructions: 120000000 cycles: 99087337 heartbeat IPC: 0.359237 cumulative IPC: 0.368737 (Simulation time: 0 hr 3 min 20 sec) 
Heartbeat CPU 0 instructions: 130000000 cycles: 122273672 heartbeat IPC: 0.431289 cumulative IPC: 0.387469 (Simulation time: 0 hr 3 min 47 sec) 
Heartbeat CPU 0 instructions: 140000000 cycles: 144741397 heartbeat IPC: 0.445083 cumulative IPC: 0.400428 (Simulation time: 0 hr 4 min 14 sec) 
Heartbeat CPU 0 instructions: 150000000 cycles: 168883916 heartbeat IPC: 0.414207 cumulative IPC: 0.40311 (Simulation time: 0 hr 4 min 42 sec) 
Heartbeat CPU 0 instructions: 160000000 cycles: 193521714 heartbeat IPC: 0.40588 cumulative IPC: 0.403569 (Simulation time: 0 hr 5 min 10 sec) 
Heartbeat CPU 0 instructions: 170000002 cycles: 214707329 heartbeat IPC: 0.472018 cumulative IPC: 0.412106 (Simulation time: 0 hr 5 min 36 sec) 
Heartbeat CPU 0 instructions: 180000000 cycles: 237229855 heartbeat IPC: 0.444 cumulative IPC: 0.41584 (Simulation time: 0 hr 6 min 2 sec) 
Heartbeat CPU 0 instructions: 190000000 cycles: 256213845 heartbeat IPC: 0.52676 cumulative IPC: 0.425802 (Simulation time: 0 hr 6 min 26 sec) 
Heartbeat CPU 0 instructions: 200000000 cycles: 277213293 heartbeat IPC: 0.476203 cumulative IPC: 0.430357 (Simulation time: 0 hr 6 min 52 sec) 
Heartbeat CPU 0 instructions: 210000001 cycles: 303188609 heartbeat IPC: 0.384981 cumulative IPC: 0.425795 (Simulation time: 0 hr 7 min 21 sec) 
Heartbeat CPU 0 instructions: 220000000 cycles: 328669522 heartbeat IPC: 0.392451 cumulative IPC: 0.422801 (Simulation time: 0 hr 7 min 50 sec) 
Heartbeat CPU 0 instructions: 230000000 cycles: 350764484 heartbeat IPC: 0.452592 cumulative IPC: 0.424953 (Simulation time: 0 hr 8 min 16 sec) 
Heartbeat CPU 0 instructions: 240000000 cycles: 376172841 heartbeat IPC: 0.393571 cumulative IPC: 0.422546 (Simulation time: 0 hr 8 min 45 sec) 
Heartbeat CPU 0 instructions: 250000001 cycles: 400770004 heartbeat IPC: 0.406551 cumulative IPC: 0.421441 (Simulation time: 0 hr 9 min 13 sec) 
Heartbeat CPU 0 instructions: 260000000 cycles: 421723994 heartbeat IPC: 0.477236 cumulative IPC: 0.424543 (Simulation time: 0 hr 9 min 38 sec) 
Heartbeat CPU 0 instructions: 270000000 cycles: 443359377 heartbeat IPC: 0.462206 cumulative IPC: 0.426588 (Simulation time: 0 hr 10 min 4 sec) 
Heartbeat CPU 0 instructions: 280000000 cycles: 470630503 heartbeat IPC: 0.366688 cumulative IPC: 0.422751 (Simulation time: 0 hr 10 min 34 sec) 
Heartbeat CPU 0 instructions: 290000000 cycles: 491706455 heartbeat IPC: 0.474474 cumulative IPC: 0.425191 (Simulation time: 0 hr 11 min 0 sec) 
Heartbeat CPU 0 instructions: 300000000 cycles: 512198873 heartbeat IPC: 0.487985 cumulative IPC: 0.427944 (Simulation time: 0 hr 11 min 25 sec) 
Heartbeat CPU 0 instructions: 310000000 cycles: 531455337 heartbeat IPC: 0.519306 cumulative IPC: 0.43156 (Simulation time: 0 hr 11 min 49 sec) 
Heartbeat CPU 0 instructions: 320000000 cycles: 560390840 heartbeat IPC: 0.345596 cumulative IPC: 0.426735 (Simulation time: 0 hr 12 min 20 sec) 
Heartbeat CPU 0 instructions: 330000001 cycles: 579782768 heartbeat IPC: 0.515679 cumulative IPC: 0.429959 (Simulation time: 0 hr 12 min 44 sec) 
Heartbeat CPU 0 instructions: 340000000 cycles: 599060511 heartbeat IPC: 0.518733 cumulative IPC: 0.433047 (Simulation time: 0 hr 13 min 8 sec) 
Heartbeat CPU 0 instructions: 350000001 cycles: 623858453 heartbeat IPC: 0.403259 cumulative IPC: 0.431771 (Simulation time: 0 hr 13 min 36 sec) 
Heartbeat CPU 0 instructions: 360000000 cycles: 646002267 heartbeat IPC: 0.451593 cumulative IPC: 0.432501 (Simulation time: 0 hr 14 min 3 sec) 
Heartbeat CPU 0 instructions: 370000001 cycles: 670841467 heartbeat IPC: 0.402589 cumulative IPC: 0.431315 (Simulation time: 0 hr 14 min 31 sec) 
Heartbeat CPU 0 instructions: 380000000 cycles: 693741068 heartbeat IPC: 0.436689 cumulative IPC: 0.431504 (Simulation time: 0 hr 14 min 57 sec) 
Heartbeat CPU 0 instructions: 390000000 cycles: 712567640 heartbeat IPC: 0.531164 cumulative IPC: 0.434314 (Simulation time: 0 hr 15 min 22 sec) 
Heartbeat CPU 0 instructions: 400000000 cycles: 732367666 heartbeat IPC: 0.50505 cumulative IPC: 0.436351 (Simulation time: 0 hr 15 min 46 sec) 
Heartbeat CPU 0 instructions: 410000001 cycles: 758149983 heartbeat IPC: 0.387863 cumulative IPC: 0.434599 (Simulation time: 0 hr 16 min 15 sec) 
Heartbeat CPU 0 instructions: 420000000 cycles: 782504484 heartbeat IPC: 0.410602 cumulative IPC: 0.433806 (Simulation time: 0 hr 16 min 42 sec) 
Heartbeat CPU 0 instructions: 430000002 cycles: 803672044 heartbeat IPC: 0.472421 cumulative IPC: 0.434884 (Simulation time: 0 hr 17 min 8 sec) 
Heartbeat CPU 0 instructions: 440000000 cycles: 823949751 heartbeat IPC: 0.493152 cumulative IPC: 0.4364 (Simulation time: 0 hr 17 min 33 sec) 
Heartbeat CPU 0 instructions: 450000002 cycles: 850259084 heartbeat IPC: 0.380093 cumulative IPC: 0.434561 (Simulation time: 0 hr 18 min 2 sec) 
Heartbeat CPU 0 instructions: 460000000 cycles: 875845073 heartbeat IPC: 0.390839 cumulative IPC: 0.433215 (Simulation time: 0 hr 18 min 30 sec) 
Heartbeat CPU 0 instructions: 470000002 cycles: 901465128 heartbeat IPC: 0.390319 cumulative IPC: 0.431932 (Simulation time: 0 hr 18 min 59 sec) 
Heartbeat CPU 0 instructions: 480000000 cycles: 925642852 heartbeat IPC: 0.413604 cumulative IPC: 0.431429 (Simulation time: 0 hr 19 min 26 sec) 
Heartbeat CPU 0 instructions: 490000000 cycles: 946413125 heartbeat IPC: 0.481457 cumulative IPC: 0.432581 (Simulation time: 0 hr 19 min 51 sec) 
Heartbeat CPU 0 instructions: 500000000 cycles: 970920495 heartbeat IPC: 0.408041 cumulative IPC: 0.431932 (Simulation time: 0 hr 20 min 19 sec) 
Heartbeat CPU 0 instructions: 510000000 cycles: 995621547 heartbeat IPC: 0.404841 cumulative IPC: 0.431228 (Simulation time: 0 hr 20 min 47 sec) 
Heartbeat CPU 0 instructions: 520000000 cycles: 1016639811 heartbeat IPC: 0.475777 cumulative IPC: 0.432191 (Simulation time: 0 hr 21 min 12 sec) 
Heartbeat CPU 0 instructions: 530000003 cycles: 1041846350 heartbeat IPC: 0.396723 cumulative IPC: 0.431295 (Simulation time: 0 hr 21 min 41 sec) 
Heartbeat CPU 0 instructions: 540000000 cycles: 1064658570 heartbeat IPC: 0.438361 cumulative IPC: 0.431453 (Simulation time: 0 hr 22 min 7 sec) 
Heartbeat CPU 0 instructions: 550000000 cycles: 1089749127 heartbeat IPC: 0.398556 cumulative IPC: 0.430663 (Simulation time: 0 hr 22 min 35 sec) 
Heartbeat CPU 0 instructions: 560000000 cycles: 1112922533 heartbeat IPC: 0.431529 cumulative IPC: 0.430682 (Simulation time: 0 hr 23 min 2 sec) 
Heartbeat CPU 0 instructions: 570000002 cycles: 1136247687 heartbeat IPC: 0.428722 cumulative IPC: 0.43064 (Simulation time: 0 hr 23 min 29 sec) 
Heartbeat CPU 0 instructions: 580000000 cycles: 1157192075 heartbeat IPC: 0.477455 cumulative IPC: 0.431521 (Simulation time: 0 hr 23 min 54 sec) 
Heartbeat CPU 0 instructions: 590000001 cycles: 1180871129 heartbeat IPC: 0.422314 cumulative IPC: 0.431329 (Simulation time: 0 hr 24 min 21 sec) 
Heartbeat CPU 0 instructions: 600000000 cycles: 1200024219 heartbeat IPC: 0.522109 cumulative IPC: 0.432834 (Simulation time: 0 hr 24 min 45 sec) 
Finished CPU 0 instructions: 500000000 cycles: 1155176033 cumulative IPC: 0.432834 (Simulation time: 0 hr 24 min 45 sec) 

CPU 0 Branch Prediction Accuracy: 99.5434% MPKI: 1.33026
Number of Branches: 145676990 Number of Mispredictions: 665128
Number of LOAD Instructions: 188863207
Number of LOAD Instructions (ROI): 188863207
Number of STORE Instructions: 7332002
Number of STORE Instructions (ROI): 7332002
Total Destination Memory Operands: 10029285
Total Destination Memory Operands (ROI): 10029285
Total Source Memory Operands: 188863207
Total Source Memory Operands (ROI): 188863207
Number of DEPENDED LOADS: 291313
Number of DEPENDED LOADS (ROI): 291313
Number of SQ_ADDED: 10029285
Number of SQ_ADDED (ROI): 10029285
Number of LQ_ADDED: 200572093
Number of LQ_ADDED (ROI): 200572093
Number of Instructions read from trace: 600000010

ChampSim completed all CPUs

Region of Interest Statistics

CPU 0 cumulative IPC: 0.432834 instructions: 500000000 cycles: 1155176033
ITLB TOTAL     ACCESS:  145835122  HIT:  145795594  MISS:      39528
ITLB LOAD      ACCESS:  145835122  HIT:  145795594  MISS:      39528
ITLB RFO       ACCESS:          0  HIT:          0  MISS:          0
ITLB PREFETCH  ACCESS:          0  HIT:          0  MISS:          0
ITLB WRITEBACK ACCESS:          0  HIT:          0  MISS:          0
ITLB PREFETCH  REQUESTED:          0  ISSUED:          0  USEFUL:          0  USELESS:          0
ITLB TOTAL MSHR MERGED:      57369
ITLB LOAD MSHR MERGED:      57369
ITLB RFO MSHR MERGED:          0
ITLB PREFETCH MSHR MERGED:          0
ITLB WRITEBACK MSHR MERGED:          0
ITLB TOTAL ACCESSES:  145892491 HITS:  145795594 MISSES:      96897
ITLB LOAD ACCESSES:  145892491 HITS:  145795594 MISSES:      96897
ITLB RFO ACCESSES:          0 HITS:          0 MISSES:          0
ITLB PREFETCH ACCESSES:          0 HITS:          0 MISSES:          0
ITLB WRITEBACK ACCESSES:          0 HITS:          0 MISSES:          0
ITLB RQ ACCESS:  499999754
ITLB RQ TO_CACHE:  145892491
ITLB RQ MERGED:  354107263
ITLB RQ FORWARD:          0
ITLB WQ ACCESS:          0
ITLB WQ TO_CACHE:          0
ITLB WQ MERGED:          0
ITLB WQ FORWARD:          0
DTLB TOTAL     ACCESS:  135191360  HIT:  134023004  MISS:    1168356
DTLB LOAD      ACCESS:  127150446  HIT:  125991196  MISS:    1159250
DTLB RFO       ACCESS:    8040914  HIT:    8031808  MISS:       9106
DTLB PREFETCH  ACCESS:          0  HIT:          0  MISS:          0
DTLB WRITEBACK ACCESS:          0  HIT:          0  MISS:          0
DTLB PREFETCH  REQUESTED:          0  ISSUED:          0  USEFUL:          0  USELESS:          0
DTLB TOTAL MSHR MERGED:     581849
DTLB LOAD MSHR MERGED:     577471
DTLB RFO MSHR MERGED:       4378
DTLB PREFETCH MSHR MERGED:          0
DTLB WRITEBACK MSHR MERGED:          0
DTLB TOTAL ACCESSES:  135773209 HITS:  134023004 MISSES:    1750205
DTLB LOAD ACCESSES:  127727917 HITS:  125991196 MISSES:    1736721
DTLB RFO ACCESSES:    8045292 HITS:    8031808 MISSES:      13484
DTLB PREFETCH ACCESSES:          0 HITS:          0 MISSES:          0
DTLB WRITEBACK ACCESSES:          0 HITS:          0 MISSES:          0
DTLB RQ ACCESS:  165763018
DTLB RQ TO_CACHE:  135773209
DTLB RQ MERGED:   29989809
DTLB RQ FORWARD:          0
DTLB WQ ACCESS:          0
DTLB WQ TO_CACHE:          0
DTLB WQ MERGED:          0
DTLB WQ FORWARD:          0
L1D TOTAL     ACCESS:  157075805  HIT:  139760105  MISS:   17315700
L1D LOAD      ACCESS:   90020515  HIT:   78881934  MISS:   11138581
L1D RFO       ACCESS:    8499168  HIT:    8412017  MISS:      87151
L1D PREFETCH  ACCESS:   58556122  HIT:   52466154  MISS:    6089968
L1D WRITEBACK ACCESS:          0  HIT:          0  MISS:          0
L1D PREFETCH  REQUESTED:   93723487  ISSUED:   92855939  USEFUL:    2008556  USELESS:    4081486
L1D TOTAL MSHR MERGED:   15001469
L1D LOAD MSHR MERGED:    7096770
L1D RFO MSHR MERGED:     125314
L1D PREFETCH MSHR MERGED:    7779385
L1D WRITEBACK MSHR MERGED:          0
L1D TOTAL ACCESSES:  172077423 HITS:  139760253 MISSES:   32317170
L1D LOAD ACCESSES:   93723489 HITS:   78881936 MISSES:   14841553
L1D RFO ACCESSES:    8622652 HITS:    8412017 MISSES:     210635
L1D PREFETCH ACCESSES:   69731282 HITS:   52466300 MISSES:   17264982
L1D WRITEBACK ACCESSES:          0 HITS:          0 MISSES:          0
L1D RQ ACCESS:  157123812
L1D RQ TO_CACHE:   93723487
L1D RQ MERGED:   63400323
L1D RQ FORWARD:          0
L1D WQ ACCESS:    8639208
L1D WQ TO_CACHE:    8622652
L1D WQ MERGED:      16556
L1D WQ FORWARD:        148
L1I TOTAL     ACCESS:  178824810  HIT:  178161147  MISS:     663663
L1I LOAD      ACCESS:  178824810  HIT:  178161147  MISS:     663663
L1I RFO       ACCESS:          0  HIT:          0  MISS:          0
L1I PREFETCH  ACCESS:          0  HIT:          0  MISS:          0
L1I WRITEBACK ACCESS:          0  HIT:          0  MISS:          0
L1I PREFETCH  REQUESTED:          0  ISSUED:          0  USEFUL:          0  USELESS:          0
L1I TOTAL MSHR MERGED:     598120
L1I LOAD MSHR MERGED:     598120
L1I RFO MSHR MERGED:          0
L1I PREFETCH MSHR MERGED:          0
L1I WRITEBACK MSHR MERGED:          0
L1I TOTAL ACCESSES:  179422930 HITS:  178161147 MISSES:    1261783
L1I LOAD ACCESSES:  179422930 HITS:  178161147 MISSES:    1261783
L1I RFO ACCESSES:          0 HITS:          0 MISSES:          0
L1I PREFETCH ACCESSES:          0 HITS:          0 MISSES:          0
L1I WRITEBACK ACCESSES:          0 HITS:          0 MISSES:          0
L1I RQ ACCESS:  499999757
L1I RQ TO_CACHE:  179422930
L1I RQ MERGED:  320576827
L1I RQ FORWARD:          0
L1I WQ ACCESS:          0
L1I WQ TO_CACHE:          0
L1I WQ MERGED:          0
L1I WQ FORWARD:          0
L2C TOTAL     ACCESS:   19276870  HIT:    2057140  MISS:   17219730
L2C LOAD      ACCESS:    8408347  HIT:     951110  MISS:    7457237
L2C RFO       ACCESS:      85298  HIT:      53740  MISS:      31558
L2C PREFETCH  ACCESS:   10498191  HIT:     770066  MISS:    9728125
L2C WRITEBACK ACCESS:     285034  HIT:     282224  MISS:       2810
L2C PREFETCH  REQUESTED:    1016660  ISSUED:    1016660  USEFUL:     274711  USELESS:    9452504
L2C TOTAL MSHR MERGED:       1064
L2C LOAD MSHR MERGED:        224
L2C RFO MSHR MERGED:          1
L2C PREFETCH MSHR MERGED:        839
L2C WRITEBACK MSHR MERGED:          0
L2C TOTAL ACCESSES:   19279799 HITS:    2057329 MISSES:   17222470
L2C LOAD ACCESSES:    8408446 HITS:     951209 MISSES:    7457237
L2C RFO ACCESSES:      85321 HITS:      53763 MISSES:      31558
L2C PREFETCH ACCESSES:   10500998 HITS:     770133 MISSES:    9730865
L2C WRITEBACK ACCESSES:     285034 HITS:     282224 MISSES:       2810
L2C RQ ACCESS:    8493767
L2C RQ TO_CACHE:    8493645
L2C RQ MERGED:          0
L2C RQ FORWARD:          0
L2C WQ ACCESS:     285034
L2C WQ TO_CACHE:     285034
L2C WQ MERGED:          0
L2C WQ FORWARD:        189
LLC TOTAL     ACCESS:   17324654  HIT:    5227799  MISS:   12096855
LLC LOAD      ACCESS:    7457013  HIT:    4183078  MISS:    3273935
LLC RFO       ACCESS:      31557  HIT:      18081  MISS:      13476
LLC PREFETCH  ACCESS:    9730024  HIT:     942690  MISS:    8787334
LLC WRITEBACK ACCESS:     106060  HIT:      83950  MISS:      22110
LLC PREFETCH  REQUESTED:          0  ISSUED:          0  USEFUL:       1542  USELESS:    8785264
LLC TOTAL MSHR MERGED:          1
LLC LOAD MSHR MERGED:          0
LLC RFO MSHR MERGED:          0
LLC PREFETCH MSHR MERGED:          1
LLC WRITEBACK MSHR MERGED:          0
LLC TOTAL ACCESSES:   17324656 HITS:    5227799 MISSES:   12096857
LLC LOAD ACCESSES:    7457013 HITS:    4183078 MISSES:    3273935
LLC RFO ACCESSES:      31557 HITS:      18081 MISSES:      13476
LLC PREFETCH ACCESSES:    9730026 HITS:     942690 MISSES:    8787336
LLC WRITEBACK ACCESSES:     106060 HITS:      83950 MISSES:      22110
LLC 0 RQ ACCESS:    7488570
LLC 0 RQ TO_CACHE:    7488570
LLC 0 RQ MERGED:          0
LLC 0 RQ FORWARD:          0
LLC WQ ACCESS:     106060
LLC WQ TO_CACHE:     106060
LLC WQ MERGED:          0
LLC WQ FORWARD:          0
Major fault: 0 Minor fault: 6432
CPU 0 L1D next line prefetcher final stats
CPU 0 L2C PC-based stride prefetcher final stats
All Misses: 14322591
All Hits: 6221669
SD Algo Stats - Switches: 0 SRR-Repls: 3515776 BRR-Repls: 0

DRAM Statistics
 CHANNEL 0
 RQ ROW_BUFFER_HIT:    9068946  ROW_BUFFER_MISS:    3000071
 DBUS_CONGESTED:    5550795
 WQ ROW_BUFFER_HIT:       1502  ROW_BUFFER_MISS:      36110  FULL:          0

 AVG_CONGESTED_CYCLE: 12
LOADS RETIRED: 157382665
INSTR RETIRED: 500000000
