
*** ChampSim Multicore Out-of-Order Simulator ***

Warmup Instructions: 100000000
Simulation Instructions: 500000000
Number of CPUs: 1
LLC sets: 2048
LLC ways: 16
Clean RRIP Policies: 1102001011020010 Dirty RRIP Policies: 1122200011222000 PSEL Width: 10 Track Set: 4294967295 PSEL Mask: 1 Demote Mask: 1140212211402122DS Algo: 0Window size: 0
Off-chip DRAM Size: 4096 MB Channels: 1 Width: 64-bit Data Rate: 1600 MT/s

CPU 0 runs /mnt/beegfs/iconst01/spec2017/Blender.trace.gz
NOT SORTED
TRACE STRING: /mnt/beegfs/iconst01/spec2017/Blender.trace.gz
SORTED
TRACE STRING: /mnt/beegfs/iconst01/spec2017/Blender.trace.gz
INITIAL
TRACE STRING: /mnt/beegfs/iconst01/spec2017/Blender.trace.gz

champsim_seed used: 700

CPU 0 L1D next line prefetcher
CPU 0 L2C IP-based stride prefetcher
Initialize DRRIP state
Assign rand_sets[0]: 454  LLC: 2048
rand_sets[0]: 454
Assign rand_sets[1]: 1662  LLC: 2048
rand_sets[1]: 1662
Assign rand_sets[2]: 1921  LLC: 2048
rand_sets[2]: 1921
Assign rand_sets[3]: 1131  LLC: 2048
rand_sets[3]: 1131
Assign rand_sets[4]: 331  LLC: 2048
rand_sets[4]: 331
Assign rand_sets[5]: 1531  LLC: 2048
rand_sets[5]: 1531
Assign rand_sets[6]: 482  LLC: 2048
rand_sets[6]: 482
Assign rand_sets[7]: 1275  LLC: 2048
rand_sets[7]: 1275
Assign rand_sets[8]: 1876  LLC: 2048
rand_sets[8]: 1876
Assign rand_sets[9]: 2038  LLC: 2048
rand_sets[9]: 2038
Assign rand_sets[10]: 701  LLC: 2048
rand_sets[10]: 701
Assign rand_sets[11]: 479  LLC: 2048
rand_sets[11]: 479
Assign rand_sets[12]: 892  LLC: 2048
rand_sets[12]: 892
Assign rand_sets[13]: 1820  LLC: 2048
rand_sets[13]: 1820
Assign rand_sets[14]: 1505  LLC: 2048
rand_sets[14]: 1505
Assign rand_sets[15]: 1159  LLC: 2048
rand_sets[15]: 1159
Assign rand_sets[16]: 513  LLC: 2048
rand_sets[16]: 513
Assign rand_sets[17]: 703  LLC: 2048
rand_sets[17]: 703
Assign rand_sets[18]: 561  LLC: 2048
rand_sets[18]: 561
Assign rand_sets[19]: 990  LLC: 2048
rand_sets[19]: 990
Assign rand_sets[20]: 342  LLC: 2048
rand_sets[20]: 342
Assign rand_sets[21]: 882  LLC: 2048
rand_sets[21]: 882
Assign rand_sets[22]: 15  LLC: 2048
rand_sets[22]: 15
Assign rand_sets[23]: 71  LLC: 2048
rand_sets[23]: 71
Assign rand_sets[24]: 1127  LLC: 2048
rand_sets[24]: 1127
Assign rand_sets[25]: 1382  LLC: 2048
rand_sets[25]: 1382
Assign rand_sets[26]: 647  LLC: 2048
rand_sets[26]: 647
Assign rand_sets[27]: 857  LLC: 2048
rand_sets[27]: 857
Assign rand_sets[28]: 1450  LLC: 2048
rand_sets[28]: 1450
Assign rand_sets[29]: 1160  LLC: 2048
rand_sets[29]: 1160
Assign rand_sets[30]: 1852  LLC: 2048
rand_sets[30]: 1852
Assign rand_sets[31]: 1881  LLC: 2048
rand_sets[31]: 1881
Assign rand_sets[32]: 1770  LLC: 2048
rand_sets[32]: 1770
Assign rand_sets[33]: 1622  LLC: 2048
rand_sets[33]: 1622
Assign rand_sets[34]: 275  LLC: 2048
rand_sets[34]: 275
Assign rand_sets[35]: 635  LLC: 2048
rand_sets[35]: 635
Assign rand_sets[36]: 466  LLC: 2048
rand_sets[36]: 466
Assign rand_sets[37]: 1413  LLC: 2048
rand_sets[37]: 1413
Assign rand_sets[38]: 417  LLC: 2048
rand_sets[38]: 417
Assign rand_sets[39]: 472  LLC: 2048
rand_sets[39]: 472
Assign rand_sets[40]: 1340  LLC: 2048
rand_sets[40]: 1340
Assign rand_sets[41]: 852  LLC: 2048
rand_sets[41]: 852
Assign rand_sets[42]: 1365  LLC: 2048
rand_sets[42]: 1365
Assign rand_sets[43]: 47  LLC: 2048
rand_sets[43]: 47
Assign rand_sets[44]: 823  LLC: 2048
rand_sets[44]: 823
Assign rand_sets[45]: 686  LLC: 2048
rand_sets[45]: 686
Assign rand_sets[46]: 1637  LLC: 2048
rand_sets[46]: 1637
Assign rand_sets[47]: 1115  LLC: 2048
rand_sets[47]: 1115
Assign rand_sets[48]: 986  LLC: 2048
rand_sets[48]: 986
Assign rand_sets[49]: 258  LLC: 2048
rand_sets[49]: 258
Assign rand_sets[50]: 633  LLC: 2048
rand_sets[50]: 633
Assign rand_sets[51]: 920  LLC: 2048
rand_sets[51]: 920
Assign rand_sets[52]: 204  LLC: 2048
rand_sets[52]: 204
Assign rand_sets[53]: 227  LLC: 2048
rand_sets[53]: 227
Assign rand_sets[54]: 1818  LLC: 2048
rand_sets[54]: 1818
Assign rand_sets[55]: 886  LLC: 2048
rand_sets[55]: 886
Assign rand_sets[56]: 1422  LLC: 2048
rand_sets[56]: 1422
Assign rand_sets[57]: 607  LLC: 2048
rand_sets[57]: 607
Assign rand_sets[58]: 217  LLC: 2048
rand_sets[58]: 217
Assign rand_sets[59]: 1945  LLC: 2048
rand_sets[59]: 1945
Assign rand_sets[60]: 143  LLC: 2048
rand_sets[60]: 143
Assign rand_sets[61]: 1311  LLC: 2048
rand_sets[61]: 1311
Assign rand_sets[62]: 319  LLC: 2048
rand_sets[62]: 319
Assign rand_sets[63]: 1846  LLC: 2048
rand_sets[63]: 1846
 CLEAN-RRIP-POLICY-1: 1-1-0-2-0-0-1-0- CLEAN-RRIP-POLICY-2: 1-1-0-2-0-0-1-0-
 DIRTY-RRIP-POLICY-1: 1-1-2-2-2-0-0-0- DIRTY-RRIP-POLICY-2: 1-1-2-2-2-0-0-0-
 PSEL width: 10
Heartbeat CPU 0 instructions: 10000002 cycles: 5480874 heartbeat IPC: 1.82453 cumulative IPC: 1.82453 (Simulation time: 0 hr 0 min 13 sec) 
Heartbeat CPU 0 instructions: 20000000 cycles: 10913525 heartbeat IPC: 1.84072 cumulative IPC: 1.83259 (Simulation time: 0 hr 0 min 26 sec) 
Heartbeat CPU 0 instructions: 30000000 cycles: 16448521 heartbeat IPC: 1.80669 cumulative IPC: 1.82387 (Simulation time: 0 hr 0 min 39 sec) 
Heartbeat CPU 0 instructions: 40000000 cycles: 21900783 heartbeat IPC: 1.8341 cumulative IPC: 1.82642 (Simulation time: 0 hr 0 min 52 sec) 
Heartbeat CPU 0 instructions: 50000000 cycles: 27403951 heartbeat IPC: 1.81714 cumulative IPC: 1.82455 (Simulation time: 0 hr 1 min 5 sec) 
Heartbeat CPU 0 instructions: 60000000 cycles: 32783886 heartbeat IPC: 1.85876 cumulative IPC: 1.83017 (Simulation time: 0 hr 1 min 18 sec) 
Heartbeat CPU 0 instructions: 70000001 cycles: 38341209 heartbeat IPC: 1.79943 cumulative IPC: 1.82571 (Simulation time: 0 hr 1 min 31 sec) 
Heartbeat CPU 0 instructions: 80000000 cycles: 43801804 heartbeat IPC: 1.8313 cumulative IPC: 1.82641 (Simulation time: 0 hr 1 min 44 sec) 
Heartbeat CPU 0 instructions: 90000000 cycles: 49250113 heartbeat IPC: 1.83543 cumulative IPC: 1.82741 (Simulation time: 0 hr 1 min 57 sec) 
Heartbeat CPU 0 instructions: 100000000 cycles: 54796711 heartbeat IPC: 1.80291 cumulative IPC: 1.82493 (Simulation time: 0 hr 2 min 10 sec) 

Warmup complete CPU 0 instructions: 100000002 cycles: 54796712 (Simulation time: 0 hr 2 min 10 sec) 

Heartbeat CPU 0 instructions: 110000001 cycles: 69636640 heartbeat IPC: 0.673858 cumulative IPC: 0.673858 (Simulation time: 0 hr 2 min 28 sec) 
Heartbeat CPU 0 instructions: 120000000 cycles: 85282100 heartbeat IPC: 0.639163 cumulative IPC: 0.656052 (Simulation time: 0 hr 2 min 48 sec) 
Heartbeat CPU 0 instructions: 130000000 cycles: 100252452 heartbeat IPC: 0.667987 cumulative IPC: 0.659983 (Simulation time: 0 hr 3 min 7 sec) 
Heartbeat CPU 0 instructions: 140000000 cycles: 114826890 heartbeat IPC: 0.686133 cumulative IPC: 0.666331 (Simulation time: 0 hr 3 min 25 sec) 
Heartbeat CPU 0 instructions: 150000000 cycles: 129941880 heartbeat IPC: 0.661595 cumulative IPC: 0.665379 (Simulation time: 0 hr 3 min 44 sec) 
Heartbeat CPU 0 instructions: 160000000 cycles: 145588148 heartbeat IPC: 0.63913 cumulative IPC: 0.660855 (Simulation time: 0 hr 4 min 3 sec) 
Heartbeat CPU 0 instructions: 170000001 cycles: 161095256 heartbeat IPC: 0.644866 cumulative IPC: 0.658523 (Simulation time: 0 hr 4 min 22 sec) 
Heartbeat CPU 0 instructions: 180000000 cycles: 176575491 heartbeat IPC: 0.645985 cumulative IPC: 0.656929 (Simulation time: 0 hr 4 min 40 sec) 
Heartbeat CPU 0 instructions: 190000002 cycles: 191525940 heartbeat IPC: 0.668876 cumulative IPC: 0.658235 (Simulation time: 0 hr 4 min 59 sec) 
Heartbeat CPU 0 instructions: 200000000 cycles: 206372460 heartbeat IPC: 0.673558 cumulative IPC: 0.659736 (Simulation time: 0 hr 5 min 18 sec) 
Heartbeat CPU 0 instructions: 210000003 cycles: 221413208 heartbeat IPC: 0.664861 cumulative IPC: 0.660199 (Simulation time: 0 hr 5 min 37 sec) 
Heartbeat CPU 0 instructions: 220000000 cycles: 236526364 heartbeat IPC: 0.661675 cumulative IPC: 0.660322 (Simulation time: 0 hr 5 min 56 sec) 
Heartbeat CPU 0 instructions: 230000001 cycles: 252138853 heartbeat IPC: 0.640513 cumulative IPC: 0.658754 (Simulation time: 0 hr 6 min 15 sec) 
Heartbeat CPU 0 instructions: 240000000 cycles: 267693904 heartbeat IPC: 0.642878 cumulative IPC: 0.657594 (Simulation time: 0 hr 6 min 34 sec) 
Heartbeat CPU 0 instructions: 250000003 cycles: 283006819 heartbeat IPC: 0.653044 cumulative IPC: 0.657289 (Simulation time: 0 hr 6 min 52 sec) 
Heartbeat CPU 0 instructions: 260000000 cycles: 299149038 heartbeat IPC: 0.619493 cumulative IPC: 0.654792 (Simulation time: 0 hr 7 min 11 sec) 
Heartbeat CPU 0 instructions: 270000003 cycles: 314280364 heartbeat IPC: 0.660881 cumulative IPC: 0.655147 (Simulation time: 0 hr 7 min 31 sec) 
Heartbeat CPU 0 instructions: 280000000 cycles: 329239476 heartbeat IPC: 0.668489 cumulative IPC: 0.655874 (Simulation time: 0 hr 7 min 49 sec) 
Heartbeat CPU 0 instructions: 290000002 cycles: 344025814 heartbeat IPC: 0.6763 cumulative IPC: 0.656919 (Simulation time: 0 hr 8 min 8 sec) 
Heartbeat CPU 0 instructions: 300000000 cycles: 359964393 heartbeat IPC: 0.627408 cumulative IPC: 0.655377 (Simulation time: 0 hr 8 min 27 sec) 
Heartbeat CPU 0 instructions: 310000000 cycles: 375551841 heartbeat IPC: 0.641542 cumulative IPC: 0.654705 (Simulation time: 0 hr 8 min 46 sec) 
Heartbeat CPU 0 instructions: 320000000 cycles: 390902362 heartbeat IPC: 0.651444 cumulative IPC: 0.654556 (Simulation time: 0 hr 9 min 5 sec) 
Heartbeat CPU 0 instructions: 330000000 cycles: 407463712 heartbeat IPC: 0.603815 cumulative IPC: 0.652173 (Simulation time: 0 hr 9 min 24 sec) 
Heartbeat CPU 0 instructions: 340000000 cycles: 422638829 heartbeat IPC: 0.658974 cumulative IPC: 0.652454 (Simulation time: 0 hr 9 min 43 sec) 
Heartbeat CPU 0 instructions: 350000000 cycles: 437736304 heartbeat IPC: 0.662362 cumulative IPC: 0.652844 (Simulation time: 0 hr 10 min 1 sec) 
Heartbeat CPU 0 instructions: 360000000 cycles: 452806143 heartbeat IPC: 0.663577 cumulative IPC: 0.653251 (Simulation time: 0 hr 10 min 20 sec) 
Heartbeat CPU 0 instructions: 370000002 cycles: 468811430 heartbeat IPC: 0.624794 cumulative IPC: 0.652151 (Simulation time: 0 hr 10 min 39 sec) 
Heartbeat CPU 0 instructions: 380000000 cycles: 484249306 heartbeat IPC: 0.647757 cumulative IPC: 0.651993 (Simulation time: 0 hr 10 min 58 sec) 
Heartbeat CPU 0 instructions: 390000003 cycles: 499754470 heartbeat IPC: 0.644947 cumulative IPC: 0.651747 (Simulation time: 0 hr 11 min 17 sec) 
Heartbeat CPU 0 instructions: 400000000 cycles: 516388462 heartbeat IPC: 0.601178 cumulative IPC: 0.649925 (Simulation time: 0 hr 11 min 36 sec) 
Heartbeat CPU 0 instructions: 410000001 cycles: 531985270 heartbeat IPC: 0.641157 cumulative IPC: 0.649638 (Simulation time: 0 hr 11 min 55 sec) 
Heartbeat CPU 0 instructions: 420000000 cycles: 547217453 heartbeat IPC: 0.656505 cumulative IPC: 0.649851 (Simulation time: 0 hr 12 min 13 sec) 
Heartbeat CPU 0 instructions: 430000000 cycles: 563259468 heartbeat IPC: 0.623363 cumulative IPC: 0.649015 (Simulation time: 0 hr 12 min 33 sec) 
Heartbeat CPU 0 instructions: 440000000 cycles: 578667068 heartbeat IPC: 0.64903 cumulative IPC: 0.649016 (Simulation time: 0 hr 12 min 51 sec) 
Heartbeat CPU 0 instructions: 450000000 cycles: 594261256 heartbeat IPC: 0.641265 cumulative IPC: 0.648791 (Simulation time: 0 hr 13 min 10 sec) 
Heartbeat CPU 0 instructions: 460000000 cycles: 610824039 heartbeat IPC: 0.603763 cumulative IPC: 0.64745 (Simulation time: 0 hr 13 min 29 sec) 
Heartbeat CPU 0 instructions: 470000000 cycles: 626479344 heartbeat IPC: 0.638761 cumulative IPC: 0.647212 (Simulation time: 0 hr 13 min 48 sec) 
Heartbeat CPU 0 instructions: 480000000 cycles: 641870920 heartbeat IPC: 0.649706 cumulative IPC: 0.647278 (Simulation time: 0 hr 14 min 7 sec) 
Heartbeat CPU 0 instructions: 490000002 cycles: 657714430 heartbeat IPC: 0.631173 cumulative IPC: 0.646854 (Simulation time: 0 hr 14 min 26 sec) 
Heartbeat CPU 0 instructions: 500000000 cycles: 673118905 heartbeat IPC: 0.649162 cumulative IPC: 0.646912 (Simulation time: 0 hr 14 min 45 sec) 
Heartbeat CPU 0 instructions: 510000001 cycles: 688825094 heartbeat IPC: 0.636692 cumulative IPC: 0.646659 (Simulation time: 0 hr 15 min 3 sec) 
Heartbeat CPU 0 instructions: 520000000 cycles: 705019383 heartbeat IPC: 0.617502 cumulative IPC: 0.645933 (Simulation time: 0 hr 15 min 22 sec) 
Heartbeat CPU 0 instructions: 530000001 cycles: 721071253 heartbeat IPC: 0.62298 cumulative IPC: 0.64538 (Simulation time: 0 hr 15 min 41 sec) 
Heartbeat CPU 0 instructions: 540000000 cycles: 736122696 heartbeat IPC: 0.664388 cumulative IPC: 0.6458 (Simulation time: 0 hr 16 min 0 sec) 
Heartbeat CPU 0 instructions: 550000001 cycles: 751923536 heartbeat IPC: 0.632878 cumulative IPC: 0.645507 (Simulation time: 0 hr 16 min 19 sec) 
Heartbeat CPU 0 instructions: 560000000 cycles: 767286807 heartbeat IPC: 0.650903 cumulative IPC: 0.645623 (Simulation time: 0 hr 16 min 38 sec) 
Heartbeat CPU 0 instructions: 570000002 cycles: 783164742 heartbeat IPC: 0.629805 cumulative IPC: 0.645278 (Simulation time: 0 hr 16 min 57 sec) 
Heartbeat CPU 0 instructions: 580000000 cycles: 798817771 heartbeat IPC: 0.638854 cumulative IPC: 0.645143 (Simulation time: 0 hr 17 min 16 sec) 
Heartbeat CPU 0 instructions: 590000001 cycles: 814314563 heartbeat IPC: 0.645295 cumulative IPC: 0.645146 (Simulation time: 0 hr 17 min 35 sec) 
Heartbeat CPU 0 instructions: 600000000 cycles: 829494692 heartbeat IPC: 0.658756 cumulative IPC: 0.645413 (Simulation time: 0 hr 17 min 53 sec) 
Finished CPU 0 instructions: 500000000 cycles: 774697988 cumulative IPC: 0.645413 (Simulation time: 0 hr 17 min 53 sec) 

CPU 0 Branch Prediction Accuracy: 93.7783% MPKI: 10.0718
Number of Branches: 80940586 Number of Mispredictions: 5035908
Number of LOAD Instructions: 184238101
Number of LOAD Instructions (ROI): 184238101
Number of STORE Instructions: 33143298
Number of STORE Instructions (ROI): 33143298
Total Destination Memory Operands: 33324321
Total Destination Memory Operands (ROI): 33324321
Total Source Memory Operands: 184238101
Total Source Memory Operands (ROI): 184238101
Number of DEPENDED LOADS: 4460677
Number of DEPENDED LOADS (ROI): 4460677
Number of SQ_ADDED: 33324292
Number of SQ_ADDED (ROI): 33324292
Number of LQ_ADDED: 184883494
Number of LQ_ADDED (ROI): 184883494
Number of Instructions read from trace: 600000256

ChampSim completed all CPUs

Region of Interest Statistics

CPU 0 cumulative IPC: 0.645413 instructions: 500000000 cycles: 774697988
ITLB TOTAL     ACCESS:   77762551  HIT:   77762551  MISS:          0
ITLB LOAD      ACCESS:   77762551  HIT:   77762551  MISS:          0
ITLB RFO       ACCESS:          0  HIT:          0  MISS:          0
ITLB PREFETCH  ACCESS:          0  HIT:          0  MISS:          0
ITLB WRITEBACK ACCESS:          0  HIT:          0  MISS:          0
ITLB PREFETCH  REQUESTED:          0  ISSUED:          0  USEFUL:          0  USELESS:          0
ITLB TOTAL MSHR MERGED:          0
ITLB LOAD MSHR MERGED:          0
ITLB RFO MSHR MERGED:          0
ITLB PREFETCH MSHR MERGED:          0
ITLB WRITEBACK MSHR MERGED:          0
ITLB TOTAL ACCESSES:   77762551 HITS:   77762551 MISSES:          0
ITLB LOAD ACCESSES:   77762551 HITS:   77762551 MISSES:          0
ITLB RFO ACCESSES:          0 HITS:          0 MISSES:          0
ITLB PREFETCH ACCESSES:          0 HITS:          0 MISSES:          0
ITLB WRITEBACK ACCESSES:          0 HITS:          0 MISSES:          0
ITLB RQ ACCESS:  500000245
ITLB RQ TO_CACHE:   77762551
ITLB RQ MERGED:  422237694
ITLB RQ FORWARD:          0
ITLB WQ ACCESS:          0
ITLB WQ TO_CACHE:          0
ITLB WQ MERGED:          0
ITLB WQ FORWARD:          0
DTLB TOTAL     ACCESS:   88444627  HIT:   87307782  MISS:    1136845
DTLB LOAD      ACCESS:   66317727  HIT:   65185122  MISS:    1132605
DTLB RFO       ACCESS:   22126900  HIT:   22122660  MISS:       4240
DTLB PREFETCH  ACCESS:          0  HIT:          0  MISS:          0
DTLB WRITEBACK ACCESS:          0  HIT:          0  MISS:          0
DTLB PREFETCH  REQUESTED:          0  ISSUED:          0  USEFUL:          0  USELESS:          0
DTLB TOTAL MSHR MERGED:     135645
DTLB LOAD MSHR MERGED:     133832
DTLB RFO MSHR MERGED:       1813
DTLB PREFETCH MSHR MERGED:          0
DTLB WRITEBACK MSHR MERGED:          0
DTLB TOTAL ACCESSES:   88580272 HITS:   87307782 MISSES:    1272490
DTLB LOAD ACCESSES:   66451559 HITS:   65185122 MISSES:    1266437
DTLB RFO ACCESSES:   22128713 HITS:   22122660 MISSES:       6053
DTLB PREFETCH ACCESSES:          0 HITS:          0 MISSES:          0
DTLB WRITEBACK ACCESSES:          0 HITS:          0 MISSES:          0
DTLB RQ ACCESS:  177580023
DTLB RQ TO_CACHE:   88580272
DTLB RQ MERGED:   88999751
DTLB RQ FORWARD:          0
DTLB WQ ACCESS:          0
DTLB WQ TO_CACHE:          0
DTLB WQ MERGED:          0
DTLB WQ FORWARD:          0
L1D TOTAL     ACCESS:  142109938  HIT:  136550931  MISS:    5559007
L1D LOAD      ACCESS:   61391099  HIT:   58288938  MISS:    3102161
L1D RFO       ACCESS:   27669573  HIT:   27587848  MISS:      81725
L1D PREFETCH  ACCESS:   53049266  HIT:   50674145  MISS:    2375121
L1D WRITEBACK ACCESS:          0  HIT:          0  MISS:          0
L1D PREFETCH  REQUESTED:   61683095  ISSUED:   60764854  USEFUL:     668272  USELESS:    1706854
L1D TOTAL MSHR MERGED:    1191978
L1D LOAD MSHR MERGED:     388576
L1D RFO MSHR MERGED:     163570
L1D PREFETCH MSHR MERGED:     639832
L1D WRITEBACK MSHR MERGED:          0
L1D TOTAL ACCESSES:  143399544 HITS:  136648559 MISSES:    6750985
L1D LOAD ACCESSES:   61683120 HITS:   58288963 MISSES:    3394157
L1D RFO ACCESSES:   27829347 HITS:   27587848 MISSES:     241499
L1D PREFETCH ACCESSES:   53887077 HITS:   50771748 MISSES:    3115329
L1D WRITEBACK ACCESSES:          0 HITS:          0 MISSES:          0
L1D RQ ACCESS:  149747057
L1D RQ TO_CACHE:   61683095
L1D RQ MERGED:   88063937
L1D RQ FORWARD:          0
L1D WQ ACCESS:   27832966
L1D WQ TO_CACHE:   27829347
L1D WQ MERGED:       3619
L1D WQ FORWARD:      97628
L1I TOTAL     ACCESS:   96236558  HIT:   96077534  MISS:     159024
L1I LOAD      ACCESS:   96236558  HIT:   96077534  MISS:     159024
L1I RFO       ACCESS:          0  HIT:          0  MISS:          0
L1I PREFETCH  ACCESS:          0  HIT:          0  MISS:          0
L1I WRITEBACK ACCESS:          0  HIT:          0  MISS:          0
L1I PREFETCH  REQUESTED:          0  ISSUED:          0  USEFUL:          0  USELESS:          0
L1I TOTAL MSHR MERGED:     132000
L1I LOAD MSHR MERGED:     132000
L1I RFO MSHR MERGED:          0
L1I PREFETCH MSHR MERGED:          0
L1I WRITEBACK MSHR MERGED:          0
L1I TOTAL ACCESSES:   96368558 HITS:   96077534 MISSES:     291024
L1I LOAD ACCESSES:   96368558 HITS:   96077534 MISSES:     291024
L1I RFO ACCESSES:          0 HITS:          0 MISSES:          0
L1I PREFETCH ACCESSES:          0 HITS:          0 MISSES:          0
L1I WRITEBACK ACCESSES:          0 HITS:          0 MISSES:          0
L1I RQ ACCESS:  500000245
L1I RQ TO_CACHE:   96368558
L1I RQ MERGED:  403631687
L1I RQ FORWARD:          0
L1I WQ ACCESS:          0
L1I WQ TO_CACHE:          0
L1I WQ MERGED:          0
L1I WQ FORWARD:          0
L2C TOTAL     ACCESS:    5911422  HIT:    3062975  MISS:    2848447
L2C LOAD      ACCESS:    3164595  HIT:    1583233  MISS:    1581362
L2C RFO       ACCESS:      77854  HIT:      45043  MISS:      32811
L2C PREFETCH  ACCESS:    2525442  HIT:    1296753  MISS:    1228689
L2C WRITEBACK ACCESS:     143531  HIT:     137946  MISS:       5585
L2C PREFETCH  REQUESTED:      52709  ISSUED:      52709  USEFUL:      19012  USELESS:    1209717
L2C TOTAL MSHR MERGED:       1810
L2C LOAD MSHR MERGED:        618
L2C RFO MSHR MERGED:          0
L2C PREFETCH MSHR MERGED:       1192
L2C WRITEBACK MSHR MERGED:          0
L2C TOTAL ACCESSES:    5913347 HITS:    3063060 MISSES:    2850287
L2C LOAD ACCESSES:    3164605 HITS:    1583243 MISSES:    1581362
L2C RFO ACCESSES:      77929 HITS:      45118 MISSES:      32811
L2C PREFETCH ACCESSES:    2527282 HITS:    1296753 MISSES:    1230529
L2C WRITEBACK ACCESSES:     143531 HITS:     137946 MISSES:       5585
L2C RQ ACCESS:    3242534
L2C RQ TO_CACHE:    3242449
L2C RQ MERGED:          0
L2C RQ FORWARD:          0
L2C WQ ACCESS:     143531
L2C WQ TO_CACHE:     143531
L2C WQ MERGED:          0
L2C WQ FORWARD:         85
LLC TOTAL     ACCESS:    2892430  HIT:    1493951  MISS:    1398479
LLC LOAD      ACCESS:    1580744  HIT:     907219  MISS:     673525
LLC RFO       ACCESS:      32805  HIT:      31182  MISS:       1623
LLC PREFETCH  ACCESS:    1229336  HIT:     525530  MISS:     703806
LLC WRITEBACK ACCESS:      49545  HIT:      30020  MISS:      19525
LLC PREFETCH  REQUESTED:          0  ISSUED:          0  USEFUL:       3790  USELESS:     701809
LLC TOTAL MSHR MERGED:          0
LLC LOAD MSHR MERGED:          0
LLC RFO MSHR MERGED:          0
LLC PREFETCH MSHR MERGED:          0
LLC WRITEBACK MSHR MERGED:          0
LLC TOTAL ACCESSES:    2892436 HITS:    1493957 MISSES:    1398479
LLC LOAD ACCESSES:    1580744 HITS:     907219 MISSES:     673525
LLC RFO ACCESSES:      32811 HITS:      31188 MISSES:       1623
LLC PREFETCH ACCESSES:    1229336 HITS:     525530 MISSES:     703806
LLC WRITEBACK ACCESSES:      49545 HITS:      30020 MISSES:      19525
LLC 0 RQ ACCESS:    1613555
LLC 0 RQ TO_CACHE:    1613549
LLC 0 RQ MERGED:          0
LLC 0 RQ FORWARD:          0
LLC WQ ACCESS:      49545
LLC WQ TO_CACHE:      49545
LLC WQ MERGED:          0
LLC WQ FORWARD:          6
Major fault: 0 Minor fault: 8460
CPU 0 L1D next line prefetcher final stats
CPU 0 L2C PC-based stride prefetcher final stats
All Misses: 1643559
All Hits: 1785466
SD Algo Stats - Switches: 0 SRR-Repls: 769105 BRR-Repls: 0

DRAM Statistics
 CHANNEL 0
 RQ ROW_BUFFER_HIT:     467902  ROW_BUFFER_MISS:     909799
 DBUS_CONGESTED:     442322
 WQ ROW_BUFFER_HIT:       6350  ROW_BUFFER_MISS:      12937  FULL:          0

 AVG_CONGESTED_CYCLE: 12
LOADS RETIRED: 153532848
INSTR RETIRED: 500000000
