
*** ChampSim Multicore Out-of-Order Simulator ***

Warmup Instructions: 100000000
Simulation Instructions: 500000000
Number of CPUs: 1
LLC sets: 2048
LLC ways: 16
Clean RRIP Policies: 1102001011020010 Dirty RRIP Policies: 1122200011222000 PSEL Width: 10 Track Set: 4294967295 PSEL Mask: 1 Demote Mask: 1140212211402122DS Algo: 0Window size: 0
Off-chip DRAM Size: 4096 MB Channels: 1 Width: 64-bit Data Rate: 1600 MT/s

CPU 0 runs /mnt/beegfs/iconst01/spec2017/Omnetpp.trace.gz
NOT SORTED
TRACE STRING: /mnt/beegfs/iconst01/spec2017/Omnetpp.trace.gz
SORTED
TRACE STRING: /mnt/beegfs/iconst01/spec2017/Omnetpp.trace.gz
INITIAL
TRACE STRING: /mnt/beegfs/iconst01/spec2017/Omnetpp.trace.gz

champsim_seed used: 739

CPU 0 L1D next line prefetcher
CPU 0 L2C IP-based stride prefetcher
Initialize DRRIP state
Assign rand_sets[0]: 454  LLC: 2048
rand_sets[0]: 454
Assign rand_sets[1]: 1662  LLC: 2048
rand_sets[1]: 1662
Assign rand_sets[2]: 1921  LLC: 2048
rand_sets[2]: 1921
Assign rand_sets[3]: 1131  LLC: 2048
rand_sets[3]: 1131
Assign rand_sets[4]: 331  LLC: 2048
rand_sets[4]: 331
Assign rand_sets[5]: 1531  LLC: 2048
rand_sets[5]: 1531
Assign rand_sets[6]: 482  LLC: 2048
rand_sets[6]: 482
Assign rand_sets[7]: 1275  LLC: 2048
rand_sets[7]: 1275
Assign rand_sets[8]: 1876  LLC: 2048
rand_sets[8]: 1876
Assign rand_sets[9]: 2038  LLC: 2048
rand_sets[9]: 2038
Assign rand_sets[10]: 701  LLC: 2048
rand_sets[10]: 701
Assign rand_sets[11]: 479  LLC: 2048
rand_sets[11]: 479
Assign rand_sets[12]: 892  LLC: 2048
rand_sets[12]: 892
Assign rand_sets[13]: 1820  LLC: 2048
rand_sets[13]: 1820
Assign rand_sets[14]: 1505  LLC: 2048
rand_sets[14]: 1505
Assign rand_sets[15]: 1159  LLC: 2048
rand_sets[15]: 1159
Assign rand_sets[16]: 513  LLC: 2048
rand_sets[16]: 513
Assign rand_sets[17]: 703  LLC: 2048
rand_sets[17]: 703
Assign rand_sets[18]: 561  LLC: 2048
rand_sets[18]: 561
Assign rand_sets[19]: 990  LLC: 2048
rand_sets[19]: 990
Assign rand_sets[20]: 342  LLC: 2048
rand_sets[20]: 342
Assign rand_sets[21]: 882  LLC: 2048
rand_sets[21]: 882
Assign rand_sets[22]: 15  LLC: 2048
rand_sets[22]: 15
Assign rand_sets[23]: 71  LLC: 2048
rand_sets[23]: 71
Assign rand_sets[24]: 1127  LLC: 2048
rand_sets[24]: 1127
Assign rand_sets[25]: 1382  LLC: 2048
rand_sets[25]: 1382
Assign rand_sets[26]: 647  LLC: 2048
rand_sets[26]: 647
Assign rand_sets[27]: 857  LLC: 2048
rand_sets[27]: 857
Assign rand_sets[28]: 1450  LLC: 2048
rand_sets[28]: 1450
Assign rand_sets[29]: 1160  LLC: 2048
rand_sets[29]: 1160
Assign rand_sets[30]: 1852  LLC: 2048
rand_sets[30]: 1852
Assign rand_sets[31]: 1881  LLC: 2048
rand_sets[31]: 1881
Assign rand_sets[32]: 1770  LLC: 2048
rand_sets[32]: 1770
Assign rand_sets[33]: 1622  LLC: 2048
rand_sets[33]: 1622
Assign rand_sets[34]: 275  LLC: 2048
rand_sets[34]: 275
Assign rand_sets[35]: 635  LLC: 2048
rand_sets[35]: 635
Assign rand_sets[36]: 466  LLC: 2048
rand_sets[36]: 466
Assign rand_sets[37]: 1413  LLC: 2048
rand_sets[37]: 1413
Assign rand_sets[38]: 417  LLC: 2048
rand_sets[38]: 417
Assign rand_sets[39]: 472  LLC: 2048
rand_sets[39]: 472
Assign rand_sets[40]: 1340  LLC: 2048
rand_sets[40]: 1340
Assign rand_sets[41]: 852  LLC: 2048
rand_sets[41]: 852
Assign rand_sets[42]: 1365  LLC: 2048
rand_sets[42]: 1365
Assign rand_sets[43]: 47  LLC: 2048
rand_sets[43]: 47
Assign rand_sets[44]: 823  LLC: 2048
rand_sets[44]: 823
Assign rand_sets[45]: 686  LLC: 2048
rand_sets[45]: 686
Assign rand_sets[46]: 1637  LLC: 2048
rand_sets[46]: 1637
Assign rand_sets[47]: 1115  LLC: 2048
rand_sets[47]: 1115
Assign rand_sets[48]: 986  LLC: 2048
rand_sets[48]: 986
Assign rand_sets[49]: 258  LLC: 2048
rand_sets[49]: 258
Assign rand_sets[50]: 633  LLC: 2048
rand_sets[50]: 633
Assign rand_sets[51]: 920  LLC: 2048
rand_sets[51]: 920
Assign rand_sets[52]: 204  LLC: 2048
rand_sets[52]: 204
Assign rand_sets[53]: 227  LLC: 2048
rand_sets[53]: 227
Assign rand_sets[54]: 1818  LLC: 2048
rand_sets[54]: 1818
Assign rand_sets[55]: 886  LLC: 2048
rand_sets[55]: 886
Assign rand_sets[56]: 1422  LLC: 2048
rand_sets[56]: 1422
Assign rand_sets[57]: 607  LLC: 2048
rand_sets[57]: 607
Assign rand_sets[58]: 217  LLC: 2048
rand_sets[58]: 217
Assign rand_sets[59]: 1945  LLC: 2048
rand_sets[59]: 1945
Assign rand_sets[60]: 143  LLC: 2048
rand_sets[60]: 143
Assign rand_sets[61]: 1311  LLC: 2048
rand_sets[61]: 1311
Assign rand_sets[62]: 319  LLC: 2048
rand_sets[62]: 319
Assign rand_sets[63]: 1846  LLC: 2048
rand_sets[63]: 1846
 CLEAN-RRIP-POLICY-1: 1-1-0-2-0-0-1-0- CLEAN-RRIP-POLICY-2: 1-1-0-2-0-0-1-0-
 DIRTY-RRIP-POLICY-1: 1-1-2-2-2-0-0-0- DIRTY-RRIP-POLICY-2: 1-1-2-2-2-0-0-0-
 PSEL width: 10
Heartbeat CPU 0 instructions: 10000000 cycles: 7322515 heartbeat IPC: 1.36565 cumulative IPC: 1.36565 (Simulation time: 0 hr 0 min 20 sec) 
Heartbeat CPU 0 instructions: 20000000 cycles: 14630858 heartbeat IPC: 1.3683 cumulative IPC: 1.36697 (Simulation time: 0 hr 0 min 39 sec) 
Heartbeat CPU 0 instructions: 30000003 cycles: 21936989 heartbeat IPC: 1.36871 cumulative IPC: 1.36755 (Simulation time: 0 hr 0 min 59 sec) 
Heartbeat CPU 0 instructions: 40000000 cycles: 29230493 heartbeat IPC: 1.37108 cumulative IPC: 1.36843 (Simulation time: 0 hr 1 min 18 sec) 
Heartbeat CPU 0 instructions: 50000000 cycles: 36512187 heartbeat IPC: 1.37331 cumulative IPC: 1.36941 (Simulation time: 0 hr 1 min 38 sec) 
Heartbeat CPU 0 instructions: 60000000 cycles: 43797631 heartbeat IPC: 1.3726 cumulative IPC: 1.36994 (Simulation time: 0 hr 1 min 57 sec) 
Heartbeat CPU 0 instructions: 70000001 cycles: 51088270 heartbeat IPC: 1.37162 cumulative IPC: 1.37018 (Simulation time: 0 hr 2 min 17 sec) 
Heartbeat CPU 0 instructions: 80000000 cycles: 58368673 heartbeat IPC: 1.37355 cumulative IPC: 1.3706 (Simulation time: 0 hr 2 min 36 sec) 
Heartbeat CPU 0 instructions: 90000000 cycles: 65679839 heartbeat IPC: 1.36777 cumulative IPC: 1.37028 (Simulation time: 0 hr 2 min 56 sec) 
Heartbeat CPU 0 instructions: 100000000 cycles: 72977119 heartbeat IPC: 1.37037 cumulative IPC: 1.37029 (Simulation time: 0 hr 3 min 15 sec) 

Warmup complete CPU 0 instructions: 100000002 cycles: 72977120 (Simulation time: 0 hr 3 min 15 sec) 

Heartbeat CPU 0 instructions: 110000002 cycles: 115388055 heartbeat IPC: 0.235788 cumulative IPC: 0.235788 (Simulation time: 0 hr 3 min 55 sec) 
Heartbeat CPU 0 instructions: 120000000 cycles: 157648947 heartbeat IPC: 0.236625 cumulative IPC: 0.236206 (Simulation time: 0 hr 4 min 35 sec) 
Heartbeat CPU 0 instructions: 130000002 cycles: 199930563 heartbeat IPC: 0.236509 cumulative IPC: 0.236307 (Simulation time: 0 hr 5 min 15 sec) 
Heartbeat CPU 0 instructions: 140000000 cycles: 242546360 heartbeat IPC: 0.234655 cumulative IPC: 0.235892 (Simulation time: 0 hr 5 min 55 sec) 
Heartbeat CPU 0 instructions: 150000002 cycles: 284732940 heartbeat IPC: 0.237042 cumulative IPC: 0.236121 (Simulation time: 0 hr 6 min 35 sec) 
Heartbeat CPU 0 instructions: 160000000 cycles: 326798245 heartbeat IPC: 0.237726 cumulative IPC: 0.236387 (Simulation time: 0 hr 7 min 15 sec) 
Heartbeat CPU 0 instructions: 170000001 cycles: 367898460 heartbeat IPC: 0.243308 cumulative IPC: 0.237351 (Simulation time: 0 hr 7 min 54 sec) 
Heartbeat CPU 0 instructions: 180000000 cycles: 409855563 heartbeat IPC: 0.238339 cumulative IPC: 0.237474 (Simulation time: 0 hr 8 min 34 sec) 
Heartbeat CPU 0 instructions: 190000002 cycles: 451843114 heartbeat IPC: 0.238166 cumulative IPC: 0.237551 (Simulation time: 0 hr 9 min 13 sec) 
Heartbeat CPU 0 instructions: 200000000 cycles: 495259196 heartbeat IPC: 0.230329 cumulative IPC: 0.236809 (Simulation time: 0 hr 9 min 54 sec) 
Heartbeat CPU 0 instructions: 210000003 cycles: 537327437 heartbeat IPC: 0.237709 cumulative IPC: 0.23689 (Simulation time: 0 hr 10 min 33 sec) 
Heartbeat CPU 0 instructions: 220000000 cycles: 579783531 heartbeat IPC: 0.235537 cumulative IPC: 0.236777 (Simulation time: 0 hr 11 min 13 sec) 
Heartbeat CPU 0 instructions: 230000000 cycles: 622095808 heartbeat IPC: 0.236338 cumulative IPC: 0.236743 (Simulation time: 0 hr 11 min 53 sec) 
Heartbeat CPU 0 instructions: 240000000 cycles: 664017931 heartbeat IPC: 0.238538 cumulative IPC: 0.23687 (Simulation time: 0 hr 12 min 33 sec) 
Heartbeat CPU 0 instructions: 250000000 cycles: 706036591 heartbeat IPC: 0.23799 cumulative IPC: 0.236945 (Simulation time: 0 hr 13 min 12 sec) 
Heartbeat CPU 0 instructions: 260000000 cycles: 748301056 heartbeat IPC: 0.236605 cumulative IPC: 0.236923 (Simulation time: 0 hr 13 min 52 sec) 
Heartbeat CPU 0 instructions: 270000000 cycles: 790662688 heartbeat IPC: 0.236063 cumulative IPC: 0.236873 (Simulation time: 0 hr 14 min 32 sec) 
Heartbeat CPU 0 instructions: 280000000 cycles: 833406857 heartbeat IPC: 0.23395 cumulative IPC: 0.236708 (Simulation time: 0 hr 15 min 13 sec) 
Heartbeat CPU 0 instructions: 290000001 cycles: 875138322 heartbeat IPC: 0.239627 cumulative IPC: 0.23686 (Simulation time: 0 hr 15 min 52 sec) 
Heartbeat CPU 0 instructions: 300000000 cycles: 917684689 heartbeat IPC: 0.235038 cumulative IPC: 0.236768 (Simulation time: 0 hr 16 min 32 sec) 
Heartbeat CPU 0 instructions: 310000000 cycles: 960245426 heartbeat IPC: 0.234958 cumulative IPC: 0.236682 (Simulation time: 0 hr 17 min 12 sec) 
Heartbeat CPU 0 instructions: 320000000 cycles: 1002594295 heartbeat IPC: 0.236134 cumulative IPC: 0.236657 (Simulation time: 0 hr 17 min 52 sec) 
Heartbeat CPU 0 instructions: 330000000 cycles: 1044996693 heartbeat IPC: 0.235836 cumulative IPC: 0.236621 (Simulation time: 0 hr 18 min 32 sec) 
Heartbeat CPU 0 instructions: 340000000 cycles: 1088088210 heartbeat IPC: 0.232064 cumulative IPC: 0.236427 (Simulation time: 0 hr 19 min 13 sec) 
Heartbeat CPU 0 instructions: 350000001 cycles: 1130422216 heartbeat IPC: 0.236217 cumulative IPC: 0.236419 (Simulation time: 0 hr 19 min 53 sec) 
Heartbeat CPU 0 instructions: 360000000 cycles: 1172848916 heartbeat IPC: 0.235701 cumulative IPC: 0.236391 (Simulation time: 0 hr 20 min 32 sec) 
Heartbeat CPU 0 instructions: 370000000 cycles: 1214237120 heartbeat IPC: 0.241615 cumulative IPC: 0.236581 (Simulation time: 0 hr 21 min 12 sec) 
Heartbeat CPU 0 instructions: 380000000 cycles: 1256896203 heartbeat IPC: 0.234417 cumulative IPC: 0.236503 (Simulation time: 0 hr 21 min 52 sec) 
Heartbeat CPU 0 instructions: 390000001 cycles: 1298929968 heartbeat IPC: 0.237904 cumulative IPC: 0.236551 (Simulation time: 0 hr 22 min 31 sec) 
Heartbeat CPU 0 instructions: 400000000 cycles: 1341046300 heartbeat IPC: 0.237438 cumulative IPC: 0.23658 (Simulation time: 0 hr 23 min 11 sec) 
Heartbeat CPU 0 instructions: 410000000 cycles: 1382876898 heartbeat IPC: 0.239059 cumulative IPC: 0.236659 (Simulation time: 0 hr 23 min 50 sec) 
Heartbeat CPU 0 instructions: 420000000 cycles: 1424733086 heartbeat IPC: 0.238913 cumulative IPC: 0.236729 (Simulation time: 0 hr 24 min 30 sec) 
Heartbeat CPU 0 instructions: 430000000 cycles: 1466732200 heartbeat IPC: 0.2381 cumulative IPC: 0.23677 (Simulation time: 0 hr 25 min 9 sec) 
Heartbeat CPU 0 instructions: 440000000 cycles: 1508718861 heartbeat IPC: 0.238171 cumulative IPC: 0.236811 (Simulation time: 0 hr 25 min 49 sec) 
Heartbeat CPU 0 instructions: 450000002 cycles: 1550624229 heartbeat IPC: 0.238633 cumulative IPC: 0.236863 (Simulation time: 0 hr 26 min 28 sec) 
Heartbeat CPU 0 instructions: 460000000 cycles: 1591933556 heartbeat IPC: 0.242076 cumulative IPC: 0.237005 (Simulation time: 0 hr 27 min 8 sec) 
Heartbeat CPU 0 instructions: 470000000 cycles: 1634283647 heartbeat IPC: 0.236127 cumulative IPC: 0.236981 (Simulation time: 0 hr 27 min 48 sec) 
Heartbeat CPU 0 instructions: 480000000 cycles: 1676365406 heartbeat IPC: 0.237633 cumulative IPC: 0.236998 (Simulation time: 0 hr 28 min 27 sec) 
Heartbeat CPU 0 instructions: 490000001 cycles: 1718445358 heartbeat IPC: 0.237643 cumulative IPC: 0.237015 (Simulation time: 0 hr 29 min 7 sec) 
Heartbeat CPU 0 instructions: 500000000 cycles: 1760638009 heartbeat IPC: 0.237008 cumulative IPC: 0.237014 (Simulation time: 0 hr 29 min 47 sec) 
Heartbeat CPU 0 instructions: 510000000 cycles: 1802321428 heartbeat IPC: 0.239904 cumulative IPC: 0.237084 (Simulation time: 0 hr 30 min 26 sec) 
Heartbeat CPU 0 instructions: 520000000 cycles: 1845004916 heartbeat IPC: 0.234283 cumulative IPC: 0.237017 (Simulation time: 0 hr 31 min 6 sec) 
Heartbeat CPU 0 instructions: 530000000 cycles: 1886998410 heartbeat IPC: 0.238132 cumulative IPC: 0.237042 (Simulation time: 0 hr 31 min 46 sec) 
Heartbeat CPU 0 instructions: 540000000 cycles: 1928859096 heartbeat IPC: 0.238888 cumulative IPC: 0.237084 (Simulation time: 0 hr 32 min 25 sec) 
Heartbeat CPU 0 instructions: 550000001 cycles: 1971435183 heartbeat IPC: 0.234874 cumulative IPC: 0.237034 (Simulation time: 0 hr 33 min 5 sec) 
Heartbeat CPU 0 instructions: 560000000 cycles: 2014128863 heartbeat IPC: 0.234227 cumulative IPC: 0.236973 (Simulation time: 0 hr 33 min 45 sec) 
Heartbeat CPU 0 instructions: 570000003 cycles: 2056667753 heartbeat IPC: 0.235079 cumulative IPC: 0.236932 (Simulation time: 0 hr 34 min 25 sec) 
Heartbeat CPU 0 instructions: 580000000 cycles: 2099171416 heartbeat IPC: 0.235274 cumulative IPC: 0.236897 (Simulation time: 0 hr 35 min 5 sec) 
Heartbeat CPU 0 instructions: 590000001 cycles: 2142223911 heartbeat IPC: 0.232275 cumulative IPC: 0.236801 (Simulation time: 0 hr 35 min 46 sec) 
Heartbeat CPU 0 instructions: 600000000 cycles: 2184909543 heartbeat IPC: 0.234271 cumulative IPC: 0.23675 (Simulation time: 0 hr 36 min 26 sec) 
Finished CPU 0 instructions: 500000000 cycles: 2111932431 cumulative IPC: 0.23675 (Simulation time: 0 hr 36 min 26 sec) 

CPU 0 Branch Prediction Accuracy: 96.2429% MPKI: 5.85335
Number of Branches: 77897976 Number of Mispredictions: 2926674
Number of LOAD Instructions: 193081861
Number of LOAD Instructions (ROI): 193081861
Number of STORE Instructions: 97310749
Number of STORE Instructions (ROI): 97310749
Total Destination Memory Operands: 106368027
Total Destination Memory Operands (ROI): 106368027
Total Source Memory Operands: 193081861
Total Source Memory Operands (ROI): 193081861
Number of DEPENDED LOADS: 6584820
Number of DEPENDED LOADS (ROI): 6584820
Number of SQ_ADDED: 106367982
Number of SQ_ADDED (ROI): 106367982
Number of LQ_ADDED: 435591016
Number of LQ_ADDED (ROI): 435591016
Number of Instructions read from trace: 600000256

ChampSim completed all CPUs

Region of Interest Statistics

CPU 0 cumulative IPC: 0.23675 instructions: 500000000 cycles: 2111932431
ITLB TOTAL     ACCESS:  150588968  HIT:  150573137  MISS:      15831
ITLB LOAD      ACCESS:  150588968  HIT:  150573137  MISS:      15831
ITLB RFO       ACCESS:          0  HIT:          0  MISS:          0
ITLB PREFETCH  ACCESS:          0  HIT:          0  MISS:          0
ITLB WRITEBACK ACCESS:          0  HIT:          0  MISS:          0
ITLB PREFETCH  REQUESTED:          0  ISSUED:          0  USEFUL:          0  USELESS:          0
ITLB TOTAL MSHR MERGED:      18909
ITLB LOAD MSHR MERGED:      18909
ITLB RFO MSHR MERGED:          0
ITLB PREFETCH MSHR MERGED:          0
ITLB WRITEBACK MSHR MERGED:          0
ITLB TOTAL ACCESSES:  150607877 HITS:  150573137 MISSES:      34740
ITLB LOAD ACCESSES:  150607877 HITS:  150573137 MISSES:      34740
ITLB RFO ACCESSES:          0 HITS:          0 MISSES:          0
ITLB PREFETCH ACCESSES:          0 HITS:          0 MISSES:          0
ITLB WRITEBACK ACCESSES:          0 HITS:          0 MISSES:          0
ITLB RQ ACCESS:  500000242
ITLB RQ TO_CACHE:  150607877
ITLB RQ MERGED:  349392365
ITLB RQ FORWARD:          0
ITLB WQ ACCESS:          0
ITLB WQ TO_CACHE:          0
ITLB WQ MERGED:          0
ITLB WQ FORWARD:          0
DTLB TOTAL     ACCESS:  199445055  HIT:  194066045  MISS:    5379010
DTLB LOAD      ACCESS:  123030510  HIT:  118011970  MISS:    5018540
DTLB RFO       ACCESS:   76414545  HIT:   76054075  MISS:     360470
DTLB PREFETCH  ACCESS:          0  HIT:          0  MISS:          0
DTLB WRITEBACK ACCESS:          0  HIT:          0  MISS:          0
DTLB PREFETCH  REQUESTED:          0  ISSUED:          0  USEFUL:          0  USELESS:          0
DTLB TOTAL MSHR MERGED:     911694
DTLB LOAD MSHR MERGED:     804654
DTLB RFO MSHR MERGED:     107040
DTLB PREFETCH MSHR MERGED:          0
DTLB WRITEBACK MSHR MERGED:          0
DTLB TOTAL ACCESSES:  200356749 HITS:  194066045 MISSES:    6290704
DTLB LOAD ACCESSES:  123835164 HITS:  118011970 MISSES:    5823194
DTLB RFO ACCESSES:   76521585 HITS:   76054075 MISSES:     467510
DTLB PREFETCH ACCESSES:          0 HITS:          0 MISSES:          0
DTLB WRITEBACK ACCESSES:          0 HITS:          0 MISSES:          0
DTLB RQ ACCESS:  243741889
DTLB RQ TO_CACHE:  200356749
DTLB RQ MERGED:   43385140
DTLB RQ FORWARD:          0
DTLB WQ ACCESS:          0
DTLB WQ TO_CACHE:          0
DTLB WQ MERGED:          0
DTLB WQ FORWARD:          0
L1D TOTAL     ACCESS:  335108253  HIT:  317012468  MISS:   18095785
L1D LOAD      ACCESS:  127496304  HIT:  118543963  MISS:    8952341
L1D RFO       ACCESS:   86879540  HIT:   86065623  MISS:     813917
L1D PREFETCH  ACCESS:  120732409  HIT:  112402882  MISS:    8329527
L1D WRITEBACK ACCESS:          0  HIT:          0  MISS:          0
L1D PREFETCH  REQUESTED:  128370229  ISSUED:  126771891  USEFUL:    1730298  USELESS:    6599241
L1D TOTAL MSHR MERGED:    4086143
L1D LOAD MSHR MERGED:    1046229
L1D RFO MSHR MERGED:    1250589
L1D PREFETCH MSHR MERGED:    1789325
L1D WRITEBACK MSHR MERGED:          0
L1D TOTAL ACCESSES:  339290466 HITS:  317108538 MISSES:   22181928
L1D LOAD ACCESSES:  128370779 HITS:  118544513 MISSES:    9826266
L1D RFO ACCESSES:   88035046 HITS:   86065623 MISSES:    1969423
L1D PREFETCH ACCESSES:  122884641 HITS:  112498402 MISSES:   10386239
L1D WRITEBACK ACCESSES:          0 HITS:          0 MISSES:          0
L1D RQ ACCESS:  155110504
L1D RQ TO_CACHE:  128370229
L1D RQ MERGED:   26739725
L1D RQ FORWARD:          0
L1D WQ ACCESS:   88631385
L1D WQ TO_CACHE:   88035045
L1D WQ MERGED:     596340
L1D WQ FORWARD:      96070
L1I TOTAL     ACCESS:  174926342  HIT:  174660057  MISS:     266285
L1I LOAD      ACCESS:  174926342  HIT:  174660057  MISS:     266285
L1I RFO       ACCESS:          0  HIT:          0  MISS:          0
L1I PREFETCH  ACCESS:          0  HIT:          0  MISS:          0
L1I WRITEBACK ACCESS:          0  HIT:          0  MISS:          0
L1I PREFETCH  REQUESTED:          0  ISSUED:          0  USEFUL:          0  USELESS:          0
L1I TOTAL MSHR MERGED:     220192
L1I LOAD MSHR MERGED:     220192
L1I RFO MSHR MERGED:          0
L1I PREFETCH MSHR MERGED:          0
L1I WRITEBACK MSHR MERGED:          0
L1I TOTAL ACCESSES:  175146534 HITS:  174660057 MISSES:     486477
L1I LOAD ACCESSES:  175146534 HITS:  174660057 MISSES:     486477
L1I RFO ACCESSES:          0 HITS:          0 MISSES:          0
L1I PREFETCH ACCESSES:          0 HITS:          0 MISSES:          0
L1I WRITEBACK ACCESSES:          0 HITS:          0 MISSES:          0
L1I RQ ACCESS:  500000242
L1I RQ TO_CACHE:  175146534
L1I RQ MERGED:  324853708
L1I RQ FORWARD:          0
L1I WQ ACCESS:          0
L1I WQ TO_CACHE:          0
L1I WQ MERGED:          0
L1I WQ FORWARD:          0
L2C TOTAL     ACCESS:   23737989  HIT:   12112350  MISS:   11625639
L2C LOAD      ACCESS:    9045167  HIT:    3565533  MISS:    5479634
L2C RFO       ACCESS:     718772  HIT:     129068  MISS:     589704
L2C PREFETCH  ACCESS:    8613935  HIT:    3086339  MISS:    5527596
L2C WRITEBACK ACCESS:    5360115  HIT:    5331410  MISS:      28705
L2C PREFETCH  REQUESTED:      18045  ISSUED:      18045  USEFUL:     322951  USELESS:    5204821
L2C TOTAL MSHR MERGED:         19
L2C LOAD MSHR MERGED:          3
L2C RFO MSHR MERGED:          0
L2C PREFETCH MSHR MERGED:         16
L2C WRITEBACK MSHR MERGED:          0
L2C TOTAL ACCESSES:   23739772 HITS:   12114108 MISSES:   11625664
L2C LOAD ACCESSES:    9046322 HITS:    3566688 MISSES:    5479634
L2C RFO ACCESSES:     718834 HITS:     129130 MISSES:     589704
L2C PREFETCH ACCESSES:    8614501 HITS:    3086880 MISSES:    5527621
L2C WRITEBACK ACCESSES:    5360115 HITS:    5331410 MISSES:      28705
L2C RQ ACCESS:    9765156
L2C RQ TO_CACHE:    9763939
L2C RQ MERGED:          0
L2C RQ FORWARD:          0
L2C WQ ACCESS:    5360115
L2C WQ TO_CACHE:    5360115
L2C WQ MERGED:          0
L2C WQ FORWARD:       1758
LLC TOTAL     ACCESS:   15448549  HIT:    4878731  MISS:   10569818
LLC LOAD      ACCESS:    5479606  HIT:    1152132  MISS:    4327474
LLC RFO       ACCESS:     589702  HIT:      98306  MISS:     491396
LLC PREFETCH  ACCESS:    5527590  HIT:     830725  MISS:    4696865
LLC WRITEBACK ACCESS:    3851651  HIT:    2797568  MISS:    1054083
LLC PREFETCH  REQUESTED:          0  ISSUED:          0  USEFUL:      34314  USELESS:    4664227
LLC TOTAL MSHR MERGED:          0
LLC LOAD MSHR MERGED:          0
LLC RFO MSHR MERGED:          0
LLC PREFETCH MSHR MERGED:          0
LLC WRITEBACK MSHR MERGED:          0
LLC TOTAL ACCESSES:   15448591 HITS:    4878773 MISSES:   10569818
LLC LOAD ACCESSES:    5479631 HITS:    1152157 MISSES:    4327474
LLC RFO ACCESSES:     589704 HITS:      98308 MISSES:     491396
LLC PREFETCH ACCESSES:    5527605 HITS:     830740 MISSES:    4696865
LLC WRITEBACK ACCESSES:    3851651 HITS:    2797568 MISSES:    1054083
LLC 0 RQ ACCESS:    6069335
LLC 0 RQ TO_CACHE:    6069308
LLC 0 RQ MERGED:          0
LLC 0 RQ FORWARD:          0
LLC WQ ACCESS:    3851651
LLC WQ TO_CACHE:    3851651
LLC WQ MERGED:          0
LLC WQ FORWARD:         42
Major fault: 0 Minor fault: 44814
CPU 0 L1D next line prefetcher final stats
CPU 0 L2C PC-based stride prefetcher final stats
All Misses: 12747700
All Hits: 5873371
SD Algo Stats - Switches: 0 SRR-Repls: 4951458 BRR-Repls: 0

DRAM Statistics
 CHANNEL 0
 RQ ROW_BUFFER_HIT:    1515751  ROW_BUFFER_MISS:    7995483
 DBUS_CONGESTED:    7262816
 WQ ROW_BUFFER_HIT:     336977  ROW_BUFFER_MISS:    3065105  FULL:          0

 AVG_CONGESTED_CYCLE: 13
LOADS RETIRED: 160808997
INSTR RETIRED: 500000000
