
*** ChampSim Multicore Out-of-Order Simulator ***

Warmup Instructions: 100000000
Simulation Instructions: 500000000
Number of CPUs: 1
LLC sets: 2048
LLC ways: 16
Clean RRIP Policies: 1102001011020010 Dirty RRIP Policies: 1122200011222000 PSEL Width: 10 Track Set: 4294967295 PSEL Mask: 1 Demote Mask: 1140212211402122DS Algo: 0Window size: 0
Off-chip DRAM Size: 4096 MB Channels: 1 Width: 64-bit Data Rate: 1600 MT/s

CPU 0 runs /mnt/beegfs/iconst01/spec2017/Roms.trace.gz
NOT SORTED
TRACE STRING: /mnt/beegfs/iconst01/spec2017/Roms.trace.gz
SORTED
TRACE STRING: /mnt/beegfs/iconst01/spec2017/Roms.trace.gz
INITIAL
TRACE STRING: /mnt/beegfs/iconst01/spec2017/Roms.trace.gz

champsim_seed used: 417

CPU 0 L1D next line prefetcher
CPU 0 L2C IP-based stride prefetcher
Initialize DRRIP state
Assign rand_sets[0]: 454  LLC: 2048
rand_sets[0]: 454
Assign rand_sets[1]: 1662  LLC: 2048
rand_sets[1]: 1662
Assign rand_sets[2]: 1921  LLC: 2048
rand_sets[2]: 1921
Assign rand_sets[3]: 1131  LLC: 2048
rand_sets[3]: 1131
Assign rand_sets[4]: 331  LLC: 2048
rand_sets[4]: 331
Assign rand_sets[5]: 1531  LLC: 2048
rand_sets[5]: 1531
Assign rand_sets[6]: 482  LLC: 2048
rand_sets[6]: 482
Assign rand_sets[7]: 1275  LLC: 2048
rand_sets[7]: 1275
Assign rand_sets[8]: 1876  LLC: 2048
rand_sets[8]: 1876
Assign rand_sets[9]: 2038  LLC: 2048
rand_sets[9]: 2038
Assign rand_sets[10]: 701  LLC: 2048
rand_sets[10]: 701
Assign rand_sets[11]: 479  LLC: 2048
rand_sets[11]: 479
Assign rand_sets[12]: 892  LLC: 2048
rand_sets[12]: 892
Assign rand_sets[13]: 1820  LLC: 2048
rand_sets[13]: 1820
Assign rand_sets[14]: 1505  LLC: 2048
rand_sets[14]: 1505
Assign rand_sets[15]: 1159  LLC: 2048
rand_sets[15]: 1159
Assign rand_sets[16]: 513  LLC: 2048
rand_sets[16]: 513
Assign rand_sets[17]: 703  LLC: 2048
rand_sets[17]: 703
Assign rand_sets[18]: 561  LLC: 2048
rand_sets[18]: 561
Assign rand_sets[19]: 990  LLC: 2048
rand_sets[19]: 990
Assign rand_sets[20]: 342  LLC: 2048
rand_sets[20]: 342
Assign rand_sets[21]: 882  LLC: 2048
rand_sets[21]: 882
Assign rand_sets[22]: 15  LLC: 2048
rand_sets[22]: 15
Assign rand_sets[23]: 71  LLC: 2048
rand_sets[23]: 71
Assign rand_sets[24]: 1127  LLC: 2048
rand_sets[24]: 1127
Assign rand_sets[25]: 1382  LLC: 2048
rand_sets[25]: 1382
Assign rand_sets[26]: 647  LLC: 2048
rand_sets[26]: 647
Assign rand_sets[27]: 857  LLC: 2048
rand_sets[27]: 857
Assign rand_sets[28]: 1450  LLC: 2048
rand_sets[28]: 1450
Assign rand_sets[29]: 1160  LLC: 2048
rand_sets[29]: 1160
Assign rand_sets[30]: 1852  LLC: 2048
rand_sets[30]: 1852
Assign rand_sets[31]: 1881  LLC: 2048
rand_sets[31]: 1881
Assign rand_sets[32]: 1770  LLC: 2048
rand_sets[32]: 1770
Assign rand_sets[33]: 1622  LLC: 2048
rand_sets[33]: 1622
Assign rand_sets[34]: 275  LLC: 2048
rand_sets[34]: 275
Assign rand_sets[35]: 635  LLC: 2048
rand_sets[35]: 635
Assign rand_sets[36]: 466  LLC: 2048
rand_sets[36]: 466
Assign rand_sets[37]: 1413  LLC: 2048
rand_sets[37]: 1413
Assign rand_sets[38]: 417  LLC: 2048
rand_sets[38]: 417
Assign rand_sets[39]: 472  LLC: 2048
rand_sets[39]: 472
Assign rand_sets[40]: 1340  LLC: 2048
rand_sets[40]: 1340
Assign rand_sets[41]: 852  LLC: 2048
rand_sets[41]: 852
Assign rand_sets[42]: 1365  LLC: 2048
rand_sets[42]: 1365
Assign rand_sets[43]: 47  LLC: 2048
rand_sets[43]: 47
Assign rand_sets[44]: 823  LLC: 2048
rand_sets[44]: 823
Assign rand_sets[45]: 686  LLC: 2048
rand_sets[45]: 686
Assign rand_sets[46]: 1637  LLC: 2048
rand_sets[46]: 1637
Assign rand_sets[47]: 1115  LLC: 2048
rand_sets[47]: 1115
Assign rand_sets[48]: 986  LLC: 2048
rand_sets[48]: 986
Assign rand_sets[49]: 258  LLC: 2048
rand_sets[49]: 258
Assign rand_sets[50]: 633  LLC: 2048
rand_sets[50]: 633
Assign rand_sets[51]: 920  LLC: 2048
rand_sets[51]: 920
Assign rand_sets[52]: 204  LLC: 2048
rand_sets[52]: 204
Assign rand_sets[53]: 227  LLC: 2048
rand_sets[53]: 227
Assign rand_sets[54]: 1818  LLC: 2048
rand_sets[54]: 1818
Assign rand_sets[55]: 886  LLC: 2048
rand_sets[55]: 886
Assign rand_sets[56]: 1422  LLC: 2048
rand_sets[56]: 1422
Assign rand_sets[57]: 607  LLC: 2048
rand_sets[57]: 607
Assign rand_sets[58]: 217  LLC: 2048
rand_sets[58]: 217
Assign rand_sets[59]: 1945  LLC: 2048
rand_sets[59]: 1945
Assign rand_sets[60]: 143  LLC: 2048
rand_sets[60]: 143
Assign rand_sets[61]: 1311  LLC: 2048
rand_sets[61]: 1311
Assign rand_sets[62]: 319  LLC: 2048
rand_sets[62]: 319
Assign rand_sets[63]: 1846  LLC: 2048
rand_sets[63]: 1846
 CLEAN-RRIP-POLICY-1: 1-1-0-2-0-0-1-0- CLEAN-RRIP-POLICY-2: 1-1-0-2-0-0-1-0-
 DIRTY-RRIP-POLICY-1: 1-1-2-2-2-0-0-0- DIRTY-RRIP-POLICY-2: 1-1-2-2-2-0-0-0-
 PSEL width: 10
Heartbeat CPU 0 instructions: 10000000 cycles: 4688091 heartbeat IPC: 2.13306 cumulative IPC: 2.13306 (Simulation time: 0 hr 0 min 17 sec) 
Heartbeat CPU 0 instructions: 20000000 cycles: 9325357 heartbeat IPC: 2.15644 cumulative IPC: 2.14469 (Simulation time: 0 hr 0 min 34 sec) 
Heartbeat CPU 0 instructions: 30000001 cycles: 14019682 heartbeat IPC: 2.13023 cumulative IPC: 2.13985 (Simulation time: 0 hr 0 min 51 sec) 
Heartbeat CPU 0 instructions: 40000000 cycles: 18670004 heartbeat IPC: 2.15039 cumulative IPC: 2.14247 (Simulation time: 0 hr 1 min 9 sec) 
Heartbeat CPU 0 instructions: 50000003 cycles: 23323345 heartbeat IPC: 2.14899 cumulative IPC: 2.14377 (Simulation time: 0 hr 1 min 26 sec) 
Heartbeat CPU 0 instructions: 60000000 cycles: 27975845 heartbeat IPC: 2.14938 cumulative IPC: 2.14471 (Simulation time: 0 hr 1 min 43 sec) 
Heartbeat CPU 0 instructions: 70000002 cycles: 32366977 heartbeat IPC: 2.27732 cumulative IPC: 2.1627 (Simulation time: 0 hr 1 min 58 sec) 
Heartbeat CPU 0 instructions: 80000000 cycles: 36303574 heartbeat IPC: 2.54026 cumulative IPC: 2.20364 (Simulation time: 0 hr 2 min 10 sec) 
Heartbeat CPU 0 instructions: 90000000 cycles: 40248840 heartbeat IPC: 2.53468 cumulative IPC: 2.23609 (Simulation time: 0 hr 2 min 22 sec) 
Heartbeat CPU 0 instructions: 100000000 cycles: 44211199 heartbeat IPC: 2.52375 cumulative IPC: 2.26187 (Simulation time: 0 hr 2 min 34 sec) 

Warmup complete CPU 0 instructions: 100000002 cycles: 44211200 (Simulation time: 0 hr 2 min 34 sec) 

Heartbeat CPU 0 instructions: 110000000 cycles: 53622957 heartbeat IPC: 1.0625 cumulative IPC: 1.0625 (Simulation time: 0 hr 2 min 53 sec) 
Heartbeat CPU 0 instructions: 120000000 cycles: 63015783 heartbeat IPC: 1.06464 cumulative IPC: 1.06357 (Simulation time: 0 hr 3 min 13 sec) 
Heartbeat CPU 0 instructions: 130000002 cycles: 72546419 heartbeat IPC: 1.04925 cumulative IPC: 1.05875 (Simulation time: 0 hr 3 min 32 sec) 
Heartbeat CPU 0 instructions: 140000000 cycles: 82039680 heartbeat IPC: 1.05338 cumulative IPC: 1.0574 (Simulation time: 0 hr 3 min 52 sec) 
Heartbeat CPU 0 instructions: 150000003 cycles: 91728985 heartbeat IPC: 1.03207 cumulative IPC: 1.05224 (Simulation time: 0 hr 4 min 12 sec) 
Heartbeat CPU 0 instructions: 160000000 cycles: 102907717 heartbeat IPC: 0.894556 cumulative IPC: 1.02221 (Simulation time: 0 hr 4 min 33 sec) 
Heartbeat CPU 0 instructions: 170000000 cycles: 115974718 heartbeat IPC: 0.765287 cumulative IPC: 0.975426 (Simulation time: 0 hr 4 min 58 sec) 
Heartbeat CPU 0 instructions: 180000000 cycles: 129035002 heartbeat IPC: 0.76568 cumulative IPC: 0.943132 (Simulation time: 0 hr 5 min 22 sec) 
Heartbeat CPU 0 instructions: 190000000 cycles: 142308784 heartbeat IPC: 0.753365 cumulative IPC: 0.917454 (Simulation time: 0 hr 5 min 46 sec) 
Heartbeat CPU 0 instructions: 200000000 cycles: 156479460 heartbeat IPC: 0.705683 cumulative IPC: 0.890724 (Simulation time: 0 hr 6 min 10 sec) 
Heartbeat CPU 0 instructions: 210000003 cycles: 170661894 heartbeat IPC: 0.705098 cumulative IPC: 0.869904 (Simulation time: 0 hr 6 min 35 sec) 
Heartbeat CPU 0 instructions: 220000000 cycles: 184673554 heartbeat IPC: 0.713691 cumulative IPC: 0.854321 (Simulation time: 0 hr 6 min 59 sec) 
Heartbeat CPU 0 instructions: 230000000 cycles: 198494786 heartbeat IPC: 0.723525 cumulative IPC: 0.842604 (Simulation time: 0 hr 7 min 24 sec) 
Heartbeat CPU 0 instructions: 240000000 cycles: 212415038 heartbeat IPC: 0.718378 cumulative IPC: 0.832323 (Simulation time: 0 hr 7 min 50 sec) 
Heartbeat CPU 0 instructions: 250000002 cycles: 223779849 heartbeat IPC: 0.879909 cumulative IPC: 0.835335 (Simulation time: 0 hr 8 min 12 sec) 
Heartbeat CPU 0 instructions: 260000000 cycles: 231866772 heartbeat IPC: 1.23656 cumulative IPC: 0.852626 (Simulation time: 0 hr 8 min 32 sec) 
Heartbeat CPU 0 instructions: 270000003 cycles: 240488122 heartbeat IPC: 1.15991 cumulative IPC: 0.866123 (Simulation time: 0 hr 8 min 53 sec) 
Heartbeat CPU 0 instructions: 280000000 cycles: 249834506 heartbeat IPC: 1.06993 cumulative IPC: 0.875387 (Simulation time: 0 hr 9 min 14 sec) 
Heartbeat CPU 0 instructions: 290000000 cycles: 259199306 heartbeat IPC: 1.06783 cumulative IPC: 0.88377 (Simulation time: 0 hr 9 min 35 sec) 
Heartbeat CPU 0 instructions: 300000000 cycles: 268514446 heartbeat IPC: 1.07352 cumulative IPC: 0.89165 (Simulation time: 0 hr 9 min 57 sec) 
Heartbeat CPU 0 instructions: 310000000 cycles: 277952796 heartbeat IPC: 1.05951 cumulative IPC: 0.898428 (Simulation time: 0 hr 10 min 19 sec) 
Heartbeat CPU 0 instructions: 320000000 cycles: 287477193 heartbeat IPC: 1.04994 cumulative IPC: 0.90436 (Simulation time: 0 hr 10 min 41 sec) 
Heartbeat CPU 0 instructions: 330000002 cycles: 296901790 heartbeat IPC: 1.06105 cumulative IPC: 0.910204 (Simulation time: 0 hr 11 min 4 sec) 
Heartbeat CPU 0 instructions: 340000000 cycles: 307463585 heartbeat IPC: 0.946809 cumulative IPC: 0.911673 (Simulation time: 0 hr 11 min 27 sec) 
Heartbeat CPU 0 instructions: 350000001 cycles: 316629900 heartbeat IPC: 1.09095 cumulative IPC: 0.917705 (Simulation time: 0 hr 11 min 48 sec) 
Heartbeat CPU 0 instructions: 360000000 cycles: 325868091 heartbeat IPC: 1.08246 cumulative IPC: 0.923109 (Simulation time: 0 hr 12 min 10 sec) 
Heartbeat CPU 0 instructions: 370000001 cycles: 335129246 heartbeat IPC: 1.07978 cumulative IPC: 0.928096 (Simulation time: 0 hr 12 min 31 sec) 
Heartbeat CPU 0 instructions: 380000000 cycles: 344354118 heartbeat IPC: 1.08403 cumulative IPC: 0.932889 (Simulation time: 0 hr 12 min 53 sec) 
Heartbeat CPU 0 instructions: 390000001 cycles: 353429407 heartbeat IPC: 1.10189 cumulative IPC: 0.937849 (Simulation time: 0 hr 13 min 14 sec) 
Heartbeat CPU 0 instructions: 400000000 cycles: 362623757 heartbeat IPC: 1.08762 cumulative IPC: 0.942174 (Simulation time: 0 hr 13 min 36 sec) 
Heartbeat CPU 0 instructions: 410000003 cycles: 371710477 heartbeat IPC: 1.10051 cumulative IPC: 0.946567 (Simulation time: 0 hr 13 min 57 sec) 
Heartbeat CPU 0 instructions: 420000000 cycles: 380881187 heartbeat IPC: 1.09043 cumulative IPC: 0.950486 (Simulation time: 0 hr 14 min 18 sec) 
Heartbeat CPU 0 instructions: 430000001 cycles: 389983198 heartbeat IPC: 1.09866 cumulative IPC: 0.954386 (Simulation time: 0 hr 14 min 39 sec) 
Heartbeat CPU 0 instructions: 440000000 cycles: 399038555 heartbeat IPC: 1.10432 cumulative IPC: 0.958212 (Simulation time: 0 hr 15 min 1 sec) 
Heartbeat CPU 0 instructions: 450000000 cycles: 409754909 heartbeat IPC: 0.933153 cumulative IPC: 0.957478 (Simulation time: 0 hr 15 min 24 sec) 
Heartbeat CPU 0 instructions: 460000000 cycles: 418790600 heartbeat IPC: 1.10672 cumulative IPC: 0.961078 (Simulation time: 0 hr 15 min 45 sec) 
Heartbeat CPU 0 instructions: 470000003 cycles: 427771042 heartbeat IPC: 1.11353 cumulative IPC: 0.964647 (Simulation time: 0 hr 16 min 6 sec) 
Heartbeat CPU 0 instructions: 480000000 cycles: 436788081 heartbeat IPC: 1.10901 cumulative IPC: 0.967963 (Simulation time: 0 hr 16 min 28 sec) 
Heartbeat CPU 0 instructions: 490000000 cycles: 445820085 heartbeat IPC: 1.10717 cumulative IPC: 0.971094 (Simulation time: 0 hr 16 min 49 sec) 
Heartbeat CPU 0 instructions: 500000000 cycles: 454833903 heartbeat IPC: 1.10941 cumulative IPC: 0.97413 (Simulation time: 0 hr 17 min 10 sec) 
Heartbeat CPU 0 instructions: 510000001 cycles: 463835449 heartbeat IPC: 1.11092 cumulative IPC: 0.977065 (Simulation time: 0 hr 17 min 31 sec) 
Heartbeat CPU 0 instructions: 520000000 cycles: 472862530 heartbeat IPC: 1.10778 cumulative IPC: 0.979817 (Simulation time: 0 hr 17 min 52 sec) 
Heartbeat CPU 0 instructions: 530000001 cycles: 481884316 heartbeat IPC: 1.10843 cumulative IPC: 0.982468 (Simulation time: 0 hr 18 min 14 sec) 
Heartbeat CPU 0 instructions: 540000000 cycles: 491115345 heartbeat IPC: 1.0833 cumulative IPC: 0.984551 (Simulation time: 0 hr 18 min 35 sec) 
Heartbeat CPU 0 instructions: 550000001 cycles: 500412314 heartbeat IPC: 1.07562 cumulative IPC: 0.986407 (Simulation time: 0 hr 18 min 57 sec) 
Heartbeat CPU 0 instructions: 560000000 cycles: 509551886 heartbeat IPC: 1.09414 cumulative IPC: 0.988523 (Simulation time: 0 hr 19 min 18 sec) 
Heartbeat CPU 0 instructions: 570000001 cycles: 521959334 heartbeat IPC: 0.805968 cumulative IPC: 0.983782 (Simulation time: 0 hr 19 min 42 sec) 
Heartbeat CPU 0 instructions: 580000000 cycles: 534256414 heartbeat IPC: 0.813201 cumulative IPC: 0.979501 (Simulation time: 0 hr 20 min 5 sec) 
Heartbeat CPU 0 instructions: 590000001 cycles: 546565454 heartbeat IPC: 0.812411 cumulative IPC: 0.975407 (Simulation time: 0 hr 20 min 28 sec) 
Heartbeat CPU 0 instructions: 600000000 cycles: 558815921 heartbeat IPC: 0.816295 cumulative IPC: 0.97162 (Simulation time: 0 hr 20 min 51 sec) 
Finished CPU 0 instructions: 500000001 cycles: 514604734 cumulative IPC: 0.971619 (Simulation time: 0 hr 20 min 51 sec) 

CPU 0 Branch Prediction Accuracy: 99.7422% MPKI: 0.173296
Number of Branches: 33608403 Number of Mispredictions: 86648
Number of LOAD Instructions: 180215231
Number of LOAD Instructions (ROI): 180215231
Number of STORE Instructions: 36067263
Number of STORE Instructions (ROI): 36067263
Total Destination Memory Operands: 38428915
Total Destination Memory Operands (ROI): 38428915
Total Source Memory Operands: 180215231
Total Source Memory Operands (ROI): 180215231
Number of DEPENDED LOADS: 3042117
Number of DEPENDED LOADS (ROI): 3042117
Number of SQ_ADDED: 38428892
Number of SQ_ADDED (ROI): 38428892
Number of LQ_ADDED: 208402383
Number of LQ_ADDED (ROI): 208402383
Number of Instructions read from trace: 600000257

ChampSim completed all CPUs

Region of Interest Statistics

CPU 0 cumulative IPC: 0.971619 instructions: 500000001 cycles: 514604734
ITLB TOTAL     ACCESS:   91929315  HIT:   91929296  MISS:         19
ITLB LOAD      ACCESS:   91929315  HIT:   91929296  MISS:         19
ITLB RFO       ACCESS:          0  HIT:          0  MISS:          0
ITLB PREFETCH  ACCESS:          0  HIT:          0  MISS:          0
ITLB WRITEBACK ACCESS:          0  HIT:          0  MISS:          0
ITLB PREFETCH  REQUESTED:          0  ISSUED:          0  USEFUL:          0  USELESS:          0
ITLB TOTAL MSHR MERGED:         40
ITLB LOAD MSHR MERGED:         40
ITLB RFO MSHR MERGED:          0
ITLB PREFETCH MSHR MERGED:          0
ITLB WRITEBACK MSHR MERGED:          0
ITLB TOTAL ACCESSES:   91929355 HITS:   91929296 MISSES:         59
ITLB LOAD ACCESSES:   91929355 HITS:   91929296 MISSES:         59
ITLB RFO ACCESSES:          0 HITS:          0 MISSES:          0
ITLB PREFETCH ACCESSES:          0 HITS:          0 MISSES:          0
ITLB WRITEBACK ACCESSES:          0 HITS:          0 MISSES:          0
ITLB RQ ACCESS:  500000003
ITLB RQ TO_CACHE:   91929355
ITLB RQ MERGED:  408070648
ITLB RQ FORWARD:          0
ITLB WQ ACCESS:          0
ITLB WQ TO_CACHE:          0
ITLB WQ MERGED:          0
ITLB WQ FORWARD:          0
DTLB TOTAL     ACCESS:  142004477  HIT:  141638015  MISS:     366462
DTLB LOAD      ACCESS:  119380443  HIT:  119066857  MISS:     313586
DTLB RFO       ACCESS:   22624034  HIT:   22571158  MISS:      52876
DTLB PREFETCH  ACCESS:          0  HIT:          0  MISS:          0
DTLB WRITEBACK ACCESS:          0  HIT:          0  MISS:          0
DTLB PREFETCH  REQUESTED:          0  ISSUED:          0  USEFUL:          0  USELESS:          0
DTLB TOTAL MSHR MERGED:     287393
DTLB LOAD MSHR MERGED:     238655
DTLB RFO MSHR MERGED:      48738
DTLB PREFETCH MSHR MERGED:          0
DTLB WRITEBACK MSHR MERGED:          0
DTLB TOTAL ACCESSES:  142291870 HITS:  141638015 MISSES:     653855
DTLB LOAD ACCESSES:  119619098 HITS:  119066857 MISSES:     552241
DTLB RFO ACCESSES:   22672772 HITS:   22571158 MISSES:     101614
DTLB PREFETCH ACCESSES:          0 HITS:          0 MISSES:          0
DTLB WRITEBACK ACCESSES:          0 HITS:          0 MISSES:          0
DTLB RQ ACCESS:  184790862
DTLB RQ TO_CACHE:  142291870
DTLB RQ MERGED:   42498992
DTLB RQ FORWARD:          0
DTLB WQ ACCESS:          0
DTLB WQ TO_CACHE:          0
DTLB WQ MERGED:          0
DTLB WQ FORWARD:          0
L1D TOTAL     ACCESS:  186052075  HIT:  172607391  MISS:   13444684
L1D LOAD      ACCESS:  111776126  HIT:  108416718  MISS:    3359408
L1D RFO       ACCESS:   15929110  HIT:   13147366  MISS:    2781744
L1D PREFETCH  ACCESS:   58346839  HIT:   51043307  MISS:    7303532
L1D WRITEBACK ACCESS:          0  HIT:          0  MISS:          0
L1D PREFETCH  REQUESTED:  116499281  ISSUED:  115142330  USEFUL:    7094108  USELESS:     209423
L1D TOTAL MSHR MERGED:   35861906
L1D LOAD MSHR MERGED:    7520171
L1D RFO MSHR MERGED:   12323484
L1D PREFETCH MSHR MERGED:   16018251
L1D WRITEBACK MSHR MERGED:          0
L1D TOTAL ACCESSES:  221914476 HITS:  172607886 MISSES:   49306590
L1D LOAD ACCESSES:  116499433 HITS:  108416870 MISSES:    8082563
L1D RFO ACCESSES:   28252552 HITS:   13147366 MISSES:   15105186
L1D PREFETCH ACCESSES:   77162491 HITS:   51043650 MISSES:   26118841
L1D WRITEBACK ACCESSES:          0 HITS:          0 MISSES:          0
L1D RQ ACCESS:  156534796
L1D RQ TO_CACHE:  116499284
L1D RQ MERGED:   40035360
L1D RQ FORWARD:          0
L1D WQ ACCESS:   28256066
L1D WQ TO_CACHE:   28252552
L1D WQ MERGED:       3514
L1D WQ FORWARD:        495
L1I TOTAL     ACCESS:  115914430  HIT:  115913482  MISS:        948
L1I LOAD      ACCESS:  115914430  HIT:  115913482  MISS:        948
L1I RFO       ACCESS:          0  HIT:          0  MISS:          0
L1I PREFETCH  ACCESS:          0  HIT:          0  MISS:          0
L1I WRITEBACK ACCESS:          0  HIT:          0  MISS:          0
L1I PREFETCH  REQUESTED:          0  ISSUED:          0  USEFUL:          0  USELESS:          0
L1I TOTAL MSHR MERGED:       1577
L1I LOAD MSHR MERGED:       1577
L1I RFO MSHR MERGED:          0
L1I PREFETCH MSHR MERGED:          0
L1I WRITEBACK MSHR MERGED:          0
L1I TOTAL ACCESSES:  115916007 HITS:  115913482 MISSES:       2525
L1I LOAD ACCESSES:  115916007 HITS:  115913482 MISSES:       2525
L1I RFO ACCESSES:          0 HITS:          0 MISSES:          0
L1I PREFETCH ACCESSES:          0 HITS:          0 MISSES:          0
L1I WRITEBACK ACCESSES:          0 HITS:          0 MISSES:          0
L1I RQ ACCESS:  500000007
L1I RQ TO_CACHE:  115916007
L1I RQ MERGED:  384084000
L1I RQ FORWARD:          0
L1I WQ ACCESS:          0
L1I WQ TO_CACHE:          0
L1I WQ MERGED:          0
L1I WQ FORWARD:          0
L2C TOTAL     ACCESS:   16690458  HIT:    4846306  MISS:   11844152
L2C LOAD      ACCESS:     563319  HIT:      96541  MISS:     466778
L2C RFO       ACCESS:    2781702  HIT:     266775  MISS:    2514927
L2C PREFETCH  ACCESS:   10124823  HIT:    1264659  MISS:    8860164
L2C WRITEBACK ACCESS:    3220614  HIT:    3218331  MISS:       2283
L2C PREFETCH  REQUESTED:      28205  ISSUED:      28205  USEFUL:      93500  USELESS:    8764717
L2C TOTAL MSHR MERGED:        665
L2C LOAD MSHR MERGED:         17
L2C RFO MSHR MERGED:          0
L2C PREFETCH MSHR MERGED:        648
L2C WRITEBACK MSHR MERGED:          0
L2C TOTAL ACCESSES:   16692192 HITS:    4846351 MISSES:   11845841
L2C LOAD ACCESSES:     563340 HITS:      96562 MISSES:     466778
L2C RFO ACCESSES:    2781702 HITS:     266775 MISSES:    2514927
L2C PREFETCH ACCESSES:   10126536 HITS:    1264683 MISSES:    8861853
L2C WRITEBACK ACCESSES:    3220614 HITS:    3218331 MISSES:       2283
L2C RQ ACCESS:    3345042
L2C RQ TO_CACHE:    3345021
L2C RQ MERGED:          0
L2C RQ FORWARD:          0
L2C WQ ACCESS:    3220615
L2C WQ TO_CACHE:    3220615
L2C WQ MERGED:          0
L2C WQ FORWARD:         45
LLC TOTAL     ACCESS:   14743099  HIT:    6522448  MISS:    8220651
LLC LOAD      ACCESS:     466756  HIT:     193179  MISS:     273577
LLC RFO       ACCESS:    2514911  HIT:     855883  MISS:    1659028
LLC PREFETCH  ACCESS:    8861034  HIT:    2946286  MISS:    5914748
LLC WRITEBACK ACCESS:    2900398  HIT:    2527100  MISS:     373298
LLC PREFETCH  REQUESTED:          0  ISSUED:          0  USEFUL:      63595  USELESS:    5851325
LLC TOTAL MSHR MERGED:         10
LLC LOAD MSHR MERGED:          2
LLC RFO MSHR MERGED:          0
LLC PREFETCH MSHR MERGED:          8
LLC WRITEBACK MSHR MERGED:          0
LLC TOTAL ACCESSES:   14743178 HITS:    6522517 MISSES:    8220661
LLC LOAD ACCESSES:     466761 HITS:     193184 MISSES:     273577
LLC RFO ACCESSES:    2514927 HITS:     855899 MISSES:    1659028
LLC PREFETCH ACCESSES:    8861092 HITS:    2946334 MISSES:    5914758
LLC WRITEBACK ACCESSES:    2900398 HITS:    2527100 MISSES:     373298
LLC 0 RQ ACCESS:    2981688
LLC 0 RQ TO_CACHE:    2981667
LLC 0 RQ MERGED:          0
LLC 0 RQ FORWARD:          0
LLC WQ ACCESS:    2900398
LLC WQ TO_CACHE:    2900398
LLC WQ MERGED:          0
LLC WQ FORWARD:         69
Major fault: 0 Minor fault: 57518
CPU 0 L1D next line prefetcher final stats
CPU 0 L2C PC-based stride prefetcher final stats
All Misses: 8817686
All Hits: 7421601
SD Algo Stats - Switches: 0 SRR-Repls: 283416 BRR-Repls: 0

DRAM Statistics
 CHANNEL 0
 RQ ROW_BUFFER_HIT:    3762144  ROW_BUFFER_MISS:    4083422
 DBUS_CONGESTED:    4670545
 WQ ROW_BUFFER_HIT:     282390  ROW_BUFFER_MISS:    1848149  FULL:          0

 AVG_CONGESTED_CYCLE: 13
LOADS RETIRED: 157818985
INSTR RETIRED: 500000000
