
*** ChampSim Multicore Out-of-Order Simulator ***

Warmup Instructions: 100000000
Simulation Instructions: 500000000
Number of CPUs: 1
LLC sets: 2048
LLC ways: 16
Clean RRIP Policies: 303132303031323 Dirty RRIP Policies: 2303130323031303 PSEL Width: 10 Track Set: 4294967295 PSEL Mask: 1 Demote Mask: 3122130431221304DS Algo: 0Window size: 0
Off-chip DRAM Size: 4096 MB Channels: 1 Width: 64-bit Data Rate: 1600 MT/s

CPU 0 runs /mnt/beegfs/iconst01/spec2017/cactuBSSN.trace.gz
NOT SORTED
TRACE STRING: /mnt/beegfs/iconst01/spec2017/cactuBSSN.trace.gz
SORTED
TRACE STRING: /mnt/beegfs/iconst01/spec2017/cactuBSSN.trace.gz
INITIAL
TRACE STRING: /mnt/beegfs/iconst01/spec2017/cactuBSSN.trace.gz

champsim_seed used: 838

CPU 0 L1D next line prefetcher
CPU 0 L2C IP-based stride prefetcher
Initialize DRRIP state
Assign rand_sets[0]: 454  LLC: 2048
rand_sets[0]: 454
Assign rand_sets[1]: 1662  LLC: 2048
rand_sets[1]: 1662
Assign rand_sets[2]: 1921  LLC: 2048
rand_sets[2]: 1921
Assign rand_sets[3]: 1131  LLC: 2048
rand_sets[3]: 1131
Assign rand_sets[4]: 331  LLC: 2048
rand_sets[4]: 331
Assign rand_sets[5]: 1531  LLC: 2048
rand_sets[5]: 1531
Assign rand_sets[6]: 482  LLC: 2048
rand_sets[6]: 482
Assign rand_sets[7]: 1275  LLC: 2048
rand_sets[7]: 1275
Assign rand_sets[8]: 1876  LLC: 2048
rand_sets[8]: 1876
Assign rand_sets[9]: 2038  LLC: 2048
rand_sets[9]: 2038
Assign rand_sets[10]: 701  LLC: 2048
rand_sets[10]: 701
Assign rand_sets[11]: 479  LLC: 2048
rand_sets[11]: 479
Assign rand_sets[12]: 892  LLC: 2048
rand_sets[12]: 892
Assign rand_sets[13]: 1820  LLC: 2048
rand_sets[13]: 1820
Assign rand_sets[14]: 1505  LLC: 2048
rand_sets[14]: 1505
Assign rand_sets[15]: 1159  LLC: 2048
rand_sets[15]: 1159
Assign rand_sets[16]: 513  LLC: 2048
rand_sets[16]: 513
Assign rand_sets[17]: 703  LLC: 2048
rand_sets[17]: 703
Assign rand_sets[18]: 561  LLC: 2048
rand_sets[18]: 561
Assign rand_sets[19]: 990  LLC: 2048
rand_sets[19]: 990
Assign rand_sets[20]: 342  LLC: 2048
rand_sets[20]: 342
Assign rand_sets[21]: 882  LLC: 2048
rand_sets[21]: 882
Assign rand_sets[22]: 15  LLC: 2048
rand_sets[22]: 15
Assign rand_sets[23]: 71  LLC: 2048
rand_sets[23]: 71
Assign rand_sets[24]: 1127  LLC: 2048
rand_sets[24]: 1127
Assign rand_sets[25]: 1382  LLC: 2048
rand_sets[25]: 1382
Assign rand_sets[26]: 647  LLC: 2048
rand_sets[26]: 647
Assign rand_sets[27]: 857  LLC: 2048
rand_sets[27]: 857
Assign rand_sets[28]: 1450  LLC: 2048
rand_sets[28]: 1450
Assign rand_sets[29]: 1160  LLC: 2048
rand_sets[29]: 1160
Assign rand_sets[30]: 1852  LLC: 2048
rand_sets[30]: 1852
Assign rand_sets[31]: 1881  LLC: 2048
rand_sets[31]: 1881
Assign rand_sets[32]: 1770  LLC: 2048
rand_sets[32]: 1770
Assign rand_sets[33]: 1622  LLC: 2048
rand_sets[33]: 1622
Assign rand_sets[34]: 275  LLC: 2048
rand_sets[34]: 275
Assign rand_sets[35]: 635  LLC: 2048
rand_sets[35]: 635
Assign rand_sets[36]: 466  LLC: 2048
rand_sets[36]: 466
Assign rand_sets[37]: 1413  LLC: 2048
rand_sets[37]: 1413
Assign rand_sets[38]: 417  LLC: 2048
rand_sets[38]: 417
Assign rand_sets[39]: 472  LLC: 2048
rand_sets[39]: 472
Assign rand_sets[40]: 1340  LLC: 2048
rand_sets[40]: 1340
Assign rand_sets[41]: 852  LLC: 2048
rand_sets[41]: 852
Assign rand_sets[42]: 1365  LLC: 2048
rand_sets[42]: 1365
Assign rand_sets[43]: 47  LLC: 2048
rand_sets[43]: 47
Assign rand_sets[44]: 823  LLC: 2048
rand_sets[44]: 823
Assign rand_sets[45]: 686  LLC: 2048
rand_sets[45]: 686
Assign rand_sets[46]: 1637  LLC: 2048
rand_sets[46]: 1637
Assign rand_sets[47]: 1115  LLC: 2048
rand_sets[47]: 1115
Assign rand_sets[48]: 986  LLC: 2048
rand_sets[48]: 986
Assign rand_sets[49]: 258  LLC: 2048
rand_sets[49]: 258
Assign rand_sets[50]: 633  LLC: 2048
rand_sets[50]: 633
Assign rand_sets[51]: 920  LLC: 2048
rand_sets[51]: 920
Assign rand_sets[52]: 204  LLC: 2048
rand_sets[52]: 204
Assign rand_sets[53]: 227  LLC: 2048
rand_sets[53]: 227
Assign rand_sets[54]: 1818  LLC: 2048
rand_sets[54]: 1818
Assign rand_sets[55]: 886  LLC: 2048
rand_sets[55]: 886
Assign rand_sets[56]: 1422  LLC: 2048
rand_sets[56]: 1422
Assign rand_sets[57]: 607  LLC: 2048
rand_sets[57]: 607
Assign rand_sets[58]: 217  LLC: 2048
rand_sets[58]: 217
Assign rand_sets[59]: 1945  LLC: 2048
rand_sets[59]: 1945
Assign rand_sets[60]: 143  LLC: 2048
rand_sets[60]: 143
Assign rand_sets[61]: 1311  LLC: 2048
rand_sets[61]: 1311
Assign rand_sets[62]: 319  LLC: 2048
rand_sets[62]: 319
Assign rand_sets[63]: 1846  LLC: 2048
rand_sets[63]: 1846
 CLEAN-RRIP-POLICY-1: 0-3-0-3-1-3-2-3- CLEAN-RRIP-POLICY-2: 0-3-0-3-1-3-2-3-
 DIRTY-RRIP-POLICY-1: 2-3-0-3-1-3-0-3- DIRTY-RRIP-POLICY-2: 2-3-0-3-1-3-0-3-
 PSEL width: 10
Heartbeat CPU 0 instructions: 10000000 cycles: 6588313 heartbeat IPC: 1.51784 cumulative IPC: 1.51784 (Simulation time: 0 hr 0 min 24 sec) 
Heartbeat CPU 0 instructions: 20000000 cycles: 13180246 heartbeat IPC: 1.51701 cumulative IPC: 1.51742 (Simulation time: 0 hr 0 min 48 sec) 
Heartbeat CPU 0 instructions: 30000003 cycles: 19773798 heartbeat IPC: 1.51663 cumulative IPC: 1.51716 (Simulation time: 0 hr 1 min 12 sec) 
Heartbeat CPU 0 instructions: 40000000 cycles: 26365793 heartbeat IPC: 1.51699 cumulative IPC: 1.51712 (Simulation time: 0 hr 1 min 36 sec) 
Heartbeat CPU 0 instructions: 50000001 cycles: 32958775 heartbeat IPC: 1.51676 cumulative IPC: 1.51705 (Simulation time: 0 hr 2 min 0 sec) 
Heartbeat CPU 0 instructions: 60000000 cycles: 39558108 heartbeat IPC: 1.5153 cumulative IPC: 1.51676 (Simulation time: 0 hr 2 min 24 sec) 
Heartbeat CPU 0 instructions: 70000003 cycles: 46156612 heartbeat IPC: 1.5155 cumulative IPC: 1.51658 (Simulation time: 0 hr 2 min 48 sec) 
Heartbeat CPU 0 instructions: 80000000 cycles: 52755048 heartbeat IPC: 1.51551 cumulative IPC: 1.51644 (Simulation time: 0 hr 3 min 12 sec) 
Heartbeat CPU 0 instructions: 90000002 cycles: 59351489 heartbeat IPC: 1.51597 cumulative IPC: 1.51639 (Simulation time: 0 hr 3 min 36 sec) 
Heartbeat CPU 0 instructions: 100000000 cycles: 65946890 heartbeat IPC: 1.51621 cumulative IPC: 1.51637 (Simulation time: 0 hr 4 min 0 sec) 

Warmup complete CPU 0 instructions: 100000002 cycles: 65946891 (Simulation time: 0 hr 4 min 0 sec) 

Heartbeat CPU 0 instructions: 110000000 cycles: 79384462 heartbeat IPC: 0.744182 cumulative IPC: 0.744182 (Simulation time: 0 hr 4 min 30 sec) 
Heartbeat CPU 0 instructions: 120000000 cycles: 92730406 heartbeat IPC: 0.749291 cumulative IPC: 0.746728 (Simulation time: 0 hr 4 min 59 sec) 
Heartbeat CPU 0 instructions: 130000001 cycles: 106232645 heartbeat IPC: 0.740618 cumulative IPC: 0.74468 (Simulation time: 0 hr 5 min 29 sec) 
Heartbeat CPU 0 instructions: 140000000 cycles: 119548337 heartbeat IPC: 0.750994 cumulative IPC: 0.746248 (Simulation time: 0 hr 5 min 58 sec) 
Heartbeat CPU 0 instructions: 150000001 cycles: 132897764 heartbeat IPC: 0.749096 cumulative IPC: 0.746816 (Simulation time: 0 hr 6 min 28 sec) 
Heartbeat CPU 0 instructions: 160000000 cycles: 146294846 heartbeat IPC: 0.746431 cumulative IPC: 0.746752 (Simulation time: 0 hr 6 min 57 sec) 
Heartbeat CPU 0 instructions: 170000000 cycles: 159665242 heartbeat IPC: 0.747921 cumulative IPC: 0.746919 (Simulation time: 0 hr 7 min 27 sec) 
Heartbeat CPU 0 instructions: 180000000 cycles: 173036074 heartbeat IPC: 0.747897 cumulative IPC: 0.747041 (Simulation time: 0 hr 7 min 56 sec) 
Heartbeat CPU 0 instructions: 190000000 cycles: 186340379 heartbeat IPC: 0.751636 cumulative IPC: 0.747549 (Simulation time: 0 hr 8 min 25 sec) 
Heartbeat CPU 0 instructions: 200000000 cycles: 199767408 heartbeat IPC: 0.744766 cumulative IPC: 0.74727 (Simulation time: 0 hr 8 min 55 sec) 
Heartbeat CPU 0 instructions: 210000002 cycles: 213120837 heartbeat IPC: 0.748871 cumulative IPC: 0.747415 (Simulation time: 0 hr 9 min 24 sec) 
Heartbeat CPU 0 instructions: 220000000 cycles: 226454368 heartbeat IPC: 0.749989 cumulative IPC: 0.747629 (Simulation time: 0 hr 9 min 54 sec) 
Heartbeat CPU 0 instructions: 230000003 cycles: 239856012 heartbeat IPC: 0.746177 cumulative IPC: 0.747517 (Simulation time: 0 hr 10 min 23 sec) 
Heartbeat CPU 0 instructions: 240000000 cycles: 253218013 heartbeat IPC: 0.748391 cumulative IPC: 0.747579 (Simulation time: 0 hr 10 min 53 sec) 
Heartbeat CPU 0 instructions: 250000001 cycles: 266597687 heartbeat IPC: 0.747402 cumulative IPC: 0.747567 (Simulation time: 0 hr 11 min 22 sec) 
Heartbeat CPU 0 instructions: 260000000 cycles: 279972207 heartbeat IPC: 0.74769 cumulative IPC: 0.747575 (Simulation time: 0 hr 11 min 52 sec) 
Heartbeat CPU 0 instructions: 270000003 cycles: 293381644 heartbeat IPC: 0.745744 cumulative IPC: 0.747467 (Simulation time: 0 hr 12 min 21 sec) 
Heartbeat CPU 0 instructions: 280000000 cycles: 306762870 heartbeat IPC: 0.747315 cumulative IPC: 0.747459 (Simulation time: 0 hr 12 min 50 sec) 
Heartbeat CPU 0 instructions: 290000000 cycles: 320070885 heartbeat IPC: 0.751427 cumulative IPC: 0.747666 (Simulation time: 0 hr 13 min 19 sec) 
Heartbeat CPU 0 instructions: 300000000 cycles: 333536937 heartbeat IPC: 0.742608 cumulative IPC: 0.747412 (Simulation time: 0 hr 13 min 48 sec) 
Heartbeat CPU 0 instructions: 310000001 cycles: 346858988 heartbeat IPC: 0.750635 cumulative IPC: 0.747565 (Simulation time: 0 hr 14 min 17 sec) 
Heartbeat CPU 0 instructions: 320000000 cycles: 360201500 heartbeat IPC: 0.749484 cumulative IPC: 0.747652 (Simulation time: 0 hr 14 min 46 sec) 
Heartbeat CPU 0 instructions: 330000002 cycles: 373572338 heartbeat IPC: 0.747896 cumulative IPC: 0.747662 (Simulation time: 0 hr 15 min 15 sec) 
Heartbeat CPU 0 instructions: 340000000 cycles: 386954677 heartbeat IPC: 0.747253 cumulative IPC: 0.747645 (Simulation time: 0 hr 15 min 44 sec) 
Heartbeat CPU 0 instructions: 350000000 cycles: 400400721 heartbeat IPC: 0.743713 cumulative IPC: 0.747487 (Simulation time: 0 hr 16 min 13 sec) 
Heartbeat CPU 0 instructions: 360000000 cycles: 413769041 heartbeat IPC: 0.748037 cumulative IPC: 0.747508 (Simulation time: 0 hr 16 min 42 sec) 
Heartbeat CPU 0 instructions: 370000002 cycles: 427208151 heartbeat IPC: 0.744097 cumulative IPC: 0.747382 (Simulation time: 0 hr 17 min 11 sec) 
Heartbeat CPU 0 instructions: 380000000 cycles: 440582052 heartbeat IPC: 0.747725 cumulative IPC: 0.747394 (Simulation time: 0 hr 17 min 40 sec) 
Heartbeat CPU 0 instructions: 390000000 cycles: 453908828 heartbeat IPC: 0.750369 cumulative IPC: 0.747496 (Simulation time: 0 hr 18 min 9 sec) 
Heartbeat CPU 0 instructions: 400000000 cycles: 467292985 heartbeat IPC: 0.747152 cumulative IPC: 0.747485 (Simulation time: 0 hr 18 min 38 sec) 
Heartbeat CPU 0 instructions: 410000001 cycles: 480724532 heartbeat IPC: 0.744516 cumulative IPC: 0.747388 (Simulation time: 0 hr 19 min 7 sec) 
Heartbeat CPU 0 instructions: 420000000 cycles: 494052502 heartbeat IPC: 0.750302 cumulative IPC: 0.747479 (Simulation time: 0 hr 19 min 36 sec) 
Heartbeat CPU 0 instructions: 430000001 cycles: 507384849 heartbeat IPC: 0.750056 cumulative IPC: 0.747557 (Simulation time: 0 hr 20 min 5 sec) 
Heartbeat CPU 0 instructions: 440000000 cycles: 520674728 heartbeat IPC: 0.752452 cumulative IPC: 0.7477 (Simulation time: 0 hr 20 min 33 sec) 
Heartbeat CPU 0 instructions: 450000002 cycles: 534227715 heartbeat IPC: 0.737845 cumulative IPC: 0.747415 (Simulation time: 0 hr 21 min 2 sec) 
Heartbeat CPU 0 instructions: 460000000 cycles: 547591669 heartbeat IPC: 0.748281 cumulative IPC: 0.747439 (Simulation time: 0 hr 21 min 31 sec) 
Heartbeat CPU 0 instructions: 470000003 cycles: 560942886 heartbeat IPC: 0.748996 cumulative IPC: 0.747481 (Simulation time: 0 hr 22 min 0 sec) 
Heartbeat CPU 0 instructions: 480000000 cycles: 574330323 heartbeat IPC: 0.746969 cumulative IPC: 0.747467 (Simulation time: 0 hr 22 min 29 sec) 
Heartbeat CPU 0 instructions: 490000000 cycles: 587737996 heartbeat IPC: 0.745842 cumulative IPC: 0.747426 (Simulation time: 0 hr 22 min 58 sec) 
Heartbeat CPU 0 instructions: 500000000 cycles: 601120007 heartbeat IPC: 0.747272 cumulative IPC: 0.747422 (Simulation time: 0 hr 23 min 27 sec) 
Heartbeat CPU 0 instructions: 510000001 cycles: 614450633 heartbeat IPC: 0.750152 cumulative IPC: 0.747488 (Simulation time: 0 hr 23 min 56 sec) 
Heartbeat CPU 0 instructions: 520000000 cycles: 627950082 heartbeat IPC: 0.740771 cumulative IPC: 0.747327 (Simulation time: 0 hr 24 min 25 sec) 
Heartbeat CPU 0 instructions: 530000000 cycles: 641370260 heartbeat IPC: 0.745147 cumulative IPC: 0.747276 (Simulation time: 0 hr 24 min 54 sec) 
Heartbeat CPU 0 instructions: 540000000 cycles: 654759572 heartbeat IPC: 0.746864 cumulative IPC: 0.747267 (Simulation time: 0 hr 25 min 22 sec) 
Heartbeat CPU 0 instructions: 550000002 cycles: 668213247 heartbeat IPC: 0.743291 cumulative IPC: 0.747178 (Simulation time: 0 hr 25 min 51 sec) 
Heartbeat CPU 0 instructions: 560000000 cycles: 681556419 heartbeat IPC: 0.749447 cumulative IPC: 0.747227 (Simulation time: 0 hr 26 min 20 sec) 
Heartbeat CPU 0 instructions: 570000001 cycles: 694955902 heartbeat IPC: 0.746298 cumulative IPC: 0.747207 (Simulation time: 0 hr 26 min 49 sec) 
Heartbeat CPU 0 instructions: 580000000 cycles: 708410581 heartbeat IPC: 0.743236 cumulative IPC: 0.747124 (Simulation time: 0 hr 27 min 18 sec) 
Heartbeat CPU 0 instructions: 590000003 cycles: 721808992 heartbeat IPC: 0.746357 cumulative IPC: 0.747108 (Simulation time: 0 hr 27 min 47 sec) 
Heartbeat CPU 0 instructions: 600000000 cycles: 735241409 heartbeat IPC: 0.744467 cumulative IPC: 0.747055 (Simulation time: 0 hr 28 min 15 sec) 
Finished CPU 0 instructions: 500000000 cycles: 669294528 cumulative IPC: 0.747055 (Simulation time: 0 hr 28 min 15 sec) 

CPU 0 Branch Prediction Accuracy: 99.968% MPKI: 0.002246
Number of Branches: 3513331 Number of Mispredictions: 1123
Number of LOAD Instructions: 287251172
Number of LOAD Instructions (ROI): 287251172
Number of STORE Instructions: 51060820
Number of STORE Instructions (ROI): 51060820
Total Destination Memory Operands: 51166221
Total Destination Memory Operands (ROI): 51166221
Total Source Memory Operands: 287251172
Total Source Memory Operands (ROI): 287251172
Number of DEPENDED LOADS: 9546348
Number of DEPENDED LOADS (ROI): 9546348
Number of SQ_ADDED: 51166208
Number of SQ_ADDED (ROI): 51166208
Number of LQ_ADDED: 290408984
Number of LQ_ADDED (ROI): 290408984
Number of Instructions read from trace: 600000257

ChampSim completed all CPUs

Region of Interest Statistics

CPU 0 cumulative IPC: 0.747055 instructions: 500000000 cycles: 669294528
ITLB TOTAL     ACCESS:  109206234  HIT:  109206234  MISS:          0
ITLB LOAD      ACCESS:  109206234  HIT:  109206234  MISS:          0
ITLB RFO       ACCESS:          0  HIT:          0  MISS:          0
ITLB PREFETCH  ACCESS:          0  HIT:          0  MISS:          0
ITLB WRITEBACK ACCESS:          0  HIT:          0  MISS:          0
ITLB PREFETCH  REQUESTED:          0  ISSUED:          0  USEFUL:          0  USELESS:          0
ITLB TOTAL MSHR MERGED:          0
ITLB LOAD MSHR MERGED:          0
ITLB RFO MSHR MERGED:          0
ITLB PREFETCH MSHR MERGED:          0
ITLB WRITEBACK MSHR MERGED:          0
ITLB TOTAL ACCESSES:  109206234 HITS:  109206234 MISSES:          0
ITLB LOAD ACCESSES:  109206234 HITS:  109206234 MISSES:          0
ITLB RFO ACCESSES:          0 HITS:          0 MISSES:          0
ITLB PREFETCH ACCESSES:          0 HITS:          0 MISSES:          0
ITLB WRITEBACK ACCESSES:          0 HITS:          0 MISSES:          0
ITLB RQ ACCESS:  500000001
ITLB RQ TO_CACHE:  109206234
ITLB RQ MERGED:  390793767
ITLB RQ FORWARD:          0
ITLB WQ ACCESS:          0
ITLB WQ TO_CACHE:          0
ITLB WQ MERGED:          0
ITLB WQ FORWARD:          0
DTLB TOTAL     ACCESS:  171135134  HIT:  161118928  MISS:   10016206
DTLB LOAD      ACCESS:  143468193  HIT:  135592237  MISS:    7875956
DTLB RFO       ACCESS:   27666941  HIT:   25526691  MISS:    2140250
DTLB PREFETCH  ACCESS:          0  HIT:          0  MISS:          0
DTLB WRITEBACK ACCESS:          0  HIT:          0  MISS:          0
DTLB PREFETCH  REQUESTED:          0  ISSUED:          0  USEFUL:          0  USELESS:          0
DTLB TOTAL MSHR MERGED:     358114
DTLB LOAD MSHR MERGED:     358114
DTLB RFO MSHR MERGED:          0
DTLB PREFETCH MSHR MERGED:          0
DTLB WRITEBACK MSHR MERGED:          0
DTLB TOTAL ACCESSES:  171493248 HITS:  161118928 MISSES:   10374320
DTLB LOAD ACCESSES:  143826307 HITS:  135592237 MISSES:    8234070
DTLB RFO ACCESSES:   27666941 HITS:   25526691 MISSES:    2140250
DTLB PREFETCH ACCESSES:          0 HITS:          0 MISSES:          0
DTLB WRITEBACK ACCESSES:          0 HITS:          0 MISSES:          0
DTLB RQ ACCESS:  274081473
DTLB RQ TO_CACHE:  171493248
DTLB RQ MERGED:  102588225
DTLB RQ FORWARD:          0
DTLB WQ ACCESS:          0
DTLB WQ TO_CACHE:          0
DTLB WQ MERGED:          0
DTLB WQ FORWARD:          0
L1D TOTAL     ACCESS:  351045269  HIT:  283797803  MISS:   67247466
L1D LOAD      ACCESS:  175582974  HIT:  142524050  MISS:   33058924
L1D RFO       ACCESS:   42020489  HIT:   39214954  MISS:    2805535
L1D PREFETCH  ACCESS:  133441806  HIT:  102058799  MISS:   31383007
L1D WRITEBACK ACCESS:          0  HIT:          0  MISS:          0
L1D PREFETCH  REQUESTED:  176191137  ISSUED:  175252709  USEFUL:    2178285  USELESS:   29204724
L1D TOTAL MSHR MERGED:    1488834
L1D LOAD MSHR MERGED:     708650
L1D RFO MSHR MERGED:     348659
L1D PREFETCH MSHR MERGED:     431525
L1D WRITEBACK MSHR MERGED:          0
L1D TOTAL ACCESSES:  352647584 HITS:  283911284 MISSES:   68736300
L1D LOAD ACCESSES:  176198920 HITS:  142531833 MISSES:   33667087
L1D RFO ACCESSES:   42368481 HITS:   39214954 MISSES:    3153527
L1D PREFETCH ACCESSES:  134080183 HITS:  102164497 MISSES:   31915686
L1D WRITEBACK ACCESSES:          0 HITS:          0 MISSES:          0
L1D RQ ACCESS:  231443000
L1D RQ TO_CACHE:  176191137
L1D RQ MERGED:   55244080
L1D RQ FORWARD:          0
L1D WQ ACCESS:   42638475
L1D WQ TO_CACHE:   42368481
L1D WQ MERGED:     269994
L1D WQ FORWARD:     113481
L1I TOTAL     ACCESS:  109555318  HIT:   78039614  MISS:   31515704
L1I LOAD      ACCESS:  109555318  HIT:   78039614  MISS:   31515704
L1I RFO       ACCESS:          0  HIT:          0  MISS:          0
L1I PREFETCH  ACCESS:          0  HIT:          0  MISS:          0
L1I WRITEBACK ACCESS:          0  HIT:          0  MISS:          0
L1I PREFETCH  REQUESTED:          0  ISSUED:          0  USEFUL:          0  USELESS:          0
L1I TOTAL MSHR MERGED:   30773219
L1I LOAD MSHR MERGED:   30773219
L1I RFO MSHR MERGED:          0
L1I PREFETCH MSHR MERGED:          0
L1I WRITEBACK MSHR MERGED:          0
L1I TOTAL ACCESSES:  140328539 HITS:   78039614 MISSES:   62288925
L1I LOAD ACCESSES:  140328539 HITS:   78039614 MISSES:   62288925
L1I RFO ACCESSES:          0 HITS:          0 MISSES:          0
L1I PREFETCH ACCESSES:          0 HITS:          0 MISSES:          0
L1I WRITEBACK ACCESSES:          0 HITS:          0 MISSES:          0
L1I RQ ACCESS:  500000003
L1I RQ TO_CACHE:  140328539
L1I RQ MERGED:  359671464
L1I RQ FORWARD:          0
L1I WQ ACCESS:          0
L1I WQ TO_CACHE:          0
L1I WQ MERGED:          0
L1I WQ FORWARD:          0
L2C TOTAL     ACCESS:  113746337  HIT:  110772064  MISS:    2974273
L2C LOAD      ACCESS:   64472294  HIT:   63930808  MISS:     541486
L2C RFO       ACCESS:    2803122  HIT:    2201275  MISS:     601847
L2C PREFETCH  ACCESS:   43310243  HIT:   41485594  MISS:    1824649
L2C WRITEBACK ACCESS:    3160678  HIT:    3154387  MISS:       6291
L2C PREFETCH  REQUESTED:   15138384  ISSUED:   14628887  USEFUL:    1700268  USELESS:     124388
L2C TOTAL MSHR MERGED:      13341
L2C LOAD MSHR MERGED:          0
L2C RFO MSHR MERGED:          0
L2C PREFETCH MSHR MERGED:      13341
L2C WRITEBACK MSHR MERGED:          0
L2C TOTAL ACCESSES:  113957664 HITS:  110777799 MISSES:    3179865
L2C LOAD ACCESSES:   64474142 HITS:   63932655 MISSES:     541487
L2C RFO ACCESSES:    2804868 HITS:    2203021 MISSES:     601847
L2C PREFETCH ACCESSES:   43517976 HITS:   41487736 MISSES:    2030240
L2C WRITEBACK ACCESSES:    3160678 HITS:    3154387 MISSES:       6291
L2C RQ ACCESS:   67279011
L2C RQ TO_CACHE:   67275418
L2C RQ MERGED:          0
L2C RQ FORWARD:          0
L2C WQ ACCESS:    3160678
L2C WQ TO_CACHE:    3160678
L2C WQ MERGED:          0
L2C WQ FORWARD:       5735
LLC TOTAL     ACCESS:    3683498  HIT:    1482274  MISS:    2201224
LLC LOAD      ACCESS:     541449  HIT:     307808  MISS:     233641
LLC RFO       ACCESS:     519946  HIT:     228771  MISS:     291175
LLC PREFETCH  ACCESS:    2011287  HIT:     530125  MISS:    1481162
LLC WRITEBACK ACCESS:     610816  HIT:     415570  MISS:     195246
LLC PREFETCH  REQUESTED:          0  ISSUED:          0  USEFUL:      40574  USELESS:    1441328
LLC TOTAL MSHR MERGED:       4968
LLC LOAD MSHR MERGED:          0
LLC RFO MSHR MERGED:          0
LLC PREFETCH MSHR MERGED:       4968
LLC WRITEBACK MSHR MERGED:          0
LLC TOTAL ACCESSES:    3770469 HITS:    1564277 MISSES:    2206192
LLC LOAD ACCESSES:     541486 HITS:     307845 MISSES:     233641
LLC RFO ACCESSES:     601847 HITS:     310672 MISSES:     291175
LLC PREFETCH ACCESSES:    2016320 HITS:     530190 MISSES:    1486130
LLC WRITEBACK ACCESSES:     610816 HITS:     415570 MISSES:     195246
LLC 0 RQ ACCESS:    1143334
LLC 0 RQ TO_CACHE:    1061396
LLC 0 RQ MERGED:          0
LLC 0 RQ FORWARD:          0
LLC WQ ACCESS:     610816
LLC WQ TO_CACHE:     610816
LLC WQ MERGED:          0
LLC WQ FORWARD:      82003
Major fault: 0 Minor fault: 12800
CPU 0 L1D next line prefetcher final stats
CPU 0 L2C PC-based stride prefetcher final stats
All Misses: 2674300
All Hits: 1859756
SD Algo Stats - Switches: 1 SRR-Repls: 83888 BRR-Repls: 220942

DRAM Statistics
 CHANNEL 0
 RQ ROW_BUFFER_HIT:     936756  ROW_BUFFER_MISS:    1066199
 DBUS_CONGESTED:    1004278
 WQ ROW_BUFFER_HIT:      51229  ROW_BUFFER_MISS:     253456  FULL:          0

 AVG_CONGESTED_CYCLE: 13
LOADS RETIRED: 239375970
INSTR RETIRED: 500000000
