
*** ChampSim Multicore Out-of-Order Simulator ***

Warmup Instructions: 100000000
Simulation Instructions: 500000000
Number of CPUs: 1
LLC sets: 2048
LLC ways: 16
Clean RRIP Policies: 303132303031323 Dirty RRIP Policies: 2303130323031303 PSEL Width: 10 Track Set: 4294967295 PSEL Mask: 1 Demote Mask: 3122130431221304DS Algo: 0Window size: 0
Off-chip DRAM Size: 4096 MB Channels: 1 Width: 64-bit Data Rate: 1600 MT/s

CPU 0 runs /mnt/beegfs/iconst01/spec2017/Cam4.trace.gz
NOT SORTED
TRACE STRING: /mnt/beegfs/iconst01/spec2017/Cam4.trace.gz
SORTED
TRACE STRING: /mnt/beegfs/iconst01/spec2017/Cam4.trace.gz
INITIAL
TRACE STRING: /mnt/beegfs/iconst01/spec2017/Cam4.trace.gz

champsim_seed used: 325

CPU 0 L1D next line prefetcher
CPU 0 L2C IP-based stride prefetcher
Initialize DRRIP state
Assign rand_sets[0]: 454  LLC: 2048
rand_sets[0]: 454
Assign rand_sets[1]: 1662  LLC: 2048
rand_sets[1]: 1662
Assign rand_sets[2]: 1921  LLC: 2048
rand_sets[2]: 1921
Assign rand_sets[3]: 1131  LLC: 2048
rand_sets[3]: 1131
Assign rand_sets[4]: 331  LLC: 2048
rand_sets[4]: 331
Assign rand_sets[5]: 1531  LLC: 2048
rand_sets[5]: 1531
Assign rand_sets[6]: 482  LLC: 2048
rand_sets[6]: 482
Assign rand_sets[7]: 1275  LLC: 2048
rand_sets[7]: 1275
Assign rand_sets[8]: 1876  LLC: 2048
rand_sets[8]: 1876
Assign rand_sets[9]: 2038  LLC: 2048
rand_sets[9]: 2038
Assign rand_sets[10]: 701  LLC: 2048
rand_sets[10]: 701
Assign rand_sets[11]: 479  LLC: 2048
rand_sets[11]: 479
Assign rand_sets[12]: 892  LLC: 2048
rand_sets[12]: 892
Assign rand_sets[13]: 1820  LLC: 2048
rand_sets[13]: 1820
Assign rand_sets[14]: 1505  LLC: 2048
rand_sets[14]: 1505
Assign rand_sets[15]: 1159  LLC: 2048
rand_sets[15]: 1159
Assign rand_sets[16]: 513  LLC: 2048
rand_sets[16]: 513
Assign rand_sets[17]: 703  LLC: 2048
rand_sets[17]: 703
Assign rand_sets[18]: 561  LLC: 2048
rand_sets[18]: 561
Assign rand_sets[19]: 990  LLC: 2048
rand_sets[19]: 990
Assign rand_sets[20]: 342  LLC: 2048
rand_sets[20]: 342
Assign rand_sets[21]: 882  LLC: 2048
rand_sets[21]: 882
Assign rand_sets[22]: 15  LLC: 2048
rand_sets[22]: 15
Assign rand_sets[23]: 71  LLC: 2048
rand_sets[23]: 71
Assign rand_sets[24]: 1127  LLC: 2048
rand_sets[24]: 1127
Assign rand_sets[25]: 1382  LLC: 2048
rand_sets[25]: 1382
Assign rand_sets[26]: 647  LLC: 2048
rand_sets[26]: 647
Assign rand_sets[27]: 857  LLC: 2048
rand_sets[27]: 857
Assign rand_sets[28]: 1450  LLC: 2048
rand_sets[28]: 1450
Assign rand_sets[29]: 1160  LLC: 2048
rand_sets[29]: 1160
Assign rand_sets[30]: 1852  LLC: 2048
rand_sets[30]: 1852
Assign rand_sets[31]: 1881  LLC: 2048
rand_sets[31]: 1881
Assign rand_sets[32]: 1770  LLC: 2048
rand_sets[32]: 1770
Assign rand_sets[33]: 1622  LLC: 2048
rand_sets[33]: 1622
Assign rand_sets[34]: 275  LLC: 2048
rand_sets[34]: 275
Assign rand_sets[35]: 635  LLC: 2048
rand_sets[35]: 635
Assign rand_sets[36]: 466  LLC: 2048
rand_sets[36]: 466
Assign rand_sets[37]: 1413  LLC: 2048
rand_sets[37]: 1413
Assign rand_sets[38]: 417  LLC: 2048
rand_sets[38]: 417
Assign rand_sets[39]: 472  LLC: 2048
rand_sets[39]: 472
Assign rand_sets[40]: 1340  LLC: 2048
rand_sets[40]: 1340
Assign rand_sets[41]: 852  LLC: 2048
rand_sets[41]: 852
Assign rand_sets[42]: 1365  LLC: 2048
rand_sets[42]: 1365
Assign rand_sets[43]: 47  LLC: 2048
rand_sets[43]: 47
Assign rand_sets[44]: 823  LLC: 2048
rand_sets[44]: 823
Assign rand_sets[45]: 686  LLC: 2048
rand_sets[45]: 686
Assign rand_sets[46]: 1637  LLC: 2048
rand_sets[46]: 1637
Assign rand_sets[47]: 1115  LLC: 2048
rand_sets[47]: 1115
Assign rand_sets[48]: 986  LLC: 2048
rand_sets[48]: 986
Assign rand_sets[49]: 258  LLC: 2048
rand_sets[49]: 258
Assign rand_sets[50]: 633  LLC: 2048
rand_sets[50]: 633
Assign rand_sets[51]: 920  LLC: 2048
rand_sets[51]: 920
Assign rand_sets[52]: 204  LLC: 2048
rand_sets[52]: 204
Assign rand_sets[53]: 227  LLC: 2048
rand_sets[53]: 227
Assign rand_sets[54]: 1818  LLC: 2048
rand_sets[54]: 1818
Assign rand_sets[55]: 886  LLC: 2048
rand_sets[55]: 886
Assign rand_sets[56]: 1422  LLC: 2048
rand_sets[56]: 1422
Assign rand_sets[57]: 607  LLC: 2048
rand_sets[57]: 607
Assign rand_sets[58]: 217  LLC: 2048
rand_sets[58]: 217
Assign rand_sets[59]: 1945  LLC: 2048
rand_sets[59]: 1945
Assign rand_sets[60]: 143  LLC: 2048
rand_sets[60]: 143
Assign rand_sets[61]: 1311  LLC: 2048
rand_sets[61]: 1311
Assign rand_sets[62]: 319  LLC: 2048
rand_sets[62]: 319
Assign rand_sets[63]: 1846  LLC: 2048
rand_sets[63]: 1846
 CLEAN-RRIP-POLICY-1: 0-3-0-3-1-3-2-3- CLEAN-RRIP-POLICY-2: 0-3-0-3-1-3-2-3-
 DIRTY-RRIP-POLICY-1: 2-3-0-3-1-3-0-3- DIRTY-RRIP-POLICY-2: 2-3-0-3-1-3-0-3-
 PSEL width: 10
Heartbeat CPU 0 instructions: 10000000 cycles: 4859328 heartbeat IPC: 2.0579 cumulative IPC: 2.0579 (Simulation time: 0 hr 0 min 16 sec) 
Heartbeat CPU 0 instructions: 20000000 cycles: 9791092 heartbeat IPC: 2.02767 cumulative IPC: 2.04267 (Simulation time: 0 hr 0 min 33 sec) 
Heartbeat CPU 0 instructions: 30000001 cycles: 14563879 heartbeat IPC: 2.09521 cumulative IPC: 2.05989 (Simulation time: 0 hr 0 min 47 sec) 
Heartbeat CPU 0 instructions: 40000000 cycles: 19401237 heartbeat IPC: 2.06724 cumulative IPC: 2.06172 (Simulation time: 0 hr 1 min 4 sec) 
Heartbeat CPU 0 instructions: 50000000 cycles: 24258188 heartbeat IPC: 2.0589 cumulative IPC: 2.06116 (Simulation time: 0 hr 1 min 20 sec) 
Heartbeat CPU 0 instructions: 60000000 cycles: 29184055 heartbeat IPC: 2.0301 cumulative IPC: 2.05592 (Simulation time: 0 hr 1 min 37 sec) 
Heartbeat CPU 0 instructions: 70000001 cycles: 33959515 heartbeat IPC: 2.09404 cumulative IPC: 2.06128 (Simulation time: 0 hr 1 min 51 sec) 
Heartbeat CPU 0 instructions: 80000000 cycles: 38796096 heartbeat IPC: 2.06758 cumulative IPC: 2.06206 (Simulation time: 0 hr 2 min 8 sec) 
Heartbeat CPU 0 instructions: 90000002 cycles: 43650366 heartbeat IPC: 2.06004 cumulative IPC: 2.06184 (Simulation time: 0 hr 2 min 25 sec) 
Heartbeat CPU 0 instructions: 100000000 cycles: 48569480 heartbeat IPC: 2.03289 cumulative IPC: 2.05891 (Simulation time: 0 hr 2 min 41 sec) 

Warmup complete CPU 0 instructions: 100000001 cycles: 48569481 (Simulation time: 0 hr 2 min 41 sec) 

Heartbeat CPU 0 instructions: 110000000 cycles: 61964820 heartbeat IPC: 0.746528 cumulative IPC: 0.746528 (Simulation time: 0 hr 3 min 4 sec) 
Heartbeat CPU 0 instructions: 120000000 cycles: 75826089 heartbeat IPC: 0.721435 cumulative IPC: 0.733767 (Simulation time: 0 hr 3 min 28 sec) 
Heartbeat CPU 0 instructions: 130000000 cycles: 89665247 heartbeat IPC: 0.722587 cumulative IPC: 0.730002 (Simulation time: 0 hr 3 min 53 sec) 
Heartbeat CPU 0 instructions: 140000000 cycles: 104022175 heartbeat IPC: 0.696528 cumulative IPC: 0.721336 (Simulation time: 0 hr 4 min 18 sec) 
Heartbeat CPU 0 instructions: 150000003 cycles: 117452739 heartbeat IPC: 0.744571 cumulative IPC: 0.725866 (Simulation time: 0 hr 4 min 40 sec) 
Heartbeat CPU 0 instructions: 160000000 cycles: 131291262 heartbeat IPC: 0.72262 cumulative IPC: 0.725323 (Simulation time: 0 hr 5 min 5 sec) 
Heartbeat CPU 0 instructions: 170000001 cycles: 145146611 heartbeat IPC: 0.721743 cumulative IPC: 0.724809 (Simulation time: 0 hr 5 min 30 sec) 
Heartbeat CPU 0 instructions: 180000000 cycles: 159473377 heartbeat IPC: 0.697994 cumulative IPC: 0.721345 (Simulation time: 0 hr 5 min 54 sec) 
Heartbeat CPU 0 instructions: 190000003 cycles: 172864992 heartbeat IPC: 0.746736 cumulative IPC: 0.724081 (Simulation time: 0 hr 6 min 17 sec) 
Heartbeat CPU 0 instructions: 200000000 cycles: 186693333 heartbeat IPC: 0.723152 cumulative IPC: 0.723988 (Simulation time: 0 hr 6 min 42 sec) 
Heartbeat CPU 0 instructions: 210000002 cycles: 200541118 heartbeat IPC: 0.722137 cumulative IPC: 0.723819 (Simulation time: 0 hr 7 min 6 sec) 
Heartbeat CPU 0 instructions: 220000000 cycles: 214867762 heartbeat IPC: 0.698 cumulative IPC: 0.721595 (Simulation time: 0 hr 7 min 31 sec) 
Heartbeat CPU 0 instructions: 230000001 cycles: 228202542 heartbeat IPC: 0.749919 cumulative IPC: 0.723698 (Simulation time: 0 hr 7 min 54 sec) 
Heartbeat CPU 0 instructions: 240000000 cycles: 242005835 heartbeat IPC: 0.724465 cumulative IPC: 0.723752 (Simulation time: 0 hr 8 min 18 sec) 
Heartbeat CPU 0 instructions: 250000001 cycles: 255806338 heartbeat IPC: 0.724611 cumulative IPC: 0.723809 (Simulation time: 0 hr 8 min 43 sec) 
Heartbeat CPU 0 instructions: 260000000 cycles: 270015506 heartbeat IPC: 0.703771 cumulative IPC: 0.722524 (Simulation time: 0 hr 9 min 7 sec) 
Heartbeat CPU 0 instructions: 270000003 cycles: 283503762 heartbeat IPC: 0.741386 cumulative IPC: 0.723607 (Simulation time: 0 hr 9 min 30 sec) 
Heartbeat CPU 0 instructions: 280000000 cycles: 297318997 heartbeat IPC: 0.723838 cumulative IPC: 0.72362 (Simulation time: 0 hr 9 min 55 sec) 
Heartbeat CPU 0 instructions: 290000001 cycles: 311149094 heartbeat IPC: 0.723061 cumulative IPC: 0.72359 (Simulation time: 0 hr 10 min 19 sec) 
Heartbeat CPU 0 instructions: 300000000 cycles: 325290851 heartbeat IPC: 0.707126 cumulative IPC: 0.722749 (Simulation time: 0 hr 10 min 44 sec) 
Heartbeat CPU 0 instructions: 310000000 cycles: 338796534 heartbeat IPC: 0.740429 cumulative IPC: 0.723571 (Simulation time: 0 hr 11 min 6 sec) 
Heartbeat CPU 0 instructions: 320000000 cycles: 352645867 heartbeat IPC: 0.722056 cumulative IPC: 0.723502 (Simulation time: 0 hr 11 min 31 sec) 
Heartbeat CPU 0 instructions: 330000000 cycles: 366503036 heartbeat IPC: 0.721648 cumulative IPC: 0.723422 (Simulation time: 0 hr 11 min 55 sec) 
Heartbeat CPU 0 instructions: 340000000 cycles: 380617875 heartbeat IPC: 0.708474 cumulative IPC: 0.722786 (Simulation time: 0 hr 12 min 20 sec) 
Heartbeat CPU 0 instructions: 350000000 cycles: 394189408 heartbeat IPC: 0.736836 cumulative IPC: 0.723338 (Simulation time: 0 hr 12 min 42 sec) 
Heartbeat CPU 0 instructions: 360000000 cycles: 408062864 heartbeat IPC: 0.720801 cumulative IPC: 0.72324 (Simulation time: 0 hr 13 min 6 sec) 
Heartbeat CPU 0 instructions: 370000003 cycles: 421907456 heartbeat IPC: 0.722304 cumulative IPC: 0.723205 (Simulation time: 0 hr 13 min 31 sec) 
Heartbeat CPU 0 instructions: 380000000 cycles: 435982215 heartbeat IPC: 0.710492 cumulative IPC: 0.722743 (Simulation time: 0 hr 13 min 55 sec) 
Heartbeat CPU 0 instructions: 390000003 cycles: 449550919 heartbeat IPC: 0.73699 cumulative IPC: 0.723225 (Simulation time: 0 hr 14 min 17 sec) 
Heartbeat CPU 0 instructions: 400000000 cycles: 463407682 heartbeat IPC: 0.721669 cumulative IPC: 0.723173 (Simulation time: 0 hr 14 min 42 sec) 
Heartbeat CPU 0 instructions: 410000000 cycles: 477211148 heartbeat IPC: 0.724456 cumulative IPC: 0.723215 (Simulation time: 0 hr 15 min 6 sec) 
Heartbeat CPU 0 instructions: 420000000 cycles: 491272940 heartbeat IPC: 0.711147 cumulative IPC: 0.722831 (Simulation time: 0 hr 15 min 30 sec) 
Heartbeat CPU 0 instructions: 430000003 cycles: 504872960 heartbeat IPC: 0.735293 cumulative IPC: 0.723203 (Simulation time: 0 hr 15 min 52 sec) 
Heartbeat CPU 0 instructions: 440000000 cycles: 518730204 heartbeat IPC: 0.721644 cumulative IPC: 0.723157 (Simulation time: 0 hr 16 min 17 sec) 
Heartbeat CPU 0 instructions: 450000000 cycles: 532553835 heartbeat IPC: 0.723399 cumulative IPC: 0.723164 (Simulation time: 0 hr 16 min 41 sec) 
Heartbeat CPU 0 instructions: 460000000 cycles: 546595178 heartbeat IPC: 0.712183 cumulative IPC: 0.722854 (Simulation time: 0 hr 17 min 5 sec) 
Heartbeat CPU 0 instructions: 470000001 cycles: 560133927 heartbeat IPC: 0.738621 cumulative IPC: 0.723272 (Simulation time: 0 hr 17 min 27 sec) 
Heartbeat CPU 0 instructions: 480000000 cycles: 573962176 heartbeat IPC: 0.723157 cumulative IPC: 0.723269 (Simulation time: 0 hr 17 min 51 sec) 
Heartbeat CPU 0 instructions: 490000002 cycles: 587765013 heartbeat IPC: 0.724489 cumulative IPC: 0.7233 (Simulation time: 0 hr 18 min 15 sec) 
Heartbeat CPU 0 instructions: 500000000 cycles: 601817689 heartbeat IPC: 0.711608 cumulative IPC: 0.723003 (Simulation time: 0 hr 18 min 40 sec) 
Heartbeat CPU 0 instructions: 510000002 cycles: 615380036 heartbeat IPC: 0.737336 cumulative IPC: 0.723346 (Simulation time: 0 hr 19 min 2 sec) 
Heartbeat CPU 0 instructions: 520000000 cycles: 629196778 heartbeat IPC: 0.723759 cumulative IPC: 0.723356 (Simulation time: 0 hr 19 min 26 sec) 
Heartbeat CPU 0 instructions: 530000003 cycles: 642988521 heartbeat IPC: 0.725072 cumulative IPC: 0.723395 (Simulation time: 0 hr 19 min 50 sec) 
Heartbeat CPU 0 instructions: 540000000 cycles: 657057757 heartbeat IPC: 0.71077 cumulative IPC: 0.723104 (Simulation time: 0 hr 20 min 14 sec) 
Heartbeat CPU 0 instructions: 550000003 cycles: 670611457 heartbeat IPC: 0.737806 cumulative IPC: 0.723424 (Simulation time: 0 hr 20 min 37 sec) 
Heartbeat CPU 0 instructions: 560000000 cycles: 684410117 heartbeat IPC: 0.724708 cumulative IPC: 0.723452 (Simulation time: 0 hr 21 min 1 sec) 
Heartbeat CPU 0 instructions: 570000001 cycles: 698234155 heartbeat IPC: 0.723378 cumulative IPC: 0.72345 (Simulation time: 0 hr 21 min 25 sec) 
Heartbeat CPU 0 instructions: 580000000 cycles: 712335300 heartbeat IPC: 0.709162 cumulative IPC: 0.723147 (Simulation time: 0 hr 21 min 49 sec) 
Heartbeat CPU 0 instructions: 590000000 cycles: 725846371 heartbeat IPC: 0.740134 cumulative IPC: 0.723485 (Simulation time: 0 hr 22 min 11 sec) 
Heartbeat CPU 0 instructions: 600000000 cycles: 739645236 heartbeat IPC: 0.724697 cumulative IPC: 0.72351 (Simulation time: 0 hr 22 min 35 sec) 
Finished CPU 0 instructions: 500000001 cycles: 691075763 cumulative IPC: 0.72351 (Simulation time: 0 hr 22 min 35 sec) 

CPU 0 Branch Prediction Accuracy: 97.5275% MPKI: 2.1997
Number of Branches: 44482865 Number of Mispredictions: 1099852
Number of LOAD Instructions: 144955155
Number of LOAD Instructions (ROI): 144955155
Number of STORE Instructions: 55921098
Number of STORE Instructions (ROI): 55921098
Total Destination Memory Operands: 57111147
Total Destination Memory Operands (ROI): 57111147
Total Source Memory Operands: 144955155
Total Source Memory Operands (ROI): 144955155
Number of DEPENDED LOADS: 13454974
Number of DEPENDED LOADS (ROI): 13454974
Number of SQ_ADDED: 57111126
Number of SQ_ADDED (ROI): 57111126
Number of LQ_ADDED: 175404016
Number of LQ_ADDED (ROI): 175404016
Number of Instructions read from trace: 600000256

ChampSim completed all CPUs

Region of Interest Statistics

CPU 0 cumulative IPC: 0.72351 instructions: 500000001 cycles: 691075763
ITLB TOTAL     ACCESS:  136104727  HIT:  136102174  MISS:       2553
ITLB LOAD      ACCESS:  136104727  HIT:  136102174  MISS:       2553
ITLB RFO       ACCESS:          0  HIT:          0  MISS:          0
ITLB PREFETCH  ACCESS:          0  HIT:          0  MISS:          0
ITLB WRITEBACK ACCESS:          0  HIT:          0  MISS:          0
ITLB PREFETCH  REQUESTED:          0  ISSUED:          0  USEFUL:          0  USELESS:          0
ITLB TOTAL MSHR MERGED:       4369
ITLB LOAD MSHR MERGED:       4369
ITLB RFO MSHR MERGED:          0
ITLB PREFETCH MSHR MERGED:          0
ITLB WRITEBACK MSHR MERGED:          0
ITLB TOTAL ACCESSES:  136109096 HITS:  136102174 MISSES:       6922
ITLB LOAD ACCESSES:  136109096 HITS:  136102174 MISSES:       6922
ITLB RFO ACCESSES:          0 HITS:          0 MISSES:          0
ITLB PREFETCH ACCESSES:          0 HITS:          0 MISSES:          0
ITLB WRITEBACK ACCESSES:          0 HITS:          0 MISSES:          0
ITLB RQ ACCESS:  500000202
ITLB RQ TO_CACHE:  136109096
ITLB RQ MERGED:  363891106
ITLB RQ FORWARD:          0
ITLB WQ ACCESS:          0
ITLB WQ TO_CACHE:          0
ITLB WQ MERGED:          0
ITLB WQ FORWARD:          0
DTLB TOTAL     ACCESS:  111552697  HIT:  111416501  MISS:     136196
DTLB LOAD      ACCESS:   78955868  HIT:   78830240  MISS:     125628
DTLB RFO       ACCESS:   32596829  HIT:   32586261  MISS:      10568
DTLB PREFETCH  ACCESS:          0  HIT:          0  MISS:          0
DTLB WRITEBACK ACCESS:          0  HIT:          0  MISS:          0
DTLB PREFETCH  REQUESTED:          0  ISSUED:          0  USEFUL:          0  USELESS:          0
DTLB TOTAL MSHR MERGED:      63470
DTLB LOAD MSHR MERGED:      50901
DTLB RFO MSHR MERGED:      12569
DTLB PREFETCH MSHR MERGED:          0
DTLB WRITEBACK MSHR MERGED:          0
DTLB TOTAL ACCESSES:  111616167 HITS:  111416501 MISSES:     199666
DTLB LOAD ACCESSES:   79006769 HITS:   78830240 MISSES:     176529
DTLB RFO ACCESSES:   32609398 HITS:   32586261 MISSES:      23137
DTLB PREFETCH ACCESSES:          0 HITS:          0 MISSES:          0
DTLB WRITEBACK ACCESSES:          0 HITS:          0 MISSES:          0
DTLB RQ ACCESS:  157180464
DTLB RQ TO_CACHE:  111616167
DTLB RQ MERGED:   45564297
DTLB RQ FORWARD:          0
DTLB WQ ACCESS:          0
DTLB WQ TO_CACHE:          0
DTLB WQ MERGED:          0
DTLB WQ FORWARD:          0
L1D TOTAL     ACCESS:  198120150  HIT:  188279213  MISS:    9840937
L1D LOAD      ACCESS:   79936165  HIT:   75653949  MISS:    4282216
L1D RFO       ACCESS:   44499794  HIT:   43599533  MISS:     900261
L1D PREFETCH  ACCESS:   73684191  HIT:   69025731  MISS:    4658460
L1D WRITEBACK ACCESS:          0  HIT:          0  MISS:          0
L1D PREFETCH  REQUESTED:   80353849  ISSUED:   79898136  USEFUL:    1800172  USELESS:    2858197
L1D TOTAL MSHR MERGED:    2628742
L1D LOAD MSHR MERGED:     561401
L1D RFO MSHR MERGED:    1452668
L1D PREFETCH MSHR MERGED:     614673
L1D WRITEBACK MSHR MERGED:          0
L1D TOTAL ACCESSES:  200770585 HITS:  188300906 MISSES:   12469679
L1D LOAD ACCESSES:   80366958 HITS:   75667058 MISSES:    4699900
L1D RFO ACCESSES:   45949606 HITS:   43599533 MISSES:    2350073
L1D PREFETCH ACCESSES:   74454021 HITS:   69034315 MISSES:    5419706
L1D WRITEBACK ACCESSES:          0 HITS:          0 MISSES:          0
L1D RQ ACCESS:  109538494
L1D RQ TO_CACHE:   80353849
L1D RQ MERGED:   29171536
L1D RQ FORWARD:          0
L1D WQ ACCESS:   47641970
L1D WQ TO_CACHE:   45949606
L1D WQ MERGED:    1692364
L1D WQ FORWARD:      21693
L1I TOTAL     ACCESS:  161572525  HIT:  161308558  MISS:     263967
L1I LOAD      ACCESS:  161572525  HIT:  161308558  MISS:     263967
L1I RFO       ACCESS:          0  HIT:          0  MISS:          0
L1I PREFETCH  ACCESS:          0  HIT:          0  MISS:          0
L1I WRITEBACK ACCESS:          0  HIT:          0  MISS:          0
L1I PREFETCH  REQUESTED:          0  ISSUED:          0  USEFUL:          0  USELESS:          0
L1I TOTAL MSHR MERGED:     262852
L1I LOAD MSHR MERGED:     262852
L1I RFO MSHR MERGED:          0
L1I PREFETCH MSHR MERGED:          0
L1I WRITEBACK MSHR MERGED:          0
L1I TOTAL ACCESSES:  161835377 HITS:  161308558 MISSES:     526819
L1I LOAD ACCESSES:  161835377 HITS:  161308558 MISSES:     526819
L1I RFO ACCESSES:          0 HITS:          0 MISSES:          0
L1I PREFETCH ACCESSES:          0 HITS:          0 MISSES:          0
L1I WRITEBACK ACCESSES:          0 HITS:          0 MISSES:          0
L1I RQ ACCESS:  500000202
L1I RQ TO_CACHE:  161835377
L1I RQ MERGED:  338164825
L1I RQ FORWARD:          0
L1I WQ ACCESS:          0
L1I WQ TO_CACHE:          0
L1I WQ MERGED:          0
L1I WQ FORWARD:          0
L2C TOTAL     ACCESS:   11771663  HIT:   10382361  MISS:    1389302
L2C LOAD      ACCESS:    4402402  HIT:    3905702  MISS:     496700
L2C RFO       ACCESS:     897337  HIT:     536294  MISS:     361043
L2C PREFETCH  ACCESS:    5284434  HIT:    4755835  MISS:     528599
L2C WRITEBACK ACCESS:    1187490  HIT:    1184530  MISS:       2960
L2C PREFETCH  REQUESTED:     504597  ISSUED:     504597  USEFUL:     114830  USELESS:     413963
L2C TOTAL MSHR MERGED:       1865
L2C LOAD MSHR MERGED:        355
L2C RFO MSHR MERGED:          0
L2C PREFETCH MSHR MERGED:       1510
L2C WRITEBACK MSHR MERGED:          0
L2C TOTAL ACCESSES:   11776284 HITS:   10382578 MISSES:    1393706
L2C LOAD ACCESSES:    4402466 HITS:    3905766 MISSES:     496700
L2C RFO ACCESSES:     897405 HITS:     536362 MISSES:     361043
L2C PREFETCH ACCESSES:    5288923 HITS:    4755920 MISSES:     533003
L2C WRITEBACK ACCESSES:    1187490 HITS:    1184530 MISSES:       2960
L2C RQ ACCESS:    5299871
L2C RQ TO_CACHE:    5299739
L2C RQ MERGED:          0
L2C RQ FORWARD:          0
L2C WQ ACCESS:    1187490
L2C WQ TO_CACHE:    1187490
L2C WQ MERGED:          0
L2C WQ FORWARD:        217
LLC TOTAL     ACCESS:    1849519  HIT:     925916  MISS:     923603
LLC LOAD      ACCESS:     496344  HIT:     176110  MISS:     320234
LLC RFO       ACCESS:     361040  HIT:     191558  MISS:     169482
LLC PREFETCH  ACCESS:     531402  HIT:     267018  MISS:     264384
LLC WRITEBACK ACCESS:     460733  HIT:     291230  MISS:     169503
LLC PREFETCH  REQUESTED:          0  ISSUED:          0  USEFUL:       2246  USELESS:     260644
LLC TOTAL MSHR MERGED:         53
LLC LOAD MSHR MERGED:         27
LLC RFO MSHR MERGED:          0
LLC PREFETCH MSHR MERGED:         26
LLC WRITEBACK MSHR MERGED:          0
LLC TOTAL ACCESSES:    1849603 HITS:     925947 MISSES:     923656
LLC LOAD ACCESSES:     496345 HITS:     176111 MISSES:     320234
LLC RFO ACCESSES:     361043 HITS:     191561 MISSES:     169482
LLC PREFETCH ACCESSES:     531482 HITS:     267045 MISSES:     264437
LLC WRITEBACK ACCESSES:     460733 HITS:     291230 MISSES:     169503
LLC 0 RQ ACCESS:     857388
LLC 0 RQ TO_CACHE:     857384
LLC 0 RQ MERGED:          0
LLC 0 RQ FORWARD:          0
LLC WQ ACCESS:     460733
LLC WQ TO_CACHE:     460733
LLC WQ MERGED:          0
LLC WQ FORWARD:         31
Major fault: 0 Minor fault: 3073
CPU 0 L1D next line prefetcher final stats
CPU 0 L2C PC-based stride prefetcher final stats
All Misses: 1141383
All Hits: 1034831
SD Algo Stats - Switches: 0 SRR-Repls: 373572 BRR-Repls: 0

DRAM Statistics
 CHANNEL 0
 RQ ROW_BUFFER_HIT:     475260  ROW_BUFFER_MISS:     277112
 DBUS_CONGESTED:     543306
 WQ ROW_BUFFER_HIT:      64590  ROW_BUFFER_MISS:     104868  FULL:      23257

 AVG_CONGESTED_CYCLE: 13
LOADS RETIRED: 120673965
INSTR RETIRED: 500000000
