
*** ChampSim Multicore Out-of-Order Simulator ***

Warmup Instructions: 100000000
Simulation Instructions: 500000000
Number of CPUs: 1
LLC sets: 2048
LLC ways: 16
Clean RRIP Policies: 113232101132321 Dirty RRIP Policies: 2113132121131321 PSEL Width: 10 Track Set: 4294967295 PSEL Mask: 1 Demote Mask: 421204304212043DS Algo: 0Window size: 0
Off-chip DRAM Size: 4096 MB Channels: 1 Width: 64-bit Data Rate: 1600 MT/s

CPU 0 runs /mnt/beegfs/iconst01/spec2017/Blender.trace.gz
NOT SORTED
TRACE STRING: /mnt/beegfs/iconst01/spec2017/Blender.trace.gz
SORTED
TRACE STRING: /mnt/beegfs/iconst01/spec2017/Blender.trace.gz
INITIAL
TRACE STRING: /mnt/beegfs/iconst01/spec2017/Blender.trace.gz

champsim_seed used: 700

CPU 0 L1D next line prefetcher
CPU 0 L2C IP-based stride prefetcher
Initialize DRRIP state
Assign rand_sets[0]: 454  LLC: 2048
rand_sets[0]: 454
Assign rand_sets[1]: 1662  LLC: 2048
rand_sets[1]: 1662
Assign rand_sets[2]: 1921  LLC: 2048
rand_sets[2]: 1921
Assign rand_sets[3]: 1131  LLC: 2048
rand_sets[3]: 1131
Assign rand_sets[4]: 331  LLC: 2048
rand_sets[4]: 331
Assign rand_sets[5]: 1531  LLC: 2048
rand_sets[5]: 1531
Assign rand_sets[6]: 482  LLC: 2048
rand_sets[6]: 482
Assign rand_sets[7]: 1275  LLC: 2048
rand_sets[7]: 1275
Assign rand_sets[8]: 1876  LLC: 2048
rand_sets[8]: 1876
Assign rand_sets[9]: 2038  LLC: 2048
rand_sets[9]: 2038
Assign rand_sets[10]: 701  LLC: 2048
rand_sets[10]: 701
Assign rand_sets[11]: 479  LLC: 2048
rand_sets[11]: 479
Assign rand_sets[12]: 892  LLC: 2048
rand_sets[12]: 892
Assign rand_sets[13]: 1820  LLC: 2048
rand_sets[13]: 1820
Assign rand_sets[14]: 1505  LLC: 2048
rand_sets[14]: 1505
Assign rand_sets[15]: 1159  LLC: 2048
rand_sets[15]: 1159
Assign rand_sets[16]: 513  LLC: 2048
rand_sets[16]: 513
Assign rand_sets[17]: 703  LLC: 2048
rand_sets[17]: 703
Assign rand_sets[18]: 561  LLC: 2048
rand_sets[18]: 561
Assign rand_sets[19]: 990  LLC: 2048
rand_sets[19]: 990
Assign rand_sets[20]: 342  LLC: 2048
rand_sets[20]: 342
Assign rand_sets[21]: 882  LLC: 2048
rand_sets[21]: 882
Assign rand_sets[22]: 15  LLC: 2048
rand_sets[22]: 15
Assign rand_sets[23]: 71  LLC: 2048
rand_sets[23]: 71
Assign rand_sets[24]: 1127  LLC: 2048
rand_sets[24]: 1127
Assign rand_sets[25]: 1382  LLC: 2048
rand_sets[25]: 1382
Assign rand_sets[26]: 647  LLC: 2048
rand_sets[26]: 647
Assign rand_sets[27]: 857  LLC: 2048
rand_sets[27]: 857
Assign rand_sets[28]: 1450  LLC: 2048
rand_sets[28]: 1450
Assign rand_sets[29]: 1160  LLC: 2048
rand_sets[29]: 1160
Assign rand_sets[30]: 1852  LLC: 2048
rand_sets[30]: 1852
Assign rand_sets[31]: 1881  LLC: 2048
rand_sets[31]: 1881
Assign rand_sets[32]: 1770  LLC: 2048
rand_sets[32]: 1770
Assign rand_sets[33]: 1622  LLC: 2048
rand_sets[33]: 1622
Assign rand_sets[34]: 275  LLC: 2048
rand_sets[34]: 275
Assign rand_sets[35]: 635  LLC: 2048
rand_sets[35]: 635
Assign rand_sets[36]: 466  LLC: 2048
rand_sets[36]: 466
Assign rand_sets[37]: 1413  LLC: 2048
rand_sets[37]: 1413
Assign rand_sets[38]: 417  LLC: 2048
rand_sets[38]: 417
Assign rand_sets[39]: 472  LLC: 2048
rand_sets[39]: 472
Assign rand_sets[40]: 1340  LLC: 2048
rand_sets[40]: 1340
Assign rand_sets[41]: 852  LLC: 2048
rand_sets[41]: 852
Assign rand_sets[42]: 1365  LLC: 2048
rand_sets[42]: 1365
Assign rand_sets[43]: 47  LLC: 2048
rand_sets[43]: 47
Assign rand_sets[44]: 823  LLC: 2048
rand_sets[44]: 823
Assign rand_sets[45]: 686  LLC: 2048
rand_sets[45]: 686
Assign rand_sets[46]: 1637  LLC: 2048
rand_sets[46]: 1637
Assign rand_sets[47]: 1115  LLC: 2048
rand_sets[47]: 1115
Assign rand_sets[48]: 986  LLC: 2048
rand_sets[48]: 986
Assign rand_sets[49]: 258  LLC: 2048
rand_sets[49]: 258
Assign rand_sets[50]: 633  LLC: 2048
rand_sets[50]: 633
Assign rand_sets[51]: 920  LLC: 2048
rand_sets[51]: 920
Assign rand_sets[52]: 204  LLC: 2048
rand_sets[52]: 204
Assign rand_sets[53]: 227  LLC: 2048
rand_sets[53]: 227
Assign rand_sets[54]: 1818  LLC: 2048
rand_sets[54]: 1818
Assign rand_sets[55]: 886  LLC: 2048
rand_sets[55]: 886
Assign rand_sets[56]: 1422  LLC: 2048
rand_sets[56]: 1422
Assign rand_sets[57]: 607  LLC: 2048
rand_sets[57]: 607
Assign rand_sets[58]: 217  LLC: 2048
rand_sets[58]: 217
Assign rand_sets[59]: 1945  LLC: 2048
rand_sets[59]: 1945
Assign rand_sets[60]: 143  LLC: 2048
rand_sets[60]: 143
Assign rand_sets[61]: 1311  LLC: 2048
rand_sets[61]: 1311
Assign rand_sets[62]: 319  LLC: 2048
rand_sets[62]: 319
Assign rand_sets[63]: 1846  LLC: 2048
rand_sets[63]: 1846
 CLEAN-RRIP-POLICY-1: 0-1-1-3-2-3-2-1- CLEAN-RRIP-POLICY-2: 0-1-1-3-2-3-2-1-
 DIRTY-RRIP-POLICY-1: 2-1-1-3-1-3-2-1- DIRTY-RRIP-POLICY-2: 2-1-1-3-1-3-2-1-
 PSEL width: 10
Heartbeat CPU 0 instructions: 10000002 cycles: 5480930 heartbeat IPC: 1.82451 cumulative IPC: 1.82451 (Simulation time: 0 hr 0 min 13 sec) 
Heartbeat CPU 0 instructions: 20000000 cycles: 10913523 heartbeat IPC: 1.84074 cumulative IPC: 1.83259 (Simulation time: 0 hr 0 min 26 sec) 
Heartbeat CPU 0 instructions: 30000000 cycles: 16447698 heartbeat IPC: 1.80695 cumulative IPC: 1.82396 (Simulation time: 0 hr 0 min 39 sec) 
Heartbeat CPU 0 instructions: 40000000 cycles: 21898923 heartbeat IPC: 1.83445 cumulative IPC: 1.82657 (Simulation time: 0 hr 0 min 53 sec) 
Heartbeat CPU 0 instructions: 50000000 cycles: 27401317 heartbeat IPC: 1.81739 cumulative IPC: 1.82473 (Simulation time: 0 hr 1 min 6 sec) 
Heartbeat CPU 0 instructions: 60000000 cycles: 32780545 heartbeat IPC: 1.859 cumulative IPC: 1.83035 (Simulation time: 0 hr 1 min 20 sec) 
Heartbeat CPU 0 instructions: 70000001 cycles: 38337215 heartbeat IPC: 1.79964 cumulative IPC: 1.8259 (Simulation time: 0 hr 1 min 33 sec) 
Heartbeat CPU 0 instructions: 80000000 cycles: 43797564 heartbeat IPC: 1.83138 cumulative IPC: 1.82659 (Simulation time: 0 hr 1 min 47 sec) 
Heartbeat CPU 0 instructions: 90000000 cycles: 49244906 heartbeat IPC: 1.83576 cumulative IPC: 1.8276 (Simulation time: 0 hr 2 min 1 sec) 
Heartbeat CPU 0 instructions: 100000000 cycles: 54790366 heartbeat IPC: 1.80328 cumulative IPC: 1.82514 (Simulation time: 0 hr 2 min 14 sec) 

Warmup complete CPU 0 instructions: 100000002 cycles: 54790367 (Simulation time: 0 hr 2 min 14 sec) 

Heartbeat CPU 0 instructions: 110000001 cycles: 69347971 heartbeat IPC: 0.686926 cumulative IPC: 0.686926 (Simulation time: 0 hr 2 min 33 sec) 
Heartbeat CPU 0 instructions: 120000000 cycles: 84553022 heartbeat IPC: 0.657676 cumulative IPC: 0.671983 (Simulation time: 0 hr 2 min 54 sec) 
Heartbeat CPU 0 instructions: 130000000 cycles: 99189954 heartbeat IPC: 0.683203 cumulative IPC: 0.675682 (Simulation time: 0 hr 3 min 13 sec) 
Heartbeat CPU 0 instructions: 140000000 cycles: 113631676 heartbeat IPC: 0.692438 cumulative IPC: 0.679794 (Simulation time: 0 hr 3 min 33 sec) 
Heartbeat CPU 0 instructions: 150000000 cycles: 128520094 heartbeat IPC: 0.671663 cumulative IPC: 0.678153 (Simulation time: 0 hr 3 min 53 sec) 
Heartbeat CPU 0 instructions: 160000000 cycles: 143823916 heartbeat IPC: 0.653432 cumulative IPC: 0.673903 (Simulation time: 0 hr 4 min 13 sec) 
Heartbeat CPU 0 instructions: 170000001 cycles: 158848908 heartbeat IPC: 0.665558 cumulative IPC: 0.672698 (Simulation time: 0 hr 4 min 32 sec) 
Heartbeat CPU 0 instructions: 180000000 cycles: 173974357 heartbeat IPC: 0.661137 cumulative IPC: 0.671231 (Simulation time: 0 hr 4 min 52 sec) 
Heartbeat CPU 0 instructions: 190000002 cycles: 188602127 heartbeat IPC: 0.683631 cumulative IPC: 0.672587 (Simulation time: 0 hr 5 min 12 sec) 
Heartbeat CPU 0 instructions: 200000000 cycles: 203089791 heartbeat IPC: 0.690242 cumulative IPC: 0.674311 (Simulation time: 0 hr 5 min 32 sec) 
Heartbeat CPU 0 instructions: 210000003 cycles: 217835079 heartbeat IPC: 0.678183 cumulative IPC: 0.674662 (Simulation time: 0 hr 5 min 51 sec) 
Heartbeat CPU 0 instructions: 220000000 cycles: 232701151 heartbeat IPC: 0.672672 cumulative IPC: 0.674495 (Simulation time: 0 hr 6 min 11 sec) 
Heartbeat CPU 0 instructions: 230000001 cycles: 248003527 heartbeat IPC: 0.653493 cumulative IPC: 0.672832 (Simulation time: 0 hr 6 min 32 sec) 
Heartbeat CPU 0 instructions: 240000000 cycles: 263065591 heartbeat IPC: 0.66392 cumulative IPC: 0.672188 (Simulation time: 0 hr 6 min 51 sec) 
Heartbeat CPU 0 instructions: 250000003 cycles: 278035241 heartbeat IPC: 0.668019 cumulative IPC: 0.671908 (Simulation time: 0 hr 7 min 11 sec) 
Heartbeat CPU 0 instructions: 260000000 cycles: 293733103 heartbeat IPC: 0.637029 cumulative IPC: 0.669617 (Simulation time: 0 hr 7 min 31 sec) 
Heartbeat CPU 0 instructions: 270000003 cycles: 308460679 heartbeat IPC: 0.678999 cumulative IPC: 0.670161 (Simulation time: 0 hr 7 min 51 sec) 
Heartbeat CPU 0 instructions: 280000000 cycles: 323103631 heartbeat IPC: 0.682922 cumulative IPC: 0.670858 (Simulation time: 0 hr 8 min 10 sec) 
Heartbeat CPU 0 instructions: 290000002 cycles: 337703397 heartbeat IPC: 0.684943 cumulative IPC: 0.671584 (Simulation time: 0 hr 8 min 30 sec) 
Heartbeat CPU 0 instructions: 300000000 cycles: 353305131 heartbeat IPC: 0.640954 cumulative IPC: 0.669984 (Simulation time: 0 hr 8 min 50 sec) 
Heartbeat CPU 0 instructions: 310000000 cycles: 368451572 heartbeat IPC: 0.660221 cumulative IPC: 0.669512 (Simulation time: 0 hr 9 min 10 sec) 
Heartbeat CPU 0 instructions: 320000000 cycles: 383407320 heartbeat IPC: 0.668639 cumulative IPC: 0.669472 (Simulation time: 0 hr 9 min 30 sec) 
Heartbeat CPU 0 instructions: 330000000 cycles: 399435479 heartbeat IPC: 0.623902 cumulative IPC: 0.667353 (Simulation time: 0 hr 9 min 50 sec) 
Heartbeat CPU 0 instructions: 340000000 cycles: 414203323 heartbeat IPC: 0.677147 cumulative IPC: 0.667756 (Simulation time: 0 hr 10 min 9 sec) 
Heartbeat CPU 0 instructions: 350000000 cycles: 428999095 heartbeat IPC: 0.675869 cumulative IPC: 0.668076 (Simulation time: 0 hr 10 min 29 sec) 
Heartbeat CPU 0 instructions: 360000000 cycles: 443813236 heartbeat IPC: 0.675031 cumulative IPC: 0.668341 (Simulation time: 0 hr 10 min 48 sec) 
Heartbeat CPU 0 instructions: 370000002 cycles: 459424174 heartbeat IPC: 0.640577 cumulative IPC: 0.66727 (Simulation time: 0 hr 11 min 9 sec) 
Heartbeat CPU 0 instructions: 380000000 cycles: 474431577 heartbeat IPC: 0.666338 cumulative IPC: 0.667237 (Simulation time: 0 hr 11 min 28 sec) 
Heartbeat CPU 0 instructions: 390000003 cycles: 489547917 heartbeat IPC: 0.661536 cumulative IPC: 0.667038 (Simulation time: 0 hr 11 min 48 sec) 
Heartbeat CPU 0 instructions: 400000000 cycles: 505616278 heartbeat IPC: 0.622341 cumulative IPC: 0.665445 (Simulation time: 0 hr 12 min 8 sec) 
Heartbeat CPU 0 instructions: 410000001 cycles: 520822302 heartbeat IPC: 0.657634 cumulative IPC: 0.66519 (Simulation time: 0 hr 12 min 28 sec) 
Heartbeat CPU 0 instructions: 420000000 cycles: 535715066 heartbeat IPC: 0.671467 cumulative IPC: 0.665385 (Simulation time: 0 hr 12 min 47 sec) 
Heartbeat CPU 0 instructions: 430000000 cycles: 551334816 heartbeat IPC: 0.640215 cumulative IPC: 0.664593 (Simulation time: 0 hr 13 min 7 sec) 
Heartbeat CPU 0 instructions: 440000000 cycles: 566279744 heartbeat IPC: 0.669123 cumulative IPC: 0.664725 (Simulation time: 0 hr 13 min 26 sec) 
Heartbeat CPU 0 instructions: 450000000 cycles: 581436002 heartbeat IPC: 0.659793 cumulative IPC: 0.664584 (Simulation time: 0 hr 13 min 45 sec) 
Heartbeat CPU 0 instructions: 460000000 cycles: 597397057 heartbeat IPC: 0.626525 cumulative IPC: 0.663464 (Simulation time: 0 hr 14 min 5 sec) 
Heartbeat CPU 0 instructions: 470000000 cycles: 612669299 heartbeat IPC: 0.654783 cumulative IPC: 0.663226 (Simulation time: 0 hr 14 min 24 sec) 
Heartbeat CPU 0 instructions: 480000000 cycles: 627687433 heartbeat IPC: 0.665862 cumulative IPC: 0.663295 (Simulation time: 0 hr 14 min 43 sec) 
Heartbeat CPU 0 instructions: 490000002 cycles: 643136899 heartbeat IPC: 0.647272 cumulative IPC: 0.662875 (Simulation time: 0 hr 15 min 3 sec) 
Heartbeat CPU 0 instructions: 500000000 cycles: 658142687 heartbeat IPC: 0.666409 cumulative IPC: 0.662963 (Simulation time: 0 hr 15 min 22 sec) 
Heartbeat CPU 0 instructions: 510000001 cycles: 673424528 heartbeat IPC: 0.654372 cumulative IPC: 0.66275 (Simulation time: 0 hr 15 min 41 sec) 
Heartbeat CPU 0 instructions: 520000000 cycles: 689092257 heartbeat IPC: 0.638255 cumulative IPC: 0.662145 (Simulation time: 0 hr 16 min 1 sec) 
Heartbeat CPU 0 instructions: 530000001 cycles: 704727242 heartbeat IPC: 0.639591 cumulative IPC: 0.661603 (Simulation time: 0 hr 16 min 20 sec) 
Heartbeat CPU 0 instructions: 540000000 cycles: 719458969 heartbeat IPC: 0.678807 cumulative IPC: 0.661984 (Simulation time: 0 hr 16 min 39 sec) 
Heartbeat CPU 0 instructions: 550000001 cycles: 734887104 heartbeat IPC: 0.648167 cumulative IPC: 0.661671 (Simulation time: 0 hr 16 min 58 sec) 
Heartbeat CPU 0 instructions: 560000000 cycles: 749825050 heartbeat IPC: 0.669436 cumulative IPC: 0.661837 (Simulation time: 0 hr 17 min 17 sec) 
Heartbeat CPU 0 instructions: 570000002 cycles: 765159953 heartbeat IPC: 0.652107 cumulative IPC: 0.661627 (Simulation time: 0 hr 17 min 36 sec) 
Heartbeat CPU 0 instructions: 580000000 cycles: 780340007 heartbeat IPC: 0.658759 cumulative IPC: 0.661567 (Simulation time: 0 hr 17 min 55 sec) 
Heartbeat CPU 0 instructions: 590000001 cycles: 795488825 heartbeat IPC: 0.660118 cumulative IPC: 0.661538 (Simulation time: 0 hr 18 min 13 sec) 
Heartbeat CPU 0 instructions: 600000000 cycles: 810296131 heartbeat IPC: 0.675342 cumulative IPC: 0.661808 (Simulation time: 0 hr 18 min 32 sec) 
Finished CPU 0 instructions: 500000000 cycles: 755505772 cumulative IPC: 0.661808 (Simulation time: 0 hr 18 min 32 sec) 

CPU 0 Branch Prediction Accuracy: 93.7783% MPKI: 10.0718
Number of Branches: 80940586 Number of Mispredictions: 5035908
Number of LOAD Instructions: 184238101
Number of LOAD Instructions (ROI): 184238101
Number of STORE Instructions: 33143298
Number of STORE Instructions (ROI): 33143298
Total Destination Memory Operands: 33324321
Total Destination Memory Operands (ROI): 33324321
Total Source Memory Operands: 184238101
Total Source Memory Operands (ROI): 184238101
Number of DEPENDED LOADS: 4461482
Number of DEPENDED LOADS (ROI): 4461482
Number of SQ_ADDED: 33324292
Number of SQ_ADDED (ROI): 33324292
Number of LQ_ADDED: 184870659
Number of LQ_ADDED (ROI): 184870659
Number of Instructions read from trace: 600000256

ChampSim completed all CPUs

Region of Interest Statistics

CPU 0 cumulative IPC: 0.661808 instructions: 500000000 cycles: 755505772
ITLB TOTAL     ACCESS:   77750149  HIT:   77750149  MISS:          0
ITLB LOAD      ACCESS:   77750149  HIT:   77750149  MISS:          0
ITLB RFO       ACCESS:          0  HIT:          0  MISS:          0
ITLB PREFETCH  ACCESS:          0  HIT:          0  MISS:          0
ITLB WRITEBACK ACCESS:          0  HIT:          0  MISS:          0
ITLB PREFETCH  REQUESTED:          0  ISSUED:          0  USEFUL:          0  USELESS:          0
ITLB TOTAL MSHR MERGED:          0
ITLB LOAD MSHR MERGED:          0
ITLB RFO MSHR MERGED:          0
ITLB PREFETCH MSHR MERGED:          0
ITLB WRITEBACK MSHR MERGED:          0
ITLB TOTAL ACCESSES:   77750149 HITS:   77750149 MISSES:          0
ITLB LOAD ACCESSES:   77750149 HITS:   77750149 MISSES:          0
ITLB RFO ACCESSES:          0 HITS:          0 MISSES:          0
ITLB PREFETCH ACCESSES:          0 HITS:          0 MISSES:          0
ITLB WRITEBACK ACCESSES:          0 HITS:          0 MISSES:          0
ITLB RQ ACCESS:  500000245
ITLB RQ TO_CACHE:   77750149
ITLB RQ MERGED:  422250096
ITLB RQ FORWARD:          0
ITLB WQ ACCESS:          0
ITLB WQ TO_CACHE:          0
ITLB WQ MERGED:          0
ITLB WQ FORWARD:          0
DTLB TOTAL     ACCESS:   88438938  HIT:   87302090  MISS:    1136848
DTLB LOAD      ACCESS:   66312424  HIT:   65179816  MISS:    1132608
DTLB RFO       ACCESS:   22126514  HIT:   22122274  MISS:       4240
DTLB PREFETCH  ACCESS:          0  HIT:          0  MISS:          0
DTLB WRITEBACK ACCESS:          0  HIT:          0  MISS:          0
DTLB PREFETCH  REQUESTED:          0  ISSUED:          0  USEFUL:          0  USELESS:          0
DTLB TOTAL MSHR MERGED:     135578
DTLB LOAD MSHR MERGED:     133761
DTLB RFO MSHR MERGED:       1817
DTLB PREFETCH MSHR MERGED:          0
DTLB WRITEBACK MSHR MERGED:          0
DTLB TOTAL ACCESSES:   88574516 HITS:   87302090 MISSES:    1272426
DTLB LOAD ACCESSES:   66446185 HITS:   65179816 MISSES:    1266369
DTLB RFO ACCESSES:   22128331 HITS:   22122274 MISSES:       6057
DTLB PREFETCH ACCESSES:          0 HITS:          0 MISSES:          0
DTLB WRITEBACK ACCESSES:          0 HITS:          0 MISSES:          0
DTLB RQ ACCESS:  177579279
DTLB RQ TO_CACHE:   88574516
DTLB RQ MERGED:   89004763
DTLB RQ FORWARD:          0
DTLB WQ ACCESS:          0
DTLB WQ TO_CACHE:          0
DTLB WQ MERGED:          0
DTLB WQ FORWARD:          0
L1D TOTAL     ACCESS:  142104539  HIT:  136545494  MISS:    5559045
L1D LOAD      ACCESS:   61386938  HIT:   58283240  MISS:    3103698
L1D RFO       ACCESS:   27669158  HIT:   27587359  MISS:      81799
L1D PREFETCH  ACCESS:   53048443  HIT:   50674895  MISS:    2373548
L1D WRITEBACK ACCESS:          0  HIT:          0  MISS:          0
L1D PREFETCH  REQUESTED:   61675060  ISSUED:   60756857  USEFUL:     666666  USELESS:    1706887
L1D TOTAL MSHR MERGED:    1183024
L1D LOAD MSHR MERGED:     386196
L1D RFO MSHR MERGED:     163925
L1D PREFETCH MSHR MERGED:     632903
L1D WRITEBACK MSHR MERGED:          0
L1D TOTAL ACCESSES:  143385186 HITS:  136643117 MISSES:    6742069
L1D LOAD ACCESSES:   61675069 HITS:   58283249 MISSES:    3391820
L1D RFO ACCESSES:   27829291 HITS:   27587359 MISSES:     241932
L1D PREFETCH ACCESSES:   53880826 HITS:   50772509 MISSES:    3108317
L1D WRITEBACK ACCESSES:          0 HITS:          0 MISSES:          0
L1D RQ ACCESS:  149746313
L1D RQ TO_CACHE:   61675060
L1D RQ MERGED:   88071244
L1D RQ FORWARD:          0
L1D WQ ACCESS:   27832966
L1D WQ TO_CACHE:   27829291
L1D WQ MERGED:       3675
L1D WQ FORWARD:      97623
L1I TOTAL     ACCESS:   96227019  HIT:   96067772  MISS:     159247
L1I LOAD      ACCESS:   96227019  HIT:   96067772  MISS:     159247
L1I RFO       ACCESS:          0  HIT:          0  MISS:          0
L1I PREFETCH  ACCESS:          0  HIT:          0  MISS:          0
L1I WRITEBACK ACCESS:          0  HIT:          0  MISS:          0
L1I PREFETCH  REQUESTED:          0  ISSUED:          0  USEFUL:          0  USELESS:          0
L1I TOTAL MSHR MERGED:     130523
L1I LOAD MSHR MERGED:     130523
L1I RFO MSHR MERGED:          0
L1I PREFETCH MSHR MERGED:          0
L1I WRITEBACK MSHR MERGED:          0
L1I TOTAL ACCESSES:   96357542 HITS:   96067772 MISSES:     289770
L1I LOAD ACCESSES:   96357542 HITS:   96067772 MISSES:     289770
L1I RFO ACCESSES:          0 HITS:          0 MISSES:          0
L1I PREFETCH ACCESSES:          0 HITS:          0 MISSES:          0
L1I WRITEBACK ACCESSES:          0 HITS:          0 MISSES:          0
L1I RQ ACCESS:  500000245
L1I RQ TO_CACHE:   96357542
L1I RQ MERGED:  403642703
L1I RQ FORWARD:          0
L1I WQ ACCESS:          0
L1I WQ TO_CACHE:          0
L1I WQ MERGED:          0
L1I WQ FORWARD:          0
L2C TOTAL     ACCESS:    5911311  HIT:    3062657  MISS:    2848654
L2C LOAD      ACCESS:    3164861  HIT:    1583178  MISS:    1581683
L2C RFO       ACCESS:      77932  HIT:      45081  MISS:      32851
L2C PREFETCH  ACCESS:    2524987  HIT:    1296451  MISS:    1228536
L2C WRITEBACK ACCESS:     143531  HIT:     137947  MISS:       5584
L2C PREFETCH  REQUESTED:      52730  ISSUED:      52730  USEFUL:      18849  USELESS:    1209727
L2C TOTAL MSHR MERGED:       2223
L2C LOAD MSHR MERGED:        760
L2C RFO MSHR MERGED:          0
L2C PREFETCH MSHR MERGED:       1463
L2C WRITEBACK MSHR MERGED:          0
L2C TOTAL ACCESSES:    5913626 HITS:    3062742 MISSES:    2850884
L2C LOAD ACCESSES:    3164871 HITS:    1583188 MISSES:    1581683
L2C RFO ACCESSES:      78007 HITS:      45156 MISSES:      32851
L2C PREFETCH ACCESSES:    2527217 HITS:    1296451 MISSES:    1230766
L2C WRITEBACK ACCESSES:     143531 HITS:     137947 MISSES:       5584
L2C RQ ACCESS:    3242878
L2C RQ TO_CACHE:    3242793
L2C RQ MERGED:          0
L2C RQ FORWARD:          0
L2C WQ ACCESS:     143531
L2C WQ TO_CACHE:     143531
L2C WQ MERGED:          0
L2C WQ FORWARD:         85
LLC TOTAL     ACCESS:    2892614  HIT:    1770493  MISS:    1122121
LLC LOAD      ACCESS:    1580923  HIT:    1067275  MISS:     513648
LLC RFO       ACCESS:      32841  HIT:      32512  MISS:        329
LLC PREFETCH  ACCESS:    1229303  HIT:     621607  MISS:     607696
LLC WRITEBACK ACCESS:      49547  HIT:      49099  MISS:        448
LLC PREFETCH  REQUESTED:          0  ISSUED:          0  USEFUL:       3296  USELESS:     604446
LLC TOTAL MSHR MERGED:          0
LLC LOAD MSHR MERGED:          0
LLC RFO MSHR MERGED:          0
LLC PREFETCH MSHR MERGED:          0
LLC WRITEBACK MSHR MERGED:          0
LLC TOTAL ACCESSES:    2892624 HITS:    1770503 MISSES:    1122121
LLC LOAD ACCESSES:    1580923 HITS:    1067275 MISSES:     513648
LLC RFO ACCESSES:      32851 HITS:      32522 MISSES:        329
LLC PREFETCH ACCESSES:    1229303 HITS:     621607 MISSES:     607696
LLC WRITEBACK ACCESSES:      49547 HITS:      49099 MISSES:        448
LLC 0 RQ ACCESS:    1613774
LLC 0 RQ TO_CACHE:    1613764
LLC 0 RQ MERGED:          0
LLC 0 RQ FORWARD:          0
LLC WQ ACCESS:      49547
LLC WQ TO_CACHE:      49547
LLC WQ MERGED:          0
LLC WQ FORWARD:         10
Major fault: 0 Minor fault: 8460
CPU 0 L1D next line prefetcher final stats
CPU 0 L2C PC-based stride prefetcher final stats
All Misses: 1363003
All Hits: 2066207
SD Algo Stats - Switches: 0 SRR-Repls: 593702 BRR-Repls: 0

DRAM Statistics
 CHANNEL 0
 RQ ROW_BUFFER_HIT:     385040  ROW_BUFFER_MISS:     736406
 DBUS_CONGESTED:     348407
 WQ ROW_BUFFER_HIT:         34  ROW_BUFFER_MISS:        291  FULL:          0

 AVG_CONGESTED_CYCLE: 12
LOADS RETIRED: 153532848
INSTR RETIRED: 500000000
