
*** ChampSim Multicore Out-of-Order Simulator ***

Warmup Instructions: 100000000
Simulation Instructions: 500000000
Number of CPUs: 1
LLC sets: 2048
LLC ways: 16
Clean RRIP Policies: 2213230222132302 Dirty RRIP Policies: 2203130222031302 PSEL Width: 10 Track Set: 4294967295 PSEL Mask: 1 Demote Mask: 4000100040001000DS Algo: 0Window size: 0
Off-chip DRAM Size: 4096 MB Channels: 1 Width: 64-bit Data Rate: 1600 MT/s

CPU 0 runs /mnt/beegfs/iconst01/spec2017/Lbm.trace.gz
NOT SORTED
TRACE STRING: /mnt/beegfs/iconst01/spec2017/Lbm.trace.gz
SORTED
TRACE STRING: /mnt/beegfs/iconst01/spec2017/Lbm.trace.gz
INITIAL
TRACE STRING: /mnt/beegfs/iconst01/spec2017/Lbm.trace.gz

champsim_seed used: 283

CPU 0 L1D next line prefetcher
CPU 0 L2C IP-based stride prefetcher
Initialize DRRIP state
Assign rand_sets[0]: 454  LLC: 2048
rand_sets[0]: 454
Assign rand_sets[1]: 1662  LLC: 2048
rand_sets[1]: 1662
Assign rand_sets[2]: 1921  LLC: 2048
rand_sets[2]: 1921
Assign rand_sets[3]: 1131  LLC: 2048
rand_sets[3]: 1131
Assign rand_sets[4]: 331  LLC: 2048
rand_sets[4]: 331
Assign rand_sets[5]: 1531  LLC: 2048
rand_sets[5]: 1531
Assign rand_sets[6]: 482  LLC: 2048
rand_sets[6]: 482
Assign rand_sets[7]: 1275  LLC: 2048
rand_sets[7]: 1275
Assign rand_sets[8]: 1876  LLC: 2048
rand_sets[8]: 1876
Assign rand_sets[9]: 2038  LLC: 2048
rand_sets[9]: 2038
Assign rand_sets[10]: 701  LLC: 2048
rand_sets[10]: 701
Assign rand_sets[11]: 479  LLC: 2048
rand_sets[11]: 479
Assign rand_sets[12]: 892  LLC: 2048
rand_sets[12]: 892
Assign rand_sets[13]: 1820  LLC: 2048
rand_sets[13]: 1820
Assign rand_sets[14]: 1505  LLC: 2048
rand_sets[14]: 1505
Assign rand_sets[15]: 1159  LLC: 2048
rand_sets[15]: 1159
Assign rand_sets[16]: 513  LLC: 2048
rand_sets[16]: 513
Assign rand_sets[17]: 703  LLC: 2048
rand_sets[17]: 703
Assign rand_sets[18]: 561  LLC: 2048
rand_sets[18]: 561
Assign rand_sets[19]: 990  LLC: 2048
rand_sets[19]: 990
Assign rand_sets[20]: 342  LLC: 2048
rand_sets[20]: 342
Assign rand_sets[21]: 882  LLC: 2048
rand_sets[21]: 882
Assign rand_sets[22]: 15  LLC: 2048
rand_sets[22]: 15
Assign rand_sets[23]: 71  LLC: 2048
rand_sets[23]: 71
Assign rand_sets[24]: 1127  LLC: 2048
rand_sets[24]: 1127
Assign rand_sets[25]: 1382  LLC: 2048
rand_sets[25]: 1382
Assign rand_sets[26]: 647  LLC: 2048
rand_sets[26]: 647
Assign rand_sets[27]: 857  LLC: 2048
rand_sets[27]: 857
Assign rand_sets[28]: 1450  LLC: 2048
rand_sets[28]: 1450
Assign rand_sets[29]: 1160  LLC: 2048
rand_sets[29]: 1160
Assign rand_sets[30]: 1852  LLC: 2048
rand_sets[30]: 1852
Assign rand_sets[31]: 1881  LLC: 2048
rand_sets[31]: 1881
Assign rand_sets[32]: 1770  LLC: 2048
rand_sets[32]: 1770
Assign rand_sets[33]: 1622  LLC: 2048
rand_sets[33]: 1622
Assign rand_sets[34]: 275  LLC: 2048
rand_sets[34]: 275
Assign rand_sets[35]: 635  LLC: 2048
rand_sets[35]: 635
Assign rand_sets[36]: 466  LLC: 2048
rand_sets[36]: 466
Assign rand_sets[37]: 1413  LLC: 2048
rand_sets[37]: 1413
Assign rand_sets[38]: 417  LLC: 2048
rand_sets[38]: 417
Assign rand_sets[39]: 472  LLC: 2048
rand_sets[39]: 472
Assign rand_sets[40]: 1340  LLC: 2048
rand_sets[40]: 1340
Assign rand_sets[41]: 852  LLC: 2048
rand_sets[41]: 852
Assign rand_sets[42]: 1365  LLC: 2048
rand_sets[42]: 1365
Assign rand_sets[43]: 47  LLC: 2048
rand_sets[43]: 47
Assign rand_sets[44]: 823  LLC: 2048
rand_sets[44]: 823
Assign rand_sets[45]: 686  LLC: 2048
rand_sets[45]: 686
Assign rand_sets[46]: 1637  LLC: 2048
rand_sets[46]: 1637
Assign rand_sets[47]: 1115  LLC: 2048
rand_sets[47]: 1115
Assign rand_sets[48]: 986  LLC: 2048
rand_sets[48]: 986
Assign rand_sets[49]: 258  LLC: 2048
rand_sets[49]: 258
Assign rand_sets[50]: 633  LLC: 2048
rand_sets[50]: 633
Assign rand_sets[51]: 920  LLC: 2048
rand_sets[51]: 920
Assign rand_sets[52]: 204  LLC: 2048
rand_sets[52]: 204
Assign rand_sets[53]: 227  LLC: 2048
rand_sets[53]: 227
Assign rand_sets[54]: 1818  LLC: 2048
rand_sets[54]: 1818
Assign rand_sets[55]: 886  LLC: 2048
rand_sets[55]: 886
Assign rand_sets[56]: 1422  LLC: 2048
rand_sets[56]: 1422
Assign rand_sets[57]: 607  LLC: 2048
rand_sets[57]: 607
Assign rand_sets[58]: 217  LLC: 2048
rand_sets[58]: 217
Assign rand_sets[59]: 1945  LLC: 2048
rand_sets[59]: 1945
Assign rand_sets[60]: 143  LLC: 2048
rand_sets[60]: 143
Assign rand_sets[61]: 1311  LLC: 2048
rand_sets[61]: 1311
Assign rand_sets[62]: 319  LLC: 2048
rand_sets[62]: 319
Assign rand_sets[63]: 1846  LLC: 2048
rand_sets[63]: 1846
 CLEAN-RRIP-POLICY-1: 2-2-1-3-2-3-0-2- CLEAN-RRIP-POLICY-2: 2-2-1-3-2-3-0-2-
 DIRTY-RRIP-POLICY-1: 2-2-0-3-1-3-0-2- DIRTY-RRIP-POLICY-2: 2-2-0-3-1-3-0-2-
 PSEL width: 10
Heartbeat CPU 0 instructions: 10000000 cycles: 4321560 heartbeat IPC: 2.31398 cumulative IPC: 2.31398 (Simulation time: 0 hr 0 min 17 sec) 
Heartbeat CPU 0 instructions: 20000000 cycles: 8643656 heartbeat IPC: 2.31369 cumulative IPC: 2.31384 (Simulation time: 0 hr 0 min 35 sec) 
Heartbeat CPU 0 instructions: 30000000 cycles: 12965510 heartbeat IPC: 2.31382 cumulative IPC: 2.31383 (Simulation time: 0 hr 0 min 52 sec) 
Heartbeat CPU 0 instructions: 40000000 cycles: 17291424 heartbeat IPC: 2.31165 cumulative IPC: 2.31329 (Simulation time: 0 hr 1 min 9 sec) 
Heartbeat CPU 0 instructions: 50000000 cycles: 21613402 heartbeat IPC: 2.31376 cumulative IPC: 2.31338 (Simulation time: 0 hr 1 min 27 sec) 
Heartbeat CPU 0 instructions: 60000000 cycles: 25935360 heartbeat IPC: 2.31377 cumulative IPC: 2.31344 (Simulation time: 0 hr 1 min 44 sec) 
Heartbeat CPU 0 instructions: 70000000 cycles: 30256953 heartbeat IPC: 2.31396 cumulative IPC: 2.31352 (Simulation time: 0 hr 2 min 1 sec) 
Heartbeat CPU 0 instructions: 80000000 cycles: 34583221 heartbeat IPC: 2.31146 cumulative IPC: 2.31326 (Simulation time: 0 hr 2 min 19 sec) 
Heartbeat CPU 0 instructions: 90000003 cycles: 38905366 heartbeat IPC: 2.31367 cumulative IPC: 2.31331 (Simulation time: 0 hr 2 min 36 sec) 
Heartbeat CPU 0 instructions: 100000000 cycles: 43226948 heartbeat IPC: 2.31397 cumulative IPC: 2.31337 (Simulation time: 0 hr 2 min 54 sec) 

Warmup complete CPU 0 instructions: 100000001 cycles: 43226949 (Simulation time: 0 hr 2 min 54 sec) 

Heartbeat CPU 0 instructions: 110000000 cycles: 57847100 heartbeat IPC: 0.683987 cumulative IPC: 0.683987 (Simulation time: 0 hr 3 min 18 sec) 
Heartbeat CPU 0 instructions: 120000000 cycles: 72707672 heartbeat IPC: 0.672922 cumulative IPC: 0.678409 (Simulation time: 0 hr 3 min 43 sec) 
Heartbeat CPU 0 instructions: 130000000 cycles: 87435583 heartbeat IPC: 0.678983 cumulative IPC: 0.6786 (Simulation time: 0 hr 4 min 8 sec) 
Heartbeat CPU 0 instructions: 140000000 cycles: 102052882 heartbeat IPC: 0.684121 cumulative IPC: 0.679972 (Simulation time: 0 hr 4 min 33 sec) 
Heartbeat CPU 0 instructions: 150000003 cycles: 116373087 heartbeat IPC: 0.698314 cumulative IPC: 0.683563 (Simulation time: 0 hr 4 min 58 sec) 
Heartbeat CPU 0 instructions: 160000000 cycles: 130503930 heartbeat IPC: 0.707672 cumulative IPC: 0.687467 (Simulation time: 0 hr 5 min 22 sec) 
Heartbeat CPU 0 instructions: 170000002 cycles: 145182059 heartbeat IPC: 0.681286 cumulative IPC: 0.686577 (Simulation time: 0 hr 5 min 47 sec) 
Heartbeat CPU 0 instructions: 180000000 cycles: 159666747 heartbeat IPC: 0.690384 cumulative IPC: 0.68705 (Simulation time: 0 hr 6 min 12 sec) 
Heartbeat CPU 0 instructions: 190000003 cycles: 177258411 heartbeat IPC: 0.568451 cumulative IPC: 0.671484 (Simulation time: 0 hr 6 min 40 sec) 
Heartbeat CPU 0 instructions: 200000000 cycles: 198266871 heartbeat IPC: 0.475999 cumulative IPC: 0.644995 (Simulation time: 0 hr 7 min 10 sec) 
Heartbeat CPU 0 instructions: 210000001 cycles: 212685426 heartbeat IPC: 0.693551 cumulative IPC: 0.649127 (Simulation time: 0 hr 7 min 35 sec) 
Heartbeat CPU 0 instructions: 220000000 cycles: 227077179 heartbeat IPC: 0.694842 cumulative IPC: 0.652705 (Simulation time: 0 hr 8 min 0 sec) 
Heartbeat CPU 0 instructions: 230000001 cycles: 241777184 heartbeat IPC: 0.680272 cumulative IPC: 0.654746 (Simulation time: 0 hr 8 min 25 sec) 
Heartbeat CPU 0 instructions: 240000000 cycles: 256475935 heartbeat IPC: 0.68033 cumulative IPC: 0.65651 (Simulation time: 0 hr 8 min 49 sec) 
Heartbeat CPU 0 instructions: 250000000 cycles: 271477433 heartbeat IPC: 0.6666 cumulative IPC: 0.657173 (Simulation time: 0 hr 9 min 15 sec) 
Heartbeat CPU 0 instructions: 260000000 cycles: 286486931 heartbeat IPC: 0.666245 cumulative IPC: 0.657732 (Simulation time: 0 hr 9 min 40 sec) 
Heartbeat CPU 0 instructions: 270000002 cycles: 301882154 heartbeat IPC: 0.649552 cumulative IPC: 0.657246 (Simulation time: 0 hr 10 min 6 sec) 
Heartbeat CPU 0 instructions: 280000000 cycles: 317428635 heartbeat IPC: 0.643232 cumulative IPC: 0.656451 (Simulation time: 0 hr 10 min 31 sec) 
Heartbeat CPU 0 instructions: 290000003 cycles: 333669012 heartbeat IPC: 0.615749 cumulative IPC: 0.654175 (Simulation time: 0 hr 10 min 57 sec) 
Heartbeat CPU 0 instructions: 300000000 cycles: 349011359 heartbeat IPC: 0.651791 cumulative IPC: 0.654056 (Simulation time: 0 hr 11 min 23 sec) 
Heartbeat CPU 0 instructions: 310000000 cycles: 365512111 heartbeat IPC: 0.606033 cumulative IPC: 0.651597 (Simulation time: 0 hr 11 min 49 sec) 
Heartbeat CPU 0 instructions: 320000000 cycles: 381727956 heartbeat IPC: 0.616681 cumulative IPC: 0.649924 (Simulation time: 0 hr 12 min 15 sec) 
Heartbeat CPU 0 instructions: 330000002 cycles: 397276068 heartbeat IPC: 0.643165 cumulative IPC: 0.649627 (Simulation time: 0 hr 12 min 41 sec) 
Heartbeat CPU 0 instructions: 340000000 cycles: 413795805 heartbeat IPC: 0.605336 cumulative IPC: 0.647653 (Simulation time: 0 hr 13 min 7 sec) 
Heartbeat CPU 0 instructions: 350000001 cycles: 429259395 heartbeat IPC: 0.64668 cumulative IPC: 0.647614 (Simulation time: 0 hr 13 min 33 sec) 
Heartbeat CPU 0 instructions: 360000000 cycles: 445133580 heartbeat IPC: 0.629954 cumulative IPC: 0.646916 (Simulation time: 0 hr 13 min 59 sec) 
Heartbeat CPU 0 instructions: 370000000 cycles: 460341657 heartbeat IPC: 0.657545 cumulative IPC: 0.647304 (Simulation time: 0 hr 14 min 24 sec) 
Heartbeat CPU 0 instructions: 380000000 cycles: 475732857 heartbeat IPC: 0.649722 cumulative IPC: 0.64739 (Simulation time: 0 hr 14 min 50 sec) 
Heartbeat CPU 0 instructions: 390000000 cycles: 490600687 heartbeat IPC: 0.672593 cumulative IPC: 0.648228 (Simulation time: 0 hr 15 min 15 sec) 
Heartbeat CPU 0 instructions: 400000000 cycles: 505563391 heartbeat IPC: 0.668328 cumulative IPC: 0.648878 (Simulation time: 0 hr 15 min 40 sec) 
Heartbeat CPU 0 instructions: 410000000 cycles: 520306743 heartbeat IPC: 0.678272 cumulative IPC: 0.649786 (Simulation time: 0 hr 16 min 5 sec) 
Heartbeat CPU 0 instructions: 420000000 cycles: 535070272 heartbeat IPC: 0.677345 cumulative IPC: 0.650614 (Simulation time: 0 hr 16 min 30 sec) 
Heartbeat CPU 0 instructions: 430000002 cycles: 549390701 heartbeat IPC: 0.698303 cumulative IPC: 0.651963 (Simulation time: 0 hr 16 min 54 sec) 
Heartbeat CPU 0 instructions: 440000000 cycles: 563578525 heartbeat IPC: 0.70483 cumulative IPC: 0.653404 (Simulation time: 0 hr 17 min 19 sec) 
Heartbeat CPU 0 instructions: 450000000 cycles: 578262403 heartbeat IPC: 0.681019 cumulative IPC: 0.654162 (Simulation time: 0 hr 17 min 44 sec) 
Heartbeat CPU 0 instructions: 460000000 cycles: 593281215 heartbeat IPC: 0.665832 cumulative IPC: 0.654481 (Simulation time: 0 hr 18 min 9 sec) 
Heartbeat CPU 0 instructions: 470000000 cycles: 607855275 heartbeat IPC: 0.686151 cumulative IPC: 0.655298 (Simulation time: 0 hr 18 min 34 sec) 
Heartbeat CPU 0 instructions: 480000000 cycles: 622213624 heartbeat IPC: 0.696459 cumulative IPC: 0.656319 (Simulation time: 0 hr 18 min 59 sec) 
Heartbeat CPU 0 instructions: 490000001 cycles: 637034041 heartbeat IPC: 0.674745 cumulative IPC: 0.656779 (Simulation time: 0 hr 19 min 24 sec) 
Heartbeat CPU 0 instructions: 500000000 cycles: 651537259 heartbeat IPC: 0.689502 cumulative IPC: 0.657559 (Simulation time: 0 hr 19 min 48 sec) 
Heartbeat CPU 0 instructions: 510000002 cycles: 665929719 heartbeat IPC: 0.694808 cumulative IPC: 0.65842 (Simulation time: 0 hr 20 min 13 sec) 
Heartbeat CPU 0 instructions: 520000000 cycles: 679885380 heartbeat IPC: 0.716555 cumulative IPC: 0.659694 (Simulation time: 0 hr 20 min 38 sec) 
Heartbeat CPU 0 instructions: 530000001 cycles: 694468836 heartbeat IPC: 0.685709 cumulative IPC: 0.660277 (Simulation time: 0 hr 21 min 2 sec) 
Heartbeat CPU 0 instructions: 540000000 cycles: 708916195 heartbeat IPC: 0.692168 cumulative IPC: 0.660969 (Simulation time: 0 hr 21 min 27 sec) 
Heartbeat CPU 0 instructions: 550000003 cycles: 723256051 heartbeat IPC: 0.697357 cumulative IPC: 0.661736 (Simulation time: 0 hr 21 min 52 sec) 
Heartbeat CPU 0 instructions: 560000000 cycles: 738291167 heartbeat IPC: 0.665109 cumulative IPC: 0.661809 (Simulation time: 0 hr 22 min 17 sec) 
Heartbeat CPU 0 instructions: 570000001 cycles: 752862857 heartbeat IPC: 0.686262 cumulative IPC: 0.662311 (Simulation time: 0 hr 22 min 42 sec) 
Heartbeat CPU 0 instructions: 580000000 cycles: 767151179 heartbeat IPC: 0.699872 cumulative IPC: 0.663053 (Simulation time: 0 hr 23 min 7 sec) 
Heartbeat CPU 0 instructions: 590000003 cycles: 780993774 heartbeat IPC: 0.722408 cumulative IPC: 0.664167 (Simulation time: 0 hr 23 min 31 sec) 
Heartbeat CPU 0 instructions: 600000000 cycles: 795468568 heartbeat IPC: 0.690856 cumulative IPC: 0.66468 (Simulation time: 0 hr 23 min 56 sec) 
Finished CPU 0 instructions: 500000000 cycles: 752241627 cumulative IPC: 0.66468 (Simulation time: 0 hr 23 min 56 sec) 

CPU 0 Branch Prediction Accuracy: 99.5915% MPKI: 0.037126
Number of Branches: 4544106 Number of Mispredictions: 18563
Number of LOAD Instructions: 149787067
Number of LOAD Instructions (ROI): 149787067
Number of STORE Instructions: 77239062
Number of STORE Instructions (ROI): 77239062
Total Destination Memory Operands: 77239062
Total Destination Memory Operands (ROI): 77239062
Total Source Memory Operands: 149787067
Total Source Memory Operands (ROI): 149787067
Number of DEPENDED LOADS: 19251925
Number of DEPENDED LOADS (ROI): 19251925
Number of SQ_ADDED: 77239036
Number of SQ_ADDED (ROI): 77239036
Number of LQ_ADDED: 149787020
Number of LQ_ADDED (ROI): 149787020
Number of Instructions read from trace: 600000256

ChampSim completed all CPUs

Region of Interest Statistics

CPU 0 cumulative IPC: 0.66468 instructions: 500000000 cycles: 752241627
ITLB TOTAL     ACCESS:   86444074  HIT:   86444073  MISS:          1
ITLB LOAD      ACCESS:   86444074  HIT:   86444073  MISS:          1
ITLB RFO       ACCESS:          0  HIT:          0  MISS:          0
ITLB PREFETCH  ACCESS:          0  HIT:          0  MISS:          0
ITLB WRITEBACK ACCESS:          0  HIT:          0  MISS:          0
ITLB PREFETCH  REQUESTED:          0  ISSUED:          0  USEFUL:          0  USELESS:          0
ITLB TOTAL MSHR MERGED:          1
ITLB LOAD MSHR MERGED:          1
ITLB RFO MSHR MERGED:          0
ITLB PREFETCH MSHR MERGED:          0
ITLB WRITEBACK MSHR MERGED:          0
ITLB TOTAL ACCESSES:   86444075 HITS:   86444073 MISSES:          2
ITLB LOAD ACCESSES:   86444075 HITS:   86444073 MISSES:          2
ITLB RFO ACCESSES:          0 HITS:          0 MISSES:          0
ITLB PREFETCH ACCESSES:          0 HITS:          0 MISSES:          0
ITLB WRITEBACK ACCESSES:          0 HITS:          0 MISSES:          0
ITLB RQ ACCESS:  500000002
ITLB RQ TO_CACHE:   86444075
ITLB RQ MERGED:  413555927
ITLB RQ FORWARD:          0
ITLB WQ ACCESS:          0
ITLB WQ TO_CACHE:          0
ITLB WQ MERGED:          0
ITLB WQ FORWARD:          0
DTLB TOTAL     ACCESS:   98096554  HIT:   97911293  MISS:     185261
DTLB LOAD      ACCESS:   55037418  HIT:   54991107  MISS:      46311
DTLB RFO       ACCESS:   43059136  HIT:   42920186  MISS:     138950
DTLB PREFETCH  ACCESS:          0  HIT:          0  MISS:          0
DTLB WRITEBACK ACCESS:          0  HIT:          0  MISS:          0
DTLB PREFETCH  REQUESTED:          0  ISSUED:          0  USEFUL:          0  USELESS:          0
DTLB TOTAL MSHR MERGED:      83623
DTLB LOAD MSHR MERGED:      83618
DTLB RFO MSHR MERGED:          5
DTLB PREFETCH MSHR MERGED:          0
DTLB WRITEBACK MSHR MERGED:          0
DTLB TOTAL ACCESSES:   98180177 HITS:   97911293 MISSES:     268884
DTLB LOAD ACCESSES:   55121036 HITS:   54991107 MISSES:     129929
DTLB RFO ACCESSES:   43059141 HITS:   42920186 MISSES:     138955
DTLB PREFETCH ACCESSES:          0 HITS:          0 MISSES:          0
DTLB WRITEBACK ACCESSES:          0 HITS:          0 MISSES:          0
DTLB RQ ACCESS:  173630602
DTLB RQ TO_CACHE:   98180177
DTLB RQ MERGED:   75450425
DTLB RQ FORWARD:          0
DTLB WQ ACCESS:          0
DTLB WQ TO_CACHE:          0
DTLB WQ MERGED:          0
DTLB WQ FORWARD:          0
L1D TOTAL     ACCESS:  164460690  HIT:  144888137  MISS:   19572553
L1D LOAD      ACCESS:   60448186  HIT:   58596440  MISS:    1851746
L1D RFO       ACCESS:   64512827  HIT:   47910715  MISS:   16602112
L1D PREFETCH  ACCESS:   39499677  HIT:   38380982  MISS:    1118695
L1D WRITEBACK ACCESS:          0  HIT:          0  MISS:          0
L1D PREFETCH  REQUESTED:   61578760  ISSUED:   61287591  USEFUL:    1116777  USELESS:       1918
L1D TOTAL MSHR MERGED:    3460490
L1D LOAD MSHR MERGED:    1200690
L1D RFO MSHR MERGED:      10972
L1D PREFETCH MSHR MERGED:    2248828
L1D WRITEBACK MSHR MERGED:          0
L1D TOTAL ACCESSES:  168512875 HITS:  145479833 MISSES:   23033042
L1D LOAD ACCESSES:   61864088 HITS:   58881768 MISSES:    2982320
L1D RFO ACCESSES:   64523762 HITS:   47910715 MISSES:   16613047
L1D PREFETCH ACCESSES:   42125025 HITS:   38687350 MISSES:    3437675
L1D WRITEBACK ACCESSES:          0 HITS:          0 MISSES:          0
L1D RQ ACCESS:  109089287
L1D RQ TO_CACHE:   61578760
L1D RQ MERGED:   47225199
L1D RQ FORWARD:          0
L1D WQ ACCESS:   64541313
L1D WQ TO_CACHE:   64523763
L1D WQ MERGED:      17550
L1D WQ FORWARD:     591696
L1I TOTAL     ACCESS:  107753865  HIT:  107753857  MISS:          8
L1I LOAD      ACCESS:  107753865  HIT:  107753857  MISS:          8
L1I RFO       ACCESS:          0  HIT:          0  MISS:          0
L1I PREFETCH  ACCESS:          0  HIT:          0  MISS:          0
L1I WRITEBACK ACCESS:          0  HIT:          0  MISS:          0
L1I PREFETCH  REQUESTED:          0  ISSUED:          0  USEFUL:          0  USELESS:          0
L1I TOTAL MSHR MERGED:          3
L1I LOAD MSHR MERGED:          3
L1I RFO MSHR MERGED:          0
L1I PREFETCH MSHR MERGED:          0
L1I WRITEBACK MSHR MERGED:          0
L1I TOTAL ACCESSES:  107753868 HITS:  107753857 MISSES:         11
L1I LOAD ACCESSES:  107753868 HITS:  107753857 MISSES:         11
L1I RFO ACCESSES:          0 HITS:          0 MISSES:          0
L1I PREFETCH ACCESSES:          0 HITS:          0 MISSES:          0
L1I WRITEBACK ACCESSES:          0 HITS:          0 MISSES:          0
L1I RQ ACCESS:  500000007
L1I RQ TO_CACHE:  107753868
L1I RQ MERGED:  392246139
L1I RQ FORWARD:          0
L1I WQ ACCESS:          0
L1I WQ TO_CACHE:          0
L1I WQ MERGED:          0
L1I WQ FORWARD:          0
L2C TOTAL     ACCESS:   36776566  HIT:   24818979  MISS:   11957587
L2C LOAD      ACCESS:    1781638  HIT:     244280  MISS:    1537358
L2C RFO       ACCESS:   16602075  HIT:    7610697  MISS:    8991378
L2C PREFETCH  ACCESS:    1790676  HIT:     363047  MISS:    1427629
L2C WRITEBACK ACCESS:   16602177  HIT:   16600955  MISS:       1222
L2C PREFETCH  REQUESTED:     814899  ISSUED:     814899  USEFUL:     241955  USELESS:    1185956
L2C TOTAL MSHR MERGED:       2512
L2C LOAD MSHR MERGED:        611
L2C RFO MSHR MERGED:          0
L2C PREFETCH MSHR MERGED:       1901
L2C WRITEBACK MSHR MERGED:          0
L2C TOTAL ACCESSES:   36989551 HITS:   24818980 MISSES:   12170571
L2C LOAD ACCESSES:    1781638 HITS:     244280 MISSES:    1537358
L2C RFO ACCESSES:   16602075 HITS:    7610698 MISSES:    8991377
L2C PREFETCH ACCESSES:    2003661 HITS:     363047 MISSES:    1640614
L2C WRITEBACK ACCESSES:   16602177 HITS:   16600955 MISSES:       1222
L2C RQ ACCESS:   18383713
L2C RQ TO_CACHE:   18383712
L2C RQ MERGED:          0
L2C RQ FORWARD:          0
L2C WQ ACCESS:   16602177
L2C WQ TO_CACHE:   16602177
L2C WQ MERGED:          0
L2C WQ FORWARD:          1
LLC TOTAL     ACCESS:   21155672  HIT:     536774  MISS:   20618898
LLC LOAD      ACCESS:    1536747  HIT:      76084  MISS:    1460663
LLC RFO       ACCESS:    8991365  HIT:     100946  MISS:    8890419
LLC PREFETCH  ACCESS:    1635362  HIT:     130799  MISS:    1504563
LLC WRITEBACK ACCESS:    8992198  HIT:     228945  MISS:    8763253
LLC PREFETCH  REQUESTED:          0  ISSUED:          0  USEFUL:      75793  USELESS:    1428465
LLC TOTAL MSHR MERGED:       2972
LLC LOAD MSHR MERGED:        245
LLC RFO MSHR MERGED:          0
LLC PREFETCH MSHR MERGED:       2727
LLC WRITEBACK MSHR MERGED:          0
LLC TOTAL ACCESSES:   21158656 HITS:     536787 MISSES:   20621869
LLC LOAD ACCESSES:    1536747 HITS:      76084 MISSES:    1460663
LLC RFO ACCESSES:    8991377 HITS:     100959 MISSES:    8890418
LLC PREFETCH ACCESSES:    1638334 HITS:     130799 MISSES:    1507535
LLC WRITEBACK ACCESSES:    8992198 HITS:     228945 MISSES:    8763253
LLC 0 RQ ACCESS:   10528124
LLC 0 RQ TO_CACHE:   10528111
LLC 0 RQ MERGED:          0
LLC 0 RQ FORWARD:          0
LLC WQ ACCESS:    8992198
LLC WQ TO_CACHE:    8992198
LLC WQ MERGED:          0
LLC WQ FORWARD:         13
Major fault: 0 Minor fault: 102360
CPU 0 L1D next line prefetcher final stats
CPU 0 L2C PC-based stride prefetcher final stats
All Misses: 24513645
All Hits: 617538
SD Algo Stats - Switches: 0 SRR-Repls: 1639259 BRR-Repls: 0

DRAM Statistics
 CHANNEL 0
 RQ ROW_BUFFER_HIT:    3724161  ROW_BUFFER_MISS:    8131403
 DBUS_CONGESTED:   14312435
 WQ ROW_BUFFER_HIT:    1457894  ROW_BUFFER_MISS:    7432470  FULL:          0

 AVG_CONGESTED_CYCLE: 13
LOADS RETIRED: 124982196
INSTR RETIRED: 500000000
