
*** ChampSim Multicore Out-of-Order Simulator ***

Warmup Instructions: 100000000
Simulation Instructions: 500000000
Number of CPUs: 1
LLC sets: 2048
LLC ways: 16
Clean RRIP Policies: 2213230222132302 Dirty RRIP Policies: 2203130222031302 PSEL Width: 10 Track Set: 4294967295 PSEL Mask: 1 Demote Mask: 4000100040001000DS Algo: 0Window size: 0
Off-chip DRAM Size: 4096 MB Channels: 1 Width: 64-bit Data Rate: 1600 MT/s

CPU 0 runs /mnt/beegfs/iconst01/spec2017/Wrf.trace.gz
NOT SORTED
TRACE STRING: /mnt/beegfs/iconst01/spec2017/Wrf.trace.gz
SORTED
TRACE STRING: /mnt/beegfs/iconst01/spec2017/Wrf.trace.gz
INITIAL
TRACE STRING: /mnt/beegfs/iconst01/spec2017/Wrf.trace.gz

champsim_seed used: 303

CPU 0 L1D next line prefetcher
CPU 0 L2C IP-based stride prefetcher
Initialize DRRIP state
Assign rand_sets[0]: 454  LLC: 2048
rand_sets[0]: 454
Assign rand_sets[1]: 1662  LLC: 2048
rand_sets[1]: 1662
Assign rand_sets[2]: 1921  LLC: 2048
rand_sets[2]: 1921
Assign rand_sets[3]: 1131  LLC: 2048
rand_sets[3]: 1131
Assign rand_sets[4]: 331  LLC: 2048
rand_sets[4]: 331
Assign rand_sets[5]: 1531  LLC: 2048
rand_sets[5]: 1531
Assign rand_sets[6]: 482  LLC: 2048
rand_sets[6]: 482
Assign rand_sets[7]: 1275  LLC: 2048
rand_sets[7]: 1275
Assign rand_sets[8]: 1876  LLC: 2048
rand_sets[8]: 1876
Assign rand_sets[9]: 2038  LLC: 2048
rand_sets[9]: 2038
Assign rand_sets[10]: 701  LLC: 2048
rand_sets[10]: 701
Assign rand_sets[11]: 479  LLC: 2048
rand_sets[11]: 479
Assign rand_sets[12]: 892  LLC: 2048
rand_sets[12]: 892
Assign rand_sets[13]: 1820  LLC: 2048
rand_sets[13]: 1820
Assign rand_sets[14]: 1505  LLC: 2048
rand_sets[14]: 1505
Assign rand_sets[15]: 1159  LLC: 2048
rand_sets[15]: 1159
Assign rand_sets[16]: 513  LLC: 2048
rand_sets[16]: 513
Assign rand_sets[17]: 703  LLC: 2048
rand_sets[17]: 703
Assign rand_sets[18]: 561  LLC: 2048
rand_sets[18]: 561
Assign rand_sets[19]: 990  LLC: 2048
rand_sets[19]: 990
Assign rand_sets[20]: 342  LLC: 2048
rand_sets[20]: 342
Assign rand_sets[21]: 882  LLC: 2048
rand_sets[21]: 882
Assign rand_sets[22]: 15  LLC: 2048
rand_sets[22]: 15
Assign rand_sets[23]: 71  LLC: 2048
rand_sets[23]: 71
Assign rand_sets[24]: 1127  LLC: 2048
rand_sets[24]: 1127
Assign rand_sets[25]: 1382  LLC: 2048
rand_sets[25]: 1382
Assign rand_sets[26]: 647  LLC: 2048
rand_sets[26]: 647
Assign rand_sets[27]: 857  LLC: 2048
rand_sets[27]: 857
Assign rand_sets[28]: 1450  LLC: 2048
rand_sets[28]: 1450
Assign rand_sets[29]: 1160  LLC: 2048
rand_sets[29]: 1160
Assign rand_sets[30]: 1852  LLC: 2048
rand_sets[30]: 1852
Assign rand_sets[31]: 1881  LLC: 2048
rand_sets[31]: 1881
Assign rand_sets[32]: 1770  LLC: 2048
rand_sets[32]: 1770
Assign rand_sets[33]: 1622  LLC: 2048
rand_sets[33]: 1622
Assign rand_sets[34]: 275  LLC: 2048
rand_sets[34]: 275
Assign rand_sets[35]: 635  LLC: 2048
rand_sets[35]: 635
Assign rand_sets[36]: 466  LLC: 2048
rand_sets[36]: 466
Assign rand_sets[37]: 1413  LLC: 2048
rand_sets[37]: 1413
Assign rand_sets[38]: 417  LLC: 2048
rand_sets[38]: 417
Assign rand_sets[39]: 472  LLC: 2048
rand_sets[39]: 472
Assign rand_sets[40]: 1340  LLC: 2048
rand_sets[40]: 1340
Assign rand_sets[41]: 852  LLC: 2048
rand_sets[41]: 852
Assign rand_sets[42]: 1365  LLC: 2048
rand_sets[42]: 1365
Assign rand_sets[43]: 47  LLC: 2048
rand_sets[43]: 47
Assign rand_sets[44]: 823  LLC: 2048
rand_sets[44]: 823
Assign rand_sets[45]: 686  LLC: 2048
rand_sets[45]: 686
Assign rand_sets[46]: 1637  LLC: 2048
rand_sets[46]: 1637
Assign rand_sets[47]: 1115  LLC: 2048
rand_sets[47]: 1115
Assign rand_sets[48]: 986  LLC: 2048
rand_sets[48]: 986
Assign rand_sets[49]: 258  LLC: 2048
rand_sets[49]: 258
Assign rand_sets[50]: 633  LLC: 2048
rand_sets[50]: 633
Assign rand_sets[51]: 920  LLC: 2048
rand_sets[51]: 920
Assign rand_sets[52]: 204  LLC: 2048
rand_sets[52]: 204
Assign rand_sets[53]: 227  LLC: 2048
rand_sets[53]: 227
Assign rand_sets[54]: 1818  LLC: 2048
rand_sets[54]: 1818
Assign rand_sets[55]: 886  LLC: 2048
rand_sets[55]: 886
Assign rand_sets[56]: 1422  LLC: 2048
rand_sets[56]: 1422
Assign rand_sets[57]: 607  LLC: 2048
rand_sets[57]: 607
Assign rand_sets[58]: 217  LLC: 2048
rand_sets[58]: 217
Assign rand_sets[59]: 1945  LLC: 2048
rand_sets[59]: 1945
Assign rand_sets[60]: 143  LLC: 2048
rand_sets[60]: 143
Assign rand_sets[61]: 1311  LLC: 2048
rand_sets[61]: 1311
Assign rand_sets[62]: 319  LLC: 2048
rand_sets[62]: 319
Assign rand_sets[63]: 1846  LLC: 2048
rand_sets[63]: 1846
 CLEAN-RRIP-POLICY-1: 2-2-1-3-2-3-0-2- CLEAN-RRIP-POLICY-2: 2-2-1-3-2-3-0-2-
 DIRTY-RRIP-POLICY-1: 2-2-0-3-1-3-0-2- DIRTY-RRIP-POLICY-2: 2-2-0-3-1-3-0-2-
 PSEL width: 10
Heartbeat CPU 0 instructions: 10000002 cycles: 6559548 heartbeat IPC: 1.5245 cumulative IPC: 1.5245 (Simulation time: 0 hr 0 min 21 sec) 
Heartbeat CPU 0 instructions: 20000000 cycles: 12222141 heartbeat IPC: 1.76597 cumulative IPC: 1.63637 (Simulation time: 0 hr 0 min 41 sec) 
Heartbeat CPU 0 instructions: 30000003 cycles: 18203950 heartbeat IPC: 1.67174 cumulative IPC: 1.64799 (Simulation time: 0 hr 1 min 1 sec) 
Heartbeat CPU 0 instructions: 40000000 cycles: 24059291 heartbeat IPC: 1.70784 cumulative IPC: 1.66256 (Simulation time: 0 hr 1 min 21 sec) 
Heartbeat CPU 0 instructions: 50000000 cycles: 29527635 heartbeat IPC: 1.82871 cumulative IPC: 1.69333 (Simulation time: 0 hr 1 min 41 sec) 
Heartbeat CPU 0 instructions: 60000000 cycles: 35640430 heartbeat IPC: 1.63591 cumulative IPC: 1.68348 (Simulation time: 0 hr 2 min 2 sec) 
Heartbeat CPU 0 instructions: 70000000 cycles: 41360115 heartbeat IPC: 1.74835 cumulative IPC: 1.69245 (Simulation time: 0 hr 2 min 22 sec) 
Heartbeat CPU 0 instructions: 80000000 cycles: 47231072 heartbeat IPC: 1.7033 cumulative IPC: 1.6938 (Simulation time: 0 hr 2 min 42 sec) 
Heartbeat CPU 0 instructions: 90000000 cycles: 52984595 heartbeat IPC: 1.73807 cumulative IPC: 1.69861 (Simulation time: 0 hr 3 min 2 sec) 
Heartbeat CPU 0 instructions: 100000000 cycles: 58537706 heartbeat IPC: 1.80079 cumulative IPC: 1.7083 (Simulation time: 0 hr 3 min 22 sec) 

Warmup complete CPU 0 instructions: 100000004 cycles: 58537708 (Simulation time: 0 hr 3 min 22 sec) 

Heartbeat CPU 0 instructions: 110000001 cycles: 72350604 heartbeat IPC: 0.723961 cumulative IPC: 0.723961 (Simulation time: 0 hr 3 min 46 sec) 
Heartbeat CPU 0 instructions: 120000000 cycles: 82938470 heartbeat IPC: 0.944477 cumulative IPC: 0.819646 (Simulation time: 0 hr 4 min 10 sec) 
Heartbeat CPU 0 instructions: 130000000 cycles: 92877849 heartbeat IPC: 1.0061 cumulative IPC: 0.873613 (Simulation time: 0 hr 4 min 32 sec) 
Heartbeat CPU 0 instructions: 140000000 cycles: 103578689 heartbeat IPC: 0.934506 cumulative IPC: 0.88808 (Simulation time: 0 hr 4 min 54 sec) 
Heartbeat CPU 0 instructions: 150000002 cycles: 114484772 heartbeat IPC: 0.91692 cumulative IPC: 0.893702 (Simulation time: 0 hr 5 min 17 sec) 
Heartbeat CPU 0 instructions: 160000000 cycles: 123487149 heartbeat IPC: 1.11082 cumulative IPC: 0.923795 (Simulation time: 0 hr 5 min 39 sec) 
Heartbeat CPU 0 instructions: 170000003 cycles: 133928916 heartbeat IPC: 0.957693 cumulative IPC: 0.92849 (Simulation time: 0 hr 6 min 1 sec) 
Heartbeat CPU 0 instructions: 180000000 cycles: 146415015 heartbeat IPC: 0.80089 cumulative IPC: 0.91036 (Simulation time: 0 hr 6 min 25 sec) 
Heartbeat CPU 0 instructions: 190000000 cycles: 161493448 heartbeat IPC: 0.663199 cumulative IPC: 0.874162 (Simulation time: 0 hr 6 min 49 sec) 
Heartbeat CPU 0 instructions: 200000000 cycles: 176532445 heartbeat IPC: 0.664938 cumulative IPC: 0.847495 (Simulation time: 0 hr 7 min 12 sec) 
Heartbeat CPU 0 instructions: 210000000 cycles: 191567973 heartbeat IPC: 0.665091 cumulative IPC: 0.82688 (Simulation time: 0 hr 7 min 36 sec) 
Heartbeat CPU 0 instructions: 220000000 cycles: 207523154 heartbeat IPC: 0.626756 cumulative IPC: 0.805448 (Simulation time: 0 hr 8 min 2 sec) 
Heartbeat CPU 0 instructions: 230000003 cycles: 226212978 heartbeat IPC: 0.535051 cumulative IPC: 0.775308 (Simulation time: 0 hr 8 min 29 sec) 
Heartbeat CPU 0 instructions: 240000000 cycles: 235645906 heartbeat IPC: 1.06012 cumulative IPC: 0.790477 (Simulation time: 0 hr 8 min 51 sec) 
Heartbeat CPU 0 instructions: 250000000 cycles: 244372596 heartbeat IPC: 1.14591 cumulative IPC: 0.807168 (Simulation time: 0 hr 9 min 12 sec) 
Heartbeat CPU 0 instructions: 260000000 cycles: 253407403 heartbeat IPC: 1.10683 cumulative IPC: 0.821061 (Simulation time: 0 hr 9 min 33 sec) 
Heartbeat CPU 0 instructions: 270000000 cycles: 262995187 heartbeat IPC: 1.04299 cumulative IPC: 0.831469 (Simulation time: 0 hr 9 min 56 sec) 
Heartbeat CPU 0 instructions: 280000000 cycles: 272777339 heartbeat IPC: 1.02227 cumulative IPC: 0.840181 (Simulation time: 0 hr 10 min 19 sec) 
Heartbeat CPU 0 instructions: 290000000 cycles: 282908900 heartbeat IPC: 0.987015 cumulative IPC: 0.846811 (Simulation time: 0 hr 10 min 43 sec) 
Heartbeat CPU 0 instructions: 300000000 cycles: 291799742 heartbeat IPC: 1.12475 cumulative IPC: 0.857405 (Simulation time: 0 hr 11 min 5 sec) 
Heartbeat CPU 0 instructions: 310000002 cycles: 306363013 heartbeat IPC: 0.686659 cumulative IPC: 0.847371 (Simulation time: 0 hr 11 min 30 sec) 
Heartbeat CPU 0 instructions: 320000000 cycles: 322429460 heartbeat IPC: 0.622415 cumulative IPC: 0.833675 (Simulation time: 0 hr 11 min 58 sec) 
Heartbeat CPU 0 instructions: 330000002 cycles: 333065341 heartbeat IPC: 0.940214 cumulative IPC: 0.837803 (Simulation time: 0 hr 12 min 21 sec) 
Heartbeat CPU 0 instructions: 340000000 cycles: 343573988 heartbeat IPC: 0.951597 cumulative IPC: 0.841998 (Simulation time: 0 hr 12 min 44 sec) 
Heartbeat CPU 0 instructions: 350000002 cycles: 356592129 heartbeat IPC: 0.768159 cumulative IPC: 0.838773 (Simulation time: 0 hr 13 min 9 sec) 
Heartbeat CPU 0 instructions: 360000000 cycles: 367728016 heartbeat IPC: 0.897997 cumulative IPC: 0.840906 (Simulation time: 0 hr 13 min 33 sec) 
Heartbeat CPU 0 instructions: 370000002 cycles: 378473067 heartbeat IPC: 0.930661 cumulative IPC: 0.84392 (Simulation time: 0 hr 13 min 56 sec) 
Heartbeat CPU 0 instructions: 380000000 cycles: 388994148 heartbeat IPC: 0.950472 cumulative IPC: 0.847313 (Simulation time: 0 hr 14 min 20 sec) 
Heartbeat CPU 0 instructions: 390000003 cycles: 406433902 heartbeat IPC: 0.573403 cumulative IPC: 0.833582 (Simulation time: 0 hr 14 min 48 sec) 
Heartbeat CPU 0 instructions: 400000000 cycles: 417028906 heartbeat IPC: 0.943841 cumulative IPC: 0.836841 (Simulation time: 0 hr 15 min 10 sec) 
Heartbeat CPU 0 instructions: 410000002 cycles: 427271491 heartbeat IPC: 0.976316 cumulative IPC: 0.840715 (Simulation time: 0 hr 15 min 31 sec) 
Heartbeat CPU 0 instructions: 420000000 cycles: 437294193 heartbeat IPC: 0.997735 cumulative IPC: 0.84487 (Simulation time: 0 hr 15 min 53 sec) 
Heartbeat CPU 0 instructions: 430000003 cycles: 447376545 heartbeat IPC: 0.991832 cumulative IPC: 0.848681 (Simulation time: 0 hr 16 min 14 sec) 
Heartbeat CPU 0 instructions: 440000000 cycles: 458841801 heartbeat IPC: 0.8722 cumulative IPC: 0.849354 (Simulation time: 0 hr 16 min 36 sec) 
Heartbeat CPU 0 instructions: 450000002 cycles: 473920478 heartbeat IPC: 0.663188 cumulative IPC: 0.842596 (Simulation time: 0 hr 17 min 0 sec) 
Heartbeat CPU 0 instructions: 460000000 cycles: 488979910 heartbeat IPC: 0.664036 cumulative IPC: 0.836349 (Simulation time: 0 hr 17 min 23 sec) 
Heartbeat CPU 0 instructions: 470000003 cycles: 504030814 heartbeat IPC: 0.664412 cumulative IPC: 0.83054 (Simulation time: 0 hr 17 min 47 sec) 
Heartbeat CPU 0 instructions: 480000000 cycles: 520012421 heartbeat IPC: 0.625719 cumulative IPC: 0.823447 (Simulation time: 0 hr 18 min 12 sec) 
Heartbeat CPU 0 instructions: 490000002 cycles: 538816064 heartbeat IPC: 0.531812 cumulative IPC: 0.812029 (Simulation time: 0 hr 18 min 40 sec) 
Heartbeat CPU 0 instructions: 500000000 cycles: 548204507 heartbeat IPC: 1.06514 cumulative IPC: 0.816882 (Simulation time: 0 hr 19 min 1 sec) 
Heartbeat CPU 0 instructions: 510000002 cycles: 557000516 heartbeat IPC: 1.13688 cumulative IPC: 0.822529 (Simulation time: 0 hr 19 min 22 sec) 
Heartbeat CPU 0 instructions: 520000000 cycles: 566024904 heartbeat IPC: 1.10811 cumulative IPC: 0.827607 (Simulation time: 0 hr 19 min 43 sec) 
Heartbeat CPU 0 instructions: 530000002 cycles: 575616816 heartbeat IPC: 1.04255 cumulative IPC: 0.831594 (Simulation time: 0 hr 20 min 5 sec) 
Heartbeat CPU 0 instructions: 540000000 cycles: 585334654 heartbeat IPC: 1.02904 cumulative IPC: 0.835236 (Simulation time: 0 hr 20 min 28 sec) 
Heartbeat CPU 0 instructions: 550000002 cycles: 595498267 heartbeat IPC: 0.983902 cumulative IPC: 0.83805 (Simulation time: 0 hr 20 min 52 sec) 
Heartbeat CPU 0 instructions: 560000000 cycles: 604389622 heartbeat IPC: 1.12469 cumulative IPC: 0.842719 (Simulation time: 0 hr 21 min 14 sec) 
Heartbeat CPU 0 instructions: 570000000 cycles: 618798723 heartbeat IPC: 0.694006 cumulative IPC: 0.838895 (Simulation time: 0 hr 21 min 39 sec) 
Heartbeat CPU 0 instructions: 580000000 cycles: 634989256 heartbeat IPC: 0.617645 cumulative IPC: 0.832681 (Simulation time: 0 hr 22 min 7 sec) 
Heartbeat CPU 0 instructions: 590000002 cycles: 645237533 heartbeat IPC: 0.975774 cumulative IPC: 0.83518 (Simulation time: 0 hr 22 min 30 sec) 
Heartbeat CPU 0 instructions: 600000000 cycles: 656139172 heartbeat IPC: 0.917293 cumulative IPC: 0.836678 (Simulation time: 0 hr 22 min 53 sec) 
Finished CPU 0 instructions: 500000000 cycles: 597601483 cumulative IPC: 0.836678 (Simulation time: 0 hr 22 min 53 sec) 

CPU 0 Branch Prediction Accuracy: 99.5219% MPKI: 0.251582
Number of Branches: 26312578 Number of Mispredictions: 125791
Number of LOAD Instructions: 235643083
Number of LOAD Instructions (ROI): 235643083
Number of STORE Instructions: 37593550
Number of STORE Instructions (ROI): 37593550
Total Destination Memory Operands: 40480968
Total Destination Memory Operands (ROI): 40480968
Total Source Memory Operands: 235643083
Total Source Memory Operands (ROI): 235643083
Number of DEPENDED LOADS: 6698819
Number of DEPENDED LOADS (ROI): 6698819
Number of SQ_ADDED: 40480950
Number of SQ_ADDED (ROI): 40480950
Number of LQ_ADDED: 389248353
Number of LQ_ADDED (ROI): 389248353
Number of Instructions read from trace: 600000259

ChampSim completed all CPUs

Region of Interest Statistics

CPU 0 cumulative IPC: 0.836678 instructions: 500000000 cycles: 597601483
ITLB TOTAL     ACCESS:  109348200  HIT:  109347687  MISS:        513
ITLB LOAD      ACCESS:  109348200  HIT:  109347687  MISS:        513
ITLB RFO       ACCESS:          0  HIT:          0  MISS:          0
ITLB PREFETCH  ACCESS:          0  HIT:          0  MISS:          0
ITLB WRITEBACK ACCESS:          0  HIT:          0  MISS:          0
ITLB PREFETCH  REQUESTED:          0  ISSUED:          0  USEFUL:          0  USELESS:          0
ITLB TOTAL MSHR MERGED:        965
ITLB LOAD MSHR MERGED:        965
ITLB RFO MSHR MERGED:          0
ITLB PREFETCH MSHR MERGED:          0
ITLB WRITEBACK MSHR MERGED:          0
ITLB TOTAL ACCESSES:  109349165 HITS:  109347687 MISSES:       1478
ITLB LOAD ACCESSES:  109349165 HITS:  109347687 MISSES:       1478
ITLB RFO ACCESSES:          0 HITS:          0 MISSES:          0
ITLB PREFETCH ACCESSES:          0 HITS:          0 MISSES:          0
ITLB WRITEBACK ACCESSES:          0 HITS:          0 MISSES:          0
ITLB RQ ACCESS:  500000003
ITLB RQ TO_CACHE:  109349165
ITLB RQ MERGED:  390650838
ITLB RQ FORWARD:          0
ITLB WQ ACCESS:          0
ITLB WQ TO_CACHE:          0
ITLB WQ MERGED:          0
ITLB WQ FORWARD:          0
DTLB TOTAL     ACCESS:  130444478  HIT:  130186783  MISS:     257695
DTLB LOAD      ACCESS:  109052963  HIT:  108832122  MISS:     220841
DTLB RFO       ACCESS:   21391515  HIT:   21354661  MISS:      36854
DTLB PREFETCH  ACCESS:          0  HIT:          0  MISS:          0
DTLB WRITEBACK ACCESS:          0  HIT:          0  MISS:          0
DTLB PREFETCH  REQUESTED:          0  ISSUED:          0  USEFUL:          0  USELESS:          0
DTLB TOTAL MSHR MERGED:     121864
DTLB LOAD MSHR MERGED:      84003
DTLB RFO MSHR MERGED:      37861
DTLB PREFETCH MSHR MERGED:          0
DTLB WRITEBACK MSHR MERGED:          0
DTLB TOTAL ACCESSES:  130566342 HITS:  130186783 MISSES:     379559
DTLB LOAD ACCESSES:  109136966 HITS:  108832122 MISSES:     304844
DTLB RFO ACCESSES:   21429376 HITS:   21354661 MISSES:      74715
DTLB PREFETCH ACCESSES:          0 HITS:          0 MISSES:          0
DTLB WRITEBACK ACCESSES:          0 HITS:          0 MISSES:          0
DTLB RQ ACCESS:  218635639
DTLB RQ TO_CACHE:  130566343
DTLB RQ MERGED:   88069296
DTLB RQ FORWARD:          0
DTLB WQ ACCESS:          0
DTLB WQ TO_CACHE:          0
DTLB WQ MERGED:          0
DTLB WQ FORWARD:          0
L1D TOTAL     ACCESS:  204629815  HIT:  193558177  MISS:   11071638
L1D LOAD      ACCESS:  106294921  HIT:  103114585  MISS:    3180336
L1D RFO       ACCESS:   26957702  HIT:   25207201  MISS:    1750501
L1D PREFETCH  ACCESS:   71377192  HIT:   65236391  MISS:    6140801
L1D WRITEBACK ACCESS:          0  HIT:          0  MISS:          0
L1D PREFETCH  REQUESTED:  108938336  ISSUED:  107275975  USEFUL:    5686733  USELESS:     454062
L1D TOTAL MSHR MERGED:   18364585
L1D LOAD MSHR MERGED:    4660621
L1D RFO MSHR MERGED:    6483958
L1D PREFETCH MSHR MERGED:    7220006
L1D WRITEBACK MSHR MERGED:          0
L1D TOTAL ACCESSES:  223053542 HITS:  193617319 MISSES:   29436223
L1D LOAD ACCESSES:  108961835 HITS:  103138084 MISSES:    5823751
L1D RFO ACCESSES:   33439471 HITS:   25207201 MISSES:    8232270
L1D PREFETCH ACCESSES:   80652236 HITS:   65272034 MISSES:   15380202
L1D WRITEBACK ACCESSES:          0 HITS:          0 MISSES:          0
L1D RQ ACCESS:  184992201
L1D RQ TO_CACHE:  108938336
L1D RQ MERGED:   76030366
L1D RQ FORWARD:          0
L1D WQ ACCESS:   33643426
L1D WQ TO_CACHE:   33439470
L1D WQ MERGED:     203956
L1D WQ FORWARD:      59142
L1I TOTAL     ACCESS:  134030834  HIT:  134006256  MISS:      24578
L1I LOAD      ACCESS:  134030834  HIT:  134006256  MISS:      24578
L1I RFO       ACCESS:          0  HIT:          0  MISS:          0
L1I PREFETCH  ACCESS:          0  HIT:          0  MISS:          0
L1I WRITEBACK ACCESS:          0  HIT:          0  MISS:          0
L1I PREFETCH  REQUESTED:          0  ISSUED:          0  USEFUL:          0  USELESS:          0
L1I TOTAL MSHR MERGED:      30588
L1I LOAD MSHR MERGED:      30588
L1I RFO MSHR MERGED:          0
L1I PREFETCH MSHR MERGED:          0
L1I WRITEBACK MSHR MERGED:          0
L1I TOTAL ACCESSES:  134061422 HITS:  134006256 MISSES:      55166
L1I LOAD ACCESSES:  134061422 HITS:  134006256 MISSES:      55166
L1I RFO ACCESSES:          0 HITS:          0 MISSES:          0
L1I PREFETCH ACCESSES:          0 HITS:          0 MISSES:          0
L1I WRITEBACK ACCESSES:          0 HITS:          0 MISSES:          0
L1I RQ ACCESS:  500000005
L1I RQ TO_CACHE:  134061422
L1I RQ MERGED:  365938583
L1I RQ FORWARD:          0
L1I WQ ACCESS:          0
L1I WQ TO_CACHE:          0
L1I WQ MERGED:          0
L1I WQ FORWARD:          0
L2C TOTAL     ACCESS:   14942030  HIT:    6945764  MISS:    7996266
L2C LOAD      ACCESS:    1187519  HIT:     299097  MISS:     888422
L2C RFO       ACCESS:    1748107  HIT:     369610  MISS:    1378497
L2C PREFETCH  ACCESS:    8324572  HIT:    2603917  MISS:    5720655
L2C WRITEBACK ACCESS:    3681832  HIT:    3673140  MISS:       8692
L2C PREFETCH  REQUESTED:     390494  ISSUED:     390492  USEFUL:     114945  USELESS:    5606542
L2C TOTAL MSHR MERGED:      41823
L2C LOAD MSHR MERGED:       2279
L2C RFO MSHR MERGED:       1502
L2C PREFETCH MSHR MERGED:      38042
L2C WRITEBACK MSHR MERGED:          0
L2C TOTAL ACCESSES:   15103914 HITS:    6946445 MISSES:    8157469
L2C LOAD ACCESSES:    1187708 HITS:     299286 MISSES:     888422
L2C RFO ACCESSES:    1748312 HITS:     369815 MISSES:    1378497
L2C PREFETCH ACCESSES:    8486062 HITS:    2604204 MISSES:    5881858
L2C WRITEBACK ACCESSES:    3681832 HITS:    3673140 MISSES:       8692
L2C RQ ACCESS:    2936020
L2C RQ TO_CACHE:    2935626
L2C RQ MERGED:          0
L2C RQ FORWARD:          0
L2C WQ ACCESS:    3681832
L2C WQ TO_CACHE:    3681832
L2C WQ MERGED:          0
L2C WQ FORWARD:        681
LLC TOTAL     ACCESS:   11181812  HIT:    2927022  MISS:    8254790
LLC LOAD      ACCESS:     886141  HIT:     309846  MISS:     576295
LLC RFO       ACCESS:    1376993  HIT:     239524  MISS:    1137469
LLC PREFETCH  ACCESS:    5814639  HIT:    1109190  MISS:    4705449
LLC WRITEBACK ACCESS:    3104039  HIT:    1268462  MISS:    1835577
LLC PREFETCH  REQUESTED:          0  ISSUED:          0  USEFUL:      35787  USELESS:    4669072
LLC TOTAL MSHR MERGED:      22039
LLC LOAD MSHR MERGED:       6739
LLC RFO MSHR MERGED:        598
LLC PREFETCH MSHR MERGED:      14702
LLC WRITEBACK MSHR MERGED:          0
LLC TOTAL ACCESSES:   11203867 HITS:    2927038 MISSES:    8276829
LLC LOAD ACCESSES:     886143 HITS:     309848 MISSES:     576295
LLC RFO ACCESSES:    1376995 HITS:     239526 MISSES:    1137469
LLC PREFETCH ACCESSES:    5836690 HITS:    1109202 MISSES:    4727488
LLC WRITEBACK ACCESSES:    3104039 HITS:    1268462 MISSES:    1835577
LLC 0 RQ ACCESS:    2263138
LLC 0 RQ TO_CACHE:    2263134
LLC 0 RQ MERGED:          0
LLC 0 RQ FORWARD:          0
LLC WQ ACCESS:    3104039
LLC WQ TO_CACHE:    3104039
LLC WQ MERGED:          0
LLC WQ FORWARD:         16
Major fault: 0 Minor fault: 11519
CPU 0 L1D next line prefetcher final stats
CPU 0 L2C PC-based stride prefetcher final stats
All Misses: 10366331
All Hits: 3426584
SD Algo Stats - Switches: 0 SRR-Repls: 648011 BRR-Repls: 0

DRAM Statistics
 CHANNEL 0
 RQ ROW_BUFFER_HIT:    3912578  ROW_BUFFER_MISS:    2505743
 DBUS_CONGESTED:    4417655
 WQ ROW_BUFFER_HIT:     359715  ROW_BUFFER_MISS:    1840664  FULL:        280

 AVG_CONGESTED_CYCLE: 13
LOADS RETIRED: 190375692
INSTR RETIRED: 500000000
