
*** ChampSim Multicore Out-of-Order Simulator ***

Warmup Instructions: 100000000
Simulation Instructions: 500000000
Number of CPUs: 1
LLC sets: 2048
LLC ways: 16
Clean RRIP Policies: 2213230222132302 Dirty RRIP Policies: 2203130222031302 PSEL Width: 10 Track Set: 4294967295 PSEL Mask: 1 Demote Mask: 4000100040001000DS Algo: 0Window size: 0
Off-chip DRAM Size: 4096 MB Channels: 1 Width: 64-bit Data Rate: 1600 MT/s

CPU 0 runs /mnt/beegfs/iconst01/spec2017/Xalancbmk.trace.gz
NOT SORTED
TRACE STRING: /mnt/beegfs/iconst01/spec2017/Xalancbmk.trace.gz
SORTED
TRACE STRING: /mnt/beegfs/iconst01/spec2017/Xalancbmk.trace.gz
INITIAL
TRACE STRING: /mnt/beegfs/iconst01/spec2017/Xalancbmk.trace.gz

champsim_seed used: 913

CPU 0 L1D next line prefetcher
CPU 0 L2C IP-based stride prefetcher
Initialize DRRIP state
Assign rand_sets[0]: 454  LLC: 2048
rand_sets[0]: 454
Assign rand_sets[1]: 1662  LLC: 2048
rand_sets[1]: 1662
Assign rand_sets[2]: 1921  LLC: 2048
rand_sets[2]: 1921
Assign rand_sets[3]: 1131  LLC: 2048
rand_sets[3]: 1131
Assign rand_sets[4]: 331  LLC: 2048
rand_sets[4]: 331
Assign rand_sets[5]: 1531  LLC: 2048
rand_sets[5]: 1531
Assign rand_sets[6]: 482  LLC: 2048
rand_sets[6]: 482
Assign rand_sets[7]: 1275  LLC: 2048
rand_sets[7]: 1275
Assign rand_sets[8]: 1876  LLC: 2048
rand_sets[8]: 1876
Assign rand_sets[9]: 2038  LLC: 2048
rand_sets[9]: 2038
Assign rand_sets[10]: 701  LLC: 2048
rand_sets[10]: 701
Assign rand_sets[11]: 479  LLC: 2048
rand_sets[11]: 479
Assign rand_sets[12]: 892  LLC: 2048
rand_sets[12]: 892
Assign rand_sets[13]: 1820  LLC: 2048
rand_sets[13]: 1820
Assign rand_sets[14]: 1505  LLC: 2048
rand_sets[14]: 1505
Assign rand_sets[15]: 1159  LLC: 2048
rand_sets[15]: 1159
Assign rand_sets[16]: 513  LLC: 2048
rand_sets[16]: 513
Assign rand_sets[17]: 703  LLC: 2048
rand_sets[17]: 703
Assign rand_sets[18]: 561  LLC: 2048
rand_sets[18]: 561
Assign rand_sets[19]: 990  LLC: 2048
rand_sets[19]: 990
Assign rand_sets[20]: 342  LLC: 2048
rand_sets[20]: 342
Assign rand_sets[21]: 882  LLC: 2048
rand_sets[21]: 882
Assign rand_sets[22]: 15  LLC: 2048
rand_sets[22]: 15
Assign rand_sets[23]: 71  LLC: 2048
rand_sets[23]: 71
Assign rand_sets[24]: 1127  LLC: 2048
rand_sets[24]: 1127
Assign rand_sets[25]: 1382  LLC: 2048
rand_sets[25]: 1382
Assign rand_sets[26]: 647  LLC: 2048
rand_sets[26]: 647
Assign rand_sets[27]: 857  LLC: 2048
rand_sets[27]: 857
Assign rand_sets[28]: 1450  LLC: 2048
rand_sets[28]: 1450
Assign rand_sets[29]: 1160  LLC: 2048
rand_sets[29]: 1160
Assign rand_sets[30]: 1852  LLC: 2048
rand_sets[30]: 1852
Assign rand_sets[31]: 1881  LLC: 2048
rand_sets[31]: 1881
Assign rand_sets[32]: 1770  LLC: 2048
rand_sets[32]: 1770
Assign rand_sets[33]: 1622  LLC: 2048
rand_sets[33]: 1622
Assign rand_sets[34]: 275  LLC: 2048
rand_sets[34]: 275
Assign rand_sets[35]: 635  LLC: 2048
rand_sets[35]: 635
Assign rand_sets[36]: 466  LLC: 2048
rand_sets[36]: 466
Assign rand_sets[37]: 1413  LLC: 2048
rand_sets[37]: 1413
Assign rand_sets[38]: 417  LLC: 2048
rand_sets[38]: 417
Assign rand_sets[39]: 472  LLC: 2048
rand_sets[39]: 472
Assign rand_sets[40]: 1340  LLC: 2048
rand_sets[40]: 1340
Assign rand_sets[41]: 852  LLC: 2048
rand_sets[41]: 852
Assign rand_sets[42]: 1365  LLC: 2048
rand_sets[42]: 1365
Assign rand_sets[43]: 47  LLC: 2048
rand_sets[43]: 47
Assign rand_sets[44]: 823  LLC: 2048
rand_sets[44]: 823
Assign rand_sets[45]: 686  LLC: 2048
rand_sets[45]: 686
Assign rand_sets[46]: 1637  LLC: 2048
rand_sets[46]: 1637
Assign rand_sets[47]: 1115  LLC: 2048
rand_sets[47]: 1115
Assign rand_sets[48]: 986  LLC: 2048
rand_sets[48]: 986
Assign rand_sets[49]: 258  LLC: 2048
rand_sets[49]: 258
Assign rand_sets[50]: 633  LLC: 2048
rand_sets[50]: 633
Assign rand_sets[51]: 920  LLC: 2048
rand_sets[51]: 920
Assign rand_sets[52]: 204  LLC: 2048
rand_sets[52]: 204
Assign rand_sets[53]: 227  LLC: 2048
rand_sets[53]: 227
Assign rand_sets[54]: 1818  LLC: 2048
rand_sets[54]: 1818
Assign rand_sets[55]: 886  LLC: 2048
rand_sets[55]: 886
Assign rand_sets[56]: 1422  LLC: 2048
rand_sets[56]: 1422
Assign rand_sets[57]: 607  LLC: 2048
rand_sets[57]: 607
Assign rand_sets[58]: 217  LLC: 2048
rand_sets[58]: 217
Assign rand_sets[59]: 1945  LLC: 2048
rand_sets[59]: 1945
Assign rand_sets[60]: 143  LLC: 2048
rand_sets[60]: 143
Assign rand_sets[61]: 1311  LLC: 2048
rand_sets[61]: 1311
Assign rand_sets[62]: 319  LLC: 2048
rand_sets[62]: 319
Assign rand_sets[63]: 1846  LLC: 2048
rand_sets[63]: 1846
 CLEAN-RRIP-POLICY-1: 2-2-1-3-2-3-0-2- CLEAN-RRIP-POLICY-2: 2-2-1-3-2-3-0-2-
 DIRTY-RRIP-POLICY-1: 2-2-0-3-1-3-0-2- DIRTY-RRIP-POLICY-2: 2-2-0-3-1-3-0-2-
 PSEL width: 10
Heartbeat CPU 0 instructions: 10000003 cycles: 4592543 heartbeat IPC: 2.17744 cumulative IPC: 2.17744 (Simulation time: 0 hr 0 min 14 sec) 
Heartbeat CPU 0 instructions: 20000000 cycles: 8984819 heartbeat IPC: 2.27672 cumulative IPC: 2.22598 (Simulation time: 0 hr 0 min 28 sec) 
Heartbeat CPU 0 instructions: 30000000 cycles: 13393675 heartbeat IPC: 2.26816 cumulative IPC: 2.23986 (Simulation time: 0 hr 0 min 41 sec) 
Heartbeat CPU 0 instructions: 40000000 cycles: 18021935 heartbeat IPC: 2.16064 cumulative IPC: 2.21952 (Simulation time: 0 hr 0 min 56 sec) 
Heartbeat CPU 0 instructions: 50000002 cycles: 22438151 heartbeat IPC: 2.26438 cumulative IPC: 2.22835 (Simulation time: 0 hr 1 min 10 sec) 
Heartbeat CPU 0 instructions: 60000000 cycles: 27093547 heartbeat IPC: 2.14804 cumulative IPC: 2.21455 (Simulation time: 0 hr 1 min 25 sec) 
Heartbeat CPU 0 instructions: 70000003 cycles: 31498312 heartbeat IPC: 2.27027 cumulative IPC: 2.22234 (Simulation time: 0 hr 1 min 39 sec) 
Heartbeat CPU 0 instructions: 80000000 cycles: 35918713 heartbeat IPC: 2.26224 cumulative IPC: 2.22725 (Simulation time: 0 hr 1 min 52 sec) 
Heartbeat CPU 0 instructions: 90000002 cycles: 40373685 heartbeat IPC: 2.24468 cumulative IPC: 2.22917 (Simulation time: 0 hr 2 min 6 sec) 
Heartbeat CPU 0 instructions: 100000000 cycles: 44845137 heartbeat IPC: 2.23641 cumulative IPC: 2.2299 (Simulation time: 0 hr 2 min 20 sec) 

Warmup complete CPU 0 instructions: 100000003 cycles: 44845138 (Simulation time: 0 hr 2 min 20 sec) 

Heartbeat CPU 0 instructions: 110000000 cycles: 71868450 heartbeat IPC: 0.370051 cumulative IPC: 0.370051 (Simulation time: 0 hr 2 min 50 sec) 
Heartbeat CPU 0 instructions: 120000000 cycles: 100449148 heartbeat IPC: 0.349886 cumulative IPC: 0.359686 (Simulation time: 0 hr 3 min 21 sec) 
Heartbeat CPU 0 instructions: 130000000 cycles: 123844693 heartbeat IPC: 0.427432 cumulative IPC: 0.379749 (Simulation time: 0 hr 3 min 48 sec) 
Heartbeat CPU 0 instructions: 140000000 cycles: 146482225 heartbeat IPC: 0.441744 cumulative IPC: 0.393557 (Simulation time: 0 hr 4 min 14 sec) 
Heartbeat CPU 0 instructions: 150000000 cycles: 170882855 heartbeat IPC: 0.409825 cumulative IPC: 0.396707 (Simulation time: 0 hr 4 min 42 sec) 
Heartbeat CPU 0 instructions: 160000000 cycles: 195839762 heartbeat IPC: 0.400691 cumulative IPC: 0.397365 (Simulation time: 0 hr 5 min 10 sec) 
Heartbeat CPU 0 instructions: 170000002 cycles: 217201524 heartbeat IPC: 0.468126 cumulative IPC: 0.406135 (Simulation time: 0 hr 5 min 36 sec) 
Heartbeat CPU 0 instructions: 180000000 cycles: 239656166 heartbeat IPC: 0.445342 cumulative IPC: 0.410654 (Simulation time: 0 hr 6 min 3 sec) 
Heartbeat CPU 0 instructions: 190000000 cycles: 258607002 heartbeat IPC: 0.527681 cumulative IPC: 0.421029 (Simulation time: 0 hr 6 min 27 sec) 
Heartbeat CPU 0 instructions: 200000000 cycles: 279554016 heartbeat IPC: 0.477395 cumulative IPC: 0.42606 (Simulation time: 0 hr 6 min 53 sec) 
Heartbeat CPU 0 instructions: 210000001 cycles: 306011212 heartbeat IPC: 0.377969 cumulative IPC: 0.421188 (Simulation time: 0 hr 7 min 22 sec) 
Heartbeat CPU 0 instructions: 220000000 cycles: 331822367 heartbeat IPC: 0.387429 cumulative IPC: 0.418152 (Simulation time: 0 hr 7 min 51 sec) 
Heartbeat CPU 0 instructions: 230000000 cycles: 354137452 heartbeat IPC: 0.448127 cumulative IPC: 0.420314 (Simulation time: 0 hr 8 min 17 sec) 
Heartbeat CPU 0 instructions: 240000000 cycles: 379975900 heartbeat IPC: 0.38702 cumulative IPC: 0.417747 (Simulation time: 0 hr 8 min 46 sec) 
Heartbeat CPU 0 instructions: 250000001 cycles: 404943652 heartbeat IPC: 0.400517 cumulative IPC: 0.416553 (Simulation time: 0 hr 9 min 15 sec) 
Heartbeat CPU 0 instructions: 260000000 cycles: 425846547 heartbeat IPC: 0.478403 cumulative IPC: 0.419946 (Simulation time: 0 hr 9 min 40 sec) 
Heartbeat CPU 0 instructions: 270000000 cycles: 447361791 heartbeat IPC: 0.464787 cumulative IPC: 0.422343 (Simulation time: 0 hr 10 min 6 sec) 
Heartbeat CPU 0 instructions: 280000000 cycles: 475273314 heartbeat IPC: 0.358275 cumulative IPC: 0.418188 (Simulation time: 0 hr 10 min 36 sec) 
Heartbeat CPU 0 instructions: 290000000 cycles: 496374623 heartbeat IPC: 0.473904 cumulative IPC: 0.420792 (Simulation time: 0 hr 11 min 2 sec) 
Heartbeat CPU 0 instructions: 300000000 cycles: 516794884 heartbeat IPC: 0.48971 cumulative IPC: 0.423774 (Simulation time: 0 hr 11 min 27 sec) 
Heartbeat CPU 0 instructions: 310000000 cycles: 535935488 heartbeat IPC: 0.52245 cumulative IPC: 0.42762 (Simulation time: 0 hr 11 min 51 sec) 
Heartbeat CPU 0 instructions: 320000000 cycles: 565475499 heartbeat IPC: 0.338524 cumulative IPC: 0.422565 (Simulation time: 0 hr 12 min 22 sec) 
Heartbeat CPU 0 instructions: 330000001 cycles: 584891204 heartbeat IPC: 0.515047 cumulative IPC: 0.42589 (Simulation time: 0 hr 12 min 47 sec) 
Heartbeat CPU 0 instructions: 340000000 cycles: 604143979 heartbeat IPC: 0.519406 cumulative IPC: 0.429109 (Simulation time: 0 hr 13 min 11 sec) 
Heartbeat CPU 0 instructions: 350000001 cycles: 629386990 heartbeat IPC: 0.396149 cumulative IPC: 0.427685 (Simulation time: 0 hr 13 min 39 sec) 
Heartbeat CPU 0 instructions: 360000000 cycles: 651705687 heartbeat IPC: 0.448055 cumulative IPC: 0.428434 (Simulation time: 0 hr 14 min 6 sec) 
Heartbeat CPU 0 instructions: 370000001 cycles: 676852110 heartbeat IPC: 0.397671 cumulative IPC: 0.42721 (Simulation time: 0 hr 14 min 34 sec) 
Heartbeat CPU 0 instructions: 380000000 cycles: 700036243 heartbeat IPC: 0.431329 cumulative IPC: 0.427356 (Simulation time: 0 hr 15 min 1 sec) 
Heartbeat CPU 0 instructions: 390000000 cycles: 718817827 heartbeat IPC: 0.532436 cumulative IPC: 0.430285 (Simulation time: 0 hr 15 min 25 sec) 
Heartbeat CPU 0 instructions: 400000000 cycles: 738619151 heartbeat IPC: 0.505017 cumulative IPC: 0.432417 (Simulation time: 0 hr 15 min 49 sec) 
Heartbeat CPU 0 instructions: 410000001 cycles: 764943648 heartbeat IPC: 0.379874 cumulative IPC: 0.430497 (Simulation time: 0 hr 16 min 18 sec) 
Heartbeat CPU 0 instructions: 420000000 cycles: 789592469 heartbeat IPC: 0.405699 cumulative IPC: 0.429676 (Simulation time: 0 hr 16 min 46 sec) 
Heartbeat CPU 0 instructions: 430000002 cycles: 810756303 heartbeat IPC: 0.472504 cumulative IPC: 0.430859 (Simulation time: 0 hr 17 min 12 sec) 
Heartbeat CPU 0 instructions: 440000000 cycles: 830907918 heartbeat IPC: 0.496238 cumulative IPC: 0.432535 (Simulation time: 0 hr 17 min 37 sec) 
Heartbeat CPU 0 instructions: 450000002 cycles: 857778122 heartbeat IPC: 0.37216 cumulative IPC: 0.43054 (Simulation time: 0 hr 18 min 6 sec) 
Heartbeat CPU 0 instructions: 460000000 cycles: 883856933 heartbeat IPC: 0.383453 cumulative IPC: 0.429076 (Simulation time: 0 hr 18 min 35 sec) 
Heartbeat CPU 0 instructions: 470000002 cycles: 909835789 heartbeat IPC: 0.384928 cumulative IPC: 0.42775 (Simulation time: 0 hr 19 min 3 sec) 
Heartbeat CPU 0 instructions: 480000000 cycles: 934125122 heartbeat IPC: 0.411703 cumulative IPC: 0.427312 (Simulation time: 0 hr 19 min 31 sec) 
Heartbeat CPU 0 instructions: 490000000 cycles: 954969834 heartbeat IPC: 0.479738 cumulative IPC: 0.428513 (Simulation time: 0 hr 19 min 56 sec) 
Heartbeat CPU 0 instructions: 500000000 cycles: 979847663 heartbeat IPC: 0.401964 cumulative IPC: 0.427806 (Simulation time: 0 hr 20 min 24 sec) 
Heartbeat CPU 0 instructions: 510000000 cycles: 1004911512 heartbeat IPC: 0.398981 cumulative IPC: 0.427054 (Simulation time: 0 hr 20 min 52 sec) 
Heartbeat CPU 0 instructions: 520000000 cycles: 1025907706 heartbeat IPC: 0.476277 cumulative IPC: 0.428107 (Simulation time: 0 hr 21 min 18 sec) 
Heartbeat CPU 0 instructions: 530000003 cycles: 1051635879 heartbeat IPC: 0.388679 cumulative IPC: 0.4271 (Simulation time: 0 hr 21 min 46 sec) 
Heartbeat CPU 0 instructions: 540000000 cycles: 1074587458 heartbeat IPC: 0.4357 cumulative IPC: 0.427291 (Simulation time: 0 hr 22 min 13 sec) 
Heartbeat CPU 0 instructions: 550000000 cycles: 1100163846 heartbeat IPC: 0.390986 cumulative IPC: 0.426411 (Simulation time: 0 hr 22 min 41 sec) 
Heartbeat CPU 0 instructions: 560000000 cycles: 1123262694 heartbeat IPC: 0.432922 cumulative IPC: 0.426551 (Simulation time: 0 hr 23 min 8 sec) 
Heartbeat CPU 0 instructions: 570000002 cycles: 1146725740 heartbeat IPC: 0.426202 cumulative IPC: 0.426544 (Simulation time: 0 hr 23 min 35 sec) 
Heartbeat CPU 0 instructions: 580000000 cycles: 1167644312 heartbeat IPC: 0.478044 cumulative IPC: 0.427503 (Simulation time: 0 hr 24 min 0 sec) 
Heartbeat CPU 0 instructions: 590000001 cycles: 1191608604 heartbeat IPC: 0.417288 cumulative IPC: 0.42729 (Simulation time: 0 hr 24 min 28 sec) 
Heartbeat CPU 0 instructions: 600000000 cycles: 1210743547 heartbeat IPC: 0.522604 cumulative IPC: 0.428854 (Simulation time: 0 hr 24 min 52 sec) 
Finished CPU 0 instructions: 500000000 cycles: 1165898430 cumulative IPC: 0.428854 (Simulation time: 0 hr 24 min 52 sec) 

CPU 0 Branch Prediction Accuracy: 99.5434% MPKI: 1.33026
Number of Branches: 145676990 Number of Mispredictions: 665128
Number of LOAD Instructions: 188863207
Number of LOAD Instructions (ROI): 188863207
Number of STORE Instructions: 7332002
Number of STORE Instructions (ROI): 7332002
Total Destination Memory Operands: 10029285
Total Destination Memory Operands (ROI): 10029285
Total Source Memory Operands: 188863207
Total Source Memory Operands (ROI): 188863207
Number of DEPENDED LOADS: 291395
Number of DEPENDED LOADS (ROI): 291395
Number of SQ_ADDED: 10029285
Number of SQ_ADDED (ROI): 10029285
Number of LQ_ADDED: 200649678
Number of LQ_ADDED (ROI): 200649678
Number of Instructions read from trace: 600000010

ChampSim completed all CPUs

Region of Interest Statistics

CPU 0 cumulative IPC: 0.428854 instructions: 500000000 cycles: 1165898430
ITLB TOTAL     ACCESS:  145824800  HIT:  145785273  MISS:      39527
ITLB LOAD      ACCESS:  145824800  HIT:  145785273  MISS:      39527
ITLB RFO       ACCESS:          0  HIT:          0  MISS:          0
ITLB PREFETCH  ACCESS:          0  HIT:          0  MISS:          0
ITLB WRITEBACK ACCESS:          0  HIT:          0  MISS:          0
ITLB PREFETCH  REQUESTED:          0  ISSUED:          0  USEFUL:          0  USELESS:          0
ITLB TOTAL MSHR MERGED:      57362
ITLB LOAD MSHR MERGED:      57362
ITLB RFO MSHR MERGED:          0
ITLB PREFETCH MSHR MERGED:          0
ITLB WRITEBACK MSHR MERGED:          0
ITLB TOTAL ACCESSES:  145882162 HITS:  145785273 MISSES:      96889
ITLB LOAD ACCESSES:  145882162 HITS:  145785273 MISSES:      96889
ITLB RFO ACCESSES:          0 HITS:          0 MISSES:          0
ITLB PREFETCH ACCESSES:          0 HITS:          0 MISSES:          0
ITLB WRITEBACK ACCESSES:          0 HITS:          0 MISSES:          0
ITLB RQ ACCESS:  499999754
ITLB RQ TO_CACHE:  145882162
ITLB RQ MERGED:  354117592
ITLB RQ FORWARD:          0
ITLB WQ ACCESS:          0
ITLB WQ TO_CACHE:          0
ITLB WQ MERGED:          0
ITLB WQ FORWARD:          0
DTLB TOTAL     ACCESS:  135199333  HIT:  134030972  MISS:    1168361
DTLB LOAD      ACCESS:  127158504  HIT:  125999249  MISS:    1159255
DTLB RFO       ACCESS:    8040829  HIT:    8031723  MISS:       9106
DTLB PREFETCH  ACCESS:          0  HIT:          0  MISS:          0
DTLB WRITEBACK ACCESS:          0  HIT:          0  MISS:          0
DTLB PREFETCH  REQUESTED:          0  ISSUED:          0  USEFUL:          0  USELESS:          0
DTLB TOTAL MSHR MERGED:     579221
DTLB LOAD MSHR MERGED:     574845
DTLB RFO MSHR MERGED:       4376
DTLB PREFETCH MSHR MERGED:          0
DTLB WRITEBACK MSHR MERGED:          0
DTLB TOTAL ACCESSES:  135778554 HITS:  134030972 MISSES:    1747582
DTLB LOAD ACCESSES:  127733349 HITS:  125999249 MISSES:    1734100
DTLB RFO ACCESSES:    8045205 HITS:    8031723 MISSES:      13482
DTLB PREFETCH ACCESSES:          0 HITS:          0 MISSES:          0
DTLB WRITEBACK ACCESSES:          0 HITS:          0 MISSES:          0
DTLB RQ ACCESS:  165762946
DTLB RQ TO_CACHE:  135778554
DTLB RQ MERGED:   29984392
DTLB RQ FORWARD:          0
DTLB WQ ACCESS:          0
DTLB WQ TO_CACHE:          0
DTLB WQ MERGED:          0
DTLB WQ FORWARD:          0
L1D TOTAL     ACCESS:  157084747  HIT:  139769059  MISS:   17315688
L1D LOAD      ACCESS:   90001202  HIT:   78864565  MISS:   11136637
L1D RFO       ACCESS:    8499420  HIT:    8412264  MISS:      87156
L1D PREFETCH  ACCESS:   58584125  HIT:   52492230  MISS:    6091895
L1D WRITEBACK ACCESS:          0  HIT:          0  MISS:          0
L1D PREFETCH  REQUESTED:   93720843  ISSUED:   92853208  USEFUL:    2010502  USELESS:    4081466
L1D TOTAL MSHR MERGED:   14979942
L1D LOAD MSHR MERGED:    7112528
L1D RFO MSHR MERGED:     125021
L1D PREFETCH MSHR MERGED:    7742393
L1D WRITEBACK MSHR MERGED:          0
L1D TOTAL ACCESSES:  172064844 HITS:  139769214 MISSES:   32295630
L1D LOAD ACCESSES:   93720847 HITS:   78864569 MISSES:   14856278
L1D RFO ACCESSES:    8622610 HITS:    8412264 MISSES:     210346
L1D PREFETCH ACCESSES:   69721387 HITS:   52492381 MISSES:   17229006
L1D WRITEBACK ACCESSES:          0 HITS:          0 MISSES:          0
L1D RQ ACCESS:  157123740
L1D RQ TO_CACHE:   93720843
L1D RQ MERGED:   63402893
L1D RQ FORWARD:          0
L1D WQ ACCESS:    8639208
L1D WQ TO_CACHE:    8622610
L1D WQ MERGED:      16598
L1D WQ FORWARD:        155
L1I TOTAL     ACCESS:  178805930  HIT:  178142271  MISS:     663659
L1I LOAD      ACCESS:  178805930  HIT:  178142271  MISS:     663659
L1I RFO       ACCESS:          0  HIT:          0  MISS:          0
L1I PREFETCH  ACCESS:          0  HIT:          0  MISS:          0
L1I WRITEBACK ACCESS:          0  HIT:          0  MISS:          0
L1I PREFETCH  REQUESTED:          0  ISSUED:          0  USEFUL:          0  USELESS:          0
L1I TOTAL MSHR MERGED:     596830
L1I LOAD MSHR MERGED:     596830
L1I RFO MSHR MERGED:          0
L1I PREFETCH MSHR MERGED:          0
L1I WRITEBACK MSHR MERGED:          0
L1I TOTAL ACCESSES:  179402760 HITS:  178142271 MISSES:    1260489
L1I LOAD ACCESSES:  179402760 HITS:  178142271 MISSES:    1260489
L1I RFO ACCESSES:          0 HITS:          0 MISSES:          0
L1I PREFETCH ACCESSES:          0 HITS:          0 MISSES:          0
L1I WRITEBACK ACCESSES:          0 HITS:          0 MISSES:          0
L1I RQ ACCESS:  499999757
L1I RQ TO_CACHE:  179402760
L1I RQ MERGED:  320596997
L1I RQ FORWARD:          0
L1I WQ ACCESS:          0
L1I WQ TO_CACHE:          0
L1I WQ MERGED:          0
L1I WQ FORWARD:          0
L2C TOTAL     ACCESS:   19277823  HIT:    2057991  MISS:   17219832
L2C LOAD      ACCESS:    8407305  HIT:     951444  MISS:    7455861
L2C RFO       ACCESS:      85302  HIT:      53739  MISS:      31563
L2C PREFETCH  ACCESS:   10500182  HIT:     770585  MISS:    9729597
L2C WRITEBACK ACCESS:     285034  HIT:     282223  MISS:       2811
L2C PREFETCH  REQUESTED:    1017958  ISSUED:    1017958  USEFUL:     275034  USELESS:    9453656
L2C TOTAL MSHR MERGED:        980
L2C LOAD MSHR MERGED:        211
L2C RFO MSHR MERGED:          1
L2C PREFETCH MSHR MERGED:        768
L2C WRITEBACK MSHR MERGED:          0
L2C TOTAL ACCESSES:   19281079 HITS:    2058183 MISSES:   17222896
L2C LOAD ACCESSES:    8407409 HITS:     951548 MISSES:    7455861
L2C RFO ACCESSES:      85325 HITS:      53762 MISSES:      31563
L2C PREFETCH ACCESSES:   10503311 HITS:     770650 MISSES:    9732661
L2C WRITEBACK ACCESSES:     285034 HITS:     282223 MISSES:       2811
L2C RQ ACCESS:    8492734
L2C RQ TO_CACHE:    8492607
L2C RQ MERGED:          0
L2C RQ FORWARD:          0
L2C WQ ACCESS:     285034
L2C WQ TO_CACHE:     285034
L2C WQ MERGED:          0
L2C WQ FORWARD:        192
LLC TOTAL     ACCESS:   17325158  HIT:    4948758  MISS:   12376400
LLC LOAD      ACCESS:    7455650  HIT:    3914699  MISS:    3540951
LLC RFO       ACCESS:      31562  HIT:      16819  MISS:      14743
LLC PREFETCH  ACCESS:    9731888  HIT:     932834  MISS:    8799054
LLC WRITEBACK ACCESS:     106058  HIT:      84406  MISS:      21652
LLC PREFETCH  REQUESTED:          0  ISSUED:          0  USEFUL:       2052  USELESS:    8796270
LLC TOTAL MSHR MERGED:          5
LLC LOAD MSHR MERGED:          0
LLC RFO MSHR MERGED:          0
LLC PREFETCH MSHR MERGED:          5
LLC WRITEBACK MSHR MERGED:          0
LLC TOTAL ACCESSES:   17325163 HITS:    4948758 MISSES:   12376405
LLC LOAD ACCESSES:    7455650 HITS:    3914699 MISSES:    3540951
LLC RFO ACCESSES:      31562 HITS:      16819 MISSES:      14743
LLC PREFETCH ACCESSES:    9731893 HITS:     932834 MISSES:    8799059
LLC WRITEBACK ACCESSES:     106058 HITS:      84406 MISSES:      21652
LLC 0 RQ ACCESS:    7487212
LLC 0 RQ TO_CACHE:    7487212
LLC 0 RQ MERGED:          0
LLC 0 RQ FORWARD:          0
LLC WQ ACCESS:     106058
LLC WQ TO_CACHE:     106058
LLC WQ MERGED:          0
LLC WQ FORWARD:          0
Major fault: 0 Minor fault: 6432
CPU 0 L1D next line prefetcher final stats
CPU 0 L2C PC-based stride prefetcher final stats
All Misses: 14608133
All Hits: 5936687
SD Algo Stats - Switches: 0 SRR-Repls: 3786302 BRR-Repls: 0

DRAM Statistics
 CHANNEL 0
 RQ ROW_BUFFER_HIT:    9334927  ROW_BUFFER_MISS:    3014645
 DBUS_CONGESTED:    5791757
 WQ ROW_BUFFER_HIT:       1479  ROW_BUFFER_MISS:      41787  FULL:          0

 AVG_CONGESTED_CYCLE: 12
LOADS RETIRED: 157382665
INSTR RETIRED: 500000000
