
*** ChampSim Multicore Out-of-Order Simulator ***

Warmup Instructions: 100000000
Simulation Instructions: 500000000
Number of CPUs: 1
LLC sets: 2048
LLC ways: 16
Clean RRIP Policies: 2213230222132302 Dirty RRIP Policies: 2203130222031302 PSEL Width: 10 Track Set: 4294967295 PSEL Mask: 1 Demote Mask: 4000100040001000DS Algo: 0Window size: 0
Off-chip DRAM Size: 4096 MB Channels: 1 Width: 64-bit Data Rate: 1600 MT/s

CPU 0 runs /mnt/beegfs/iconst01/spec2017/Xz.trace.gz
NOT SORTED
TRACE STRING: /mnt/beegfs/iconst01/spec2017/Xz.trace.gz
SORTED
TRACE STRING: /mnt/beegfs/iconst01/spec2017/Xz.trace.gz
INITIAL
TRACE STRING: /mnt/beegfs/iconst01/spec2017/Xz.trace.gz

champsim_seed used: 210

CPU 0 L1D next line prefetcher
CPU 0 L2C IP-based stride prefetcher
Initialize DRRIP state
Assign rand_sets[0]: 454  LLC: 2048
rand_sets[0]: 454
Assign rand_sets[1]: 1662  LLC: 2048
rand_sets[1]: 1662
Assign rand_sets[2]: 1921  LLC: 2048
rand_sets[2]: 1921
Assign rand_sets[3]: 1131  LLC: 2048
rand_sets[3]: 1131
Assign rand_sets[4]: 331  LLC: 2048
rand_sets[4]: 331
Assign rand_sets[5]: 1531  LLC: 2048
rand_sets[5]: 1531
Assign rand_sets[6]: 482  LLC: 2048
rand_sets[6]: 482
Assign rand_sets[7]: 1275  LLC: 2048
rand_sets[7]: 1275
Assign rand_sets[8]: 1876  LLC: 2048
rand_sets[8]: 1876
Assign rand_sets[9]: 2038  LLC: 2048
rand_sets[9]: 2038
Assign rand_sets[10]: 701  LLC: 2048
rand_sets[10]: 701
Assign rand_sets[11]: 479  LLC: 2048
rand_sets[11]: 479
Assign rand_sets[12]: 892  LLC: 2048
rand_sets[12]: 892
Assign rand_sets[13]: 1820  LLC: 2048
rand_sets[13]: 1820
Assign rand_sets[14]: 1505  LLC: 2048
rand_sets[14]: 1505
Assign rand_sets[15]: 1159  LLC: 2048
rand_sets[15]: 1159
Assign rand_sets[16]: 513  LLC: 2048
rand_sets[16]: 513
Assign rand_sets[17]: 703  LLC: 2048
rand_sets[17]: 703
Assign rand_sets[18]: 561  LLC: 2048
rand_sets[18]: 561
Assign rand_sets[19]: 990  LLC: 2048
rand_sets[19]: 990
Assign rand_sets[20]: 342  LLC: 2048
rand_sets[20]: 342
Assign rand_sets[21]: 882  LLC: 2048
rand_sets[21]: 882
Assign rand_sets[22]: 15  LLC: 2048
rand_sets[22]: 15
Assign rand_sets[23]: 71  LLC: 2048
rand_sets[23]: 71
Assign rand_sets[24]: 1127  LLC: 2048
rand_sets[24]: 1127
Assign rand_sets[25]: 1382  LLC: 2048
rand_sets[25]: 1382
Assign rand_sets[26]: 647  LLC: 2048
rand_sets[26]: 647
Assign rand_sets[27]: 857  LLC: 2048
rand_sets[27]: 857
Assign rand_sets[28]: 1450  LLC: 2048
rand_sets[28]: 1450
Assign rand_sets[29]: 1160  LLC: 2048
rand_sets[29]: 1160
Assign rand_sets[30]: 1852  LLC: 2048
rand_sets[30]: 1852
Assign rand_sets[31]: 1881  LLC: 2048
rand_sets[31]: 1881
Assign rand_sets[32]: 1770  LLC: 2048
rand_sets[32]: 1770
Assign rand_sets[33]: 1622  LLC: 2048
rand_sets[33]: 1622
Assign rand_sets[34]: 275  LLC: 2048
rand_sets[34]: 275
Assign rand_sets[35]: 635  LLC: 2048
rand_sets[35]: 635
Assign rand_sets[36]: 466  LLC: 2048
rand_sets[36]: 466
Assign rand_sets[37]: 1413  LLC: 2048
rand_sets[37]: 1413
Assign rand_sets[38]: 417  LLC: 2048
rand_sets[38]: 417
Assign rand_sets[39]: 472  LLC: 2048
rand_sets[39]: 472
Assign rand_sets[40]: 1340  LLC: 2048
rand_sets[40]: 1340
Assign rand_sets[41]: 852  LLC: 2048
rand_sets[41]: 852
Assign rand_sets[42]: 1365  LLC: 2048
rand_sets[42]: 1365
Assign rand_sets[43]: 47  LLC: 2048
rand_sets[43]: 47
Assign rand_sets[44]: 823  LLC: 2048
rand_sets[44]: 823
Assign rand_sets[45]: 686  LLC: 2048
rand_sets[45]: 686
Assign rand_sets[46]: 1637  LLC: 2048
rand_sets[46]: 1637
Assign rand_sets[47]: 1115  LLC: 2048
rand_sets[47]: 1115
Assign rand_sets[48]: 986  LLC: 2048
rand_sets[48]: 986
Assign rand_sets[49]: 258  LLC: 2048
rand_sets[49]: 258
Assign rand_sets[50]: 633  LLC: 2048
rand_sets[50]: 633
Assign rand_sets[51]: 920  LLC: 2048
rand_sets[51]: 920
Assign rand_sets[52]: 204  LLC: 2048
rand_sets[52]: 204
Assign rand_sets[53]: 227  LLC: 2048
rand_sets[53]: 227
Assign rand_sets[54]: 1818  LLC: 2048
rand_sets[54]: 1818
Assign rand_sets[55]: 886  LLC: 2048
rand_sets[55]: 886
Assign rand_sets[56]: 1422  LLC: 2048
rand_sets[56]: 1422
Assign rand_sets[57]: 607  LLC: 2048
rand_sets[57]: 607
Assign rand_sets[58]: 217  LLC: 2048
rand_sets[58]: 217
Assign rand_sets[59]: 1945  LLC: 2048
rand_sets[59]: 1945
Assign rand_sets[60]: 143  LLC: 2048
rand_sets[60]: 143
Assign rand_sets[61]: 1311  LLC: 2048
rand_sets[61]: 1311
Assign rand_sets[62]: 319  LLC: 2048
rand_sets[62]: 319
Assign rand_sets[63]: 1846  LLC: 2048
rand_sets[63]: 1846
 CLEAN-RRIP-POLICY-1: 2-2-1-3-2-3-0-2- CLEAN-RRIP-POLICY-2: 2-2-1-3-2-3-0-2-
 DIRTY-RRIP-POLICY-1: 2-2-0-3-1-3-0-2- DIRTY-RRIP-POLICY-2: 2-2-0-3-1-3-0-2-
 PSEL width: 10
Heartbeat CPU 0 instructions: 10000000 cycles: 4305270 heartbeat IPC: 2.32273 cumulative IPC: 2.32273 (Simulation time: 0 hr 0 min 11 sec) 
Heartbeat CPU 0 instructions: 20000000 cycles: 8617101 heartbeat IPC: 2.3192 cumulative IPC: 2.32097 (Simulation time: 0 hr 0 min 23 sec) 
Heartbeat CPU 0 instructions: 30000003 cycles: 13160977 heartbeat IPC: 2.20076 cumulative IPC: 2.27947 (Simulation time: 0 hr 0 min 35 sec) 
Heartbeat CPU 0 instructions: 40000000 cycles: 17515448 heartbeat IPC: 2.29649 cumulative IPC: 2.2837 (Simulation time: 0 hr 0 min 47 sec) 
Heartbeat CPU 0 instructions: 50000001 cycles: 21878248 heartbeat IPC: 2.29211 cumulative IPC: 2.28537 (Simulation time: 0 hr 0 min 58 sec) 
Heartbeat CPU 0 instructions: 60000000 cycles: 26178428 heartbeat IPC: 2.32548 cumulative IPC: 2.29196 (Simulation time: 0 hr 1 min 9 sec) 
Heartbeat CPU 0 instructions: 70000001 cycles: 30244306 heartbeat IPC: 2.45949 cumulative IPC: 2.31449 (Simulation time: 0 hr 1 min 20 sec) 
Heartbeat CPU 0 instructions: 80000000 cycles: 34523059 heartbeat IPC: 2.33713 cumulative IPC: 2.31729 (Simulation time: 0 hr 1 min 31 sec) 
Heartbeat CPU 0 instructions: 90000001 cycles: 38739666 heartbeat IPC: 2.37158 cumulative IPC: 2.3232 (Simulation time: 0 hr 1 min 43 sec) 
Heartbeat CPU 0 instructions: 100000000 cycles: 42980044 heartbeat IPC: 2.35828 cumulative IPC: 2.32666 (Simulation time: 0 hr 1 min 54 sec) 

Warmup complete CPU 0 instructions: 100000001 cycles: 42980045 (Simulation time: 0 hr 1 min 54 sec) 

Heartbeat CPU 0 instructions: 110000000 cycles: 53112361 heartbeat IPC: 0.986941 cumulative IPC: 0.986941 (Simulation time: 0 hr 2 min 11 sec) 
Heartbeat CPU 0 instructions: 120000000 cycles: 63737336 heartbeat IPC: 0.941179 cumulative IPC: 0.963517 (Simulation time: 0 hr 2 min 28 sec) 
Heartbeat CPU 0 instructions: 130000001 cycles: 74336085 heartbeat IPC: 0.943508 cumulative IPC: 0.956753 (Simulation time: 0 hr 2 min 45 sec) 
Heartbeat CPU 0 instructions: 140000000 cycles: 84023970 heartbeat IPC: 1.03222 cumulative IPC: 0.974566 (Simulation time: 0 hr 3 min 1 sec) 
Heartbeat CPU 0 instructions: 150000001 cycles: 94337453 heartbeat IPC: 0.969605 cumulative IPC: 0.973569 (Simulation time: 0 hr 3 min 18 sec) 
Heartbeat CPU 0 instructions: 160000000 cycles: 104391360 heartbeat IPC: 0.994638 cumulative IPC: 0.977019 (Simulation time: 0 hr 3 min 35 sec) 
Heartbeat CPU 0 instructions: 170000000 cycles: 114063063 heartbeat IPC: 1.03394 cumulative IPC: 0.984764 (Simulation time: 0 hr 3 min 51 sec) 
Heartbeat CPU 0 instructions: 180000000 cycles: 124621731 heartbeat IPC: 0.947089 cumulative IPC: 0.979892 (Simulation time: 0 hr 4 min 8 sec) 
Heartbeat CPU 0 instructions: 190000001 cycles: 134884651 heartbeat IPC: 0.974382 cumulative IPC: 0.979276 (Simulation time: 0 hr 4 min 25 sec) 
Heartbeat CPU 0 instructions: 200000000 cycles: 145467641 heartbeat IPC: 0.944912 cumulative IPC: 0.975728 (Simulation time: 0 hr 4 min 42 sec) 
Heartbeat CPU 0 instructions: 210000002 cycles: 157922144 heartbeat IPC: 0.802923 cumulative IPC: 0.957004 (Simulation time: 0 hr 5 min 0 sec) 
Heartbeat CPU 0 instructions: 220000000 cycles: 170456057 heartbeat IPC: 0.797835 cumulative IPC: 0.941354 (Simulation time: 0 hr 5 min 18 sec) 
Heartbeat CPU 0 instructions: 230000000 cycles: 182632049 heartbeat IPC: 0.821288 cumulative IPC: 0.930885 (Simulation time: 0 hr 5 min 36 sec) 
Heartbeat CPU 0 instructions: 240000000 cycles: 194779263 heartbeat IPC: 0.823234 cumulative IPC: 0.922271 (Simulation time: 0 hr 5 min 54 sec) 
Heartbeat CPU 0 instructions: 250000000 cycles: 206766804 heartbeat IPC: 0.834199 cumulative IPC: 0.915825 (Simulation time: 0 hr 6 min 12 sec) 
Heartbeat CPU 0 instructions: 260000000 cycles: 218331008 heartbeat IPC: 0.864737 cumulative IPC: 0.912456 (Simulation time: 0 hr 6 min 30 sec) 
Heartbeat CPU 0 instructions: 270000003 cycles: 230210101 heartbeat IPC: 0.841815 cumulative IPC: 0.907974 (Simulation time: 0 hr 6 min 48 sec) 
Heartbeat CPU 0 instructions: 280000000 cycles: 241756893 heartbeat IPC: 0.866041 cumulative IPC: 0.905538 (Simulation time: 0 hr 7 min 6 sec) 
Heartbeat CPU 0 instructions: 290000002 cycles: 253280300 heartbeat IPC: 0.867799 cumulative IPC: 0.90347 (Simulation time: 0 hr 7 min 23 sec) 
Heartbeat CPU 0 instructions: 300000000 cycles: 265734922 heartbeat IPC: 0.802915 cumulative IPC: 0.897848 (Simulation time: 0 hr 7 min 41 sec) 
Heartbeat CPU 0 instructions: 310000000 cycles: 277909382 heartbeat IPC: 0.821392 cumulative IPC: 0.893886 (Simulation time: 0 hr 7 min 59 sec) 
Heartbeat CPU 0 instructions: 320000000 cycles: 290560347 heartbeat IPC: 0.790454 cumulative IPC: 0.888601 (Simulation time: 0 hr 8 min 18 sec) 
Heartbeat CPU 0 instructions: 330000003 cycles: 302511020 heartbeat IPC: 0.836773 cumulative IPC: 0.886214 (Simulation time: 0 hr 8 min 35 sec) 
Heartbeat CPU 0 instructions: 340000000 cycles: 314639146 heartbeat IPC: 0.824529 cumulative IPC: 0.88346 (Simulation time: 0 hr 8 min 53 sec) 
Heartbeat CPU 0 instructions: 350000001 cycles: 325640435 heartbeat IPC: 0.908984 cumulative IPC: 0.884454 (Simulation time: 0 hr 9 min 11 sec) 
Heartbeat CPU 0 instructions: 360000000 cycles: 337438905 heartbeat IPC: 0.847567 cumulative IPC: 0.882976 (Simulation time: 0 hr 9 min 28 sec) 
Heartbeat CPU 0 instructions: 370000001 cycles: 348857301 heartbeat IPC: 0.87578 cumulative IPC: 0.882707 (Simulation time: 0 hr 9 min 46 sec) 
Heartbeat CPU 0 instructions: 380000000 cycles: 359860966 heartbeat IPC: 0.908788 cumulative IPC: 0.883613 (Simulation time: 0 hr 10 min 3 sec) 
Heartbeat CPU 0 instructions: 390000003 cycles: 370493372 heartbeat IPC: 0.940521 cumulative IPC: 0.88546 (Simulation time: 0 hr 10 min 21 sec) 
Heartbeat CPU 0 instructions: 400000000 cycles: 380726673 heartbeat IPC: 0.977201 cumulative IPC: 0.88824 (Simulation time: 0 hr 10 min 38 sec) 
Heartbeat CPU 0 instructions: 410000000 cycles: 391256404 heartbeat IPC: 0.949692 cumulative IPC: 0.890098 (Simulation time: 0 hr 10 min 55 sec) 
Heartbeat CPU 0 instructions: 420000000 cycles: 400650358 heartbeat IPC: 1.06451 cumulative IPC: 0.894679 (Simulation time: 0 hr 11 min 12 sec) 
Heartbeat CPU 0 instructions: 430000002 cycles: 409740487 heartbeat IPC: 1.10009 cumulative IPC: 0.89977 (Simulation time: 0 hr 11 min 28 sec) 
Heartbeat CPU 0 instructions: 440000000 cycles: 420009398 heartbeat IPC: 0.973813 cumulative IPC: 0.901787 (Simulation time: 0 hr 11 min 45 sec) 
Heartbeat CPU 0 instructions: 450000002 cycles: 431097254 heartbeat IPC: 0.901888 cumulative IPC: 0.901789 (Simulation time: 0 hr 12 min 3 sec) 
Heartbeat CPU 0 instructions: 460000000 cycles: 442648140 heartbeat IPC: 0.865734 cumulative IPC: 0.900747 (Simulation time: 0 hr 12 min 20 sec) 
Heartbeat CPU 0 instructions: 470000003 cycles: 452850197 heartbeat IPC: 0.980195 cumulative IPC: 0.902725 (Simulation time: 0 hr 12 min 37 sec) 
Heartbeat CPU 0 instructions: 480000000 cycles: 463397518 heartbeat IPC: 0.948108 cumulative IPC: 0.903863 (Simulation time: 0 hr 12 min 54 sec) 
Heartbeat CPU 0 instructions: 490000000 cycles: 473355077 heartbeat IPC: 1.00426 cumulative IPC: 0.906186 (Simulation time: 0 hr 13 min 10 sec) 
Heartbeat CPU 0 instructions: 500000000 cycles: 485148560 heartbeat IPC: 0.847926 cumulative IPC: 0.904632 (Simulation time: 0 hr 13 min 28 sec) 
Heartbeat CPU 0 instructions: 510000002 cycles: 497548590 heartbeat IPC: 0.80645 cumulative IPC: 0.901954 (Simulation time: 0 hr 13 min 45 sec) 
Heartbeat CPU 0 instructions: 520000000 cycles: 509405380 heartbeat IPC: 0.843398 cumulative IPC: 0.900466 (Simulation time: 0 hr 14 min 3 sec) 
Heartbeat CPU 0 instructions: 530000001 cycles: 521253642 heartbeat IPC: 0.844006 cumulative IPC: 0.899067 (Simulation time: 0 hr 14 min 21 sec) 
Heartbeat CPU 0 instructions: 540000000 cycles: 532862258 heartbeat IPC: 0.861429 cumulative IPC: 0.898175 (Simulation time: 0 hr 14 min 38 sec) 
Heartbeat CPU 0 instructions: 550000001 cycles: 544255707 heartbeat IPC: 0.877697 cumulative IPC: 0.89771 (Simulation time: 0 hr 14 min 55 sec) 
Heartbeat CPU 0 instructions: 560000000 cycles: 555821317 heartbeat IPC: 0.864632 cumulative IPC: 0.896964 (Simulation time: 0 hr 15 min 12 sec) 
Heartbeat CPU 0 instructions: 570000000 cycles: 567231907 heartbeat IPC: 0.876379 cumulative IPC: 0.896516 (Simulation time: 0 hr 15 min 30 sec) 
Heartbeat CPU 0 instructions: 580000000 cycles: 577983927 heartbeat IPC: 0.930058 cumulative IPC: 0.89719 (Simulation time: 0 hr 15 min 47 sec) 
Heartbeat CPU 0 instructions: 590000003 cycles: 589376102 heartbeat IPC: 0.877796 cumulative IPC: 0.896785 (Simulation time: 0 hr 16 min 4 sec) 
Heartbeat CPU 0 instructions: 600000000 cycles: 599953942 heartbeat IPC: 0.945372 cumulative IPC: 0.897708 (Simulation time: 0 hr 16 min 21 sec) 
Finished CPU 0 instructions: 500000001 cycles: 556973905 cumulative IPC: 0.897708 (Simulation time: 0 hr 16 min 21 sec) 

CPU 0 Branch Prediction Accuracy: 93.0095% MPKI: 10.0046
Number of Branches: 71558147 Number of Mispredictions: 5002285
Number of LOAD Instructions: 145708893
Number of LOAD Instructions (ROI): 145708893
Number of STORE Instructions: 40463820
Number of STORE Instructions (ROI): 40463820
Total Destination Memory Operands: 45240498
Total Destination Memory Operands (ROI): 45240498
Total Source Memory Operands: 145708893
Total Source Memory Operands (ROI): 145708893
Number of DEPENDED LOADS: 10674506
Number of DEPENDED LOADS (ROI): 10674506
Number of SQ_ADDED: 45240498
Number of SQ_ADDED (ROI): 45240498
Number of LQ_ADDED: 193321378
Number of LQ_ADDED (ROI): 193321378
Number of Instructions read from trace: 600000002

ChampSim completed all CPUs

Region of Interest Statistics

CPU 0 cumulative IPC: 0.897708 instructions: 500000001 cycles: 556973905
ITLB TOTAL     ACCESS:   77992234  HIT:   77992233  MISS:          1
ITLB LOAD      ACCESS:   77992234  HIT:   77992233  MISS:          1
ITLB RFO       ACCESS:          0  HIT:          0  MISS:          0
ITLB PREFETCH  ACCESS:          0  HIT:          0  MISS:          0
ITLB WRITEBACK ACCESS:          0  HIT:          0  MISS:          0
ITLB PREFETCH  REQUESTED:          0  ISSUED:          0  USEFUL:          0  USELESS:          0
ITLB TOTAL MSHR MERGED:          0
ITLB LOAD MSHR MERGED:          0
ITLB RFO MSHR MERGED:          0
ITLB PREFETCH MSHR MERGED:          0
ITLB WRITEBACK MSHR MERGED:          0
ITLB TOTAL ACCESSES:   77992234 HITS:   77992233 MISSES:          1
ITLB LOAD ACCESSES:   77992234 HITS:   77992233 MISSES:          1
ITLB RFO ACCESSES:          0 HITS:          0 MISSES:          0
ITLB PREFETCH ACCESSES:          0 HITS:          0 MISSES:          0
ITLB WRITEBACK ACCESSES:          0 HITS:          0 MISSES:          0
ITLB RQ ACCESS:  499999995
ITLB RQ TO_CACHE:   77992234
ITLB RQ MERGED:  422007761
ITLB RQ FORWARD:          0
ITLB WQ ACCESS:          0
ITLB WQ TO_CACHE:          0
ITLB WQ MERGED:          0
ITLB WQ FORWARD:          0
DTLB TOTAL     ACCESS:   98671314  HIT:   97789978  MISS:     881336
DTLB LOAD      ACCESS:   70891357  HIT:   70029824  MISS:     861533
DTLB RFO       ACCESS:   27779957  HIT:   27760154  MISS:      19803
DTLB PREFETCH  ACCESS:          0  HIT:          0  MISS:          0
DTLB WRITEBACK ACCESS:          0  HIT:          0  MISS:          0
DTLB PREFETCH  REQUESTED:          0  ISSUED:          0  USEFUL:          0  USELESS:          0
DTLB TOTAL MSHR MERGED:      87410
DTLB LOAD MSHR MERGED:      65668
DTLB RFO MSHR MERGED:      21742
DTLB PREFETCH MSHR MERGED:          0
DTLB WRITEBACK MSHR MERGED:          0
DTLB TOTAL ACCESSES:   98758724 HITS:   97789978 MISSES:     968746
DTLB LOAD ACCESSES:   70957025 HITS:   70029824 MISSES:     927201
DTLB RFO ACCESSES:   27801699 HITS:   27760154 MISSES:      41545
DTLB PREFETCH ACCESSES:          0 HITS:          0 MISSES:          0
DTLB WRITEBACK ACCESSES:          0 HITS:          0 MISSES:          0
DTLB RQ ACCESS:  150270551
DTLB RQ TO_CACHE:   98758724
DTLB RQ MERGED:   51511827
DTLB RQ FORWARD:          0
DTLB WQ ACCESS:          0
DTLB WQ TO_CACHE:          0
DTLB WQ MERGED:          0
DTLB WQ FORWARD:          0
L1D TOTAL     ACCESS:  173326858  HIT:  169158236  MISS:    4168622
L1D LOAD      ACCESS:   75279662  HIT:   73398360  MISS:    1881302
L1D RFO       ACCESS:   36778334  HIT:   36571733  MISS:     206601
L1D PREFETCH  ACCESS:   61268862  HIT:   59188143  MISS:    2080719
L1D WRITEBACK ACCESS:          0  HIT:          0  MISS:          0
L1D PREFETCH  REQUESTED:   75382569  ISSUED:   74818372  USEFUL:     415168  USELESS:    1665540
L1D TOTAL MSHR MERGED:     370521
L1D LOAD MSHR MERGED:     111639
L1D RFO MSHR MERGED:     133082
L1D PREFETCH MSHR MERGED:     125800
L1D WRITEBACK MSHR MERGED:          0
L1D TOTAL ACCESSES:  173849143 HITS:  169310000 MISSES:    4539143
L1D LOAD ACCESSES:   75385646 HITS:   73401437 MISSES:    1984209
L1D RFO ACCESSES:   36910025 HITS:   36571733 MISSES:     338292
L1D PREFETCH ACCESSES:   61553472 HITS:   59336830 MISSES:    2216642
L1D WRITEBACK ACCESSES:          0 HITS:          0 MISSES:          0
L1D RQ ACCESS:  112608148
L1D RQ TO_CACHE:   75382569
L1D RQ MERGED:   37222502
L1D RQ FORWARD:          0
L1D WQ ACCESS:   37662403
L1D WQ TO_CACHE:   36910025
L1D WQ MERGED:     752378
L1D WQ FORWARD:     151764
L1I TOTAL     ACCESS:  100700122  HIT:  100700097  MISS:         25
L1I LOAD      ACCESS:  100700122  HIT:  100700097  MISS:         25
L1I RFO       ACCESS:          0  HIT:          0  MISS:          0
L1I PREFETCH  ACCESS:          0  HIT:          0  MISS:          0
L1I WRITEBACK ACCESS:          0  HIT:          0  MISS:          0
L1I PREFETCH  REQUESTED:          0  ISSUED:          0  USEFUL:          0  USELESS:          0
L1I TOTAL MSHR MERGED:         10
L1I LOAD MSHR MERGED:         10
L1I RFO MSHR MERGED:          0
L1I PREFETCH MSHR MERGED:          0
L1I WRITEBACK MSHR MERGED:          0
L1I TOTAL ACCESSES:  100700132 HITS:  100700097 MISSES:         35
L1I LOAD ACCESSES:  100700132 HITS:  100700097 MISSES:         35
L1I RFO ACCESSES:          0 HITS:          0 MISSES:          0
L1I PREFETCH ACCESSES:          0 HITS:          0 MISSES:          0
L1I WRITEBACK ACCESSES:          0 HITS:          0 MISSES:          0
L1I RQ ACCESS:  499999995
L1I RQ TO_CACHE:  100700132
L1I RQ MERGED:  399299863
L1I RQ FORWARD:          0
L1I WQ ACCESS:          0
L1I WQ TO_CACHE:          0
L1I WQ MERGED:          0
L1I WQ FORWARD:          0
L2C TOTAL     ACCESS:    5852612  HIT:    4009421  MISS:    1843191
L2C LOAD      ACCESS:    1872470  HIT:    1061524  MISS:     810946
L2C RFO       ACCESS:     205204  HIT:     100564  MISS:     104640
L2C PREFETCH  ACCESS:    2169304  HIT:    1246119  MISS:     923185
L2C WRITEBACK ACCESS:    1605634  HIT:    1601214  MISS:       4420
L2C PREFETCH  REQUESTED:      91709  ISSUED:      91709  USEFUL:      86464  USELESS:     836744
L2C TOTAL MSHR MERGED:        989
L2C LOAD MSHR MERGED:        252
L2C RFO MSHR MERGED:          0
L2C PREFETCH MSHR MERGED:        737
L2C WRITEBACK MSHR MERGED:          0
L2C TOTAL ACCESSES:    5853919 HITS:    4009589 MISSES:    1844330
L2C LOAD ACCESSES:    1872595 HITS:    1061649 MISSES:     810946
L2C RFO ACCESSES:     205210 HITS:     100570 MISSES:     104640
L2C PREFETCH ACCESSES:    2170480 HITS:    1246156 MISSES:     924324
L2C WRITEBACK ACCESSES:    1605634 HITS:    1601214 MISSES:       4420
L2C RQ ACCESS:    2077805
L2C RQ TO_CACHE:    2077674
L2C RQ MERGED:          0
L2C RQ FORWARD:          0
L2C WQ ACCESS:    1605634
L2C WQ TO_CACHE:    1605634
L2C WQ MERGED:          0
L2C WQ FORWARD:        168
LLC TOTAL     ACCESS:    2673571  HIT:    2196560  MISS:     477011
LLC LOAD      ACCESS:     810686  HIT:     636513  MISS:     174173
LLC RFO       ACCESS:     104640  HIT:      59941  MISS:      44699
LLC PREFETCH  ACCESS:     923571  HIT:     694186  MISS:     229385
LLC WRITEBACK ACCESS:     834674  HIT:     805920  MISS:      28754
LLC PREFETCH  REQUESTED:          0  ISSUED:          0  USEFUL:       8242  USELESS:     221227
LLC TOTAL MSHR MERGED:          4
LLC LOAD MSHR MERGED:          3
LLC RFO MSHR MERGED:          0
LLC PREFETCH MSHR MERGED:          1
LLC WRITEBACK MSHR MERGED:          0
LLC TOTAL ACCESSES:    2673585 HITS:    2196570 MISSES:     477015
LLC LOAD ACCESSES:     810694 HITS:     636521 MISSES:     174173
LLC RFO ACCESSES:     104640 HITS:      59941 MISSES:      44699
LLC PREFETCH ACCESSES:     923577 HITS:     694188 MISSES:     229389
LLC WRITEBACK ACCESSES:     834674 HITS:     805920 MISSES:      28754
LLC 0 RQ ACCESS:     915334
LLC 0 RQ TO_CACHE:     915326
LLC 0 RQ MERGED:          0
LLC 0 RQ FORWARD:          0
LLC WQ ACCESS:     834674
LLC WQ TO_CACHE:     834674
LLC WQ MERGED:          0
LLC WQ FORWARD:         10
Major fault: 0 Minor fault: 11278
CPU 0 L1D next line prefetcher final stats
CPU 0 L2C PC-based stride prefetcher final stats
All Misses: 588954
All Hits: 2465635
SD Algo Stats - Switches: 0 SRR-Repls: 207140 BRR-Repls: 0

DRAM Statistics
 CHANNEL 0
 RQ ROW_BUFFER_HIT:      28317  ROW_BUFFER_MISS:     419565
 DBUS_CONGESTED:     353696
 WQ ROW_BUFFER_HIT:      15459  ROW_BUFFER_MISS:     211072  FULL:          0

 AVG_CONGESTED_CYCLE: 13
LOADS RETIRED: 121769268
INSTR RETIRED: 500000000
