
*** ChampSim Multicore Out-of-Order Simulator ***

Warmup Instructions: 100000000
Simulation Instructions: 500000000
Number of CPUs: 1
LLC sets: 2048
LLC ways: 16
Clean RRIP Policies: 1013010110130101 Dirty RRIP Policies: 2003110120031101 PSEL Width: 10 Track Set: 4294967295 PSEL Mask: 1 Demote Mask: 2340211023402110DS Algo: 0Window size: 0
Off-chip DRAM Size: 4096 MB Channels: 1 Width: 64-bit Data Rate: 1600 MT/s

CPU 0 runs /mnt/beegfs/iconst01/spec2017/Lbm.trace.gz
NOT SORTED
TRACE STRING: /mnt/beegfs/iconst01/spec2017/Lbm.trace.gz
SORTED
TRACE STRING: /mnt/beegfs/iconst01/spec2017/Lbm.trace.gz
INITIAL
TRACE STRING: /mnt/beegfs/iconst01/spec2017/Lbm.trace.gz

champsim_seed used: 283

CPU 0 L1D next line prefetcher
CPU 0 L2C IP-based stride prefetcher
Initialize DRRIP state
Assign rand_sets[0]: 454  LLC: 2048
rand_sets[0]: 454
Assign rand_sets[1]: 1662  LLC: 2048
rand_sets[1]: 1662
Assign rand_sets[2]: 1921  LLC: 2048
rand_sets[2]: 1921
Assign rand_sets[3]: 1131  LLC: 2048
rand_sets[3]: 1131
Assign rand_sets[4]: 331  LLC: 2048
rand_sets[4]: 331
Assign rand_sets[5]: 1531  LLC: 2048
rand_sets[5]: 1531
Assign rand_sets[6]: 482  LLC: 2048
rand_sets[6]: 482
Assign rand_sets[7]: 1275  LLC: 2048
rand_sets[7]: 1275
Assign rand_sets[8]: 1876  LLC: 2048
rand_sets[8]: 1876
Assign rand_sets[9]: 2038  LLC: 2048
rand_sets[9]: 2038
Assign rand_sets[10]: 701  LLC: 2048
rand_sets[10]: 701
Assign rand_sets[11]: 479  LLC: 2048
rand_sets[11]: 479
Assign rand_sets[12]: 892  LLC: 2048
rand_sets[12]: 892
Assign rand_sets[13]: 1820  LLC: 2048
rand_sets[13]: 1820
Assign rand_sets[14]: 1505  LLC: 2048
rand_sets[14]: 1505
Assign rand_sets[15]: 1159  LLC: 2048
rand_sets[15]: 1159
Assign rand_sets[16]: 513  LLC: 2048
rand_sets[16]: 513
Assign rand_sets[17]: 703  LLC: 2048
rand_sets[17]: 703
Assign rand_sets[18]: 561  LLC: 2048
rand_sets[18]: 561
Assign rand_sets[19]: 990  LLC: 2048
rand_sets[19]: 990
Assign rand_sets[20]: 342  LLC: 2048
rand_sets[20]: 342
Assign rand_sets[21]: 882  LLC: 2048
rand_sets[21]: 882
Assign rand_sets[22]: 15  LLC: 2048
rand_sets[22]: 15
Assign rand_sets[23]: 71  LLC: 2048
rand_sets[23]: 71
Assign rand_sets[24]: 1127  LLC: 2048
rand_sets[24]: 1127
Assign rand_sets[25]: 1382  LLC: 2048
rand_sets[25]: 1382
Assign rand_sets[26]: 647  LLC: 2048
rand_sets[26]: 647
Assign rand_sets[27]: 857  LLC: 2048
rand_sets[27]: 857
Assign rand_sets[28]: 1450  LLC: 2048
rand_sets[28]: 1450
Assign rand_sets[29]: 1160  LLC: 2048
rand_sets[29]: 1160
Assign rand_sets[30]: 1852  LLC: 2048
rand_sets[30]: 1852
Assign rand_sets[31]: 1881  LLC: 2048
rand_sets[31]: 1881
Assign rand_sets[32]: 1770  LLC: 2048
rand_sets[32]: 1770
Assign rand_sets[33]: 1622  LLC: 2048
rand_sets[33]: 1622
Assign rand_sets[34]: 275  LLC: 2048
rand_sets[34]: 275
Assign rand_sets[35]: 635  LLC: 2048
rand_sets[35]: 635
Assign rand_sets[36]: 466  LLC: 2048
rand_sets[36]: 466
Assign rand_sets[37]: 1413  LLC: 2048
rand_sets[37]: 1413
Assign rand_sets[38]: 417  LLC: 2048
rand_sets[38]: 417
Assign rand_sets[39]: 472  LLC: 2048
rand_sets[39]: 472
Assign rand_sets[40]: 1340  LLC: 2048
rand_sets[40]: 1340
Assign rand_sets[41]: 852  LLC: 2048
rand_sets[41]: 852
Assign rand_sets[42]: 1365  LLC: 2048
rand_sets[42]: 1365
Assign rand_sets[43]: 47  LLC: 2048
rand_sets[43]: 47
Assign rand_sets[44]: 823  LLC: 2048
rand_sets[44]: 823
Assign rand_sets[45]: 686  LLC: 2048
rand_sets[45]: 686
Assign rand_sets[46]: 1637  LLC: 2048
rand_sets[46]: 1637
Assign rand_sets[47]: 1115  LLC: 2048
rand_sets[47]: 1115
Assign rand_sets[48]: 986  LLC: 2048
rand_sets[48]: 986
Assign rand_sets[49]: 258  LLC: 2048
rand_sets[49]: 258
Assign rand_sets[50]: 633  LLC: 2048
rand_sets[50]: 633
Assign rand_sets[51]: 920  LLC: 2048
rand_sets[51]: 920
Assign rand_sets[52]: 204  LLC: 2048
rand_sets[52]: 204
Assign rand_sets[53]: 227  LLC: 2048
rand_sets[53]: 227
Assign rand_sets[54]: 1818  LLC: 2048
rand_sets[54]: 1818
Assign rand_sets[55]: 886  LLC: 2048
rand_sets[55]: 886
Assign rand_sets[56]: 1422  LLC: 2048
rand_sets[56]: 1422
Assign rand_sets[57]: 607  LLC: 2048
rand_sets[57]: 607
Assign rand_sets[58]: 217  LLC: 2048
rand_sets[58]: 217
Assign rand_sets[59]: 1945  LLC: 2048
rand_sets[59]: 1945
Assign rand_sets[60]: 143  LLC: 2048
rand_sets[60]: 143
Assign rand_sets[61]: 1311  LLC: 2048
rand_sets[61]: 1311
Assign rand_sets[62]: 319  LLC: 2048
rand_sets[62]: 319
Assign rand_sets[63]: 1846  LLC: 2048
rand_sets[63]: 1846
 CLEAN-RRIP-POLICY-1: 1-0-1-3-0-1-0-1- CLEAN-RRIP-POLICY-2: 1-0-1-3-0-1-0-1-
 DIRTY-RRIP-POLICY-1: 2-0-0-3-1-1-0-1- DIRTY-RRIP-POLICY-2: 2-0-0-3-1-1-0-1-
 PSEL width: 10
Heartbeat CPU 0 instructions: 10000000 cycles: 4321561 heartbeat IPC: 2.31398 cumulative IPC: 2.31398 (Simulation time: 0 hr 0 min 17 sec) 
Heartbeat CPU 0 instructions: 20000000 cycles: 8643670 heartbeat IPC: 2.31369 cumulative IPC: 2.31383 (Simulation time: 0 hr 0 min 35 sec) 
Heartbeat CPU 0 instructions: 30000000 cycles: 12965521 heartbeat IPC: 2.31382 cumulative IPC: 2.31383 (Simulation time: 0 hr 0 min 53 sec) 
Heartbeat CPU 0 instructions: 40000000 cycles: 17291443 heartbeat IPC: 2.31165 cumulative IPC: 2.31328 (Simulation time: 0 hr 1 min 11 sec) 
Heartbeat CPU 0 instructions: 50000000 cycles: 21613456 heartbeat IPC: 2.31374 cumulative IPC: 2.31337 (Simulation time: 0 hr 1 min 29 sec) 
Heartbeat CPU 0 instructions: 60000000 cycles: 25935375 heartbeat IPC: 2.31379 cumulative IPC: 2.31344 (Simulation time: 0 hr 1 min 47 sec) 
Heartbeat CPU 0 instructions: 70000000 cycles: 30256938 heartbeat IPC: 2.31398 cumulative IPC: 2.31352 (Simulation time: 0 hr 2 min 5 sec) 
Heartbeat CPU 0 instructions: 80000000 cycles: 34583194 heartbeat IPC: 2.31147 cumulative IPC: 2.31326 (Simulation time: 0 hr 2 min 23 sec) 
Heartbeat CPU 0 instructions: 90000003 cycles: 38905315 heartbeat IPC: 2.31368 cumulative IPC: 2.31331 (Simulation time: 0 hr 2 min 41 sec) 
Heartbeat CPU 0 instructions: 100000000 cycles: 43226904 heartbeat IPC: 2.31396 cumulative IPC: 2.31337 (Simulation time: 0 hr 2 min 58 sec) 

Warmup complete CPU 0 instructions: 100000001 cycles: 43226905 (Simulation time: 0 hr 2 min 58 sec) 

Heartbeat CPU 0 instructions: 110000000 cycles: 58137615 heartbeat IPC: 0.670659 cumulative IPC: 0.670659 (Simulation time: 0 hr 3 min 25 sec) 
Heartbeat CPU 0 instructions: 120000000 cycles: 73163714 heartbeat IPC: 0.665509 cumulative IPC: 0.668074 (Simulation time: 0 hr 3 min 51 sec) 
Heartbeat CPU 0 instructions: 130000000 cycles: 88111148 heartbeat IPC: 0.669011 cumulative IPC: 0.668386 (Simulation time: 0 hr 4 min 17 sec) 
Heartbeat CPU 0 instructions: 140000000 cycles: 102932082 heartbeat IPC: 0.674721 cumulative IPC: 0.669959 (Simulation time: 0 hr 4 min 43 sec) 
Heartbeat CPU 0 instructions: 150000003 cycles: 117657348 heartbeat IPC: 0.679105 cumulative IPC: 0.671768 (Simulation time: 0 hr 5 min 9 sec) 
Heartbeat CPU 0 instructions: 160000000 cycles: 132456395 heartbeat IPC: 0.675719 cumulative IPC: 0.672423 (Simulation time: 0 hr 5 min 36 sec) 
Heartbeat CPU 0 instructions: 170000002 cycles: 147437575 heartbeat IPC: 0.667504 cumulative IPC: 0.671716 (Simulation time: 0 hr 6 min 2 sec) 
Heartbeat CPU 0 instructions: 180000000 cycles: 162369588 heartbeat IPC: 0.669702 cumulative IPC: 0.671464 (Simulation time: 0 hr 6 min 28 sec) 
Heartbeat CPU 0 instructions: 190000003 cycles: 180426808 heartbeat IPC: 0.553795 cumulative IPC: 0.655977 (Simulation time: 0 hr 6 min 57 sec) 
Heartbeat CPU 0 instructions: 200000000 cycles: 201912194 heartbeat IPC: 0.465432 cumulative IPC: 0.630178 (Simulation time: 0 hr 7 min 30 sec) 
Heartbeat CPU 0 instructions: 210000001 cycles: 216743528 heartbeat IPC: 0.674248 cumulative IPC: 0.633945 (Simulation time: 0 hr 7 min 56 sec) 
Heartbeat CPU 0 instructions: 220000000 cycles: 231538547 heartbeat IPC: 0.675903 cumulative IPC: 0.637242 (Simulation time: 0 hr 8 min 22 sec) 
Heartbeat CPU 0 instructions: 230000001 cycles: 246627641 heartbeat IPC: 0.66273 cumulative IPC: 0.639132 (Simulation time: 0 hr 8 min 49 sec) 
Heartbeat CPU 0 instructions: 240000000 cycles: 261699034 heartbeat IPC: 0.663509 cumulative IPC: 0.640814 (Simulation time: 0 hr 9 min 15 sec) 
Heartbeat CPU 0 instructions: 250000000 cycles: 277023205 heartbeat IPC: 0.652564 cumulative IPC: 0.641584 (Simulation time: 0 hr 9 min 42 sec) 
Heartbeat CPU 0 instructions: 260000000 cycles: 292376873 heartbeat IPC: 0.65131 cumulative IPC: 0.642183 (Simulation time: 0 hr 10 min 9 sec) 
Heartbeat CPU 0 instructions: 270000002 cycles: 308280228 heartbeat IPC: 0.628798 cumulative IPC: 0.64138 (Simulation time: 0 hr 10 min 36 sec) 
Heartbeat CPU 0 instructions: 280000000 cycles: 324248900 heartbeat IPC: 0.626226 cumulative IPC: 0.640519 (Simulation time: 0 hr 11 min 3 sec) 
Heartbeat CPU 0 instructions: 290000003 cycles: 340837097 heartbeat IPC: 0.602838 cumulative IPC: 0.638419 (Simulation time: 0 hr 11 min 31 sec) 
Heartbeat CPU 0 instructions: 300000000 cycles: 356832825 heartbeat IPC: 0.625167 cumulative IPC: 0.637743 (Simulation time: 0 hr 11 min 58 sec) 
Heartbeat CPU 0 instructions: 310000000 cycles: 373643302 heartbeat IPC: 0.594867 cumulative IPC: 0.635562 (Simulation time: 0 hr 12 min 26 sec) 
Heartbeat CPU 0 instructions: 320000000 cycles: 390150393 heartbeat IPC: 0.6058 cumulative IPC: 0.634146 (Simulation time: 0 hr 12 min 53 sec) 
Heartbeat CPU 0 instructions: 330000002 cycles: 406142697 heartbeat IPC: 0.625301 cumulative IPC: 0.633756 (Simulation time: 0 hr 13 min 20 sec) 
Heartbeat CPU 0 instructions: 340000000 cycles: 422943555 heartbeat IPC: 0.595208 cumulative IPC: 0.63205 (Simulation time: 0 hr 13 min 48 sec) 
Heartbeat CPU 0 instructions: 350000001 cycles: 438775990 heartbeat IPC: 0.631615 cumulative IPC: 0.632033 (Simulation time: 0 hr 14 min 15 sec) 
Heartbeat CPU 0 instructions: 360000000 cycles: 455041222 heartbeat IPC: 0.614808 cumulative IPC: 0.631352 (Simulation time: 0 hr 14 min 42 sec) 
Heartbeat CPU 0 instructions: 370000000 cycles: 470678471 heartbeat IPC: 0.639499 cumulative IPC: 0.631651 (Simulation time: 0 hr 15 min 8 sec) 
Heartbeat CPU 0 instructions: 380000000 cycles: 486415184 heartbeat IPC: 0.635457 cumulative IPC: 0.631786 (Simulation time: 0 hr 15 min 35 sec) 
Heartbeat CPU 0 instructions: 390000000 cycles: 501692671 heartbeat IPC: 0.654558 cumulative IPC: 0.632545 (Simulation time: 0 hr 16 min 1 sec) 
Heartbeat CPU 0 instructions: 400000000 cycles: 517061826 heartbeat IPC: 0.650654 cumulative IPC: 0.633132 (Simulation time: 0 hr 16 min 28 sec) 
Heartbeat CPU 0 instructions: 410000000 cycles: 532020203 heartbeat IPC: 0.668522 cumulative IPC: 0.634215 (Simulation time: 0 hr 16 min 54 sec) 
Heartbeat CPU 0 instructions: 420000000 cycles: 546941945 heartbeat IPC: 0.670163 cumulative IPC: 0.63528 (Simulation time: 0 hr 17 min 20 sec) 
Heartbeat CPU 0 instructions: 430000002 cycles: 561584446 heartbeat IPC: 0.682944 cumulative IPC: 0.636626 (Simulation time: 0 hr 17 min 45 sec) 
Heartbeat CPU 0 instructions: 440000000 cycles: 576195620 heartbeat IPC: 0.684408 cumulative IPC: 0.637936 (Simulation time: 0 hr 18 min 11 sec) 
Heartbeat CPU 0 instructions: 450000000 cycles: 591145013 heartbeat IPC: 0.668923 cumulative IPC: 0.638782 (Simulation time: 0 hr 18 min 37 sec) 
Heartbeat CPU 0 instructions: 460000000 cycles: 606296840 heartbeat IPC: 0.659986 cumulative IPC: 0.639352 (Simulation time: 0 hr 19 min 3 sec) 
Heartbeat CPU 0 instructions: 470000000 cycles: 621335112 heartbeat IPC: 0.66497 cumulative IPC: 0.640019 (Simulation time: 0 hr 19 min 29 sec) 
Heartbeat CPU 0 instructions: 480000000 cycles: 635984680 heartbeat IPC: 0.682614 cumulative IPC: 0.641071 (Simulation time: 0 hr 19 min 54 sec) 
Heartbeat CPU 0 instructions: 490000001 cycles: 651038415 heartbeat IPC: 0.664287 cumulative IPC: 0.641646 (Simulation time: 0 hr 20 min 20 sec) 
Heartbeat CPU 0 instructions: 500000000 cycles: 665855485 heartbeat IPC: 0.674897 cumulative IPC: 0.642438 (Simulation time: 0 hr 20 min 46 sec) 
Heartbeat CPU 0 instructions: 510000002 cycles: 680701832 heartbeat IPC: 0.673567 cumulative IPC: 0.643163 (Simulation time: 0 hr 21 min 12 sec) 
Heartbeat CPU 0 instructions: 520000000 cycles: 695391584 heartbeat IPC: 0.680747 cumulative IPC: 0.644009 (Simulation time: 0 hr 21 min 38 sec) 
Heartbeat CPU 0 instructions: 530000001 cycles: 710252410 heartbeat IPC: 0.67291 cumulative IPC: 0.644653 (Simulation time: 0 hr 22 min 3 sec) 
Heartbeat CPU 0 instructions: 540000000 cycles: 725119190 heartbeat IPC: 0.672641 cumulative IPC: 0.645263 (Simulation time: 0 hr 22 min 29 sec) 
Heartbeat CPU 0 instructions: 550000003 cycles: 739929508 heartbeat IPC: 0.675205 cumulative IPC: 0.6459 (Simulation time: 0 hr 22 min 55 sec) 
Heartbeat CPU 0 instructions: 560000000 cycles: 755374929 heartbeat IPC: 0.647441 cumulative IPC: 0.645933 (Simulation time: 0 hr 23 min 21 sec) 
Heartbeat CPU 0 instructions: 570000001 cycles: 770284105 heartbeat IPC: 0.670728 cumulative IPC: 0.646442 (Simulation time: 0 hr 23 min 47 sec) 
Heartbeat CPU 0 instructions: 580000000 cycles: 785053675 heartbeat IPC: 0.677068 cumulative IPC: 0.647051 (Simulation time: 0 hr 24 min 13 sec) 
Heartbeat CPU 0 instructions: 590000003 cycles: 799231681 heartbeat IPC: 0.705318 cumulative IPC: 0.648144 (Simulation time: 0 hr 24 min 38 sec) 
Heartbeat CPU 0 instructions: 600000000 cycles: 814100189 heartbeat IPC: 0.672562 cumulative IPC: 0.648615 (Simulation time: 0 hr 25 min 4 sec) 
Finished CPU 0 instructions: 500000000 cycles: 770873292 cumulative IPC: 0.648615 (Simulation time: 0 hr 25 min 4 sec) 

CPU 0 Branch Prediction Accuracy: 99.5915% MPKI: 0.037126
Number of Branches: 4544106 Number of Mispredictions: 18563
Number of LOAD Instructions: 149787067
Number of LOAD Instructions (ROI): 149787067
Number of STORE Instructions: 77239062
Number of STORE Instructions (ROI): 77239062
Total Destination Memory Operands: 77239062
Total Destination Memory Operands (ROI): 77239062
Total Source Memory Operands: 149787067
Total Source Memory Operands (ROI): 149787067
Number of DEPENDED LOADS: 19258236
Number of DEPENDED LOADS (ROI): 19258236
Number of SQ_ADDED: 77239036
Number of SQ_ADDED (ROI): 77239036
Number of LQ_ADDED: 149787020
Number of LQ_ADDED (ROI): 149787020
Number of Instructions read from trace: 600000256

ChampSim completed all CPUs

Region of Interest Statistics

CPU 0 cumulative IPC: 0.648615 instructions: 500000000 cycles: 770873292
ITLB TOTAL     ACCESS:   86466760  HIT:   86466759  MISS:          1
ITLB LOAD      ACCESS:   86466760  HIT:   86466759  MISS:          1
ITLB RFO       ACCESS:          0  HIT:          0  MISS:          0
ITLB PREFETCH  ACCESS:          0  HIT:          0  MISS:          0
ITLB WRITEBACK ACCESS:          0  HIT:          0  MISS:          0
ITLB PREFETCH  REQUESTED:          0  ISSUED:          0  USEFUL:          0  USELESS:          0
ITLB TOTAL MSHR MERGED:          1
ITLB LOAD MSHR MERGED:          1
ITLB RFO MSHR MERGED:          0
ITLB PREFETCH MSHR MERGED:          0
ITLB WRITEBACK MSHR MERGED:          0
ITLB TOTAL ACCESSES:   86466761 HITS:   86466759 MISSES:          2
ITLB LOAD ACCESSES:   86466761 HITS:   86466759 MISSES:          2
ITLB RFO ACCESSES:          0 HITS:          0 MISSES:          0
ITLB PREFETCH ACCESSES:          0 HITS:          0 MISSES:          0
ITLB WRITEBACK ACCESSES:          0 HITS:          0 MISSES:          0
ITLB RQ ACCESS:  500000002
ITLB RQ TO_CACHE:   86466761
ITLB RQ MERGED:  413533241
ITLB RQ FORWARD:          0
ITLB WQ ACCESS:          0
ITLB WQ TO_CACHE:          0
ITLB WQ MERGED:          0
ITLB WQ FORWARD:          0
DTLB TOTAL     ACCESS:   98092262  HIT:   97907001  MISS:     185261
DTLB LOAD      ACCESS:   55032073  HIT:   54985762  MISS:      46311
DTLB RFO       ACCESS:   43060189  HIT:   42921239  MISS:     138950
DTLB PREFETCH  ACCESS:          0  HIT:          0  MISS:          0
DTLB WRITEBACK ACCESS:          0  HIT:          0  MISS:          0
DTLB PREFETCH  REQUESTED:          0  ISSUED:          0  USEFUL:          0  USELESS:          0
DTLB TOTAL MSHR MERGED:      83615
DTLB LOAD MSHR MERGED:      83612
DTLB RFO MSHR MERGED:          3
DTLB PREFETCH MSHR MERGED:          0
DTLB WRITEBACK MSHR MERGED:          0
DTLB TOTAL ACCESSES:   98175877 HITS:   97907001 MISSES:     268876
DTLB LOAD ACCESSES:   55115685 HITS:   54985762 MISSES:     129923
DTLB RFO ACCESSES:   43060192 HITS:   42921239 MISSES:     138953
DTLB PREFETCH ACCESSES:          0 HITS:          0 MISSES:          0
DTLB WRITEBACK ACCESSES:          0 HITS:          0 MISSES:          0
DTLB RQ ACCESS:  173624291
DTLB RQ TO_CACHE:   98175877
DTLB RQ MERGED:   75448414
DTLB RQ FORWARD:          0
DTLB WQ ACCESS:          0
DTLB WQ TO_CACHE:          0
DTLB WQ MERGED:          0
DTLB WQ FORWARD:          0
L1D TOTAL     ACCESS:  164426184  HIT:  144853636  MISS:   19572548
L1D LOAD      ACCESS:   60424796  HIT:   58575534  MISS:    1849262
L1D RFO       ACCESS:   64512525  HIT:   47910400  MISS:   16602125
L1D PREFETCH  ACCESS:   39488863  HIT:   38367702  MISS:    1121161
L1D WRITEBACK ACCESS:          0  HIT:          0  MISS:          0
L1D PREFETCH  REQUESTED:   61553117  ISSUED:   61261970  USEFUL:    1119248  USELESS:       1914
L1D TOTAL MSHR MERGED:    3459710
L1D LOAD MSHR MERGED:    1196708
L1D RFO MSHR MERGED:      10793
L1D PREFETCH MSHR MERGED:    2252209
L1D WRITEBACK MSHR MERGED:          0
L1D TOTAL ACCESSES:  168487973 HITS:  145455715 MISSES:   23032258
L1D LOAD ACCESSES:   61848635 HITS:   58871052 MISSES:    2977583
L1D RFO ACCESSES:   64523280 HITS:   47910400 MISSES:   16612880
L1D PREFETCH ACCESSES:   42116058 HITS:   38674263 MISSES:    3441795
L1D WRITEBACK ACCESSES:          0 HITS:          0 MISSES:          0
L1D RQ ACCESS:  109082976
L1D RQ TO_CACHE:   61553117
L1D RQ MERGED:   47234341
L1D RQ FORWARD:          0
L1D WQ ACCESS:   64541313
L1D WQ TO_CACHE:   64523281
L1D WQ MERGED:      18032
L1D WQ FORWARD:     602079
L1I TOTAL     ACCESS:  107775436  HIT:  107775428  MISS:          8
L1I LOAD      ACCESS:  107775436  HIT:  107775428  MISS:          8
L1I RFO       ACCESS:          0  HIT:          0  MISS:          0
L1I PREFETCH  ACCESS:          0  HIT:          0  MISS:          0
L1I WRITEBACK ACCESS:          0  HIT:          0  MISS:          0
L1I PREFETCH  REQUESTED:          0  ISSUED:          0  USEFUL:          0  USELESS:          0
L1I TOTAL MSHR MERGED:          3
L1I LOAD MSHR MERGED:          3
L1I RFO MSHR MERGED:          0
L1I PREFETCH MSHR MERGED:          0
L1I WRITEBACK MSHR MERGED:          0
L1I TOTAL ACCESSES:  107775439 HITS:  107775428 MISSES:         11
L1I LOAD ACCESSES:  107775439 HITS:  107775428 MISSES:         11
L1I RFO ACCESSES:          0 HITS:          0 MISSES:          0
L1I PREFETCH ACCESSES:          0 HITS:          0 MISSES:          0
L1I WRITEBACK ACCESSES:          0 HITS:          0 MISSES:          0
L1I RQ ACCESS:  500000007
L1I RQ TO_CACHE:  107775439
L1I RQ MERGED:  392224568
L1I RQ FORWARD:          0
L1I WQ ACCESS:          0
L1I WQ TO_CACHE:          0
L1I WQ MERGED:          0
L1I WQ FORWARD:          0
L2C TOTAL     ACCESS:   36777168  HIT:   24819579  MISS:   11957589
L2C LOAD      ACCESS:    1780883  HIT:     244000  MISS:    1536883
L2C RFO       ACCESS:   16602087  HIT:    7610708  MISS:    8991379
L2C PREFETCH  ACCESS:    1792014  HIT:     363914  MISS:    1428100
L2C WRITEBACK ACCESS:   16602184  HIT:   16600957  MISS:       1227
L2C PREFETCH  REQUESTED:     811758  ISSUED:     811758  USEFUL:     241643  USELESS:    1186738
L2C TOTAL MSHR MERGED:       2294
L2C LOAD MSHR MERGED:        548
L2C RFO MSHR MERGED:          0
L2C PREFETCH MSHR MERGED:       1746
L2C WRITEBACK MSHR MERGED:          0
L2C TOTAL ACCESSES:   36986440 HITS:   24819580 MISSES:   12166860
L2C LOAD ACCESSES:    1780883 HITS:     244000 MISSES:    1536883
L2C RFO ACCESSES:   16602087 HITS:    7610709 MISSES:    8991378
L2C PREFETCH ACCESSES:    2001286 HITS:     363914 MISSES:    1637372
L2C WRITEBACK ACCESSES:   16602184 HITS:   16600957 MISSES:       1227
L2C RQ ACCESS:   18382970
L2C RQ TO_CACHE:   18382969
L2C RQ MERGED:          0
L2C RQ FORWARD:          0
L2C WQ ACCESS:   16602184
L2C WQ TO_CACHE:   16602184
L2C WQ MERGED:          0
L2C WQ FORWARD:          1
LLC TOTAL     ACCESS:   21152036  HIT:    9247307  MISS:   11904729
LLC LOAD      ACCESS:    1536335  HIT:      75189  MISS:    1461146
LLC RFO       ACCESS:    8991366  HIT:     117643  MISS:    8873723
LLC PREFETCH  ACCESS:    1632132  HIT:     128232  MISS:    1503900
LLC WRITEBACK ACCESS:    8992203  HIT:    8926243  MISS:      65960
LLC PREFETCH  REQUESTED:          0  ISSUED:          0  USEFUL:      74955  USELESS:    1428691
LLC TOTAL MSHR MERGED:       3105
LLC LOAD MSHR MERGED:        231
LLC RFO MSHR MERGED:          0
LLC PREFETCH MSHR MERGED:       2874
LLC WRITEBACK MSHR MERGED:          0
LLC TOTAL ACCESSES:   21155153 HITS:    9247320 MISSES:   11907833
LLC LOAD ACCESSES:    1536335 HITS:      75189 MISSES:    1461146
LLC RFO ACCESSES:    8991378 HITS:     117656 MISSES:    8873722
LLC PREFETCH ACCESSES:    1635237 HITS:     128232 MISSES:    1507005
LLC WRITEBACK ACCESSES:    8992203 HITS:    8926243 MISSES:      65960
LLC 0 RQ ACCESS:   10527713
LLC 0 RQ TO_CACHE:   10527700
LLC 0 RQ MERGED:          0
LLC 0 RQ FORWARD:          0
LLC WQ ACCESS:    8992203
LLC WQ TO_CACHE:    8992203
LLC WQ MERGED:          0
LLC WQ FORWARD:         13
Major fault: 0 Minor fault: 102360
CPU 0 L1D next line prefetcher final stats
CPU 0 L2C PC-based stride prefetcher final stats
All Misses: 14161710
All Hits: 10965837
SD Algo Stats - Switches: 0 SRR-Repls: 1639685 BRR-Repls: 0

DRAM Statistics
 CHANNEL 0
 RQ ROW_BUFFER_HIT:    3113865  ROW_BUFFER_MISS:    8724767
 DBUS_CONGESTED:   14432943
 WQ ROW_BUFFER_HIT:     953415  ROW_BUFFER_MISS:    7921551  FULL:          0

 AVG_CONGESTED_CYCLE: 13
LOADS RETIRED: 124982196
INSTR RETIRED: 500000000
