
*** ChampSim Multicore Out-of-Order Simulator ***

Warmup Instructions: 100000000
Simulation Instructions: 500000000
Number of CPUs: 1
LLC sets: 2048
LLC ways: 16
Clean RRIP Policies: 1013010110130101 Dirty RRIP Policies: 2003110120031101 PSEL Width: 10 Track Set: 4294967295 PSEL Mask: 1 Demote Mask: 2340211023402110DS Algo: 0Window size: 0
Off-chip DRAM Size: 4096 MB Channels: 1 Width: 64-bit Data Rate: 1600 MT/s

CPU 0 runs /mnt/beegfs/iconst01/spec2017/Omnetpp.trace.gz
NOT SORTED
TRACE STRING: /mnt/beegfs/iconst01/spec2017/Omnetpp.trace.gz
SORTED
TRACE STRING: /mnt/beegfs/iconst01/spec2017/Omnetpp.trace.gz
INITIAL
TRACE STRING: /mnt/beegfs/iconst01/spec2017/Omnetpp.trace.gz

champsim_seed used: 739

CPU 0 L1D next line prefetcher
CPU 0 L2C IP-based stride prefetcher
Initialize DRRIP state
Assign rand_sets[0]: 454  LLC: 2048
rand_sets[0]: 454
Assign rand_sets[1]: 1662  LLC: 2048
rand_sets[1]: 1662
Assign rand_sets[2]: 1921  LLC: 2048
rand_sets[2]: 1921
Assign rand_sets[3]: 1131  LLC: 2048
rand_sets[3]: 1131
Assign rand_sets[4]: 331  LLC: 2048
rand_sets[4]: 331
Assign rand_sets[5]: 1531  LLC: 2048
rand_sets[5]: 1531
Assign rand_sets[6]: 482  LLC: 2048
rand_sets[6]: 482
Assign rand_sets[7]: 1275  LLC: 2048
rand_sets[7]: 1275
Assign rand_sets[8]: 1876  LLC: 2048
rand_sets[8]: 1876
Assign rand_sets[9]: 2038  LLC: 2048
rand_sets[9]: 2038
Assign rand_sets[10]: 701  LLC: 2048
rand_sets[10]: 701
Assign rand_sets[11]: 479  LLC: 2048
rand_sets[11]: 479
Assign rand_sets[12]: 892  LLC: 2048
rand_sets[12]: 892
Assign rand_sets[13]: 1820  LLC: 2048
rand_sets[13]: 1820
Assign rand_sets[14]: 1505  LLC: 2048
rand_sets[14]: 1505
Assign rand_sets[15]: 1159  LLC: 2048
rand_sets[15]: 1159
Assign rand_sets[16]: 513  LLC: 2048
rand_sets[16]: 513
Assign rand_sets[17]: 703  LLC: 2048
rand_sets[17]: 703
Assign rand_sets[18]: 561  LLC: 2048
rand_sets[18]: 561
Assign rand_sets[19]: 990  LLC: 2048
rand_sets[19]: 990
Assign rand_sets[20]: 342  LLC: 2048
rand_sets[20]: 342
Assign rand_sets[21]: 882  LLC: 2048
rand_sets[21]: 882
Assign rand_sets[22]: 15  LLC: 2048
rand_sets[22]: 15
Assign rand_sets[23]: 71  LLC: 2048
rand_sets[23]: 71
Assign rand_sets[24]: 1127  LLC: 2048
rand_sets[24]: 1127
Assign rand_sets[25]: 1382  LLC: 2048
rand_sets[25]: 1382
Assign rand_sets[26]: 647  LLC: 2048
rand_sets[26]: 647
Assign rand_sets[27]: 857  LLC: 2048
rand_sets[27]: 857
Assign rand_sets[28]: 1450  LLC: 2048
rand_sets[28]: 1450
Assign rand_sets[29]: 1160  LLC: 2048
rand_sets[29]: 1160
Assign rand_sets[30]: 1852  LLC: 2048
rand_sets[30]: 1852
Assign rand_sets[31]: 1881  LLC: 2048
rand_sets[31]: 1881
Assign rand_sets[32]: 1770  LLC: 2048
rand_sets[32]: 1770
Assign rand_sets[33]: 1622  LLC: 2048
rand_sets[33]: 1622
Assign rand_sets[34]: 275  LLC: 2048
rand_sets[34]: 275
Assign rand_sets[35]: 635  LLC: 2048
rand_sets[35]: 635
Assign rand_sets[36]: 466  LLC: 2048
rand_sets[36]: 466
Assign rand_sets[37]: 1413  LLC: 2048
rand_sets[37]: 1413
Assign rand_sets[38]: 417  LLC: 2048
rand_sets[38]: 417
Assign rand_sets[39]: 472  LLC: 2048
rand_sets[39]: 472
Assign rand_sets[40]: 1340  LLC: 2048
rand_sets[40]: 1340
Assign rand_sets[41]: 852  LLC: 2048
rand_sets[41]: 852
Assign rand_sets[42]: 1365  LLC: 2048
rand_sets[42]: 1365
Assign rand_sets[43]: 47  LLC: 2048
rand_sets[43]: 47
Assign rand_sets[44]: 823  LLC: 2048
rand_sets[44]: 823
Assign rand_sets[45]: 686  LLC: 2048
rand_sets[45]: 686
Assign rand_sets[46]: 1637  LLC: 2048
rand_sets[46]: 1637
Assign rand_sets[47]: 1115  LLC: 2048
rand_sets[47]: 1115
Assign rand_sets[48]: 986  LLC: 2048
rand_sets[48]: 986
Assign rand_sets[49]: 258  LLC: 2048
rand_sets[49]: 258
Assign rand_sets[50]: 633  LLC: 2048
rand_sets[50]: 633
Assign rand_sets[51]: 920  LLC: 2048
rand_sets[51]: 920
Assign rand_sets[52]: 204  LLC: 2048
rand_sets[52]: 204
Assign rand_sets[53]: 227  LLC: 2048
rand_sets[53]: 227
Assign rand_sets[54]: 1818  LLC: 2048
rand_sets[54]: 1818
Assign rand_sets[55]: 886  LLC: 2048
rand_sets[55]: 886
Assign rand_sets[56]: 1422  LLC: 2048
rand_sets[56]: 1422
Assign rand_sets[57]: 607  LLC: 2048
rand_sets[57]: 607
Assign rand_sets[58]: 217  LLC: 2048
rand_sets[58]: 217
Assign rand_sets[59]: 1945  LLC: 2048
rand_sets[59]: 1945
Assign rand_sets[60]: 143  LLC: 2048
rand_sets[60]: 143
Assign rand_sets[61]: 1311  LLC: 2048
rand_sets[61]: 1311
Assign rand_sets[62]: 319  LLC: 2048
rand_sets[62]: 319
Assign rand_sets[63]: 1846  LLC: 2048
rand_sets[63]: 1846
 CLEAN-RRIP-POLICY-1: 1-0-1-3-0-1-0-1- CLEAN-RRIP-POLICY-2: 1-0-1-3-0-1-0-1-
 DIRTY-RRIP-POLICY-1: 2-0-0-3-1-1-0-1- DIRTY-RRIP-POLICY-2: 2-0-0-3-1-1-0-1-
 PSEL width: 10
Heartbeat CPU 0 instructions: 10000000 cycles: 7320350 heartbeat IPC: 1.36605 cumulative IPC: 1.36605 (Simulation time: 0 hr 0 min 20 sec) 
Heartbeat CPU 0 instructions: 20000000 cycles: 14624531 heartbeat IPC: 1.36908 cumulative IPC: 1.36757 (Simulation time: 0 hr 0 min 39 sec) 
Heartbeat CPU 0 instructions: 30000003 cycles: 21926376 heartbeat IPC: 1.36952 cumulative IPC: 1.36822 (Simulation time: 0 hr 0 min 59 sec) 
Heartbeat CPU 0 instructions: 40000000 cycles: 29215014 heartbeat IPC: 1.372 cumulative IPC: 1.36916 (Simulation time: 0 hr 1 min 19 sec) 
Heartbeat CPU 0 instructions: 50000000 cycles: 36491992 heartbeat IPC: 1.3742 cumulative IPC: 1.37016 (Simulation time: 0 hr 1 min 38 sec) 
Heartbeat CPU 0 instructions: 60000000 cycles: 43772498 heartbeat IPC: 1.37353 cumulative IPC: 1.37072 (Simulation time: 0 hr 1 min 58 sec) 
Heartbeat CPU 0 instructions: 70000001 cycles: 51058249 heartbeat IPC: 1.37254 cumulative IPC: 1.37098 (Simulation time: 0 hr 2 min 18 sec) 
Heartbeat CPU 0 instructions: 80000000 cycles: 58333736 heartbeat IPC: 1.37448 cumulative IPC: 1.37142 (Simulation time: 0 hr 2 min 38 sec) 
Heartbeat CPU 0 instructions: 90000000 cycles: 65640578 heartbeat IPC: 1.36858 cumulative IPC: 1.3711 (Simulation time: 0 hr 2 min 57 sec) 
Heartbeat CPU 0 instructions: 100000000 cycles: 72933196 heartbeat IPC: 1.37125 cumulative IPC: 1.37112 (Simulation time: 0 hr 3 min 17 sec) 

Warmup complete CPU 0 instructions: 100000002 cycles: 72933197 (Simulation time: 0 hr 3 min 17 sec) 

Heartbeat CPU 0 instructions: 110000002 cycles: 113496098 heartbeat IPC: 0.246531 cumulative IPC: 0.246531 (Simulation time: 0 hr 3 min 57 sec) 
Heartbeat CPU 0 instructions: 120000000 cycles: 153768284 heartbeat IPC: 0.24831 cumulative IPC: 0.247417 (Simulation time: 0 hr 4 min 36 sec) 
Heartbeat CPU 0 instructions: 130000002 cycles: 194257275 heartbeat IPC: 0.246981 cumulative IPC: 0.247272 (Simulation time: 0 hr 5 min 16 sec) 
Heartbeat CPU 0 instructions: 140000000 cycles: 234898110 heartbeat IPC: 0.246058 cumulative IPC: 0.246967 (Simulation time: 0 hr 5 min 56 sec) 
Heartbeat CPU 0 instructions: 150000002 cycles: 275073236 heartbeat IPC: 0.24891 cumulative IPC: 0.247353 (Simulation time: 0 hr 6 min 36 sec) 
Heartbeat CPU 0 instructions: 160000000 cycles: 315291646 heartbeat IPC: 0.248642 cumulative IPC: 0.247567 (Simulation time: 0 hr 7 min 15 sec) 
Heartbeat CPU 0 instructions: 170000001 cycles: 354763697 heartbeat IPC: 0.253344 cumulative IPC: 0.248376 (Simulation time: 0 hr 7 min 54 sec) 
Heartbeat CPU 0 instructions: 180000000 cycles: 394976506 heartbeat IPC: 0.248677 cumulative IPC: 0.248414 (Simulation time: 0 hr 8 min 34 sec) 
Heartbeat CPU 0 instructions: 190000002 cycles: 435175554 heartbeat IPC: 0.248762 cumulative IPC: 0.248452 (Simulation time: 0 hr 9 min 13 sec) 
Heartbeat CPU 0 instructions: 200000000 cycles: 476531782 heartbeat IPC: 0.241802 cumulative IPC: 0.247771 (Simulation time: 0 hr 9 min 53 sec) 
Heartbeat CPU 0 instructions: 210000003 cycles: 516745880 heartbeat IPC: 0.248669 cumulative IPC: 0.247852 (Simulation time: 0 hr 10 min 33 sec) 
Heartbeat CPU 0 instructions: 220000000 cycles: 557182469 heartbeat IPC: 0.247301 cumulative IPC: 0.247806 (Simulation time: 0 hr 11 min 13 sec) 
Heartbeat CPU 0 instructions: 230000000 cycles: 597619156 heartbeat IPC: 0.2473 cumulative IPC: 0.247767 (Simulation time: 0 hr 11 min 53 sec) 
Heartbeat CPU 0 instructions: 240000000 cycles: 637788980 heartbeat IPC: 0.248943 cumulative IPC: 0.247851 (Simulation time: 0 hr 12 min 32 sec) 
Heartbeat CPU 0 instructions: 250000000 cycles: 678004479 heartbeat IPC: 0.24866 cumulative IPC: 0.247905 (Simulation time: 0 hr 13 min 11 sec) 
Heartbeat CPU 0 instructions: 260000000 cycles: 718309494 heartbeat IPC: 0.248108 cumulative IPC: 0.247917 (Simulation time: 0 hr 13 min 50 sec) 
Heartbeat CPU 0 instructions: 270000000 cycles: 758694328 heartbeat IPC: 0.247618 cumulative IPC: 0.2479 (Simulation time: 0 hr 14 min 30 sec) 
Heartbeat CPU 0 instructions: 280000000 cycles: 799417440 heartbeat IPC: 0.245561 cumulative IPC: 0.247769 (Simulation time: 0 hr 15 min 9 sec) 
Heartbeat CPU 0 instructions: 290000001 cycles: 839346405 heartbeat IPC: 0.250445 cumulative IPC: 0.247908 (Simulation time: 0 hr 15 min 48 sec) 
Heartbeat CPU 0 instructions: 300000000 cycles: 879956946 heartbeat IPC: 0.246241 cumulative IPC: 0.247824 (Simulation time: 0 hr 16 min 27 sec) 
Heartbeat CPU 0 instructions: 310000000 cycles: 920517605 heartbeat IPC: 0.246544 cumulative IPC: 0.247763 (Simulation time: 0 hr 17 min 6 sec) 
Heartbeat CPU 0 instructions: 320000000 cycles: 960767665 heartbeat IPC: 0.248447 cumulative IPC: 0.247794 (Simulation time: 0 hr 17 min 46 sec) 
Heartbeat CPU 0 instructions: 330000000 cycles: 1001035987 heartbeat IPC: 0.248334 cumulative IPC: 0.247817 (Simulation time: 0 hr 18 min 25 sec) 
Heartbeat CPU 0 instructions: 340000000 cycles: 1041954703 heartbeat IPC: 0.244387 cumulative IPC: 0.247673 (Simulation time: 0 hr 19 min 4 sec) 
Heartbeat CPU 0 instructions: 350000001 cycles: 1082284139 heartbeat IPC: 0.247958 cumulative IPC: 0.247684 (Simulation time: 0 hr 19 min 43 sec) 
Heartbeat CPU 0 instructions: 360000000 cycles: 1122903821 heartbeat IPC: 0.246186 cumulative IPC: 0.247626 (Simulation time: 0 hr 20 min 22 sec) 
Heartbeat CPU 0 instructions: 370000000 cycles: 1162609668 heartbeat IPC: 0.251852 cumulative IPC: 0.24778 (Simulation time: 0 hr 21 min 1 sec) 
Heartbeat CPU 0 instructions: 380000000 cycles: 1203243136 heartbeat IPC: 0.246103 cumulative IPC: 0.24772 (Simulation time: 0 hr 21 min 40 sec) 
Heartbeat CPU 0 instructions: 390000001 cycles: 1243396130 heartbeat IPC: 0.249047 cumulative IPC: 0.247765 (Simulation time: 0 hr 22 min 19 sec) 
Heartbeat CPU 0 instructions: 400000000 cycles: 1283645079 heartbeat IPC: 0.248454 cumulative IPC: 0.247788 (Simulation time: 0 hr 22 min 57 sec) 
Heartbeat CPU 0 instructions: 410000000 cycles: 1323741692 heartbeat IPC: 0.249398 cumulative IPC: 0.24784 (Simulation time: 0 hr 23 min 36 sec) 
Heartbeat CPU 0 instructions: 420000000 cycles: 1363860514 heartbeat IPC: 0.24926 cumulative IPC: 0.247884 (Simulation time: 0 hr 24 min 15 sec) 
Heartbeat CPU 0 instructions: 430000000 cycles: 1404053331 heartbeat IPC: 0.248801 cumulative IPC: 0.247912 (Simulation time: 0 hr 24 min 54 sec) 
Heartbeat CPU 0 instructions: 440000000 cycles: 1444325358 heartbeat IPC: 0.248311 cumulative IPC: 0.247923 (Simulation time: 0 hr 25 min 32 sec) 
Heartbeat CPU 0 instructions: 450000002 cycles: 1484439474 heartbeat IPC: 0.249289 cumulative IPC: 0.247962 (Simulation time: 0 hr 26 min 11 sec) 
Heartbeat CPU 0 instructions: 460000000 cycles: 1523942118 heartbeat IPC: 0.253148 cumulative IPC: 0.248103 (Simulation time: 0 hr 26 min 50 sec) 
Heartbeat CPU 0 instructions: 470000000 cycles: 1564346952 heartbeat IPC: 0.247495 cumulative IPC: 0.248087 (Simulation time: 0 hr 27 min 29 sec) 
Heartbeat CPU 0 instructions: 480000000 cycles: 1604370648 heartbeat IPC: 0.249852 cumulative IPC: 0.248133 (Simulation time: 0 hr 28 min 7 sec) 
Heartbeat CPU 0 instructions: 490000001 cycles: 1644576503 heartbeat IPC: 0.24872 cumulative IPC: 0.248148 (Simulation time: 0 hr 28 min 45 sec) 
Heartbeat CPU 0 instructions: 500000000 cycles: 1684999550 heartbeat IPC: 0.247384 cumulative IPC: 0.248129 (Simulation time: 0 hr 29 min 23 sec) 
Heartbeat CPU 0 instructions: 510000000 cycles: 1724851446 heartbeat IPC: 0.250929 cumulative IPC: 0.248196 (Simulation time: 0 hr 30 min 0 sec) 
Heartbeat CPU 0 instructions: 520000000 cycles: 1765466922 heartbeat IPC: 0.246212 cumulative IPC: 0.248149 (Simulation time: 0 hr 30 min 37 sec) 
Heartbeat CPU 0 instructions: 530000000 cycles: 1805511863 heartbeat IPC: 0.249719 cumulative IPC: 0.248185 (Simulation time: 0 hr 31 min 13 sec) 
Heartbeat CPU 0 instructions: 540000000 cycles: 1845320244 heartbeat IPC: 0.251203 cumulative IPC: 0.248253 (Simulation time: 0 hr 31 min 49 sec) 
Heartbeat CPU 0 instructions: 550000001 cycles: 1885829827 heartbeat IPC: 0.246855 cumulative IPC: 0.248222 (Simulation time: 0 hr 32 min 25 sec) 
Heartbeat CPU 0 instructions: 560000000 cycles: 1926447715 heartbeat IPC: 0.246197 cumulative IPC: 0.248177 (Simulation time: 0 hr 33 min 2 sec) 
Heartbeat CPU 0 instructions: 570000003 cycles: 1967044794 heartbeat IPC: 0.246323 cumulative IPC: 0.248137 (Simulation time: 0 hr 33 min 38 sec) 
Heartbeat CPU 0 instructions: 580000000 cycles: 2007443973 heartbeat IPC: 0.24753 cumulative IPC: 0.248125 (Simulation time: 0 hr 34 min 15 sec) 
Heartbeat CPU 0 instructions: 590000001 cycles: 2048306956 heartbeat IPC: 0.24472 cumulative IPC: 0.248054 (Simulation time: 0 hr 34 min 51 sec) 
Heartbeat CPU 0 instructions: 600000000 cycles: 2088940125 heartbeat IPC: 0.246104 cumulative IPC: 0.248015 (Simulation time: 0 hr 35 min 28 sec) 
Finished CPU 0 instructions: 500000000 cycles: 2016006936 cumulative IPC: 0.248015 (Simulation time: 0 hr 35 min 28 sec) 

CPU 0 Branch Prediction Accuracy: 96.2429% MPKI: 5.85335
Number of Branches: 77897976 Number of Mispredictions: 2926674
Number of LOAD Instructions: 193081861
Number of LOAD Instructions (ROI): 193081861
Number of STORE Instructions: 97310749
Number of STORE Instructions (ROI): 97310749
Total Destination Memory Operands: 106368027
Total Destination Memory Operands (ROI): 106368027
Total Source Memory Operands: 193081861
Total Source Memory Operands (ROI): 193081861
Number of DEPENDED LOADS: 6457309
Number of DEPENDED LOADS (ROI): 6457309
Number of SQ_ADDED: 106367982
Number of SQ_ADDED (ROI): 106367982
Number of LQ_ADDED: 427439510
Number of LQ_ADDED (ROI): 427439510
Number of Instructions read from trace: 600000256

ChampSim completed all CPUs

Region of Interest Statistics

CPU 0 cumulative IPC: 0.248015 instructions: 500000000 cycles: 2016006936
ITLB TOTAL     ACCESS:  151195222  HIT:  151179391  MISS:      15831
ITLB LOAD      ACCESS:  151195222  HIT:  151179391  MISS:      15831
ITLB RFO       ACCESS:          0  HIT:          0  MISS:          0
ITLB PREFETCH  ACCESS:          0  HIT:          0  MISS:          0
ITLB WRITEBACK ACCESS:          0  HIT:          0  MISS:          0
ITLB PREFETCH  REQUESTED:          0  ISSUED:          0  USEFUL:          0  USELESS:          0
ITLB TOTAL MSHR MERGED:      17853
ITLB LOAD MSHR MERGED:      17853
ITLB RFO MSHR MERGED:          0
ITLB PREFETCH MSHR MERGED:          0
ITLB WRITEBACK MSHR MERGED:          0
ITLB TOTAL ACCESSES:  151213075 HITS:  151179391 MISSES:      33684
ITLB LOAD ACCESSES:  151213075 HITS:  151179391 MISSES:      33684
ITLB RFO ACCESSES:          0 HITS:          0 MISSES:          0
ITLB PREFETCH ACCESSES:          0 HITS:          0 MISSES:          0
ITLB WRITEBACK ACCESSES:          0 HITS:          0 MISSES:          0
ITLB RQ ACCESS:  500000242
ITLB RQ TO_CACHE:  151213075
ITLB RQ MERGED:  348787167
ITLB RQ FORWARD:          0
ITLB WQ ACCESS:          0
ITLB WQ TO_CACHE:          0
ITLB WQ MERGED:          0
ITLB WQ FORWARD:          0
DTLB TOTAL     ACCESS:  199548377  HIT:  194169360  MISS:    5379017
DTLB LOAD      ACCESS:  123119760  HIT:  118101240  MISS:    5018520
DTLB RFO       ACCESS:   76428617  HIT:   76068120  MISS:     360497
DTLB PREFETCH  ACCESS:          0  HIT:          0  MISS:          0
DTLB WRITEBACK ACCESS:          0  HIT:          0  MISS:          0
DTLB PREFETCH  REQUESTED:          0  ISSUED:          0  USEFUL:          0  USELESS:          0
DTLB TOTAL MSHR MERGED:     916309
DTLB LOAD MSHR MERGED:     807035
DTLB RFO MSHR MERGED:     109274
DTLB PREFETCH MSHR MERGED:          0
DTLB WRITEBACK MSHR MERGED:          0
DTLB TOTAL ACCESSES:  200464686 HITS:  194169360 MISSES:    6295326
DTLB LOAD ACCESSES:  123926795 HITS:  118101240 MISSES:    5825555
DTLB RFO ACCESSES:   76537891 HITS:   76068120 MISSES:     469771
DTLB PREFETCH ACCESSES:          0 HITS:          0 MISSES:          0
DTLB WRITEBACK ACCESSES:          0 HITS:          0 MISSES:          0
DTLB RQ ACCESS:  243868278
DTLB RQ TO_CACHE:  200464686
DTLB RQ MERGED:   43403592
DTLB RQ FORWARD:          0
DTLB WQ ACCESS:          0
DTLB WQ TO_CACHE:          0
DTLB WQ MERGED:          0
DTLB WQ FORWARD:          0
L1D TOTAL     ACCESS:  335552842  HIT:  317456784  MISS:   18096058
L1D LOAD      ACCESS:  127673864  HIT:  118730162  MISS:    8943702
L1D RFO       ACCESS:   87069618  HIT:   86281560  MISS:     788058
L1D PREFETCH  ACCESS:  120809360  HIT:  112445062  MISS:    8364298
L1D WRITEBACK ACCESS:          0  HIT:          0  MISS:          0
L1D PREFETCH  REQUESTED:  128462116  ISSUED:  126864093  USEFUL:    1740859  USELESS:    6623451
L1D TOTAL MSHR MERGED:    3872630
L1D LOAD MSHR MERGED:     952724
L1D RFO MSHR MERGED:    1079304
L1D PREFETCH MSHR MERGED:    1840602
L1D WRITEBACK MSHR MERGED:          0
L1D TOTAL ACCESSES:  339511371 HITS:  317542683 MISSES:   21968688
L1D LOAD ACCESSES:  128462551 HITS:  118730597 MISSES:    9731954
L1D RFO ACCESSES:   88081326 HITS:   86281560 MISSES:    1799766
L1D PREFETCH ACCESSES:  122967494 HITS:  112530526 MISSES:   10436968
L1D WRITEBACK ACCESSES:          0 HITS:          0 MISSES:          0
L1D RQ ACCESS:  155236893
L1D RQ TO_CACHE:  128462116
L1D RQ MERGED:   26774342
L1D RQ FORWARD:          0
L1D WQ ACCESS:   88631385
L1D WQ TO_CACHE:   88081325
L1D WQ MERGED:     550060
L1D WQ FORWARD:      85899
L1I TOTAL     ACCESS:  175503831  HIT:  175237364  MISS:     266467
L1I LOAD      ACCESS:  175503831  HIT:  175237364  MISS:     266467
L1I RFO       ACCESS:          0  HIT:          0  MISS:          0
L1I PREFETCH  ACCESS:          0  HIT:          0  MISS:          0
L1I WRITEBACK ACCESS:          0  HIT:          0  MISS:          0
L1I PREFETCH  REQUESTED:          0  ISSUED:          0  USEFUL:          0  USELESS:          0
L1I TOTAL MSHR MERGED:     213344
L1I LOAD MSHR MERGED:     213344
L1I RFO MSHR MERGED:          0
L1I PREFETCH MSHR MERGED:          0
L1I WRITEBACK MSHR MERGED:          0
L1I TOTAL ACCESSES:  175717175 HITS:  175237364 MISSES:     479811
L1I LOAD ACCESSES:  175717175 HITS:  175237364 MISSES:     479811
L1I RFO ACCESSES:          0 HITS:          0 MISSES:          0
L1I PREFETCH ACCESSES:          0 HITS:          0 MISSES:          0
L1I WRITEBACK ACCESSES:          0 HITS:          0 MISSES:          0
L1I RQ ACCESS:  500000242
L1I RQ TO_CACHE:  175717175
L1I RQ MERGED:  324283067
L1I RQ FORWARD:          0
L1I WQ ACCESS:          0
L1I WQ TO_CACHE:          0
L1I WQ MERGED:          0
L1I WQ FORWARD:          0
L2C TOTAL     ACCESS:   23738584  HIT:   12112935  MISS:   11625649
L2C LOAD      ACCESS:    9044525  HIT:    3564986  MISS:    5479539
L2C RFO       ACCESS:     720405  HIT:     130207  MISS:     590198
L2C PREFETCH  ACCESS:    8613362  HIT:    3086147  MISS:    5527215
L2C WRITEBACK ACCESS:    5360292  HIT:    5331595  MISS:      28697
L2C PREFETCH  REQUESTED:      18042  ISSUED:      18042  USEFUL:     322992  USELESS:    5204398
L2C TOTAL MSHR MERGED:         24
L2C LOAD MSHR MERGED:          2
L2C RFO MSHR MERGED:          0
L2C PREFETCH MSHR MERGED:         22
L2C WRITEBACK MSHR MERGED:          0
L2C TOTAL ACCESSES:   23740398 HITS:   12114721 MISSES:   11625677
L2C LOAD ACCESSES:    9045697 HITS:    3566158 MISSES:    5479539
L2C RFO ACCESSES:     720462 HITS:     130264 MISSES:     590198
L2C PREFETCH ACCESSES:    8613947 HITS:    3086704 MISSES:    5527243
L2C WRITEBACK ACCESSES:    5360292 HITS:    5331595 MISSES:      28697
L2C RQ ACCESS:    9766159
L2C RQ TO_CACHE:    9764930
L2C RQ MERGED:          0
L2C RQ FORWARD:          0
L2C WQ ACCESS:    5360292
L2C WQ TO_CACHE:    5360292
L2C WQ MERGED:          0
L2C WQ FORWARD:       1786
LLC TOTAL     ACCESS:   15448580  HIT:    6599683  MISS:    8848897
LLC LOAD      ACCESS:    5479510  HIT:    2004258  MISS:    3475252
LLC RFO       ACCESS:     590196  HIT:     278445  MISS:     311751
LLC PREFETCH  ACCESS:    5527206  HIT:    1009849  MISS:    4517357
LLC WRITEBACK ACCESS:    3851668  HIT:    3307131  MISS:     544537
LLC PREFETCH  REQUESTED:          0  ISSUED:          0  USEFUL:      23835  USELESS:    4493972
LLC TOTAL MSHR MERGED:          0
LLC LOAD MSHR MERGED:          0
LLC RFO MSHR MERGED:          0
LLC PREFETCH MSHR MERGED:          0
LLC WRITEBACK MSHR MERGED:          0
LLC TOTAL ACCESSES:   15448624 HITS:    6599727 MISSES:    8848897
LLC LOAD ACCESSES:    5479537 HITS:    2004285 MISSES:    3475252
LLC RFO ACCESSES:     590198 HITS:     278447 MISSES:     311751
LLC PREFETCH ACCESSES:    5527221 HITS:    1009864 MISSES:    4517357
LLC WRITEBACK ACCESSES:    3851668 HITS:    3307131 MISSES:     544537
LLC 0 RQ ACCESS:    6069735
LLC 0 RQ TO_CACHE:    6069706
LLC 0 RQ MERGED:          0
LLC 0 RQ FORWARD:          0
LLC WQ ACCESS:    3851668
LLC WQ TO_CACHE:    3851668
LLC WQ MERGED:          0
LLC WQ FORWARD:         44
Major fault: 0 Minor fault: 44814
CPU 0 L1D next line prefetcher final stats
CPU 0 L2C PC-based stride prefetcher final stats
All Misses: 10710019
All Hits: 7911035
SD Algo Stats - Switches: 0 SRR-Repls: 3968580 BRR-Repls: 0

DRAM Statistics
 CHANNEL 0
 RQ ROW_BUFFER_HIT:    1439499  ROW_BUFFER_MISS:    6863054
 DBUS_CONGESTED:    5616990
 WQ ROW_BUFFER_HIT:     184648  ROW_BUFFER_MISS:    2159933  FULL:          0

 AVG_CONGESTED_CYCLE: 13
LOADS RETIRED: 160808997
INSTR RETIRED: 500000000
