
*** ChampSim Multicore Out-of-Order Simulator ***

Warmup Instructions: 100000000
Simulation Instructions: 500000000
Number of CPUs: 1
LLC sets: 2048
LLC ways: 16
Clean RRIP Policies: 1013010110130101 Dirty RRIP Policies: 2003110120031101 PSEL Width: 10 Track Set: 4294967295 PSEL Mask: 1 Demote Mask: 2340211023402110DS Algo: 0Window size: 0
Off-chip DRAM Size: 4096 MB Channels: 1 Width: 64-bit Data Rate: 1600 MT/s

CPU 0 runs /mnt/beegfs/iconst01/spec2017/Roms.trace.gz
NOT SORTED
TRACE STRING: /mnt/beegfs/iconst01/spec2017/Roms.trace.gz
SORTED
TRACE STRING: /mnt/beegfs/iconst01/spec2017/Roms.trace.gz
INITIAL
TRACE STRING: /mnt/beegfs/iconst01/spec2017/Roms.trace.gz

champsim_seed used: 417

CPU 0 L1D next line prefetcher
CPU 0 L2C IP-based stride prefetcher
Initialize DRRIP state
Assign rand_sets[0]: 454  LLC: 2048
rand_sets[0]: 454
Assign rand_sets[1]: 1662  LLC: 2048
rand_sets[1]: 1662
Assign rand_sets[2]: 1921  LLC: 2048
rand_sets[2]: 1921
Assign rand_sets[3]: 1131  LLC: 2048
rand_sets[3]: 1131
Assign rand_sets[4]: 331  LLC: 2048
rand_sets[4]: 331
Assign rand_sets[5]: 1531  LLC: 2048
rand_sets[5]: 1531
Assign rand_sets[6]: 482  LLC: 2048
rand_sets[6]: 482
Assign rand_sets[7]: 1275  LLC: 2048
rand_sets[7]: 1275
Assign rand_sets[8]: 1876  LLC: 2048
rand_sets[8]: 1876
Assign rand_sets[9]: 2038  LLC: 2048
rand_sets[9]: 2038
Assign rand_sets[10]: 701  LLC: 2048
rand_sets[10]: 701
Assign rand_sets[11]: 479  LLC: 2048
rand_sets[11]: 479
Assign rand_sets[12]: 892  LLC: 2048
rand_sets[12]: 892
Assign rand_sets[13]: 1820  LLC: 2048
rand_sets[13]: 1820
Assign rand_sets[14]: 1505  LLC: 2048
rand_sets[14]: 1505
Assign rand_sets[15]: 1159  LLC: 2048
rand_sets[15]: 1159
Assign rand_sets[16]: 513  LLC: 2048
rand_sets[16]: 513
Assign rand_sets[17]: 703  LLC: 2048
rand_sets[17]: 703
Assign rand_sets[18]: 561  LLC: 2048
rand_sets[18]: 561
Assign rand_sets[19]: 990  LLC: 2048
rand_sets[19]: 990
Assign rand_sets[20]: 342  LLC: 2048
rand_sets[20]: 342
Assign rand_sets[21]: 882  LLC: 2048
rand_sets[21]: 882
Assign rand_sets[22]: 15  LLC: 2048
rand_sets[22]: 15
Assign rand_sets[23]: 71  LLC: 2048
rand_sets[23]: 71
Assign rand_sets[24]: 1127  LLC: 2048
rand_sets[24]: 1127
Assign rand_sets[25]: 1382  LLC: 2048
rand_sets[25]: 1382
Assign rand_sets[26]: 647  LLC: 2048
rand_sets[26]: 647
Assign rand_sets[27]: 857  LLC: 2048
rand_sets[27]: 857
Assign rand_sets[28]: 1450  LLC: 2048
rand_sets[28]: 1450
Assign rand_sets[29]: 1160  LLC: 2048
rand_sets[29]: 1160
Assign rand_sets[30]: 1852  LLC: 2048
rand_sets[30]: 1852
Assign rand_sets[31]: 1881  LLC: 2048
rand_sets[31]: 1881
Assign rand_sets[32]: 1770  LLC: 2048
rand_sets[32]: 1770
Assign rand_sets[33]: 1622  LLC: 2048
rand_sets[33]: 1622
Assign rand_sets[34]: 275  LLC: 2048
rand_sets[34]: 275
Assign rand_sets[35]: 635  LLC: 2048
rand_sets[35]: 635
Assign rand_sets[36]: 466  LLC: 2048
rand_sets[36]: 466
Assign rand_sets[37]: 1413  LLC: 2048
rand_sets[37]: 1413
Assign rand_sets[38]: 417  LLC: 2048
rand_sets[38]: 417
Assign rand_sets[39]: 472  LLC: 2048
rand_sets[39]: 472
Assign rand_sets[40]: 1340  LLC: 2048
rand_sets[40]: 1340
Assign rand_sets[41]: 852  LLC: 2048
rand_sets[41]: 852
Assign rand_sets[42]: 1365  LLC: 2048
rand_sets[42]: 1365
Assign rand_sets[43]: 47  LLC: 2048
rand_sets[43]: 47
Assign rand_sets[44]: 823  LLC: 2048
rand_sets[44]: 823
Assign rand_sets[45]: 686  LLC: 2048
rand_sets[45]: 686
Assign rand_sets[46]: 1637  LLC: 2048
rand_sets[46]: 1637
Assign rand_sets[47]: 1115  LLC: 2048
rand_sets[47]: 1115
Assign rand_sets[48]: 986  LLC: 2048
rand_sets[48]: 986
Assign rand_sets[49]: 258  LLC: 2048
rand_sets[49]: 258
Assign rand_sets[50]: 633  LLC: 2048
rand_sets[50]: 633
Assign rand_sets[51]: 920  LLC: 2048
rand_sets[51]: 920
Assign rand_sets[52]: 204  LLC: 2048
rand_sets[52]: 204
Assign rand_sets[53]: 227  LLC: 2048
rand_sets[53]: 227
Assign rand_sets[54]: 1818  LLC: 2048
rand_sets[54]: 1818
Assign rand_sets[55]: 886  LLC: 2048
rand_sets[55]: 886
Assign rand_sets[56]: 1422  LLC: 2048
rand_sets[56]: 1422
Assign rand_sets[57]: 607  LLC: 2048
rand_sets[57]: 607
Assign rand_sets[58]: 217  LLC: 2048
rand_sets[58]: 217
Assign rand_sets[59]: 1945  LLC: 2048
rand_sets[59]: 1945
Assign rand_sets[60]: 143  LLC: 2048
rand_sets[60]: 143
Assign rand_sets[61]: 1311  LLC: 2048
rand_sets[61]: 1311
Assign rand_sets[62]: 319  LLC: 2048
rand_sets[62]: 319
Assign rand_sets[63]: 1846  LLC: 2048
rand_sets[63]: 1846
 CLEAN-RRIP-POLICY-1: 1-0-1-3-0-1-0-1- CLEAN-RRIP-POLICY-2: 1-0-1-3-0-1-0-1-
 DIRTY-RRIP-POLICY-1: 2-0-0-3-1-1-0-1- DIRTY-RRIP-POLICY-2: 2-0-0-3-1-1-0-1-
 PSEL width: 10
Heartbeat CPU 0 instructions: 10000000 cycles: 4688066 heartbeat IPC: 2.13308 cumulative IPC: 2.13308 (Simulation time: 0 hr 0 min 17 sec) 
Heartbeat CPU 0 instructions: 20000000 cycles: 9325335 heartbeat IPC: 2.15644 cumulative IPC: 2.1447 (Simulation time: 0 hr 0 min 34 sec) 
Heartbeat CPU 0 instructions: 30000003 cycles: 14019726 heartbeat IPC: 2.1302 cumulative IPC: 2.13984 (Simulation time: 0 hr 0 min 52 sec) 
Heartbeat CPU 0 instructions: 40000000 cycles: 18670140 heartbeat IPC: 2.15035 cumulative IPC: 2.14246 (Simulation time: 0 hr 1 min 9 sec) 
Heartbeat CPU 0 instructions: 50000003 cycles: 23323495 heartbeat IPC: 2.14899 cumulative IPC: 2.14376 (Simulation time: 0 hr 1 min 26 sec) 
Heartbeat CPU 0 instructions: 60000000 cycles: 27976095 heartbeat IPC: 2.14934 cumulative IPC: 2.14469 (Simulation time: 0 hr 1 min 43 sec) 
Heartbeat CPU 0 instructions: 70000002 cycles: 32367401 heartbeat IPC: 2.27723 cumulative IPC: 2.16267 (Simulation time: 0 hr 1 min 58 sec) 
Heartbeat CPU 0 instructions: 80000000 cycles: 36304164 heartbeat IPC: 2.54016 cumulative IPC: 2.2036 (Simulation time: 0 hr 2 min 10 sec) 
Heartbeat CPU 0 instructions: 90000000 cycles: 40249429 heartbeat IPC: 2.53468 cumulative IPC: 2.23606 (Simulation time: 0 hr 2 min 22 sec) 
Heartbeat CPU 0 instructions: 100000000 cycles: 44211875 heartbeat IPC: 2.52369 cumulative IPC: 2.26184 (Simulation time: 0 hr 2 min 34 sec) 

Warmup complete CPU 0 instructions: 100000002 cycles: 44211876 (Simulation time: 0 hr 2 min 34 sec) 

Heartbeat CPU 0 instructions: 110000000 cycles: 53192151 heartbeat IPC: 1.11355 cumulative IPC: 1.11355 (Simulation time: 0 hr 2 min 53 sec) 
Heartbeat CPU 0 instructions: 120000000 cycles: 62141500 heartbeat IPC: 1.1174 cumulative IPC: 1.11547 (Simulation time: 0 hr 3 min 12 sec) 
Heartbeat CPU 0 instructions: 130000002 cycles: 71112859 heartbeat IPC: 1.11466 cumulative IPC: 1.1152 (Simulation time: 0 hr 3 min 31 sec) 
Heartbeat CPU 0 instructions: 140000000 cycles: 79930784 heartbeat IPC: 1.13405 cumulative IPC: 1.11986 (Simulation time: 0 hr 3 min 50 sec) 
Heartbeat CPU 0 instructions: 150000003 cycles: 88908174 heartbeat IPC: 1.11391 cumulative IPC: 1.11866 (Simulation time: 0 hr 4 min 9 sec) 
Heartbeat CPU 0 instructions: 160000000 cycles: 99370250 heartbeat IPC: 0.955833 cumulative IPC: 1.08778 (Simulation time: 0 hr 4 min 31 sec) 
Heartbeat CPU 0 instructions: 170000000 cycles: 111820390 heartbeat IPC: 0.803204 cumulative IPC: 1.03537 (Simulation time: 0 hr 4 min 54 sec) 
Heartbeat CPU 0 instructions: 180000000 cycles: 124298149 heartbeat IPC: 0.801426 cumulative IPC: 0.998923 (Simulation time: 0 hr 5 min 18 sec) 
Heartbeat CPU 0 instructions: 190000000 cycles: 137044165 heartbeat IPC: 0.784559 cumulative IPC: 0.96949 (Simulation time: 0 hr 5 min 42 sec) 
Heartbeat CPU 0 instructions: 200000000 cycles: 151024145 heartbeat IPC: 0.715309 cumulative IPC: 0.936222 (Simulation time: 0 hr 6 min 6 sec) 
Heartbeat CPU 0 instructions: 210000003 cycles: 164986372 heartbeat IPC: 0.716218 cumulative IPC: 0.910788 (Simulation time: 0 hr 6 min 31 sec) 
Heartbeat CPU 0 instructions: 220000000 cycles: 178726838 heartbeat IPC: 0.727777 cumulative IPC: 0.892094 (Simulation time: 0 hr 6 min 55 sec) 
Heartbeat CPU 0 instructions: 230000000 cycles: 192246838 heartbeat IPC: 0.739645 cumulative IPC: 0.878171 (Simulation time: 0 hr 7 min 20 sec) 
Heartbeat CPU 0 instructions: 240000000 cycles: 205810736 heartbeat IPC: 0.737251 cumulative IPC: 0.866343 (Simulation time: 0 hr 7 min 45 sec) 
Heartbeat CPU 0 instructions: 250000003 cycles: 216871562 heartbeat IPC: 0.904092 cumulative IPC: 0.868761 (Simulation time: 0 hr 8 min 8 sec) 
Heartbeat CPU 0 instructions: 260000000 cycles: 224751612 heartbeat IPC: 1.26903 cumulative IPC: 0.886231 (Simulation time: 0 hr 8 min 27 sec) 
Heartbeat CPU 0 instructions: 270000003 cycles: 233047160 heartbeat IPC: 1.20547 cumulative IPC: 0.900256 (Simulation time: 0 hr 8 min 48 sec) 
Heartbeat CPU 0 instructions: 280000000 cycles: 241632625 heartbeat IPC: 1.16476 cumulative IPC: 0.911758 (Simulation time: 0 hr 9 min 8 sec) 
Heartbeat CPU 0 instructions: 290000000 cycles: 250371102 heartbeat IPC: 1.14436 cumulative IPC: 0.921618 (Simulation time: 0 hr 9 min 29 sec) 
Heartbeat CPU 0 instructions: 300000000 cycles: 259107049 heartbeat IPC: 1.1447 cumulative IPC: 0.930686 (Simulation time: 0 hr 9 min 50 sec) 
Heartbeat CPU 0 instructions: 310000000 cycles: 267867619 heartbeat IPC: 1.14148 cumulative IPC: 0.938943 (Simulation time: 0 hr 10 min 12 sec) 
Heartbeat CPU 0 instructions: 320000000 cycles: 276671643 heartbeat IPC: 1.13584 cumulative IPC: 0.9464 (Simulation time: 0 hr 10 min 34 sec) 
Heartbeat CPU 0 instructions: 330000002 cycles: 285425527 heartbeat IPC: 1.14235 cumulative IPC: 0.953512 (Simulation time: 0 hr 10 min 55 sec) 
Heartbeat CPU 0 instructions: 340000000 cycles: 295715322 heartbeat IPC: 0.971836 cumulative IPC: 0.954261 (Simulation time: 0 hr 11 min 19 sec) 
Heartbeat CPU 0 instructions: 350000001 cycles: 304558679 heartbeat IPC: 1.13079 cumulative IPC: 0.960258 (Simulation time: 0 hr 11 min 40 sec) 
Heartbeat CPU 0 instructions: 360000000 cycles: 313289125 heartbeat IPC: 1.14542 cumulative IPC: 0.966265 (Simulation time: 0 hr 12 min 1 sec) 
Heartbeat CPU 0 instructions: 370000001 cycles: 321963097 heartbeat IPC: 1.15287 cumulative IPC: 0.972093 (Simulation time: 0 hr 12 min 22 sec) 
Heartbeat CPU 0 instructions: 380000000 cycles: 330564826 heartbeat IPC: 1.16256 cumulative IPC: 0.977814 (Simulation time: 0 hr 12 min 43 sec) 
Heartbeat CPU 0 instructions: 390000001 cycles: 338987110 heartbeat IPC: 1.18733 cumulative IPC: 0.9838 (Simulation time: 0 hr 13 min 3 sec) 
Heartbeat CPU 0 instructions: 400000000 cycles: 347484428 heartbeat IPC: 1.17684 cumulative IPC: 0.989209 (Simulation time: 0 hr 13 min 24 sec) 
Heartbeat CPU 0 instructions: 410000003 cycles: 355878233 heartbeat IPC: 1.19136 cumulative IPC: 0.994653 (Simulation time: 0 hr 13 min 44 sec) 
Heartbeat CPU 0 instructions: 420000000 cycles: 364362248 heartbeat IPC: 1.17869 cumulative IPC: 0.99953 (Simulation time: 0 hr 14 min 5 sec) 
Heartbeat CPU 0 instructions: 430000001 cycles: 372760469 heartbeat IPC: 1.19073 cumulative IPC: 1.00442 (Simulation time: 0 hr 14 min 26 sec) 
Heartbeat CPU 0 instructions: 440000000 cycles: 381115026 heartbeat IPC: 1.19695 cumulative IPC: 1.00919 (Simulation time: 0 hr 14 min 46 sec) 
Heartbeat CPU 0 instructions: 450000001 cycles: 390818809 heartbeat IPC: 1.03053 cumulative IPC: 1.00979 (Simulation time: 0 hr 15 min 8 sec) 
Heartbeat CPU 0 instructions: 460000000 cycles: 399214639 heartbeat IPC: 1.19107 cumulative IPC: 1.01408 (Simulation time: 0 hr 15 min 29 sec) 
Heartbeat CPU 0 instructions: 470000003 cycles: 407476846 heartbeat IPC: 1.21033 cumulative IPC: 1.01854 (Simulation time: 0 hr 15 min 50 sec) 
Heartbeat CPU 0 instructions: 480000000 cycles: 415781593 heartbeat IPC: 1.20413 cumulative IPC: 1.02269 (Simulation time: 0 hr 16 min 10 sec) 
Heartbeat CPU 0 instructions: 490000000 cycles: 424048867 heartbeat IPC: 1.20959 cumulative IPC: 1.02676 (Simulation time: 0 hr 16 min 30 sec) 
Heartbeat CPU 0 instructions: 500000000 cycles: 432323108 heartbeat IPC: 1.20857 cumulative IPC: 1.03063 (Simulation time: 0 hr 16 min 51 sec) 
Heartbeat CPU 0 instructions: 510000001 cycles: 440565870 heartbeat IPC: 1.21319 cumulative IPC: 1.03443 (Simulation time: 0 hr 17 min 11 sec) 
Heartbeat CPU 0 instructions: 520000000 cycles: 448835088 heartbeat IPC: 1.2093 cumulative IPC: 1.038 (Simulation time: 0 hr 17 min 31 sec) 
Heartbeat CPU 0 instructions: 530000001 cycles: 457095459 heartbeat IPC: 1.2106 cumulative IPC: 1.04146 (Simulation time: 0 hr 17 min 52 sec) 
Heartbeat CPU 0 instructions: 540000000 cycles: 465544629 heartbeat IPC: 1.18355 cumulative IPC: 1.04431 (Simulation time: 0 hr 18 min 12 sec) 
Heartbeat CPU 0 instructions: 550000000 cycles: 474042412 heartbeat IPC: 1.17678 cumulative IPC: 1.04692 (Simulation time: 0 hr 18 min 33 sec) 
Heartbeat CPU 0 instructions: 560000000 cycles: 482318886 heartbeat IPC: 1.20824 cumulative IPC: 1.04997 (Simulation time: 0 hr 18 min 53 sec) 
Heartbeat CPU 0 instructions: 570000001 cycles: 493980106 heartbeat IPC: 0.857543 cumulative IPC: 1.04498 (Simulation time: 0 hr 19 min 16 sec) 
Heartbeat CPU 0 instructions: 580000000 cycles: 505446528 heartbeat IPC: 0.872112 cumulative IPC: 1.04069 (Simulation time: 0 hr 19 min 38 sec) 
Heartbeat CPU 0 instructions: 590000001 cycles: 517161712 heartbeat IPC: 0.853593 cumulative IPC: 1.03605 (Simulation time: 0 hr 20 min 1 sec) 
Heartbeat CPU 0 instructions: 600000000 cycles: 528632959 heartbeat IPC: 0.871745 cumulative IPC: 1.03216 (Simulation time: 0 hr 20 min 23 sec) 
Finished CPU 0 instructions: 500000001 cycles: 484421096 cumulative IPC: 1.03216 (Simulation time: 0 hr 20 min 23 sec) 

CPU 0 Branch Prediction Accuracy: 99.7422% MPKI: 0.173296
Number of Branches: 33608403 Number of Mispredictions: 86648
Number of LOAD Instructions: 180215231
Number of LOAD Instructions (ROI): 180215231
Number of STORE Instructions: 36067263
Number of STORE Instructions (ROI): 36067263
Total Destination Memory Operands: 38428915
Total Destination Memory Operands (ROI): 38428915
Total Source Memory Operands: 180215231
Total Source Memory Operands (ROI): 180215231
Number of DEPENDED LOADS: 3041651
Number of DEPENDED LOADS (ROI): 3041651
Number of SQ_ADDED: 38428892
Number of SQ_ADDED (ROI): 38428892
Number of LQ_ADDED: 207820864
Number of LQ_ADDED (ROI): 207820864
Number of Instructions read from trace: 600000257

ChampSim completed all CPUs

Region of Interest Statistics

CPU 0 cumulative IPC: 1.03216 instructions: 500000001 cycles: 484421096
ITLB TOTAL     ACCESS:   91896263  HIT:   91896244  MISS:         19
ITLB LOAD      ACCESS:   91896263  HIT:   91896244  MISS:         19
ITLB RFO       ACCESS:          0  HIT:          0  MISS:          0
ITLB PREFETCH  ACCESS:          0  HIT:          0  MISS:          0
ITLB WRITEBACK ACCESS:          0  HIT:          0  MISS:          0
ITLB PREFETCH  REQUESTED:          0  ISSUED:          0  USEFUL:          0  USELESS:          0
ITLB TOTAL MSHR MERGED:         40
ITLB LOAD MSHR MERGED:         40
ITLB RFO MSHR MERGED:          0
ITLB PREFETCH MSHR MERGED:          0
ITLB WRITEBACK MSHR MERGED:          0
ITLB TOTAL ACCESSES:   91896303 HITS:   91896244 MISSES:         59
ITLB LOAD ACCESSES:   91896303 HITS:   91896244 MISSES:         59
ITLB RFO ACCESSES:          0 HITS:          0 MISSES:          0
ITLB PREFETCH ACCESSES:          0 HITS:          0 MISSES:          0
ITLB WRITEBACK ACCESSES:          0 HITS:          0 MISSES:          0
ITLB RQ ACCESS:  500000003
ITLB RQ TO_CACHE:   91896303
ITLB RQ MERGED:  408103700
ITLB RQ FORWARD:          0
ITLB WQ ACCESS:          0
ITLB WQ TO_CACHE:          0
ITLB WQ MERGED:          0
ITLB WQ FORWARD:          0
DTLB TOTAL     ACCESS:  141988535  HIT:  141622073  MISS:     366462
DTLB LOAD      ACCESS:  119360416  HIT:  119046830  MISS:     313586
DTLB RFO       ACCESS:   22628119  HIT:   22575243  MISS:      52876
DTLB PREFETCH  ACCESS:          0  HIT:          0  MISS:          0
DTLB WRITEBACK ACCESS:          0  HIT:          0  MISS:          0
DTLB PREFETCH  REQUESTED:          0  ISSUED:          0  USEFUL:          0  USELESS:          0
DTLB TOTAL MSHR MERGED:     289762
DTLB LOAD MSHR MERGED:     241123
DTLB RFO MSHR MERGED:      48639
DTLB PREFETCH MSHR MERGED:          0
DTLB WRITEBACK MSHR MERGED:          0
DTLB TOTAL ACCESSES:  142278297 HITS:  141622073 MISSES:     656224
DTLB LOAD ACCESSES:  119601539 HITS:  119046830 MISSES:     554709
DTLB RFO ACCESSES:   22676758 HITS:   22575243 MISSES:     101515
DTLB PREFETCH ACCESSES:          0 HITS:          0 MISSES:          0
DTLB WRITEBACK ACCESSES:          0 HITS:          0 MISSES:          0
DTLB RQ ACCESS:  184791326
DTLB RQ TO_CACHE:  142278297
DTLB RQ MERGED:   42513029
DTLB RQ FORWARD:          0
DTLB WQ ACCESS:          0
DTLB WQ TO_CACHE:          0
DTLB WQ MERGED:          0
DTLB WQ FORWARD:          0
L1D TOTAL     ACCESS:  188792115  HIT:  175344817  MISS:   13447298
L1D LOAD      ACCESS:  111776995  HIT:  108427319  MISS:    3349676
L1D RFO       ACCESS:   18253332  HIT:   15471572  MISS:    2781760
L1D PREFETCH  ACCESS:   58761788  HIT:   51445926  MISS:    7315862
L1D WRITEBACK ACCESS:          0  HIT:          0  MISS:          0
L1D PREFETCH  REQUESTED:  116471482  ISSUED:  115111074  USEFUL:    7106330  USELESS:     209533
L1D TOTAL MSHR MERGED:   33031718
L1D LOAD MSHR MERGED:    7487997
L1D RFO MSHR MERGED:    9999327
L1D PREFETCH MSHR MERGED:   15544394
L1D WRITEBACK MSHR MERGED:          0
L1D TOTAL ACCESSES:  221824265 HITS:  175345247 MISSES:   46479018
L1D LOAD ACCESSES:  116471548 HITS:  108427385 MISSES:    8044163
L1D RFO ACCESSES:   28252600 HITS:   15471572 MISSES:   12781028
L1D PREFETCH ACCESSES:   77100117 HITS:   51446290 MISSES:   25653827
L1D WRITEBACK ACCESSES:          0 HITS:          0 MISSES:          0
L1D RQ ACCESS:  156535260
L1D RQ TO_CACHE:  116471485
L1D RQ MERGED:   40063709
L1D RQ FORWARD:          0
L1D WQ ACCESS:   28256066
L1D WQ TO_CACHE:   28252600
L1D WQ MERGED:       3466
L1D WQ FORWARD:        430
L1I TOTAL     ACCESS:  115889591  HIT:  115888643  MISS:        948
L1I LOAD      ACCESS:  115889591  HIT:  115888643  MISS:        948
L1I RFO       ACCESS:          0  HIT:          0  MISS:          0
L1I PREFETCH  ACCESS:          0  HIT:          0  MISS:          0
L1I WRITEBACK ACCESS:          0  HIT:          0  MISS:          0
L1I PREFETCH  REQUESTED:          0  ISSUED:          0  USEFUL:          0  USELESS:          0
L1I TOTAL MSHR MERGED:       1601
L1I LOAD MSHR MERGED:       1601
L1I RFO MSHR MERGED:          0
L1I PREFETCH MSHR MERGED:          0
L1I WRITEBACK MSHR MERGED:          0
L1I TOTAL ACCESSES:  115891192 HITS:  115888643 MISSES:       2549
L1I LOAD ACCESSES:  115891192 HITS:  115888643 MISSES:       2549
L1I RFO ACCESSES:          0 HITS:          0 MISSES:          0
L1I PREFETCH ACCESSES:          0 HITS:          0 MISSES:          0
L1I WRITEBACK ACCESSES:          0 HITS:          0 MISSES:          0
L1I RQ ACCESS:  500000007
L1I RQ TO_CACHE:  115891192
L1I RQ MERGED:  384108815
L1I RQ FORWARD:          0
L1I WQ ACCESS:          0
L1I WQ TO_CACHE:          0
L1I WQ MERGED:          0
L1I WQ FORWARD:          0
L2C TOTAL     ACCESS:   16692858  HIT:    4848430  MISS:   11844428
L2C LOAD      ACCESS:     557083  HIT:      95454  MISS:     461629
L2C RFO       ACCESS:    2781701  HIT:     266571  MISS:    2515130
L2C PREFETCH  ACCESS:   10133443  HIT:    1268049  MISS:    8865394
L2C WRITEBACK ACCESS:    3220631  HIT:    3218356  MISS:       2275
L2C PREFETCH  REQUESTED:      26163  ISSUED:      26163  USEFUL:      92791  USELESS:    8770695
L2C TOTAL MSHR MERGED:        548
L2C LOAD MSHR MERGED:         11
L2C RFO MSHR MERGED:          0
L2C PREFETCH MSHR MERGED:        537
L2C WRITEBACK MSHR MERGED:          0
L2C TOTAL ACCESSES:   16693585 HITS:    4848481 MISSES:   11845104
L2C LOAD ACCESSES:     557114 HITS:      95485 MISSES:     461629
L2C RFO ACCESSES:    2781701 HITS:     266571 MISSES:    2515130
L2C PREFETCH ACCESSES:   10134139 HITS:    1268069 MISSES:    8866070
L2C WRITEBACK ACCESSES:    3220631 HITS:    3218356 MISSES:       2275
L2C RQ ACCESS:    3338815
L2C RQ TO_CACHE:    3338784
L2C RQ MERGED:          0
L2C RQ FORWARD:          0
L2C WQ ACCESS:    3220631
L2C WQ TO_CACHE:    3220631
L2C WQ MERGED:          0
L2C WQ FORWARD:         51
LLC TOTAL     ACCESS:   14742610  HIT:    7646649  MISS:    7095961
LLC LOAD      ACCESS:     461616  HIT:     258891  MISS:     202725
LLC RFO       ACCESS:    2515112  HIT:    1636487  MISS:     878625
LLC PREFETCH  ACCESS:    8865468  HIT:    3065621  MISS:    5799847
LLC WRITEBACK ACCESS:    2900414  HIT:    2685650  MISS:     214764
LLC PREFETCH  REQUESTED:          0  ISSUED:          0  USEFUL:       6009  USELESS:    5800476
LLC TOTAL MSHR MERGED:          5
LLC LOAD MSHR MERGED:          0
LLC RFO MSHR MERGED:          0
LLC PREFETCH MSHR MERGED:          5
LLC WRITEBACK MSHR MERGED:          0
LLC TOTAL ACCESSES:   14742681 HITS:    7646713 MISSES:    7095968
LLC LOAD ACCESSES:     461618 HITS:     258893 MISSES:     202725
LLC RFO ACCESSES:    2515130 HITS:    1636505 MISSES:     878625
LLC PREFETCH ACCESSES:    8865519 HITS:    3065665 MISSES:    5799854
LLC WRITEBACK ACCESSES:    2900414 HITS:    2685650 MISSES:     214764
LLC 0 RQ ACCESS:    2976748
LLC 0 RQ TO_CACHE:    2976728
LLC 0 RQ MERGED:          0
LLC 0 RQ FORWARD:          0
LLC WQ ACCESS:    2900414
LLC WQ TO_CACHE:    2900414
LLC WQ MERGED:          0
LLC WQ FORWARD:         64
Major fault: 0 Minor fault: 57518
CPU 0 L1D next line prefetcher final stats
CPU 0 L2C PC-based stride prefetcher final stats
All Misses: 7690422
All Hits: 8548369
SD Algo Stats - Switches: 0 SRR-Repls: 210189 BRR-Repls: 0

DRAM Statistics
 CHANNEL 0
 RQ ROW_BUFFER_HIT:    3689022  ROW_BUFFER_MISS:    3186855
 DBUS_CONGESTED:    3323308
 WQ ROW_BUFFER_HIT:     119809  ROW_BUFFER_MISS:    1040103  FULL:          0

 AVG_CONGESTED_CYCLE: 12
LOADS RETIRED: 157818985
INSTR RETIRED: 500000000
