
*** ChampSim Multicore Out-of-Order Simulator ***

Warmup Instructions: 100000000
Simulation Instructions: 500000000
Number of CPUs: 1
LLC sets: 2048
LLC ways: 16
Clean RRIP Policies: 1213120112131201 Dirty RRIP Policies: 1223020112230201 PSEL Width: 10 Track Set: 4294967295 PSEL Mask: 1 Demote Mask: 4311323443113234DS Algo: 0Window size: 0
Off-chip DRAM Size: 4096 MB Channels: 1 Width: 64-bit Data Rate: 1600 MT/s

CPU 0 runs /mnt/beegfs/iconst01/spec2017/Gcc.trace.gz
NOT SORTED
TRACE STRING: /mnt/beegfs/iconst01/spec2017/Gcc.trace.gz
SORTED
TRACE STRING: /mnt/beegfs/iconst01/spec2017/Gcc.trace.gz
INITIAL
TRACE STRING: /mnt/beegfs/iconst01/spec2017/Gcc.trace.gz

champsim_seed used: 269

CPU 0 L1D next line prefetcher
CPU 0 L2C IP-based stride prefetcher
Initialize DRRIP state
Assign rand_sets[0]: 454  LLC: 2048
rand_sets[0]: 454
Assign rand_sets[1]: 1662  LLC: 2048
rand_sets[1]: 1662
Assign rand_sets[2]: 1921  LLC: 2048
rand_sets[2]: 1921
Assign rand_sets[3]: 1131  LLC: 2048
rand_sets[3]: 1131
Assign rand_sets[4]: 331  LLC: 2048
rand_sets[4]: 331
Assign rand_sets[5]: 1531  LLC: 2048
rand_sets[5]: 1531
Assign rand_sets[6]: 482  LLC: 2048
rand_sets[6]: 482
Assign rand_sets[7]: 1275  LLC: 2048
rand_sets[7]: 1275
Assign rand_sets[8]: 1876  LLC: 2048
rand_sets[8]: 1876
Assign rand_sets[9]: 2038  LLC: 2048
rand_sets[9]: 2038
Assign rand_sets[10]: 701  LLC: 2048
rand_sets[10]: 701
Assign rand_sets[11]: 479  LLC: 2048
rand_sets[11]: 479
Assign rand_sets[12]: 892  LLC: 2048
rand_sets[12]: 892
Assign rand_sets[13]: 1820  LLC: 2048
rand_sets[13]: 1820
Assign rand_sets[14]: 1505  LLC: 2048
rand_sets[14]: 1505
Assign rand_sets[15]: 1159  LLC: 2048
rand_sets[15]: 1159
Assign rand_sets[16]: 513  LLC: 2048
rand_sets[16]: 513
Assign rand_sets[17]: 703  LLC: 2048
rand_sets[17]: 703
Assign rand_sets[18]: 561  LLC: 2048
rand_sets[18]: 561
Assign rand_sets[19]: 990  LLC: 2048
rand_sets[19]: 990
Assign rand_sets[20]: 342  LLC: 2048
rand_sets[20]: 342
Assign rand_sets[21]: 882  LLC: 2048
rand_sets[21]: 882
Assign rand_sets[22]: 15  LLC: 2048
rand_sets[22]: 15
Assign rand_sets[23]: 71  LLC: 2048
rand_sets[23]: 71
Assign rand_sets[24]: 1127  LLC: 2048
rand_sets[24]: 1127
Assign rand_sets[25]: 1382  LLC: 2048
rand_sets[25]: 1382
Assign rand_sets[26]: 647  LLC: 2048
rand_sets[26]: 647
Assign rand_sets[27]: 857  LLC: 2048
rand_sets[27]: 857
Assign rand_sets[28]: 1450  LLC: 2048
rand_sets[28]: 1450
Assign rand_sets[29]: 1160  LLC: 2048
rand_sets[29]: 1160
Assign rand_sets[30]: 1852  LLC: 2048
rand_sets[30]: 1852
Assign rand_sets[31]: 1881  LLC: 2048
rand_sets[31]: 1881
Assign rand_sets[32]: 1770  LLC: 2048
rand_sets[32]: 1770
Assign rand_sets[33]: 1622  LLC: 2048
rand_sets[33]: 1622
Assign rand_sets[34]: 275  LLC: 2048
rand_sets[34]: 275
Assign rand_sets[35]: 635  LLC: 2048
rand_sets[35]: 635
Assign rand_sets[36]: 466  LLC: 2048
rand_sets[36]: 466
Assign rand_sets[37]: 1413  LLC: 2048
rand_sets[37]: 1413
Assign rand_sets[38]: 417  LLC: 2048
rand_sets[38]: 417
Assign rand_sets[39]: 472  LLC: 2048
rand_sets[39]: 472
Assign rand_sets[40]: 1340  LLC: 2048
rand_sets[40]: 1340
Assign rand_sets[41]: 852  LLC: 2048
rand_sets[41]: 852
Assign rand_sets[42]: 1365  LLC: 2048
rand_sets[42]: 1365
Assign rand_sets[43]: 47  LLC: 2048
rand_sets[43]: 47
Assign rand_sets[44]: 823  LLC: 2048
rand_sets[44]: 823
Assign rand_sets[45]: 686  LLC: 2048
rand_sets[45]: 686
Assign rand_sets[46]: 1637  LLC: 2048
rand_sets[46]: 1637
Assign rand_sets[47]: 1115  LLC: 2048
rand_sets[47]: 1115
Assign rand_sets[48]: 986  LLC: 2048
rand_sets[48]: 986
Assign rand_sets[49]: 258  LLC: 2048
rand_sets[49]: 258
Assign rand_sets[50]: 633  LLC: 2048
rand_sets[50]: 633
Assign rand_sets[51]: 920  LLC: 2048
rand_sets[51]: 920
Assign rand_sets[52]: 204  LLC: 2048
rand_sets[52]: 204
Assign rand_sets[53]: 227  LLC: 2048
rand_sets[53]: 227
Assign rand_sets[54]: 1818  LLC: 2048
rand_sets[54]: 1818
Assign rand_sets[55]: 886  LLC: 2048
rand_sets[55]: 886
Assign rand_sets[56]: 1422  LLC: 2048
rand_sets[56]: 1422
Assign rand_sets[57]: 607  LLC: 2048
rand_sets[57]: 607
Assign rand_sets[58]: 217  LLC: 2048
rand_sets[58]: 217
Assign rand_sets[59]: 1945  LLC: 2048
rand_sets[59]: 1945
Assign rand_sets[60]: 143  LLC: 2048
rand_sets[60]: 143
Assign rand_sets[61]: 1311  LLC: 2048
rand_sets[61]: 1311
Assign rand_sets[62]: 319  LLC: 2048
rand_sets[62]: 319
Assign rand_sets[63]: 1846  LLC: 2048
rand_sets[63]: 1846
 CLEAN-RRIP-POLICY-1: 1-2-1-3-1-2-0-1- CLEAN-RRIP-POLICY-2: 1-2-1-3-1-2-0-1-
 DIRTY-RRIP-POLICY-1: 1-2-2-3-0-2-0-1- DIRTY-RRIP-POLICY-2: 1-2-2-3-0-2-0-1-
 PSEL width: 10
Heartbeat CPU 0 instructions: 10000001 cycles: 7315980 heartbeat IPC: 1.36687 cumulative IPC: 1.36687 (Simulation time: 0 hr 0 min 16 sec) 
Heartbeat CPU 0 instructions: 20000000 cycles: 14307716 heartbeat IPC: 1.43026 cumulative IPC: 1.39785 (Simulation time: 0 hr 0 min 31 sec) 
Heartbeat CPU 0 instructions: 30000001 cycles: 21021031 heartbeat IPC: 1.48958 cumulative IPC: 1.42714 (Simulation time: 0 hr 0 min 49 sec) 
Heartbeat CPU 0 instructions: 40000000 cycles: 27482105 heartbeat IPC: 1.54773 cumulative IPC: 1.45549 (Simulation time: 0 hr 1 min 6 sec) 
Heartbeat CPU 0 instructions: 50000001 cycles: 33583716 heartbeat IPC: 1.63891 cumulative IPC: 1.48882 (Simulation time: 0 hr 1 min 22 sec) 
Heartbeat CPU 0 instructions: 60000000 cycles: 40064834 heartbeat IPC: 1.54294 cumulative IPC: 1.49757 (Simulation time: 0 hr 1 min 40 sec) 
Heartbeat CPU 0 instructions: 70000000 cycles: 47103983 heartbeat IPC: 1.42063 cumulative IPC: 1.48607 (Simulation time: 0 hr 1 min 56 sec) 
Heartbeat CPU 0 instructions: 80000000 cycles: 54194463 heartbeat IPC: 1.41034 cumulative IPC: 1.47617 (Simulation time: 0 hr 2 min 12 sec) 
Heartbeat CPU 0 instructions: 90000003 cycles: 61199552 heartbeat IPC: 1.42753 cumulative IPC: 1.4706 (Simulation time: 0 hr 2 min 27 sec) 
Heartbeat CPU 0 instructions: 100000000 cycles: 68367797 heartbeat IPC: 1.39504 cumulative IPC: 1.46268 (Simulation time: 0 hr 2 min 43 sec) 

Warmup complete CPU 0 instructions: 100000004 cycles: 68367798 (Simulation time: 0 hr 2 min 43 sec) 

Heartbeat CPU 0 instructions: 110000003 cycles: 96168092 heartbeat IPC: 0.359709 cumulative IPC: 0.359708 (Simulation time: 0 hr 3 min 14 sec) 
Heartbeat CPU 0 instructions: 120000000 cycles: 123719942 heartbeat IPC: 0.362952 cumulative IPC: 0.361323 (Simulation time: 0 hr 3 min 46 sec) 
Heartbeat CPU 0 instructions: 130000000 cycles: 148741503 heartbeat IPC: 0.399655 cumulative IPC: 0.373256 (Simulation time: 0 hr 4 min 17 sec) 
Heartbeat CPU 0 instructions: 140000000 cycles: 178534485 heartbeat IPC: 0.33565 cumulative IPC: 0.363086 (Simulation time: 0 hr 4 min 48 sec) 
Heartbeat CPU 0 instructions: 150000000 cycles: 208538430 heartbeat IPC: 0.33329 cumulative IPC: 0.356708 (Simulation time: 0 hr 5 min 19 sec) 
Heartbeat CPU 0 instructions: 160000000 cycles: 236005264 heartbeat IPC: 0.364075 cumulative IPC: 0.357915 (Simulation time: 0 hr 5 min 50 sec) 
Heartbeat CPU 0 instructions: 170000001 cycles: 264087627 heartbeat IPC: 0.356095 cumulative IPC: 0.357654 (Simulation time: 0 hr 6 min 22 sec) 
Heartbeat CPU 0 instructions: 180000000 cycles: 292673681 heartbeat IPC: 0.349821 cumulative IPC: 0.356656 (Simulation time: 0 hr 6 min 54 sec) 
Heartbeat CPU 0 instructions: 190000002 cycles: 320810408 heartbeat IPC: 0.355407 cumulative IPC: 0.356517 (Simulation time: 0 hr 7 min 25 sec) 
Heartbeat CPU 0 instructions: 200000000 cycles: 349312282 heartbeat IPC: 0.350854 cumulative IPC: 0.355942 (Simulation time: 0 hr 7 min 57 sec) 
Heartbeat CPU 0 instructions: 210000002 cycles: 377257102 heartbeat IPC: 0.357848 cumulative IPC: 0.356115 (Simulation time: 0 hr 8 min 28 sec) 
Heartbeat CPU 0 instructions: 220000000 cycles: 406616598 heartbeat IPC: 0.340605 cumulative IPC: 0.354768 (Simulation time: 0 hr 8 min 59 sec) 
Heartbeat CPU 0 instructions: 230000000 cycles: 434267595 heartbeat IPC: 0.361651 cumulative IPC: 0.355289 (Simulation time: 0 hr 9 min 29 sec) 
Heartbeat CPU 0 instructions: 240000000 cycles: 460393308 heartbeat IPC: 0.382765 cumulative IPC: 0.35712 (Simulation time: 0 hr 9 min 59 sec) 
Heartbeat CPU 0 instructions: 250000000 cycles: 490611135 heartbeat IPC: 0.33093 cumulative IPC: 0.355245 (Simulation time: 0 hr 10 min 31 sec) 
Heartbeat CPU 0 instructions: 260000000 cycles: 517721747 heartbeat IPC: 0.368859 cumulative IPC: 0.356067 (Simulation time: 0 hr 11 min 2 sec) 
Heartbeat CPU 0 instructions: 270000003 cycles: 546147369 heartbeat IPC: 0.351795 cumulative IPC: 0.355813 (Simulation time: 0 hr 11 min 35 sec) 
Heartbeat CPU 0 instructions: 280000000 cycles: 574481032 heartbeat IPC: 0.352937 cumulative IPC: 0.355652 (Simulation time: 0 hr 12 min 7 sec) 
Heartbeat CPU 0 instructions: 290000000 cycles: 603418281 heartbeat IPC: 0.345575 cumulative IPC: 0.355107 (Simulation time: 0 hr 12 min 39 sec) 
Heartbeat CPU 0 instructions: 300000000 cycles: 633636925 heartbeat IPC: 0.330922 cumulative IPC: 0.353814 (Simulation time: 0 hr 13 min 10 sec) 
Heartbeat CPU 0 instructions: 310000001 cycles: 663213614 heartbeat IPC: 0.338104 cumulative IPC: 0.353033 (Simulation time: 0 hr 13 min 41 sec) 
Heartbeat CPU 0 instructions: 320000000 cycles: 691579206 heartbeat IPC: 0.35254 cumulative IPC: 0.35301 (Simulation time: 0 hr 14 min 12 sec) 
Heartbeat CPU 0 instructions: 330000000 cycles: 720316817 heartbeat IPC: 0.347976 cumulative IPC: 0.352788 (Simulation time: 0 hr 14 min 43 sec) 
Heartbeat CPU 0 instructions: 340000000 cycles: 749763940 heartbeat IPC: 0.339592 cumulative IPC: 0.352218 (Simulation time: 0 hr 15 min 14 sec) 
Heartbeat CPU 0 instructions: 350000003 cycles: 776864029 heartbeat IPC: 0.369003 cumulative IPC: 0.35286 (Simulation time: 0 hr 15 min 45 sec) 
Heartbeat CPU 0 instructions: 360000000 cycles: 805157811 heartbeat IPC: 0.353434 cumulative IPC: 0.352882 (Simulation time: 0 hr 16 min 15 sec) 
Heartbeat CPU 0 instructions: 370000000 cycles: 833413042 heartbeat IPC: 0.353917 cumulative IPC: 0.35292 (Simulation time: 0 hr 16 min 45 sec) 
Heartbeat CPU 0 instructions: 380000000 cycles: 862001641 heartbeat IPC: 0.34979 cumulative IPC: 0.352808 (Simulation time: 0 hr 17 min 15 sec) 
Heartbeat CPU 0 instructions: 390000001 cycles: 889647867 heartbeat IPC: 0.361713 cumulative IPC: 0.353107 (Simulation time: 0 hr 17 min 44 sec) 
Heartbeat CPU 0 instructions: 400000000 cycles: 918349944 heartbeat IPC: 0.348407 cumulative IPC: 0.352949 (Simulation time: 0 hr 18 min 14 sec) 
Heartbeat CPU 0 instructions: 410000001 cycles: 945691105 heartbeat IPC: 0.365749 cumulative IPC: 0.353348 (Simulation time: 0 hr 18 min 44 sec) 
Heartbeat CPU 0 instructions: 420000000 cycles: 973030067 heartbeat IPC: 0.365778 cumulative IPC: 0.353723 (Simulation time: 0 hr 19 min 14 sec) 
Heartbeat CPU 0 instructions: 430000002 cycles: 1000769089 heartbeat IPC: 0.360503 cumulative IPC: 0.353925 (Simulation time: 0 hr 19 min 43 sec) 
Heartbeat CPU 0 instructions: 440000000 cycles: 1030427521 heartbeat IPC: 0.337172 cumulative IPC: 0.353408 (Simulation time: 0 hr 20 min 14 sec) 
Heartbeat CPU 0 instructions: 450000002 cycles: 1059749106 heartbeat IPC: 0.341046 cumulative IPC: 0.353043 (Simulation time: 0 hr 20 min 44 sec) 
Heartbeat CPU 0 instructions: 460000000 cycles: 1087502450 heartbeat IPC: 0.360317 cumulative IPC: 0.353241 (Simulation time: 0 hr 21 min 14 sec) 
Heartbeat CPU 0 instructions: 470000000 cycles: 1115148597 heartbeat IPC: 0.361714 cumulative IPC: 0.353465 (Simulation time: 0 hr 21 min 44 sec) 
Heartbeat CPU 0 instructions: 480000000 cycles: 1143048481 heartbeat IPC: 0.358424 cumulative IPC: 0.353593 (Simulation time: 0 hr 22 min 13 sec) 
Heartbeat CPU 0 instructions: 490000000 cycles: 1170662402 heartbeat IPC: 0.362136 cumulative IPC: 0.353807 (Simulation time: 0 hr 22 min 43 sec) 
Heartbeat CPU 0 instructions: 500000000 cycles: 1198990333 heartbeat IPC: 0.353008 cumulative IPC: 0.353787 (Simulation time: 0 hr 23 min 13 sec) 
Heartbeat CPU 0 instructions: 510000000 cycles: 1233930176 heartbeat IPC: 0.286206 cumulative IPC: 0.351762 (Simulation time: 0 hr 23 min 47 sec) 
Heartbeat CPU 0 instructions: 520000000 cycles: 1261729903 heartbeat IPC: 0.359716 cumulative IPC: 0.351947 (Simulation time: 0 hr 24 min 18 sec) 
Heartbeat CPU 0 instructions: 530000001 cycles: 1291332324 heartbeat IPC: 0.33781 cumulative IPC: 0.351605 (Simulation time: 0 hr 24 min 49 sec) 
Heartbeat CPU 0 instructions: 540000000 cycles: 1319571061 heartbeat IPC: 0.354123 cumulative IPC: 0.351661 (Simulation time: 0 hr 25 min 20 sec) 
Heartbeat CPU 0 instructions: 550000001 cycles: 1348924626 heartbeat IPC: 0.340674 cumulative IPC: 0.35141 (Simulation time: 0 hr 25 min 53 sec) 
Heartbeat CPU 0 instructions: 560000000 cycles: 1374414858 heartbeat IPC: 0.392307 cumulative IPC: 0.352208 (Simulation time: 0 hr 26 min 24 sec) 
Heartbeat CPU 0 instructions: 570000000 cycles: 1404195290 heartbeat IPC: 0.335791 cumulative IPC: 0.351842 (Simulation time: 0 hr 26 min 55 sec) 
Heartbeat CPU 0 instructions: 580000000 cycles: 1432365110 heartbeat IPC: 0.35499 cumulative IPC: 0.351907 (Simulation time: 0 hr 27 min 27 sec) 
Heartbeat CPU 0 instructions: 590000001 cycles: 1457335607 heartbeat IPC: 0.400473 cumulative IPC: 0.35278 (Simulation time: 0 hr 27 min 56 sec) 
Heartbeat CPU 0 instructions: 600000000 cycles: 1483837546 heartbeat IPC: 0.377331 cumulative IPC: 0.35324 (Simulation time: 0 hr 28 min 27 sec) 
Finished CPU 0 instructions: 500000000 cycles: 1415469770 cumulative IPC: 0.35324 (Simulation time: 0 hr 28 min 27 sec) 

CPU 0 Branch Prediction Accuracy: 86.4311% MPKI: 26.2662
Number of Branches: 96788573 Number of Mispredictions: 13133102
Number of LOAD Instructions: 164682285
Number of LOAD Instructions (ROI): 164682285
Number of STORE Instructions: 78194750
Number of STORE Instructions (ROI): 78194750
Total Destination Memory Operands: 83268534
Total Destination Memory Operands (ROI): 83268534
Total Source Memory Operands: 164712438
Total Source Memory Operands (ROI): 164712438
Number of DEPENDED LOADS: 7060608
Number of DEPENDED LOADS (ROI): 7060608
Number of SQ_ADDED: 83268522
Number of SQ_ADDED (ROI): 83268522
Number of LQ_ADDED: 236759033
Number of LQ_ADDED (ROI): 236759033
Number of Instructions read from trace: 600000066

ChampSim completed all CPUs

Region of Interest Statistics

CPU 0 cumulative IPC: 0.35324 instructions: 500000000 cycles: 1415469770
ITLB TOTAL     ACCESS:  100515549  HIT:  100311103  MISS:     204446
ITLB LOAD      ACCESS:  100515549  HIT:  100311103  MISS:     204446
ITLB RFO       ACCESS:          0  HIT:          0  MISS:          0
ITLB PREFETCH  ACCESS:          0  HIT:          0  MISS:          0
ITLB WRITEBACK ACCESS:          0  HIT:          0  MISS:          0
ITLB PREFETCH  REQUESTED:          0  ISSUED:          0  USEFUL:          0  USELESS:          0
ITLB TOTAL MSHR MERGED:     172424
ITLB LOAD MSHR MERGED:     172424
ITLB RFO MSHR MERGED:          0
ITLB PREFETCH MSHR MERGED:          0
ITLB WRITEBACK MSHR MERGED:          0
ITLB TOTAL ACCESSES:  100687973 HITS:  100311103 MISSES:     376870
ITLB LOAD ACCESSES:  100687973 HITS:  100311103 MISSES:     376870
ITLB RFO ACCESSES:          0 HITS:          0 MISSES:          0
ITLB PREFETCH ACCESSES:          0 HITS:          0 MISSES:          0
ITLB WRITEBACK ACCESSES:          0 HITS:          0 MISSES:          0
ITLB RQ ACCESS:  500000057
ITLB RQ TO_CACHE:  100687973
ITLB RQ MERGED:  399312084
ITLB RQ FORWARD:          0
ITLB WQ ACCESS:          0
ITLB WQ TO_CACHE:          0
ITLB WQ MERGED:          0
ITLB WQ FORWARD:          0
DTLB TOTAL     ACCESS:  165337357  HIT:  164703001  MISS:     634356
DTLB LOAD      ACCESS:  106292036  HIT:  105722043  MISS:     569993
DTLB RFO       ACCESS:   59045321  HIT:   58980958  MISS:      64363
DTLB PREFETCH  ACCESS:          0  HIT:          0  MISS:          0
DTLB WRITEBACK ACCESS:          0  HIT:          0  MISS:          0
DTLB PREFETCH  REQUESTED:          0  ISSUED:          0  USEFUL:          0  USELESS:          0
DTLB TOTAL MSHR MERGED:      99966
DTLB LOAD MSHR MERGED:      59445
DTLB RFO MSHR MERGED:      40521
DTLB PREFETCH MSHR MERGED:          0
DTLB WRITEBACK MSHR MERGED:          0
DTLB TOTAL ACCESSES:  165437323 HITS:  164703001 MISSES:     734322
DTLB LOAD ACCESSES:  106351481 HITS:  105722043 MISSES:     629438
DTLB RFO ACCESSES:   59085842 HITS:   58980958 MISSES:     104884
DTLB PREFETCH ACCESSES:          0 HITS:          0 MISSES:          0
DTLB WRITEBACK ACCESSES:          0 HITS:          0 MISSES:          0
DTLB RQ ACCESS:  200310337
DTLB RQ TO_CACHE:  165437323
DTLB RQ MERGED:   34873014
DTLB RQ FORWARD:          0
DTLB WQ ACCESS:          0
DTLB WQ TO_CACHE:          0
DTLB WQ MERGED:          0
DTLB WQ FORWARD:          0
L1D TOTAL     ACCESS:  281818145  HIT:  273908846  MISS:    7909299
L1D LOAD      ACCESS:  110415637  HIT:  107135074  MISS:    3280563
L1D RFO       ACCESS:   67118893  HIT:   66228277  MISS:     890616
L1D PREFETCH  ACCESS:  104283615  HIT:  100545495  MISS:    3738120
L1D WRITEBACK ACCESS:          0  HIT:          0  MISS:          0
L1D PREFETCH  REQUESTED:  110817855  ISSUED:  109118545  USEFUL:    1658846  USELESS:    2079238
L1D TOTAL MSHR MERGED:    2888895
L1D LOAD MSHR MERGED:     502408
L1D RFO MSHR MERGED:    1867054
L1D PREFETCH MSHR MERGED:     519433
L1D WRITEBACK MSHR MERGED:          0
L1D TOTAL ACCESSES:  284734577 HITS:  273936383 MISSES:   10798194
L1D LOAD ACCESSES:  110819356 HITS:  107136575 MISSES:    3682781
L1D RFO ACCESSES:   68974128 HITS:   66228277 MISSES:    2745851
L1D PREFETCH ACCESSES:  104941093 HITS:  100571531 MISSES:    4369562
L1D WRITEBACK ACCESSES:          0 HITS:          0 MISSES:          0
L1D RQ ACCESS:  130757734
L1D RQ TO_CACHE:  110817858
L1D RQ MERGED:   19938375
L1D RQ FORWARD:          0
L1D WQ ACCESS:   69552603
L1D WQ TO_CACHE:   68974129
L1D WQ MERGED:     578474
L1D WQ FORWARD:      27537
L1I TOTAL     ACCESS:  126562105  HIT:  122323551  MISS:    4238554
L1I LOAD      ACCESS:  126562105  HIT:  122323551  MISS:    4238554
L1I RFO       ACCESS:          0  HIT:          0  MISS:          0
L1I PREFETCH  ACCESS:          0  HIT:          0  MISS:          0
L1I WRITEBACK ACCESS:          0  HIT:          0  MISS:          0
L1I PREFETCH  REQUESTED:          0  ISSUED:          0  USEFUL:          0  USELESS:          0
L1I TOTAL MSHR MERGED:    1834999
L1I LOAD MSHR MERGED:    1834999
L1I RFO MSHR MERGED:          0
L1I PREFETCH MSHR MERGED:          0
L1I WRITEBACK MSHR MERGED:          0
L1I TOTAL ACCESSES:  128397107 HITS:  122323551 MISSES:    6073556
L1I LOAD ACCESSES:  128397107 HITS:  122323551 MISSES:    6073556
L1I RFO ACCESSES:          0 HITS:          0 MISSES:          0
L1I PREFETCH ACCESSES:          0 HITS:          0 MISSES:          0
L1I WRITEBACK ACCESSES:          0 HITS:          0 MISSES:          0
L1I RQ ACCESS:  500000057
L1I RQ TO_CACHE:  128397107
L1I RQ MERGED:  371602950
L1I RQ FORWARD:          0
L1I WQ ACCESS:          0
L1I WQ TO_CACHE:          0
L1I WQ MERGED:          0
L1I WQ FORWARD:          0
L2C TOTAL     ACCESS:   14905213  HIT:   11158711  MISS:    3746502
L2C LOAD      ACCESS:    7418721  HIT:    5098770  MISS:    2319951
L2C RFO       ACCESS:     878701  HIT:     409902  MISS:     468799
L2C PREFETCH  ACCESS:    4568554  HIT:    3628055  MISS:     940499
L2C WRITEBACK ACCESS:    2039237  HIT:    2021984  MISS:      17253
L2C PREFETCH  REQUESTED:     842583  ISSUED:     842583  USEFUL:     203350  USELESS:     736855
L2C TOTAL MSHR MERGED:       6940
L2C LOAD MSHR MERGED:        777
L2C RFO MSHR MERGED:          0
L2C PREFETCH MSHR MERGED:       6163
L2C WRITEBACK MSHR MERGED:          0
L2C TOTAL ACCESSES:   14913036 HITS:   11159153 MISSES:    3753883
L2C LOAD ACCESSES:    7418927 HITS:    5098976 MISSES:    2319951
L2C RFO ACCESSES:     878797 HITS:     409998 MISSES:     468799
L2C PREFETCH ACCESSES:    4576075 HITS:    3628195 MISSES:     947880
L2C WRITEBACK ACCESSES:    2039237 HITS:    2021984 MISSES:      17253
L2C RQ ACCESS:    8297727
L2C RQ TO_CACHE:    8297425
L2C RQ MERGED:          0
L2C RQ FORWARD:          0
L2C WQ ACCESS:    2039237
L2C WQ TO_CACHE:    2039237
L2C WQ MERGED:          0
L2C WQ FORWARD:        442
LLC TOTAL     ACCESS:    4609831  HIT:    3869841  MISS:     739990
LLC LOAD      ACCESS:    2319160  HIT:    2036816  MISS:     282344
LLC RFO       ACCESS:     468790  HIT:     406374  MISS:      62416
LLC PREFETCH  ACCESS:     941592  HIT:     611231  MISS:     330361
LLC WRITEBACK ACCESS:     880289  HIT:     815420  MISS:      64869
LLC PREFETCH  REQUESTED:          0  ISSUED:          0  USEFUL:      15886  USELESS:     314520
LLC TOTAL MSHR MERGED:        110
LLC LOAD MSHR MERGED:         33
LLC RFO MSHR MERGED:          0
LLC PREFETCH MSHR MERGED:         77
LLC WRITEBACK MSHR MERGED:          0
LLC TOTAL ACCESSES:    4609974 HITS:    3869874 MISSES:     740100
LLC LOAD ACCESSES:    2319174 HITS:    2036830 MISSES:     282344
LLC RFO ACCESSES:     468799 HITS:     406383 MISSES:      62416
LLC PREFETCH ACCESSES:     941712 HITS:     611241 MISSES:     330471
LLC WRITEBACK ACCESSES:     880289 HITS:     815420 MISSES:      64869
LLC 0 RQ ACCESS:    2787973
LLC 0 RQ TO_CACHE:    2787950
LLC 0 RQ MERGED:          0
LLC 0 RQ FORWARD:          0
LLC WQ ACCESS:     880289
LLC WQ TO_CACHE:     880289
LLC WQ MERGED:          0
LLC WQ FORWARD:         33
Major fault: 0 Minor fault: 12862
CPU 0 L1D next line prefetcher final stats
CPU 0 L2C PC-based stride prefetcher final stats
All Misses: 890243
All Hits: 4536594
SD Algo Stats - Switches: 0 SRR-Repls: 331375 BRR-Repls: 0

DRAM Statistics
 CHANNEL 0
 RQ ROW_BUFFER_HIT:     126756  ROW_BUFFER_MISS:     546108
 DBUS_CONGESTED:     368653
 WQ ROW_BUFFER_HIT:      15201  ROW_BUFFER_MISS:     188326  FULL:          0

 AVG_CONGESTED_CYCLE: 13
LOADS RETIRED: 136549171
INSTR RETIRED: 500000000
