
*** ChampSim Multicore Out-of-Order Simulator ***

Warmup Instructions: 100000000
Simulation Instructions: 500000000
Number of CPUs: 1
LLC sets: 2048
LLC ways: 16
Clean RRIP Policies: 1013010110130101 Dirty RRIP Policies: 2003110120031101 PSEL Width: 10 Track Set: 4294967295 PSEL Mask: 1 Demote Mask: 2340211023402110DS Algo: 0Window size: 0
Off-chip DRAM Size: 4096 MB Channels: 1 Width: 64-bit Data Rate: 1600 MT/s

CPU 0 runs /mnt/beegfs/iconst01/spec2017/Mcf.trace.gz
NOT SORTED
TRACE STRING: /mnt/beegfs/iconst01/spec2017/Mcf.trace.gz
SORTED
TRACE STRING: /mnt/beegfs/iconst01/spec2017/Mcf.trace.gz
INITIAL
TRACE STRING: /mnt/beegfs/iconst01/spec2017/Mcf.trace.gz

champsim_seed used: 278

CPU 0 L1D next line prefetcher
CPU 0 L2C IP-based stride prefetcher
Initialize DRRIP state
Assign rand_sets[0]: 454  LLC: 2048
rand_sets[0]: 454
Assign rand_sets[1]: 1662  LLC: 2048
rand_sets[1]: 1662
Assign rand_sets[2]: 1921  LLC: 2048
rand_sets[2]: 1921
Assign rand_sets[3]: 1131  LLC: 2048
rand_sets[3]: 1131
Assign rand_sets[4]: 331  LLC: 2048
rand_sets[4]: 331
Assign rand_sets[5]: 1531  LLC: 2048
rand_sets[5]: 1531
Assign rand_sets[6]: 482  LLC: 2048
rand_sets[6]: 482
Assign rand_sets[7]: 1275  LLC: 2048
rand_sets[7]: 1275
Assign rand_sets[8]: 1876  LLC: 2048
rand_sets[8]: 1876
Assign rand_sets[9]: 2038  LLC: 2048
rand_sets[9]: 2038
Assign rand_sets[10]: 701  LLC: 2048
rand_sets[10]: 701
Assign rand_sets[11]: 479  LLC: 2048
rand_sets[11]: 479
Assign rand_sets[12]: 892  LLC: 2048
rand_sets[12]: 892
Assign rand_sets[13]: 1820  LLC: 2048
rand_sets[13]: 1820
Assign rand_sets[14]: 1505  LLC: 2048
rand_sets[14]: 1505
Assign rand_sets[15]: 1159  LLC: 2048
rand_sets[15]: 1159
Assign rand_sets[16]: 513  LLC: 2048
rand_sets[16]: 513
Assign rand_sets[17]: 703  LLC: 2048
rand_sets[17]: 703
Assign rand_sets[18]: 561  LLC: 2048
rand_sets[18]: 561
Assign rand_sets[19]: 990  LLC: 2048
rand_sets[19]: 990
Assign rand_sets[20]: 342  LLC: 2048
rand_sets[20]: 342
Assign rand_sets[21]: 882  LLC: 2048
rand_sets[21]: 882
Assign rand_sets[22]: 15  LLC: 2048
rand_sets[22]: 15
Assign rand_sets[23]: 71  LLC: 2048
rand_sets[23]: 71
Assign rand_sets[24]: 1127  LLC: 2048
rand_sets[24]: 1127
Assign rand_sets[25]: 1382  LLC: 2048
rand_sets[25]: 1382
Assign rand_sets[26]: 647  LLC: 2048
rand_sets[26]: 647
Assign rand_sets[27]: 857  LLC: 2048
rand_sets[27]: 857
Assign rand_sets[28]: 1450  LLC: 2048
rand_sets[28]: 1450
Assign rand_sets[29]: 1160  LLC: 2048
rand_sets[29]: 1160
Assign rand_sets[30]: 1852  LLC: 2048
rand_sets[30]: 1852
Assign rand_sets[31]: 1881  LLC: 2048
rand_sets[31]: 1881
Assign rand_sets[32]: 1770  LLC: 2048
rand_sets[32]: 1770
Assign rand_sets[33]: 1622  LLC: 2048
rand_sets[33]: 1622
Assign rand_sets[34]: 275  LLC: 2048
rand_sets[34]: 275
Assign rand_sets[35]: 635  LLC: 2048
rand_sets[35]: 635
Assign rand_sets[36]: 466  LLC: 2048
rand_sets[36]: 466
Assign rand_sets[37]: 1413  LLC: 2048
rand_sets[37]: 1413
Assign rand_sets[38]: 417  LLC: 2048
rand_sets[38]: 417
Assign rand_sets[39]: 472  LLC: 2048
rand_sets[39]: 472
Assign rand_sets[40]: 1340  LLC: 2048
rand_sets[40]: 1340
Assign rand_sets[41]: 852  LLC: 2048
rand_sets[41]: 852
Assign rand_sets[42]: 1365  LLC: 2048
rand_sets[42]: 1365
Assign rand_sets[43]: 47  LLC: 2048
rand_sets[43]: 47
Assign rand_sets[44]: 823  LLC: 2048
rand_sets[44]: 823
Assign rand_sets[45]: 686  LLC: 2048
rand_sets[45]: 686
Assign rand_sets[46]: 1637  LLC: 2048
rand_sets[46]: 1637
Assign rand_sets[47]: 1115  LLC: 2048
rand_sets[47]: 1115
Assign rand_sets[48]: 986  LLC: 2048
rand_sets[48]: 986
Assign rand_sets[49]: 258  LLC: 2048
rand_sets[49]: 258
Assign rand_sets[50]: 633  LLC: 2048
rand_sets[50]: 633
Assign rand_sets[51]: 920  LLC: 2048
rand_sets[51]: 920
Assign rand_sets[52]: 204  LLC: 2048
rand_sets[52]: 204
Assign rand_sets[53]: 227  LLC: 2048
rand_sets[53]: 227
Assign rand_sets[54]: 1818  LLC: 2048
rand_sets[54]: 1818
Assign rand_sets[55]: 886  LLC: 2048
rand_sets[55]: 886
Assign rand_sets[56]: 1422  LLC: 2048
rand_sets[56]: 1422
Assign rand_sets[57]: 607  LLC: 2048
rand_sets[57]: 607
Assign rand_sets[58]: 217  LLC: 2048
rand_sets[58]: 217
Assign rand_sets[59]: 1945  LLC: 2048
rand_sets[59]: 1945
Assign rand_sets[60]: 143  LLC: 2048
rand_sets[60]: 143
Assign rand_sets[61]: 1311  LLC: 2048
rand_sets[61]: 1311
Assign rand_sets[62]: 319  LLC: 2048
rand_sets[62]: 319
Assign rand_sets[63]: 1846  LLC: 2048
rand_sets[63]: 1846
 CLEAN-RRIP-POLICY-1: 1-0-1-3-0-1-0-1- CLEAN-RRIP-POLICY-2: 1-0-1-3-0-1-0-1-
 DIRTY-RRIP-POLICY-1: 2-0-0-3-1-1-0-1- DIRTY-RRIP-POLICY-2: 2-0-0-3-1-1-0-1-
 PSEL width: 10
Heartbeat CPU 0 instructions: 10000002 cycles: 6248418 heartbeat IPC: 1.60041 cumulative IPC: 1.60041 (Simulation time: 0 hr 0 min 13 sec) 
Heartbeat CPU 0 instructions: 20000000 cycles: 12469108 heartbeat IPC: 1.60754 cumulative IPC: 1.60396 (Simulation time: 0 hr 0 min 25 sec) 
Heartbeat CPU 0 instructions: 30000000 cycles: 18679289 heartbeat IPC: 1.61026 cumulative IPC: 1.60606 (Simulation time: 0 hr 0 min 38 sec) 
Heartbeat CPU 0 instructions: 40000000 cycles: 24889781 heartbeat IPC: 1.61018 cumulative IPC: 1.60709 (Simulation time: 0 hr 0 min 51 sec) 
Heartbeat CPU 0 instructions: 50000003 cycles: 31102089 heartbeat IPC: 1.60971 cumulative IPC: 1.60761 (Simulation time: 0 hr 1 min 3 sec) 
Heartbeat CPU 0 instructions: 60000000 cycles: 37298142 heartbeat IPC: 1.61393 cumulative IPC: 1.60866 (Simulation time: 0 hr 1 min 16 sec) 
Heartbeat CPU 0 instructions: 70000003 cycles: 43516448 heartbeat IPC: 1.60816 cumulative IPC: 1.60859 (Simulation time: 0 hr 1 min 28 sec) 
Heartbeat CPU 0 instructions: 80000000 cycles: 49746838 heartbeat IPC: 1.60504 cumulative IPC: 1.60814 (Simulation time: 0 hr 1 min 41 sec) 
Heartbeat CPU 0 instructions: 90000000 cycles: 55975720 heartbeat IPC: 1.60542 cumulative IPC: 1.60784 (Simulation time: 0 hr 1 min 54 sec) 
Heartbeat CPU 0 instructions: 100000000 cycles: 62194561 heartbeat IPC: 1.60802 cumulative IPC: 1.60786 (Simulation time: 0 hr 2 min 6 sec) 

Warmup complete CPU 0 instructions: 100000001 cycles: 62194562 (Simulation time: 0 hr 2 min 6 sec) 

Heartbeat CPU 0 instructions: 110000000 cycles: 86863929 heartbeat IPC: 0.405361 cumulative IPC: 0.405361 (Simulation time: 0 hr 2 min 30 sec) 
Heartbeat CPU 0 instructions: 120000000 cycles: 111638100 heartbeat IPC: 0.403646 cumulative IPC: 0.404502 (Simulation time: 0 hr 2 min 54 sec) 
Heartbeat CPU 0 instructions: 130000000 cycles: 136500047 heartbeat IPC: 0.402221 cumulative IPC: 0.403739 (Simulation time: 0 hr 3 min 18 sec) 
Heartbeat CPU 0 instructions: 140000000 cycles: 161296002 heartbeat IPC: 0.403292 cumulative IPC: 0.403627 (Simulation time: 0 hr 3 min 43 sec) 
Heartbeat CPU 0 instructions: 150000003 cycles: 185981487 heartbeat IPC: 0.405096 cumulative IPC: 0.40392 (Simulation time: 0 hr 4 min 7 sec) 
Heartbeat CPU 0 instructions: 160000000 cycles: 210949855 heartbeat IPC: 0.400507 cumulative IPC: 0.403347 (Simulation time: 0 hr 4 min 31 sec) 
Heartbeat CPU 0 instructions: 170000001 cycles: 235778543 heartbeat IPC: 0.40276 cumulative IPC: 0.403263 (Simulation time: 0 hr 4 min 55 sec) 
Heartbeat CPU 0 instructions: 180000000 cycles: 260593261 heartbeat IPC: 0.402987 cumulative IPC: 0.403228 (Simulation time: 0 hr 5 min 19 sec) 
Heartbeat CPU 0 instructions: 190000003 cycles: 285369261 heartbeat IPC: 0.403617 cumulative IPC: 0.403272 (Simulation time: 0 hr 5 min 44 sec) 
Heartbeat CPU 0 instructions: 200000000 cycles: 310207826 heartbeat IPC: 0.4026 cumulative IPC: 0.403204 (Simulation time: 0 hr 6 min 8 sec) 
Heartbeat CPU 0 instructions: 210000003 cycles: 335080556 heartbeat IPC: 0.402047 cumulative IPC: 0.403099 (Simulation time: 0 hr 6 min 32 sec) 
Heartbeat CPU 0 instructions: 220000000 cycles: 360164029 heartbeat IPC: 0.398669 cumulative IPC: 0.402726 (Simulation time: 0 hr 6 min 56 sec) 
Heartbeat CPU 0 instructions: 230000002 cycles: 384893207 heartbeat IPC: 0.404381 cumulative IPC: 0.402853 (Simulation time: 0 hr 7 min 21 sec) 
Heartbeat CPU 0 instructions: 240000000 cycles: 409929505 heartbeat IPC: 0.39942 cumulative IPC: 0.402606 (Simulation time: 0 hr 7 min 45 sec) 
Heartbeat CPU 0 instructions: 250000000 cycles: 434772539 heartbeat IPC: 0.402527 cumulative IPC: 0.4026 (Simulation time: 0 hr 8 min 9 sec) 
Heartbeat CPU 0 instructions: 260000000 cycles: 459589793 heartbeat IPC: 0.402945 cumulative IPC: 0.402622 (Simulation time: 0 hr 8 min 34 sec) 
Heartbeat CPU 0 instructions: 270000001 cycles: 484495835 heartbeat IPC: 0.401509 cumulative IPC: 0.402556 (Simulation time: 0 hr 8 min 58 sec) 
Heartbeat CPU 0 instructions: 280000000 cycles: 509344174 heartbeat IPC: 0.402441 cumulative IPC: 0.40255 (Simulation time: 0 hr 9 min 22 sec) 
Heartbeat CPU 0 instructions: 290000001 cycles: 534275575 heartbeat IPC: 0.401101 cumulative IPC: 0.402473 (Simulation time: 0 hr 9 min 47 sec) 
Heartbeat CPU 0 instructions: 300000000 cycles: 559367135 heartbeat IPC: 0.39854 cumulative IPC: 0.402275 (Simulation time: 0 hr 10 min 11 sec) 
Heartbeat CPU 0 instructions: 310000003 cycles: 584107637 heartbeat IPC: 0.404196 cumulative IPC: 0.402366 (Simulation time: 0 hr 10 min 36 sec) 
Heartbeat CPU 0 instructions: 320000000 cycles: 609226940 heartbeat IPC: 0.3981 cumulative IPC: 0.40217 (Simulation time: 0 hr 11 min 0 sec) 
Heartbeat CPU 0 instructions: 330000003 cycles: 634069588 heartbeat IPC: 0.402534 cumulative IPC: 0.402186 (Simulation time: 0 hr 11 min 25 sec) 
Heartbeat CPU 0 instructions: 340000000 cycles: 659204118 heartbeat IPC: 0.397859 cumulative IPC: 0.402004 (Simulation time: 0 hr 11 min 49 sec) 
Heartbeat CPU 0 instructions: 350000002 cycles: 684323057 heartbeat IPC: 0.398106 cumulative IPC: 0.401846 (Simulation time: 0 hr 12 min 14 sec) 
Heartbeat CPU 0 instructions: 360000000 cycles: 709596949 heartbeat IPC: 0.395665 cumulative IPC: 0.401605 (Simulation time: 0 hr 12 min 38 sec) 
Heartbeat CPU 0 instructions: 370000000 cycles: 734628114 heartbeat IPC: 0.399502 cumulative IPC: 0.401527 (Simulation time: 0 hr 13 min 2 sec) 
Heartbeat CPU 0 instructions: 380000000 cycles: 759477625 heartbeat IPC: 0.402422 cumulative IPC: 0.401559 (Simulation time: 0 hr 13 min 26 sec) 
Heartbeat CPU 0 instructions: 390000002 cycles: 784348253 heartbeat IPC: 0.402081 cumulative IPC: 0.401577 (Simulation time: 0 hr 13 min 50 sec) 
Heartbeat CPU 0 instructions: 400000000 cycles: 809385304 heartbeat IPC: 0.399408 cumulative IPC: 0.401504 (Simulation time: 0 hr 14 min 15 sec) 
Heartbeat CPU 0 instructions: 410000002 cycles: 834322023 heartbeat IPC: 0.401015 cumulative IPC: 0.401488 (Simulation time: 0 hr 14 min 39 sec) 
Heartbeat CPU 0 instructions: 420000000 cycles: 859072733 heartbeat IPC: 0.404029 cumulative IPC: 0.401567 (Simulation time: 0 hr 15 min 3 sec) 
Heartbeat CPU 0 instructions: 430000000 cycles: 884049122 heartbeat IPC: 0.400378 cumulative IPC: 0.401531 (Simulation time: 0 hr 15 min 28 sec) 
Heartbeat CPU 0 instructions: 440000000 cycles: 908729949 heartbeat IPC: 0.405173 cumulative IPC: 0.401637 (Simulation time: 0 hr 15 min 52 sec) 
Heartbeat CPU 0 instructions: 450000000 cycles: 933909899 heartbeat IPC: 0.397141 cumulative IPC: 0.401507 (Simulation time: 0 hr 16 min 18 sec) 
Heartbeat CPU 0 instructions: 460000000 cycles: 958972592 heartbeat IPC: 0.398999 cumulative IPC: 0.401437 (Simulation time: 0 hr 16 min 43 sec) 
Heartbeat CPU 0 instructions: 470000001 cycles: 983828167 heartbeat IPC: 0.402324 cumulative IPC: 0.401461 (Simulation time: 0 hr 17 min 8 sec) 
Heartbeat CPU 0 instructions: 480000000 cycles: 1008854178 heartbeat IPC: 0.399584 cumulative IPC: 0.401411 (Simulation time: 0 hr 17 min 34 sec) 
Heartbeat CPU 0 instructions: 490000000 cycles: 1033975675 heartbeat IPC: 0.398065 cumulative IPC: 0.401325 (Simulation time: 0 hr 17 min 59 sec) 
Heartbeat CPU 0 instructions: 500000000 cycles: 1059421224 heartbeat IPC: 0.392996 cumulative IPC: 0.401112 (Simulation time: 0 hr 18 min 24 sec) 
Heartbeat CPU 0 instructions: 510000003 cycles: 1084725656 heartbeat IPC: 0.395188 cumulative IPC: 0.400966 (Simulation time: 0 hr 18 min 49 sec) 
Heartbeat CPU 0 instructions: 520000000 cycles: 1110198674 heartbeat IPC: 0.392572 cumulative IPC: 0.400762 (Simulation time: 0 hr 19 min 15 sec) 
Heartbeat CPU 0 instructions: 530000003 cycles: 1135702865 heartbeat IPC: 0.392093 cumulative IPC: 0.400556 (Simulation time: 0 hr 19 min 40 sec) 
Heartbeat CPU 0 instructions: 540000000 cycles: 1161115795 heartbeat IPC: 0.3935 cumulative IPC: 0.400393 (Simulation time: 0 hr 20 min 5 sec) 
Heartbeat CPU 0 instructions: 550000000 cycles: 1186530527 heartbeat IPC: 0.393473 cumulative IPC: 0.400236 (Simulation time: 0 hr 20 min 31 sec) 
Heartbeat CPU 0 instructions: 560000000 cycles: 1212266860 heartbeat IPC: 0.388556 cumulative IPC: 0.399975 (Simulation time: 0 hr 20 min 56 sec) 
Heartbeat CPU 0 instructions: 570000001 cycles: 1237931504 heartbeat IPC: 0.389641 cumulative IPC: 0.399749 (Simulation time: 0 hr 21 min 22 sec) 
Heartbeat CPU 0 instructions: 580000000 cycles: 1263594534 heartbeat IPC: 0.389666 cumulative IPC: 0.399534 (Simulation time: 0 hr 21 min 47 sec) 
Heartbeat CPU 0 instructions: 590000000 cycles: 1289428687 heartbeat IPC: 0.387084 cumulative IPC: 0.399272 (Simulation time: 0 hr 22 min 13 sec) 
Heartbeat CPU 0 instructions: 600000000 cycles: 1315345998 heartbeat IPC: 0.385843 cumulative IPC: 0.398994 (Simulation time: 0 hr 22 min 38 sec) 
Finished CPU 0 instructions: 500000003 cycles: 1253151449 cumulative IPC: 0.398994 (Simulation time: 0 hr 22 min 38 sec) 

CPU 0 Branch Prediction Accuracy: 91.1342% MPKI: 18.7968
Number of Branches: 106006945 Number of Mispredictions: 9398408
Number of LOAD Instructions: 207894007
Number of LOAD Instructions (ROI): 207894007
Number of STORE Instructions: 54285997
Number of STORE Instructions (ROI): 54285997
Total Destination Memory Operands: 57463404
Total Destination Memory Operands (ROI): 57463404
Total Source Memory Operands: 207894007
Total Source Memory Operands (ROI): 207894007
Number of DEPENDED LOADS: 18114477
Number of DEPENDED LOADS (ROI): 18114477
Number of SQ_ADDED: 57463404
Number of SQ_ADDED (ROI): 57463404
Number of LQ_ADDED: 209252599
Number of LQ_ADDED (ROI): 209252599
Number of Instructions read from trace: 600000039

ChampSim completed all CPUs

Region of Interest Statistics

CPU 0 cumulative IPC: 0.398994 instructions: 500000003 cycles: 1253151449
ITLB TOTAL     ACCESS:   96398987  HIT:   96398987  MISS:          0
ITLB LOAD      ACCESS:   96398987  HIT:   96398987  MISS:          0
ITLB RFO       ACCESS:          0  HIT:          0  MISS:          0
ITLB PREFETCH  ACCESS:          0  HIT:          0  MISS:          0
ITLB WRITEBACK ACCESS:          0  HIT:          0  MISS:          0
ITLB PREFETCH  REQUESTED:          0  ISSUED:          0  USEFUL:          0  USELESS:          0
ITLB TOTAL MSHR MERGED:          0
ITLB LOAD MSHR MERGED:          0
ITLB RFO MSHR MERGED:          0
ITLB PREFETCH MSHR MERGED:          0
ITLB WRITEBACK MSHR MERGED:          0
ITLB TOTAL ACCESSES:   96398987 HITS:   96398987 MISSES:          0
ITLB LOAD ACCESSES:   96398987 HITS:   96398987 MISSES:          0
ITLB RFO ACCESSES:          0 HITS:          0 MISSES:          0
ITLB PREFETCH ACCESSES:          0 HITS:          0 MISSES:          0
ITLB WRITEBACK ACCESSES:          0 HITS:          0 MISSES:          0
ITLB RQ ACCESS:  499999980
ITLB RQ TO_CACHE:   96398987
ITLB RQ MERGED:  403600993
ITLB RQ FORWARD:          0
ITLB WQ ACCESS:          0
ITLB WQ TO_CACHE:          0
ITLB WQ MERGED:          0
ITLB WQ FORWARD:          0
DTLB TOTAL     ACCESS:  155163130  HIT:  150250975  MISS:    4912155
DTLB LOAD      ACCESS:  117711976  HIT:  113321500  MISS:    4390476
DTLB RFO       ACCESS:   37451154  HIT:   36929475  MISS:     521679
DTLB PREFETCH  ACCESS:          0  HIT:          0  MISS:          0
DTLB WRITEBACK ACCESS:          0  HIT:          0  MISS:          0
DTLB PREFETCH  REQUESTED:          0  ISSUED:          0  USEFUL:          0  USELESS:          0
DTLB TOTAL MSHR MERGED:     452629
DTLB LOAD MSHR MERGED:     161238
DTLB RFO MSHR MERGED:     291391
DTLB PREFETCH MSHR MERGED:          0
DTLB WRITEBACK MSHR MERGED:          0
DTLB TOTAL ACCESSES:  155615759 HITS:  150250975 MISSES:    5364784
DTLB LOAD ACCESSES:  117873214 HITS:  113321500 MISSES:    4551714
DTLB RFO ACCESSES:   37742545 HITS:   36929475 MISSES:     813070
DTLB PREFETCH ACCESSES:          0 HITS:          0 MISSES:          0
DTLB WRITEBACK ACCESSES:          0 HITS:          0 MISSES:          0
DTLB RQ ACCESS:  205968704
DTLB RQ TO_CACHE:  155615759
DTLB RQ MERGED:   50352945
DTLB RQ FORWARD:          0
DTLB WQ ACCESS:          0
DTLB WQ TO_CACHE:          0
DTLB WQ MERGED:          0
DTLB WQ FORWARD:          0
L1D TOTAL     ACCESS:  277123563  HIT:  242301491  MISS:   34822072
L1D LOAD      ACCESS:  125403188  HIT:  107760008  MISS:   17643180
L1D RFO       ACCESS:   41130421  HIT:   38818608  MISS:    2311813
L1D PREFETCH  ACCESS:  110589954  HIT:   95722875  MISS:   14867079
L1D WRITEBACK ACCESS:          0  HIT:          0  MISS:          0
L1D PREFETCH  REQUESTED:  126258166  ISSUED:  124738994  USEFUL:    2701248  USELESS:   12165857
L1D TOTAL MSHR MERGED:    8509873
L1D LOAD MSHR MERGED:    1546847
L1D RFO MSHR MERGED:    3772871
L1D PREFETCH MSHR MERGED:    3190155
L1D WRITEBACK MSHR MERGED:          0
L1D TOTAL ACCESSES:  285720726 HITS:  242388778 MISSES:   43331948
L1D LOAD ACCESSES:  126258203 HITS:  107760045 MISSES:   18498158
L1D RFO ACCESSES:   44902798 HITS:   38818608 MISSES:    6084190
L1D PREFETCH ACCESSES:  114559725 HITS:   95810125 MISSES:   18749600
L1D WRITEBACK ACCESSES:          0 HITS:          0 MISSES:          0
L1D RQ ACCESS:  158421823
L1D RQ TO_CACHE:  126258166
L1D RQ MERGED:   32163620
L1D RQ FORWARD:          0
L1D WQ ACCESS:   47546882
L1D WQ TO_CACHE:   44902798
L1D WQ MERGED:    2644084
L1D WQ FORWARD:      87287
L1I TOTAL     ACCESS:  132804573  HIT:  132804573  MISS:          0
L1I LOAD      ACCESS:  132804573  HIT:  132804573  MISS:          0
L1I RFO       ACCESS:          0  HIT:          0  MISS:          0
L1I PREFETCH  ACCESS:          0  HIT:          0  MISS:          0
L1I WRITEBACK ACCESS:          0  HIT:          0  MISS:          0
L1I PREFETCH  REQUESTED:          0  ISSUED:          0  USEFUL:          0  USELESS:          0
L1I TOTAL MSHR MERGED:          0
L1I LOAD MSHR MERGED:          0
L1I RFO MSHR MERGED:          0
L1I PREFETCH MSHR MERGED:          0
L1I WRITEBACK MSHR MERGED:          0
L1I TOTAL ACCESSES:  132804573 HITS:  132804573 MISSES:          0
L1I LOAD ACCESSES:  132804573 HITS:  132804573 MISSES:          0
L1I RFO ACCESSES:          0 HITS:          0 MISSES:          0
L1I PREFETCH ACCESSES:          0 HITS:          0 MISSES:          0
L1I WRITEBACK ACCESSES:          0 HITS:          0 MISSES:          0
L1I RQ ACCESS:  499999980
L1I RQ TO_CACHE:  132804573
L1I RQ MERGED:  367195407
L1I RQ FORWARD:          0
L1I WQ ACCESS:          0
L1I WQ TO_CACHE:          0
L1I WQ MERGED:          0
L1I WQ FORWARD:          0
L2C TOTAL     ACCESS:   39597220  HIT:   20628100  MISS:   18969120
L2C LOAD      ACCESS:   16951249  HIT:    8567443  MISS:    8383806
L2C RFO       ACCESS:    2311266  HIT:     630836  MISS:    1680430
L2C PREFETCH  ACCESS:   17112289  HIT:    8211154  MISS:    8901135
L2C WRITEBACK ACCESS:    3222416  HIT:    3218667  MISS:       3749
L2C PREFETCH  REQUESTED:    2892227  ISSUED:    2892227  USEFUL:    1306897  USELESS:    7593984
L2C TOTAL MSHR MERGED:     537699
L2C LOAD MSHR MERGED:      92347
L2C RFO MSHR MERGED:          0
L2C PREFETCH MSHR MERGED:     445352
L2C WRITEBACK MSHR MERGED:          0
L2C TOTAL ACCESSES:   40260757 HITS:   20628264 MISSES:   19632493
L2C LOAD ACCESSES:   16951311 HITS:    8567505 MISSES:    8383806
L2C RFO ACCESSES:    2311319 HITS:     630889 MISSES:    1680430
L2C PREFETCH ACCESSES:   17775711 HITS:    8211203 MISSES:    9564508
L2C WRITEBACK ACCESSES:    3222416 HITS:    3218667 MISSES:       3749
L2C RQ ACCESS:   19262630
L2C RQ TO_CACHE:   19262515
L2C RQ MERGED:          0
L2C RQ FORWARD:          0
L2C WQ ACCESS:    3222416
L2C WQ TO_CACHE:    3222416
L2C WQ MERGED:          0
L2C WQ FORWARD:        164
LLC TOTAL     ACCESS:   21203059  HIT:   13748382  MISS:    7454677
LLC LOAD      ACCESS:    8291440  HIT:    5744149  MISS:    2547291
LLC RFO       ACCESS:    1680345  HIT:    1631837  MISS:      48508
LLC PREFETCH  ACCESS:    9055636  HIT:    4210278  MISS:    4845358
LLC WRITEBACK ACCESS:    2175638  HIT:    2162118  MISS:      13520
LLC PREFETCH  REQUESTED:          0  ISSUED:          0  USEFUL:     196053  USELESS:    4651370
LLC TOTAL MSHR MERGED:      53630
LLC LOAD MSHR MERGED:      16994
LLC RFO MSHR MERGED:          0
LLC PREFETCH MSHR MERGED:      36636
LLC WRITEBACK MSHR MERGED:          0
LLC TOTAL ACCESSES:   21256823 HITS:   13748513 MISSES:    7508310
LLC LOAD ACCESSES:    8291459 HITS:    5744168 MISSES:    2547291
LLC RFO ACCESSES:    1680430 HITS:    1631922 MISSES:      48508
LLC PREFETCH ACCESSES:    9109296 HITS:    4210305 MISSES:    4898991
LLC WRITEBACK ACCESSES:    2175638 HITS:    2162118 MISSES:      13520
LLC 0 RQ ACCESS:    9971889
LLC 0 RQ TO_CACHE:    9971785
LLC 0 RQ MERGED:          0
LLC 0 RQ FORWARD:          0
LLC WQ ACCESS:    2175639
LLC WQ TO_CACHE:    2175639
LLC WQ MERGED:          0
LLC WQ FORWARD:        131
Major fault: 0 Minor fault: 56391
CPU 0 L1D next line prefetcher final stats
CPU 0 L2C PC-based stride prefetcher final stats
All Misses: 8739662
All Hits: 15840241
SD Algo Stats - Switches: 0 SRR-Repls: 2673534 BRR-Repls: 0

DRAM Statistics
 CHANNEL 0
 RQ ROW_BUFFER_HIT:    4589860  ROW_BUFFER_MISS:    2812776
 DBUS_CONGESTED:    3483403
 WQ ROW_BUFFER_HIT:       6499  ROW_BUFFER_MISS:     101651  FULL:          0

 AVG_CONGESTED_CYCLE: 12
LOADS RETIRED: 173631671
INSTR RETIRED: 500000000
