
*** ChampSim Multicore Out-of-Order Simulator ***

Warmup Instructions: 100000000
Simulation Instructions: 500000000
Number of CPUs: 1
LLC sets: 2048
LLC ways: 16
Clean RRIP Policies: 1013010110130101 Dirty RRIP Policies: 2003110120031101 PSEL Width: 10 Track Set: 4294967295 PSEL Mask: 1 Demote Mask: 2340211023402110DS Algo: 0Window size: 0
Off-chip DRAM Size: 4096 MB Channels: 1 Width: 64-bit Data Rate: 1600 MT/s

CPU 0 runs /mnt/beegfs/iconst01/spec2017/Xalancbmk.trace.gz
NOT SORTED
TRACE STRING: /mnt/beegfs/iconst01/spec2017/Xalancbmk.trace.gz
SORTED
TRACE STRING: /mnt/beegfs/iconst01/spec2017/Xalancbmk.trace.gz
INITIAL
TRACE STRING: /mnt/beegfs/iconst01/spec2017/Xalancbmk.trace.gz

champsim_seed used: 913

CPU 0 L1D next line prefetcher
CPU 0 L2C IP-based stride prefetcher
Initialize DRRIP state
Assign rand_sets[0]: 454  LLC: 2048
rand_sets[0]: 454
Assign rand_sets[1]: 1662  LLC: 2048
rand_sets[1]: 1662
Assign rand_sets[2]: 1921  LLC: 2048
rand_sets[2]: 1921
Assign rand_sets[3]: 1131  LLC: 2048
rand_sets[3]: 1131
Assign rand_sets[4]: 331  LLC: 2048
rand_sets[4]: 331
Assign rand_sets[5]: 1531  LLC: 2048
rand_sets[5]: 1531
Assign rand_sets[6]: 482  LLC: 2048
rand_sets[6]: 482
Assign rand_sets[7]: 1275  LLC: 2048
rand_sets[7]: 1275
Assign rand_sets[8]: 1876  LLC: 2048
rand_sets[8]: 1876
Assign rand_sets[9]: 2038  LLC: 2048
rand_sets[9]: 2038
Assign rand_sets[10]: 701  LLC: 2048
rand_sets[10]: 701
Assign rand_sets[11]: 479  LLC: 2048
rand_sets[11]: 479
Assign rand_sets[12]: 892  LLC: 2048
rand_sets[12]: 892
Assign rand_sets[13]: 1820  LLC: 2048
rand_sets[13]: 1820
Assign rand_sets[14]: 1505  LLC: 2048
rand_sets[14]: 1505
Assign rand_sets[15]: 1159  LLC: 2048
rand_sets[15]: 1159
Assign rand_sets[16]: 513  LLC: 2048
rand_sets[16]: 513
Assign rand_sets[17]: 703  LLC: 2048
rand_sets[17]: 703
Assign rand_sets[18]: 561  LLC: 2048
rand_sets[18]: 561
Assign rand_sets[19]: 990  LLC: 2048
rand_sets[19]: 990
Assign rand_sets[20]: 342  LLC: 2048
rand_sets[20]: 342
Assign rand_sets[21]: 882  LLC: 2048
rand_sets[21]: 882
Assign rand_sets[22]: 15  LLC: 2048
rand_sets[22]: 15
Assign rand_sets[23]: 71  LLC: 2048
rand_sets[23]: 71
Assign rand_sets[24]: 1127  LLC: 2048
rand_sets[24]: 1127
Assign rand_sets[25]: 1382  LLC: 2048
rand_sets[25]: 1382
Assign rand_sets[26]: 647  LLC: 2048
rand_sets[26]: 647
Assign rand_sets[27]: 857  LLC: 2048
rand_sets[27]: 857
Assign rand_sets[28]: 1450  LLC: 2048
rand_sets[28]: 1450
Assign rand_sets[29]: 1160  LLC: 2048
rand_sets[29]: 1160
Assign rand_sets[30]: 1852  LLC: 2048
rand_sets[30]: 1852
Assign rand_sets[31]: 1881  LLC: 2048
rand_sets[31]: 1881
Assign rand_sets[32]: 1770  LLC: 2048
rand_sets[32]: 1770
Assign rand_sets[33]: 1622  LLC: 2048
rand_sets[33]: 1622
Assign rand_sets[34]: 275  LLC: 2048
rand_sets[34]: 275
Assign rand_sets[35]: 635  LLC: 2048
rand_sets[35]: 635
Assign rand_sets[36]: 466  LLC: 2048
rand_sets[36]: 466
Assign rand_sets[37]: 1413  LLC: 2048
rand_sets[37]: 1413
Assign rand_sets[38]: 417  LLC: 2048
rand_sets[38]: 417
Assign rand_sets[39]: 472  LLC: 2048
rand_sets[39]: 472
Assign rand_sets[40]: 1340  LLC: 2048
rand_sets[40]: 1340
Assign rand_sets[41]: 852  LLC: 2048
rand_sets[41]: 852
Assign rand_sets[42]: 1365  LLC: 2048
rand_sets[42]: 1365
Assign rand_sets[43]: 47  LLC: 2048
rand_sets[43]: 47
Assign rand_sets[44]: 823  LLC: 2048
rand_sets[44]: 823
Assign rand_sets[45]: 686  LLC: 2048
rand_sets[45]: 686
Assign rand_sets[46]: 1637  LLC: 2048
rand_sets[46]: 1637
Assign rand_sets[47]: 1115  LLC: 2048
rand_sets[47]: 1115
Assign rand_sets[48]: 986  LLC: 2048
rand_sets[48]: 986
Assign rand_sets[49]: 258  LLC: 2048
rand_sets[49]: 258
Assign rand_sets[50]: 633  LLC: 2048
rand_sets[50]: 633
Assign rand_sets[51]: 920  LLC: 2048
rand_sets[51]: 920
Assign rand_sets[52]: 204  LLC: 2048
rand_sets[52]: 204
Assign rand_sets[53]: 227  LLC: 2048
rand_sets[53]: 227
Assign rand_sets[54]: 1818  LLC: 2048
rand_sets[54]: 1818
Assign rand_sets[55]: 886  LLC: 2048
rand_sets[55]: 886
Assign rand_sets[56]: 1422  LLC: 2048
rand_sets[56]: 1422
Assign rand_sets[57]: 607  LLC: 2048
rand_sets[57]: 607
Assign rand_sets[58]: 217  LLC: 2048
rand_sets[58]: 217
Assign rand_sets[59]: 1945  LLC: 2048
rand_sets[59]: 1945
Assign rand_sets[60]: 143  LLC: 2048
rand_sets[60]: 143
Assign rand_sets[61]: 1311  LLC: 2048
rand_sets[61]: 1311
Assign rand_sets[62]: 319  LLC: 2048
rand_sets[62]: 319
Assign rand_sets[63]: 1846  LLC: 2048
rand_sets[63]: 1846
 CLEAN-RRIP-POLICY-1: 1-0-1-3-0-1-0-1- CLEAN-RRIP-POLICY-2: 1-0-1-3-0-1-0-1-
 DIRTY-RRIP-POLICY-1: 2-0-0-3-1-1-0-1- DIRTY-RRIP-POLICY-2: 2-0-0-3-1-1-0-1-
 PSEL width: 10
Heartbeat CPU 0 instructions: 10000003 cycles: 4586245 heartbeat IPC: 2.18043 cumulative IPC: 2.18043 (Simulation time: 0 hr 0 min 15 sec) 
Heartbeat CPU 0 instructions: 20000000 cycles: 8977087 heartbeat IPC: 2.27747 cumulative IPC: 2.22789 (Simulation time: 0 hr 0 min 29 sec) 
Heartbeat CPU 0 instructions: 30000000 cycles: 13385489 heartbeat IPC: 2.2684 cumulative IPC: 2.24123 (Simulation time: 0 hr 0 min 43 sec) 
Heartbeat CPU 0 instructions: 40000000 cycles: 18009960 heartbeat IPC: 2.16241 cumulative IPC: 2.22099 (Simulation time: 0 hr 0 min 58 sec) 
Heartbeat CPU 0 instructions: 50000002 cycles: 22422952 heartbeat IPC: 2.26604 cumulative IPC: 2.22986 (Simulation time: 0 hr 1 min 12 sec) 
Heartbeat CPU 0 instructions: 60000000 cycles: 27074244 heartbeat IPC: 2.14994 cumulative IPC: 2.21613 (Simulation time: 0 hr 1 min 28 sec) 
Heartbeat CPU 0 instructions: 70000003 cycles: 31477478 heartbeat IPC: 2.27106 cumulative IPC: 2.22381 (Simulation time: 0 hr 1 min 42 sec) 
Heartbeat CPU 0 instructions: 80000000 cycles: 35901584 heartbeat IPC: 2.26034 cumulative IPC: 2.22831 (Simulation time: 0 hr 1 min 56 sec) 
Heartbeat CPU 0 instructions: 90000002 cycles: 40357475 heartbeat IPC: 2.24422 cumulative IPC: 2.23007 (Simulation time: 0 hr 2 min 10 sec) 
Heartbeat CPU 0 instructions: 100000000 cycles: 44831306 heartbeat IPC: 2.23522 cumulative IPC: 2.23058 (Simulation time: 0 hr 2 min 25 sec) 

Warmup complete CPU 0 instructions: 100000003 cycles: 44831307 (Simulation time: 0 hr 2 min 25 sec) 

Heartbeat CPU 0 instructions: 110000000 cycles: 71250437 heartbeat IPC: 0.378514 cumulative IPC: 0.378513 (Simulation time: 0 hr 2 min 55 sec) 
Heartbeat CPU 0 instructions: 120000000 cycles: 99005223 heartbeat IPC: 0.360298 cumulative IPC: 0.369181 (Simulation time: 0 hr 3 min 27 sec) 
Heartbeat CPU 0 instructions: 130000000 cycles: 122465081 heartbeat IPC: 0.42626 cumulative IPC: 0.38643 (Simulation time: 0 hr 3 min 56 sec) 
Heartbeat CPU 0 instructions: 140000000 cycles: 144984950 heartbeat IPC: 0.444052 cumulative IPC: 0.399386 (Simulation time: 0 hr 4 min 24 sec) 
Heartbeat CPU 0 instructions: 150000000 cycles: 169345786 heartbeat IPC: 0.410495 cumulative IPC: 0.40156 (Simulation time: 0 hr 4 min 53 sec) 
Heartbeat CPU 0 instructions: 160000000 cycles: 194033661 heartbeat IPC: 0.405057 cumulative IPC: 0.402138 (Simulation time: 0 hr 5 min 23 sec) 
Heartbeat CPU 0 instructions: 170000002 cycles: 215214392 heartbeat IPC: 0.472127 cumulative IPC: 0.410839 (Simulation time: 0 hr 5 min 50 sec) 
Heartbeat CPU 0 instructions: 180000000 cycles: 238142110 heartbeat IPC: 0.436153 cumulative IPC: 0.413841 (Simulation time: 0 hr 6 min 18 sec) 
Heartbeat CPU 0 instructions: 190000000 cycles: 257157337 heartbeat IPC: 0.525894 cumulative IPC: 0.423876 (Simulation time: 0 hr 6 min 44 sec) 
Heartbeat CPU 0 instructions: 200000000 cycles: 278404073 heartbeat IPC: 0.470661 cumulative IPC: 0.428132 (Simulation time: 0 hr 7 min 11 sec) 
Heartbeat CPU 0 instructions: 210000001 cycles: 304581455 heartbeat IPC: 0.382009 cumulative IPC: 0.423484 (Simulation time: 0 hr 7 min 41 sec) 
Heartbeat CPU 0 instructions: 220000000 cycles: 330250253 heartbeat IPC: 0.389578 cumulative IPC: 0.420435 (Simulation time: 0 hr 8 min 11 sec) 
Heartbeat CPU 0 instructions: 230000000 cycles: 352332114 heartbeat IPC: 0.45286 cumulative IPC: 0.422763 (Simulation time: 0 hr 8 min 39 sec) 
Heartbeat CPU 0 instructions: 240000000 cycles: 377801323 heartbeat IPC: 0.392631 cumulative IPC: 0.420458 (Simulation time: 0 hr 9 min 9 sec) 
Heartbeat CPU 0 instructions: 250000001 cycles: 402486918 heartbeat IPC: 0.405095 cumulative IPC: 0.419398 (Simulation time: 0 hr 9 min 39 sec) 
Heartbeat CPU 0 instructions: 260000000 cycles: 423525989 heartbeat IPC: 0.475306 cumulative IPC: 0.422504 (Simulation time: 0 hr 10 min 6 sec) 
Heartbeat CPU 0 instructions: 270000000 cycles: 445476120 heartbeat IPC: 0.455578 cumulative IPC: 0.424316 (Simulation time: 0 hr 10 min 34 sec) 
Heartbeat CPU 0 instructions: 280000000 cycles: 472683197 heartbeat IPC: 0.367551 cumulative IPC: 0.420706 (Simulation time: 0 hr 11 min 5 sec) 
Heartbeat CPU 0 instructions: 290000000 cycles: 493912746 heartbeat IPC: 0.471042 cumulative IPC: 0.423086 (Simulation time: 0 hr 11 min 32 sec) 
Heartbeat CPU 0 instructions: 300000000 cycles: 514563969 heartbeat IPC: 0.484233 cumulative IPC: 0.425774 (Simulation time: 0 hr 11 min 59 sec) 
Heartbeat CPU 0 instructions: 310000000 cycles: 533826191 heartbeat IPC: 0.519151 cumulative IPC: 0.429452 (Simulation time: 0 hr 12 min 24 sec) 
Heartbeat CPU 0 instructions: 320000000 cycles: 562729524 heartbeat IPC: 0.345981 cumulative IPC: 0.424794 (Simulation time: 0 hr 12 min 56 sec) 
Heartbeat CPU 0 instructions: 330000001 cycles: 582087499 heartbeat IPC: 0.516583 cumulative IPC: 0.428101 (Simulation time: 0 hr 13 min 22 sec) 
Heartbeat CPU 0 instructions: 340000000 cycles: 601421793 heartbeat IPC: 0.517216 cumulative IPC: 0.431197 (Simulation time: 0 hr 13 min 47 sec) 
Heartbeat CPU 0 instructions: 350000002 cycles: 626101679 heartbeat IPC: 0.405188 cumulative IPC: 0.430092 (Simulation time: 0 hr 14 min 17 sec) 
Heartbeat CPU 0 instructions: 360000000 cycles: 648386243 heartbeat IPC: 0.448741 cumulative IPC: 0.430781 (Simulation time: 0 hr 14 min 44 sec) 
Heartbeat CPU 0 instructions: 370000001 cycles: 673390620 heartbeat IPC: 0.39993 cumulative IPC: 0.429554 (Simulation time: 0 hr 15 min 14 sec) 
Heartbeat CPU 0 instructions: 380000000 cycles: 696310587 heartbeat IPC: 0.436301 cumulative IPC: 0.429791 (Simulation time: 0 hr 15 min 42 sec) 
Heartbeat CPU 0 instructions: 390000000 cycles: 715078529 heartbeat IPC: 0.532823 cumulative IPC: 0.432676 (Simulation time: 0 hr 16 min 7 sec) 
Heartbeat CPU 0 instructions: 400000000 cycles: 734923596 heartbeat IPC: 0.503904 cumulative IPC: 0.434724 (Simulation time: 0 hr 16 min 33 sec) 
Heartbeat CPU 0 instructions: 410000001 cycles: 760674068 heartbeat IPC: 0.388342 cumulative IPC: 0.433056 (Simulation time: 0 hr 17 min 3 sec) 
Heartbeat CPU 0 instructions: 420000000 cycles: 785183713 heartbeat IPC: 0.408003 cumulative IPC: 0.432227 (Simulation time: 0 hr 17 min 32 sec) 
Heartbeat CPU 0 instructions: 430000002 cycles: 806553221 heartbeat IPC: 0.467957 cumulative IPC: 0.433229 (Simulation time: 0 hr 17 min 58 sec) 
Heartbeat CPU 0 instructions: 440000000 cycles: 826993833 heartbeat IPC: 0.489222 cumulative IPC: 0.434692 (Simulation time: 0 hr 18 min 24 sec) 
Heartbeat CPU 0 instructions: 450000002 cycles: 853355337 heartbeat IPC: 0.379341 cumulative IPC: 0.432888 (Simulation time: 0 hr 18 min 55 sec) 
Heartbeat CPU 0 instructions: 460000000 cycles: 878979774 heartbeat IPC: 0.390252 cumulative IPC: 0.431578 (Simulation time: 0 hr 19 min 25 sec) 
Heartbeat CPU 0 instructions: 470000002 cycles: 904724787 heartbeat IPC: 0.388425 cumulative IPC: 0.430286 (Simulation time: 0 hr 19 min 54 sec) 
Heartbeat CPU 0 instructions: 480000000 cycles: 929314727 heartbeat IPC: 0.40667 cumulative IPC: 0.429629 (Simulation time: 0 hr 20 min 23 sec) 
Heartbeat CPU 0 instructions: 490000000 cycles: 950202465 heartbeat IPC: 0.47875 cumulative IPC: 0.430763 (Simulation time: 0 hr 20 min 50 sec) 
Heartbeat CPU 0 instructions: 500000000 cycles: 974828619 heartbeat IPC: 0.406072 cumulative IPC: 0.430109 (Simulation time: 0 hr 21 min 19 sec) 
Heartbeat CPU 0 instructions: 510000000 cycles: 999790416 heartbeat IPC: 0.400612 cumulative IPC: 0.429338 (Simulation time: 0 hr 21 min 48 sec) 
Heartbeat CPU 0 instructions: 520000000 cycles: 1020932613 heartbeat IPC: 0.472988 cumulative IPC: 0.430283 (Simulation time: 0 hr 22 min 15 sec) 
Heartbeat CPU 0 instructions: 530000003 cycles: 1046348415 heartbeat IPC: 0.393456 cumulative IPC: 0.429349 (Simulation time: 0 hr 22 min 44 sec) 
Heartbeat CPU 0 instructions: 540000000 cycles: 1069146465 heartbeat IPC: 0.438634 cumulative IPC: 0.429555 (Simulation time: 0 hr 23 min 12 sec) 
Heartbeat CPU 0 instructions: 550000000 cycles: 1094300774 heartbeat IPC: 0.397546 cumulative IPC: 0.428788 (Simulation time: 0 hr 23 min 41 sec) 
Heartbeat CPU 0 instructions: 560000000 cycles: 1117917352 heartbeat IPC: 0.423431 cumulative IPC: 0.42867 (Simulation time: 0 hr 24 min 9 sec) 
Heartbeat CPU 0 instructions: 570000002 cycles: 1141282879 heartbeat IPC: 0.427981 cumulative IPC: 0.428656 (Simulation time: 0 hr 24 min 38 sec) 
Heartbeat CPU 0 instructions: 580000000 cycles: 1162419934 heartbeat IPC: 0.473103 cumulative IPC: 0.429496 (Simulation time: 0 hr 25 min 4 sec) 
Heartbeat CPU 0 instructions: 590000001 cycles: 1186248290 heartbeat IPC: 0.419668 cumulative IPC: 0.429291 (Simulation time: 0 hr 25 min 33 sec) 
Heartbeat CPU 0 instructions: 600000000 cycles: 1205419152 heartbeat IPC: 0.521625 cumulative IPC: 0.430816 (Simulation time: 0 hr 25 min 58 sec) 
Finished CPU 0 instructions: 500000000 cycles: 1160587866 cumulative IPC: 0.430816 (Simulation time: 0 hr 25 min 58 sec) 

CPU 0 Branch Prediction Accuracy: 99.5434% MPKI: 1.33026
Number of Branches: 145676990 Number of Mispredictions: 665128
Number of LOAD Instructions: 188863207
Number of LOAD Instructions (ROI): 188863207
Number of STORE Instructions: 7332002
Number of STORE Instructions (ROI): 7332002
Total Destination Memory Operands: 10029285
Total Destination Memory Operands (ROI): 10029285
Total Source Memory Operands: 188863207
Total Source Memory Operands (ROI): 188863207
Number of DEPENDED LOADS: 292259
Number of DEPENDED LOADS (ROI): 292259
Number of SQ_ADDED: 10029285
Number of SQ_ADDED (ROI): 10029285
Number of LQ_ADDED: 200758804
Number of LQ_ADDED (ROI): 200758804
Number of Instructions read from trace: 600000010

ChampSim completed all CPUs

Region of Interest Statistics

CPU 0 cumulative IPC: 0.430816 instructions: 500000000 cycles: 1160587866
ITLB TOTAL     ACCESS:  145795867  HIT:  145756340  MISS:      39527
ITLB LOAD      ACCESS:  145795867  HIT:  145756340  MISS:      39527
ITLB RFO       ACCESS:          0  HIT:          0  MISS:          0
ITLB PREFETCH  ACCESS:          0  HIT:          0  MISS:          0
ITLB WRITEBACK ACCESS:          0  HIT:          0  MISS:          0
ITLB PREFETCH  REQUESTED:          0  ISSUED:          0  USEFUL:          0  USELESS:          0
ITLB TOTAL MSHR MERGED:      57365
ITLB LOAD MSHR MERGED:      57365
ITLB RFO MSHR MERGED:          0
ITLB PREFETCH MSHR MERGED:          0
ITLB WRITEBACK MSHR MERGED:          0
ITLB TOTAL ACCESSES:  145853232 HITS:  145756340 MISSES:      96892
ITLB LOAD ACCESSES:  145853232 HITS:  145756340 MISSES:      96892
ITLB RFO ACCESSES:          0 HITS:          0 MISSES:          0
ITLB PREFETCH ACCESSES:          0 HITS:          0 MISSES:          0
ITLB WRITEBACK ACCESSES:          0 HITS:          0 MISSES:          0
ITLB RQ ACCESS:  499999754
ITLB RQ TO_CACHE:  145853232
ITLB RQ MERGED:  354146522
ITLB RQ FORWARD:          0
ITLB WQ ACCESS:          0
ITLB WQ TO_CACHE:          0
ITLB WQ MERGED:          0
ITLB WQ FORWARD:          0
DTLB TOTAL     ACCESS:  135178746  HIT:  134010383  MISS:    1168363
DTLB LOAD      ACCESS:  127137729  HIT:  125978472  MISS:    1159257
DTLB RFO       ACCESS:    8041017  HIT:    8031911  MISS:       9106
DTLB PREFETCH  ACCESS:          0  HIT:          0  MISS:          0
DTLB WRITEBACK ACCESS:          0  HIT:          0  MISS:          0
DTLB PREFETCH  REQUESTED:          0  ISSUED:          0  USEFUL:          0  USELESS:          0
DTLB TOTAL MSHR MERGED:     582810
DTLB LOAD MSHR MERGED:     578428
DTLB RFO MSHR MERGED:       4382
DTLB PREFETCH MSHR MERGED:          0
DTLB WRITEBACK MSHR MERGED:          0
DTLB TOTAL ACCESSES:  135761556 HITS:  134010383 MISSES:    1751173
DTLB LOAD ACCESSES:  127716157 HITS:  125978472 MISSES:    1737685
DTLB RFO ACCESSES:    8045399 HITS:    8031911 MISSES:      13488
DTLB PREFETCH ACCESSES:          0 HITS:          0 MISSES:          0
DTLB WRITEBACK ACCESSES:          0 HITS:          0 MISSES:          0
DTLB RQ ACCESS:  165762072
DTLB RQ TO_CACHE:  135761556
DTLB RQ MERGED:   30000516
DTLB RQ FORWARD:          0
DTLB WQ ACCESS:          0
DTLB WQ TO_CACHE:          0
DTLB WQ MERGED:          0
DTLB WQ FORWARD:          0
L1D TOTAL     ACCESS:  156925475  HIT:  139609797  MISS:   17315678
L1D LOAD      ACCESS:   89981298  HIT:   78833965  MISS:   11147333
L1D RFO       ACCESS:    8497773  HIT:    8410600  MISS:      87173
L1D PREFETCH  ACCESS:   58446404  HIT:   52365232  MISS:    6081172
L1D WRITEBACK ACCESS:          0  HIT:          0  MISS:          0
L1D PREFETCH  REQUESTED:   93713625  ISSUED:   92846217  USEFUL:    1999749  USELESS:    4081497
L1D TOTAL MSHR MERGED:   15128310
L1D LOAD MSHR MERGED:    7132865
L1D RFO MSHR MERGED:     126846
L1D PREFETCH MSHR MERGED:    7868599
L1D WRITEBACK MSHR MERGED:          0
L1D TOTAL ACCESSES:  172053942 HITS:  139609953 MISSES:   32443989
L1D LOAD ACCESSES:   93713628 HITS:   78833968 MISSES:   14879660
L1D RFO ACCESSES:    8622758 HITS:    8410600 MISSES:     212158
L1D PREFETCH ACCESSES:   69717556 HITS:   52365385 MISSES:   17352171
L1D WRITEBACK ACCESSES:          0 HITS:          0 MISSES:          0
L1D RQ ACCESS:  157122866
L1D RQ TO_CACHE:   93713625
L1D RQ MERGED:   63409238
L1D RQ FORWARD:          0
L1D WQ ACCESS:    8639208
L1D WQ TO_CACHE:    8622758
L1D WQ MERGED:      16450
L1D WQ FORWARD:        156
L1I TOTAL     ACCESS:  178790074  HIT:  178126391  MISS:     663683
L1I LOAD      ACCESS:  178790074  HIT:  178126391  MISS:     663683
L1I RFO       ACCESS:          0  HIT:          0  MISS:          0
L1I PREFETCH  ACCESS:          0  HIT:          0  MISS:          0
L1I WRITEBACK ACCESS:          0  HIT:          0  MISS:          0
L1I PREFETCH  REQUESTED:          0  ISSUED:          0  USEFUL:          0  USELESS:          0
L1I TOTAL MSHR MERGED:     597958
L1I LOAD MSHR MERGED:     597958
L1I RFO MSHR MERGED:          0
L1I PREFETCH MSHR MERGED:          0
L1I WRITEBACK MSHR MERGED:          0
L1I TOTAL ACCESSES:  179388032 HITS:  178126391 MISSES:    1261641
L1I LOAD ACCESSES:  179388032 HITS:  178126391 MISSES:    1261641
L1I RFO ACCESSES:          0 HITS:          0 MISSES:          0
L1I PREFETCH ACCESSES:          0 HITS:          0 MISSES:          0
L1I WRITEBACK ACCESSES:          0 HITS:          0 MISSES:          0
L1I RQ ACCESS:  499999757
L1I RQ TO_CACHE:  179388032
L1I RQ MERGED:  320611725
L1I RQ FORWARD:          0
L1I WQ ACCESS:          0
L1I WQ TO_CACHE:          0
L1I WQ MERGED:          0
L1I WQ FORWARD:          0
L2C TOTAL     ACCESS:   19276685  HIT:    2057121  MISS:   17219564
L2C LOAD      ACCESS:    8410378  HIT:     951103  MISS:    7459275
L2C RFO       ACCESS:      85288  HIT:      53728  MISS:      31560
L2C PREFETCH  ACCESS:   10496013  HIT:     770095  MISS:    9725918
L2C WRITEBACK ACCESS:     285006  HIT:     282195  MISS:       2811
L2C PREFETCH  REQUESTED:    1016941  ISSUED:    1016941  USEFUL:     274749  USELESS:    9450270
L2C TOTAL MSHR MERGED:       1100
L2C LOAD MSHR MERGED:        235
L2C RFO MSHR MERGED:          1
L2C PREFETCH MSHR MERGED:        864
L2C WRITEBACK MSHR MERGED:          0
L2C TOTAL ACCESSES:   19280038 HITS:    2057311 MISSES:   17222727
L2C LOAD ACCESSES:    8410478 HITS:     951203 MISSES:    7459275
L2C RFO ACCESSES:      85312 HITS:      53752 MISSES:      31560
L2C PREFETCH ACCESSES:   10499242 HITS:     770161 MISSES:    9729081
L2C WRITEBACK ACCESSES:     285006 HITS:     282195 MISSES:       2811
L2C RQ ACCESS:    8495790
L2C RQ TO_CACHE:    8495666
L2C RQ MERGED:          0
L2C RQ FORWARD:          0
L2C WQ ACCESS:     285006
L2C WQ TO_CACHE:     285006
L2C WQ MERGED:          0
L2C WQ FORWARD:        190
LLC TOTAL     ACCESS:   17324875  HIT:    4991214  MISS:   12333661
LLC LOAD      ACCESS:    7459040  HIT:    4117089  MISS:    3341951
LLC RFO       ACCESS:      31559  HIT:      13679  MISS:      17880
LLC PREFETCH  ACCESS:    9728215  HIT:     768626  MISS:    8959589
LLC WRITEBACK ACCESS:     106061  HIT:      91820  MISS:      14241
LLC PREFETCH  REQUESTED:          0  ISSUED:          0  USEFUL:       1896  USELESS:    8956939
LLC TOTAL MSHR MERGED:          1
LLC LOAD MSHR MERGED:          0
LLC RFO MSHR MERGED:          0
LLC PREFETCH MSHR MERGED:          1
LLC WRITEBACK MSHR MERGED:          0
LLC TOTAL ACCESSES:   17324877 HITS:    4991214 MISSES:   12333663
LLC LOAD ACCESSES:    7459040 HITS:    4117089 MISSES:    3341951
LLC RFO ACCESSES:      31559 HITS:      13679 MISSES:      17880
LLC PREFETCH ACCESSES:    9728217 HITS:     768626 MISSES:    8959591
LLC WRITEBACK ACCESSES:     106061 HITS:      91820 MISSES:      14241
LLC 0 RQ ACCESS:    7490599
LLC 0 RQ TO_CACHE:    7490599
LLC 0 RQ MERGED:          0
LLC 0 RQ FORWARD:          0
LLC WQ ACCESS:     106061
LLC WQ TO_CACHE:     106061
LLC WQ MERGED:          0
LLC WQ FORWARD:          0
Major fault: 0 Minor fault: 6432
CPU 0 L1D next line prefetcher final stats
CPU 0 L2C PC-based stride prefetcher final stats
All Misses: 14566921
All Hits: 5977656
SD Algo Stats - Switches: 0 SRR-Repls: 3569607 BRR-Repls: 0

DRAM Statistics
 CHANNEL 0
 RQ ROW_BUFFER_HIT:    9283388  ROW_BUFFER_MISS:    3030130
 DBUS_CONGESTED:    5697317
 WQ ROW_BUFFER_HIT:       1624  ROW_BUFFER_MISS:      52936  FULL:          0

 AVG_CONGESTED_CYCLE: 12
LOADS RETIRED: 157382665
INSTR RETIRED: 500000000
