
*** ChampSim Multicore Out-of-Order Simulator ***

Warmup Instructions: 100000000
Simulation Instructions: 500000000
Number of CPUs: 1
LLC sets: 2048
LLC ways: 16
Clean RRIP Policies: 1200131212001312 Dirty RRIP Policies: 210030202100302 PSEL Width: 10 Track Set: 4294967295 PSEL Mask: 1 Demote Mask: 2013014420130144DS Algo: 0Window size: 0
Off-chip DRAM Size: 4096 MB Channels: 1 Width: 64-bit Data Rate: 1600 MT/s

CPU 0 runs /mnt/beegfs/iconst01/spec2017/Gcc.trace.gz
NOT SORTED
TRACE STRING: /mnt/beegfs/iconst01/spec2017/Gcc.trace.gz
SORTED
TRACE STRING: /mnt/beegfs/iconst01/spec2017/Gcc.trace.gz
INITIAL
TRACE STRING: /mnt/beegfs/iconst01/spec2017/Gcc.trace.gz

champsim_seed used: 269

CPU 0 L1D next line prefetcher
CPU 0 L2C IP-based stride prefetcher
Initialize DRRIP state
Assign rand_sets[0]: 454  LLC: 2048
rand_sets[0]: 454
Assign rand_sets[1]: 1662  LLC: 2048
rand_sets[1]: 1662
Assign rand_sets[2]: 1921  LLC: 2048
rand_sets[2]: 1921
Assign rand_sets[3]: 1131  LLC: 2048
rand_sets[3]: 1131
Assign rand_sets[4]: 331  LLC: 2048
rand_sets[4]: 331
Assign rand_sets[5]: 1531  LLC: 2048
rand_sets[5]: 1531
Assign rand_sets[6]: 482  LLC: 2048
rand_sets[6]: 482
Assign rand_sets[7]: 1275  LLC: 2048
rand_sets[7]: 1275
Assign rand_sets[8]: 1876  LLC: 2048
rand_sets[8]: 1876
Assign rand_sets[9]: 2038  LLC: 2048
rand_sets[9]: 2038
Assign rand_sets[10]: 701  LLC: 2048
rand_sets[10]: 701
Assign rand_sets[11]: 479  LLC: 2048
rand_sets[11]: 479
Assign rand_sets[12]: 892  LLC: 2048
rand_sets[12]: 892
Assign rand_sets[13]: 1820  LLC: 2048
rand_sets[13]: 1820
Assign rand_sets[14]: 1505  LLC: 2048
rand_sets[14]: 1505
Assign rand_sets[15]: 1159  LLC: 2048
rand_sets[15]: 1159
Assign rand_sets[16]: 513  LLC: 2048
rand_sets[16]: 513
Assign rand_sets[17]: 703  LLC: 2048
rand_sets[17]: 703
Assign rand_sets[18]: 561  LLC: 2048
rand_sets[18]: 561
Assign rand_sets[19]: 990  LLC: 2048
rand_sets[19]: 990
Assign rand_sets[20]: 342  LLC: 2048
rand_sets[20]: 342
Assign rand_sets[21]: 882  LLC: 2048
rand_sets[21]: 882
Assign rand_sets[22]: 15  LLC: 2048
rand_sets[22]: 15
Assign rand_sets[23]: 71  LLC: 2048
rand_sets[23]: 71
Assign rand_sets[24]: 1127  LLC: 2048
rand_sets[24]: 1127
Assign rand_sets[25]: 1382  LLC: 2048
rand_sets[25]: 1382
Assign rand_sets[26]: 647  LLC: 2048
rand_sets[26]: 647
Assign rand_sets[27]: 857  LLC: 2048
rand_sets[27]: 857
Assign rand_sets[28]: 1450  LLC: 2048
rand_sets[28]: 1450
Assign rand_sets[29]: 1160  LLC: 2048
rand_sets[29]: 1160
Assign rand_sets[30]: 1852  LLC: 2048
rand_sets[30]: 1852
Assign rand_sets[31]: 1881  LLC: 2048
rand_sets[31]: 1881
Assign rand_sets[32]: 1770  LLC: 2048
rand_sets[32]: 1770
Assign rand_sets[33]: 1622  LLC: 2048
rand_sets[33]: 1622
Assign rand_sets[34]: 275  LLC: 2048
rand_sets[34]: 275
Assign rand_sets[35]: 635  LLC: 2048
rand_sets[35]: 635
Assign rand_sets[36]: 466  LLC: 2048
rand_sets[36]: 466
Assign rand_sets[37]: 1413  LLC: 2048
rand_sets[37]: 1413
Assign rand_sets[38]: 417  LLC: 2048
rand_sets[38]: 417
Assign rand_sets[39]: 472  LLC: 2048
rand_sets[39]: 472
Assign rand_sets[40]: 1340  LLC: 2048
rand_sets[40]: 1340
Assign rand_sets[41]: 852  LLC: 2048
rand_sets[41]: 852
Assign rand_sets[42]: 1365  LLC: 2048
rand_sets[42]: 1365
Assign rand_sets[43]: 47  LLC: 2048
rand_sets[43]: 47
Assign rand_sets[44]: 823  LLC: 2048
rand_sets[44]: 823
Assign rand_sets[45]: 686  LLC: 2048
rand_sets[45]: 686
Assign rand_sets[46]: 1637  LLC: 2048
rand_sets[46]: 1637
Assign rand_sets[47]: 1115  LLC: 2048
rand_sets[47]: 1115
Assign rand_sets[48]: 986  LLC: 2048
rand_sets[48]: 986
Assign rand_sets[49]: 258  LLC: 2048
rand_sets[49]: 258
Assign rand_sets[50]: 633  LLC: 2048
rand_sets[50]: 633
Assign rand_sets[51]: 920  LLC: 2048
rand_sets[51]: 920
Assign rand_sets[52]: 204  LLC: 2048
rand_sets[52]: 204
Assign rand_sets[53]: 227  LLC: 2048
rand_sets[53]: 227
Assign rand_sets[54]: 1818  LLC: 2048
rand_sets[54]: 1818
Assign rand_sets[55]: 886  LLC: 2048
rand_sets[55]: 886
Assign rand_sets[56]: 1422  LLC: 2048
rand_sets[56]: 1422
Assign rand_sets[57]: 607  LLC: 2048
rand_sets[57]: 607
Assign rand_sets[58]: 217  LLC: 2048
rand_sets[58]: 217
Assign rand_sets[59]: 1945  LLC: 2048
rand_sets[59]: 1945
Assign rand_sets[60]: 143  LLC: 2048
rand_sets[60]: 143
Assign rand_sets[61]: 1311  LLC: 2048
rand_sets[61]: 1311
Assign rand_sets[62]: 319  LLC: 2048
rand_sets[62]: 319
Assign rand_sets[63]: 1846  LLC: 2048
rand_sets[63]: 1846
 CLEAN-RRIP-POLICY-1: 1-2-0-0-1-3-1-2- CLEAN-RRIP-POLICY-2: 1-2-0-0-1-3-1-2-
 DIRTY-RRIP-POLICY-1: 0-2-1-0-0-3-0-2- DIRTY-RRIP-POLICY-2: 0-2-1-0-0-3-0-2-
 PSEL width: 10
Heartbeat CPU 0 instructions: 10000001 cycles: 7315911 heartbeat IPC: 1.36688 cumulative IPC: 1.36688 (Simulation time: 0 hr 0 min 15 sec) 
Heartbeat CPU 0 instructions: 20000000 cycles: 14308351 heartbeat IPC: 1.43012 cumulative IPC: 1.39779 (Simulation time: 0 hr 0 min 30 sec) 
Heartbeat CPU 0 instructions: 30000001 cycles: 21022067 heartbeat IPC: 1.48949 cumulative IPC: 1.42707 (Simulation time: 0 hr 0 min 47 sec) 
Heartbeat CPU 0 instructions: 40000000 cycles: 27483038 heartbeat IPC: 1.54775 cumulative IPC: 1.45544 (Simulation time: 0 hr 1 min 3 sec) 
Heartbeat CPU 0 instructions: 50000001 cycles: 33585021 heartbeat IPC: 1.63881 cumulative IPC: 1.48876 (Simulation time: 0 hr 1 min 19 sec) 
Heartbeat CPU 0 instructions: 60000000 cycles: 40066402 heartbeat IPC: 1.54288 cumulative IPC: 1.49751 (Simulation time: 0 hr 1 min 35 sec) 
Heartbeat CPU 0 instructions: 70000000 cycles: 47106958 heartbeat IPC: 1.42034 cumulative IPC: 1.48598 (Simulation time: 0 hr 1 min 51 sec) 
Heartbeat CPU 0 instructions: 80000000 cycles: 54198630 heartbeat IPC: 1.4101 cumulative IPC: 1.47605 (Simulation time: 0 hr 2 min 6 sec) 
Heartbeat CPU 0 instructions: 90000003 cycles: 61204767 heartbeat IPC: 1.42732 cumulative IPC: 1.47047 (Simulation time: 0 hr 2 min 21 sec) 
Heartbeat CPU 0 instructions: 100000000 cycles: 68373627 heartbeat IPC: 1.39492 cumulative IPC: 1.46255 (Simulation time: 0 hr 2 min 36 sec) 

Warmup complete CPU 0 instructions: 100000004 cycles: 68373628 (Simulation time: 0 hr 2 min 36 sec) 

Heartbeat CPU 0 instructions: 110000003 cycles: 96299725 heartbeat IPC: 0.358088 cumulative IPC: 0.358088 (Simulation time: 0 hr 3 min 6 sec) 
Heartbeat CPU 0 instructions: 120000000 cycles: 123855526 heartbeat IPC: 0.3629 cumulative IPC: 0.360478 (Simulation time: 0 hr 3 min 36 sec) 
Heartbeat CPU 0 instructions: 130000000 cycles: 148935407 heartbeat IPC: 0.398726 cumulative IPC: 0.372385 (Simulation time: 0 hr 4 min 6 sec) 
Heartbeat CPU 0 instructions: 140000000 cycles: 178992241 heartbeat IPC: 0.332703 cumulative IPC: 0.361603 (Simulation time: 0 hr 4 min 35 sec) 
Heartbeat CPU 0 instructions: 150000000 cycles: 209169805 heartbeat IPC: 0.331372 cumulative IPC: 0.355123 (Simulation time: 0 hr 5 min 5 sec) 
Heartbeat CPU 0 instructions: 160000000 cycles: 236705539 heartbeat IPC: 0.363164 cumulative IPC: 0.356439 (Simulation time: 0 hr 5 min 34 sec) 
Heartbeat CPU 0 instructions: 170000001 cycles: 264851208 heartbeat IPC: 0.355294 cumulative IPC: 0.356275 (Simulation time: 0 hr 6 min 5 sec) 
Heartbeat CPU 0 instructions: 180000000 cycles: 293476585 heartbeat IPC: 0.34934 cumulative IPC: 0.355393 (Simulation time: 0 hr 6 min 35 sec) 
Heartbeat CPU 0 instructions: 190000002 cycles: 321700207 heartbeat IPC: 0.354313 cumulative IPC: 0.355273 (Simulation time: 0 hr 7 min 5 sec) 
Heartbeat CPU 0 instructions: 200000000 cycles: 350229774 heartbeat IPC: 0.350513 cumulative IPC: 0.354791 (Simulation time: 0 hr 7 min 36 sec) 
Heartbeat CPU 0 instructions: 210000002 cycles: 378272138 heartbeat IPC: 0.356603 cumulative IPC: 0.354955 (Simulation time: 0 hr 8 min 6 sec) 
Heartbeat CPU 0 instructions: 220000000 cycles: 407907286 heartbeat IPC: 0.337437 cumulative IPC: 0.353426 (Simulation time: 0 hr 8 min 35 sec) 
Heartbeat CPU 0 instructions: 230000000 cycles: 435663330 heartbeat IPC: 0.360282 cumulative IPC: 0.353944 (Simulation time: 0 hr 9 min 4 sec) 
Heartbeat CPU 0 instructions: 240000000 cycles: 461762235 heartbeat IPC: 0.383158 cumulative IPC: 0.355882 (Simulation time: 0 hr 9 min 32 sec) 
Heartbeat CPU 0 instructions: 250000000 cycles: 492060343 heartbeat IPC: 0.330054 cumulative IPC: 0.354035 (Simulation time: 0 hr 10 min 3 sec) 
Heartbeat CPU 0 instructions: 260000000 cycles: 519239625 heartbeat IPC: 0.367927 cumulative IPC: 0.354873 (Simulation time: 0 hr 10 min 33 sec) 
Heartbeat CPU 0 instructions: 270000003 cycles: 547792541 heartbeat IPC: 0.350227 cumulative IPC: 0.354596 (Simulation time: 0 hr 11 min 4 sec) 
Heartbeat CPU 0 instructions: 280000000 cycles: 576146496 heartbeat IPC: 0.352684 cumulative IPC: 0.354489 (Simulation time: 0 hr 11 min 35 sec) 
Heartbeat CPU 0 instructions: 290000000 cycles: 605171700 heartbeat IPC: 0.344528 cumulative IPC: 0.353951 (Simulation time: 0 hr 12 min 6 sec) 
Heartbeat CPU 0 instructions: 300000000 cycles: 635562076 heartbeat IPC: 0.329052 cumulative IPC: 0.352616 (Simulation time: 0 hr 12 min 35 sec) 
Heartbeat CPU 0 instructions: 310000001 cycles: 665226296 heartbeat IPC: 0.337106 cumulative IPC: 0.351846 (Simulation time: 0 hr 13 min 5 sec) 
Heartbeat CPU 0 instructions: 320000000 cycles: 693766689 heartbeat IPC: 0.350381 cumulative IPC: 0.351779 (Simulation time: 0 hr 13 min 34 sec) 
Heartbeat CPU 0 instructions: 330000000 cycles: 722663836 heartbeat IPC: 0.346055 cumulative IPC: 0.351526 (Simulation time: 0 hr 14 min 4 sec) 
Heartbeat CPU 0 instructions: 340000000 cycles: 752193327 heartbeat IPC: 0.338645 cumulative IPC: 0.35097 (Simulation time: 0 hr 14 min 34 sec) 
Heartbeat CPU 0 instructions: 350000003 cycles: 779436316 heartbeat IPC: 0.367067 cumulative IPC: 0.351586 (Simulation time: 0 hr 15 min 3 sec) 
