
*** ChampSim Multicore Out-of-Order Simulator ***

Warmup Instructions: 100000000
Simulation Instructions: 500000000
Number of CPUs: 1
LLC sets: 2048
LLC ways: 16
Clean RRIP Policies: 1013010110130101 Dirty RRIP Policies: 1013110110131101 PSEL Width: 10 Track Set: 4294967295 PSEL Mask: 1 Demote Mask: 3000210430002104DS Algo: 0Window size: 0
Off-chip DRAM Size: 4096 MB Channels: 1 Width: 64-bit Data Rate: 1600 MT/s

CPU 0 runs /mnt/beegfs/iconst01/spec2017/Gcc.trace.gz
NOT SORTED
TRACE STRING: /mnt/beegfs/iconst01/spec2017/Gcc.trace.gz
SORTED
TRACE STRING: /mnt/beegfs/iconst01/spec2017/Gcc.trace.gz
INITIAL
TRACE STRING: /mnt/beegfs/iconst01/spec2017/Gcc.trace.gz

champsim_seed used: 269

CPU 0 L1D next line prefetcher
CPU 0 L2C IP-based stride prefetcher
Initialize DRRIP state
Assign rand_sets[0]: 454  LLC: 2048
rand_sets[0]: 454
Assign rand_sets[1]: 1662  LLC: 2048
rand_sets[1]: 1662
Assign rand_sets[2]: 1921  LLC: 2048
rand_sets[2]: 1921
Assign rand_sets[3]: 1131  LLC: 2048
rand_sets[3]: 1131
Assign rand_sets[4]: 331  LLC: 2048
rand_sets[4]: 331
Assign rand_sets[5]: 1531  LLC: 2048
rand_sets[5]: 1531
Assign rand_sets[6]: 482  LLC: 2048
rand_sets[6]: 482
Assign rand_sets[7]: 1275  LLC: 2048
rand_sets[7]: 1275
Assign rand_sets[8]: 1876  LLC: 2048
rand_sets[8]: 1876
Assign rand_sets[9]: 2038  LLC: 2048
rand_sets[9]: 2038
Assign rand_sets[10]: 701  LLC: 2048
rand_sets[10]: 701
Assign rand_sets[11]: 479  LLC: 2048
rand_sets[11]: 479
Assign rand_sets[12]: 892  LLC: 2048
rand_sets[12]: 892
Assign rand_sets[13]: 1820  LLC: 2048
rand_sets[13]: 1820
Assign rand_sets[14]: 1505  LLC: 2048
rand_sets[14]: 1505
Assign rand_sets[15]: 1159  LLC: 2048
rand_sets[15]: 1159
Assign rand_sets[16]: 513  LLC: 2048
rand_sets[16]: 513
Assign rand_sets[17]: 703  LLC: 2048
rand_sets[17]: 703
Assign rand_sets[18]: 561  LLC: 2048
rand_sets[18]: 561
Assign rand_sets[19]: 990  LLC: 2048
rand_sets[19]: 990
Assign rand_sets[20]: 342  LLC: 2048
rand_sets[20]: 342
Assign rand_sets[21]: 882  LLC: 2048
rand_sets[21]: 882
Assign rand_sets[22]: 15  LLC: 2048
rand_sets[22]: 15
Assign rand_sets[23]: 71  LLC: 2048
rand_sets[23]: 71
Assign rand_sets[24]: 1127  LLC: 2048
rand_sets[24]: 1127
Assign rand_sets[25]: 1382  LLC: 2048
rand_sets[25]: 1382
Assign rand_sets[26]: 647  LLC: 2048
rand_sets[26]: 647
Assign rand_sets[27]: 857  LLC: 2048
rand_sets[27]: 857
Assign rand_sets[28]: 1450  LLC: 2048
rand_sets[28]: 1450
Assign rand_sets[29]: 1160  LLC: 2048
rand_sets[29]: 1160
Assign rand_sets[30]: 1852  LLC: 2048
rand_sets[30]: 1852
Assign rand_sets[31]: 1881  LLC: 2048
rand_sets[31]: 1881
Assign rand_sets[32]: 1770  LLC: 2048
rand_sets[32]: 1770
Assign rand_sets[33]: 1622  LLC: 2048
rand_sets[33]: 1622
Assign rand_sets[34]: 275  LLC: 2048
rand_sets[34]: 275
Assign rand_sets[35]: 635  LLC: 2048
rand_sets[35]: 635
Assign rand_sets[36]: 466  LLC: 2048
rand_sets[36]: 466
Assign rand_sets[37]: 1413  LLC: 2048
rand_sets[37]: 1413
Assign rand_sets[38]: 417  LLC: 2048
rand_sets[38]: 417
Assign rand_sets[39]: 472  LLC: 2048
rand_sets[39]: 472
Assign rand_sets[40]: 1340  LLC: 2048
rand_sets[40]: 1340
Assign rand_sets[41]: 852  LLC: 2048
rand_sets[41]: 852
Assign rand_sets[42]: 1365  LLC: 2048
rand_sets[42]: 1365
Assign rand_sets[43]: 47  LLC: 2048
rand_sets[43]: 47
Assign rand_sets[44]: 823  LLC: 2048
rand_sets[44]: 823
Assign rand_sets[45]: 686  LLC: 2048
rand_sets[45]: 686
Assign rand_sets[46]: 1637  LLC: 2048
rand_sets[46]: 1637
Assign rand_sets[47]: 1115  LLC: 2048
rand_sets[47]: 1115
Assign rand_sets[48]: 986  LLC: 2048
rand_sets[48]: 986
Assign rand_sets[49]: 258  LLC: 2048
rand_sets[49]: 258
Assign rand_sets[50]: 633  LLC: 2048
rand_sets[50]: 633
Assign rand_sets[51]: 920  LLC: 2048
rand_sets[51]: 920
Assign rand_sets[52]: 204  LLC: 2048
rand_sets[52]: 204
Assign rand_sets[53]: 227  LLC: 2048
rand_sets[53]: 227
Assign rand_sets[54]: 1818  LLC: 2048
rand_sets[54]: 1818
Assign rand_sets[55]: 886  LLC: 2048
rand_sets[55]: 886
Assign rand_sets[56]: 1422  LLC: 2048
rand_sets[56]: 1422
Assign rand_sets[57]: 607  LLC: 2048
rand_sets[57]: 607
Assign rand_sets[58]: 217  LLC: 2048
rand_sets[58]: 217
Assign rand_sets[59]: 1945  LLC: 2048
rand_sets[59]: 1945
Assign rand_sets[60]: 143  LLC: 2048
rand_sets[60]: 143
Assign rand_sets[61]: 1311  LLC: 2048
rand_sets[61]: 1311
Assign rand_sets[62]: 319  LLC: 2048
rand_sets[62]: 319
Assign rand_sets[63]: 1846  LLC: 2048
rand_sets[63]: 1846
 CLEAN-RRIP-POLICY-1: 1-0-1-3-0-1-0-1- CLEAN-RRIP-POLICY-2: 1-0-1-3-0-1-0-1-
 DIRTY-RRIP-POLICY-1: 1-0-1-3-1-1-0-1- DIRTY-RRIP-POLICY-2: 1-0-1-3-1-1-0-1-
 PSEL width: 10
Heartbeat CPU 0 instructions: 10000001 cycles: 7315981 heartbeat IPC: 1.36687 cumulative IPC: 1.36687 (Simulation time: 0 hr 0 min 17 sec) 
Heartbeat CPU 0 instructions: 20000000 cycles: 14307480 heartbeat IPC: 1.43031 cumulative IPC: 1.39787 (Simulation time: 0 hr 0 min 35 sec) 
Heartbeat CPU 0 instructions: 30000001 cycles: 21020302 heartbeat IPC: 1.48969 cumulative IPC: 1.42719 (Simulation time: 0 hr 0 min 54 sec) 
Heartbeat CPU 0 instructions: 40000000 cycles: 27481062 heartbeat IPC: 1.54781 cumulative IPC: 1.45555 (Simulation time: 0 hr 1 min 13 sec) 
Heartbeat CPU 0 instructions: 50000001 cycles: 33582721 heartbeat IPC: 1.6389 cumulative IPC: 1.48886 (Simulation time: 0 hr 1 min 31 sec) 
Heartbeat CPU 0 instructions: 60000000 cycles: 40063842 heartbeat IPC: 1.54294 cumulative IPC: 1.49761 (Simulation time: 0 hr 1 min 50 sec) 
Heartbeat CPU 0 instructions: 70000000 cycles: 47101887 heartbeat IPC: 1.42085 cumulative IPC: 1.48614 (Simulation time: 0 hr 2 min 7 sec) 
Heartbeat CPU 0 instructions: 80000000 cycles: 54191353 heartbeat IPC: 1.41054 cumulative IPC: 1.47625 (Simulation time: 0 hr 2 min 24 sec) 
Heartbeat CPU 0 instructions: 90000003 cycles: 61195598 heartbeat IPC: 1.42771 cumulative IPC: 1.47069 (Simulation time: 0 hr 2 min 42 sec) 
Heartbeat CPU 0 instructions: 100000000 cycles: 68362643 heartbeat IPC: 1.39527 cumulative IPC: 1.46279 (Simulation time: 0 hr 2 min 59 sec) 

Warmup complete CPU 0 instructions: 100000004 cycles: 68362644 (Simulation time: 0 hr 2 min 59 sec) 

Heartbeat CPU 0 instructions: 110000003 cycles: 95959386 heartbeat IPC: 0.362362 cumulative IPC: 0.362362 (Simulation time: 0 hr 3 min 33 sec) 
Heartbeat CPU 0 instructions: 120000000 cycles: 123401528 heartbeat IPC: 0.364403 cumulative IPC: 0.363379 (Simulation time: 0 hr 4 min 7 sec) 
Heartbeat CPU 0 instructions: 130000000 cycles: 148361674 heartbeat IPC: 0.400639 cumulative IPC: 0.375005 (Simulation time: 0 hr 4 min 41 sec) 
Heartbeat CPU 0 instructions: 140000000 cycles: 177757778 heartbeat IPC: 0.340181 cumulative IPC: 0.365647 (Simulation time: 0 hr 5 min 15 sec) 
Heartbeat CPU 0 instructions: 150000000 cycles: 207557588 heartbeat IPC: 0.335573 cumulative IPC: 0.359208 (Simulation time: 0 hr 5 min 49 sec) 
Heartbeat CPU 0 instructions: 160000000 cycles: 234945422 heartbeat IPC: 0.365126 cumulative IPC: 0.360181 (Simulation time: 0 hr 6 min 22 sec) 
Heartbeat CPU 0 instructions: 170000001 cycles: 262922697 heartbeat IPC: 0.357433 cumulative IPC: 0.359786 (Simulation time: 0 hr 6 min 57 sec) 
Heartbeat CPU 0 instructions: 180000000 cycles: 291318598 heartbeat IPC: 0.352163 cumulative IPC: 0.358815 (Simulation time: 0 hr 7 min 32 sec) 
Heartbeat CPU 0 instructions: 190000002 cycles: 319269041 heartbeat IPC: 0.357776 cumulative IPC: 0.3587 (Simulation time: 0 hr 8 min 6 sec) 
Heartbeat CPU 0 instructions: 200000000 cycles: 347567960 heartbeat IPC: 0.35337 cumulative IPC: 0.358159 (Simulation time: 0 hr 8 min 41 sec) 
Heartbeat CPU 0 instructions: 210000002 cycles: 375352501 heartbeat IPC: 0.359912 cumulative IPC: 0.358318 (Simulation time: 0 hr 9 min 15 sec) 
Heartbeat CPU 0 instructions: 220000000 cycles: 404405301 heartbeat IPC: 0.344201 cumulative IPC: 0.357098 (Simulation time: 0 hr 9 min 48 sec) 
Heartbeat CPU 0 instructions: 230000000 cycles: 431902148 heartbeat IPC: 0.363678 cumulative IPC: 0.357595 (Simulation time: 0 hr 10 min 21 sec) 
Heartbeat CPU 0 instructions: 240000000 cycles: 457794130 heartbeat IPC: 0.38622 cumulative IPC: 0.359498 (Simulation time: 0 hr 10 min 54 sec) 
Heartbeat CPU 0 instructions: 250000000 cycles: 487896924 heartbeat IPC: 0.332195 cumulative IPC: 0.357539 (Simulation time: 0 hr 11 min 29 sec) 
Heartbeat CPU 0 instructions: 260000000 cycles: 514966629 heartbeat IPC: 0.369417 cumulative IPC: 0.358259 (Simulation time: 0 hr 12 min 3 sec) 
Heartbeat CPU 0 instructions: 270000003 cycles: 543335894 heartbeat IPC: 0.352494 cumulative IPC: 0.357915 (Simulation time: 0 hr 12 min 38 sec) 
Heartbeat CPU 0 instructions: 280000000 cycles: 571463858 heartbeat IPC: 0.355518 cumulative IPC: 0.357781 (Simulation time: 0 hr 13 min 13 sec) 
Heartbeat CPU 0 instructions: 290000000 cycles: 600303406 heartbeat IPC: 0.346746 cumulative IPC: 0.357183 (Simulation time: 0 hr 13 min 49 sec) 
Heartbeat CPU 0 instructions: 300000000 cycles: 630093625 heartbeat IPC: 0.335681 cumulative IPC: 0.356042 (Simulation time: 0 hr 14 min 22 sec) 
Heartbeat CPU 0 instructions: 310000001 cycles: 659423795 heartbeat IPC: 0.340946 cumulative IPC: 0.355293 (Simulation time: 0 hr 14 min 56 sec) 
Heartbeat CPU 0 instructions: 320000000 cycles: 687539079 heartbeat IPC: 0.355678 cumulative IPC: 0.355311 (Simulation time: 0 hr 15 min 29 sec) 
Heartbeat CPU 0 instructions: 330000000 cycles: 716119142 heartbeat IPC: 0.349894 cumulative IPC: 0.355072 (Simulation time: 0 hr 16 min 3 sec) 
Heartbeat CPU 0 instructions: 340000000 cycles: 745334377 heartbeat IPC: 0.342287 cumulative IPC: 0.35452 (Simulation time: 0 hr 16 min 37 sec) 
Heartbeat CPU 0 instructions: 350000003 cycles: 772321587 heartbeat IPC: 0.370546 cumulative IPC: 0.355134 (Simulation time: 0 hr 17 min 11 sec) 
Heartbeat CPU 0 instructions: 360000000 cycles: 800381042 heartbeat IPC: 0.356386 cumulative IPC: 0.355182 (Simulation time: 0 hr 17 min 43 sec) 
Heartbeat CPU 0 instructions: 370000000 cycles: 828547909 heartbeat IPC: 0.355027 cumulative IPC: 0.355177 (Simulation time: 0 hr 18 min 15 sec) 
Heartbeat CPU 0 instructions: 380000000 cycles: 857035482 heartbeat IPC: 0.35103 cumulative IPC: 0.355027 (Simulation time: 0 hr 18 min 48 sec) 
Heartbeat CPU 0 instructions: 390000001 cycles: 884635986 heartbeat IPC: 0.362312 cumulative IPC: 0.355273 (Simulation time: 0 hr 19 min 20 sec) 
Heartbeat CPU 0 instructions: 400000000 cycles: 913260247 heartbeat IPC: 0.349354 cumulative IPC: 0.355073 (Simulation time: 0 hr 19 min 53 sec) 
Heartbeat CPU 0 instructions: 410000001 cycles: 940558166 heartbeat IPC: 0.366328 cumulative IPC: 0.355425 (Simulation time: 0 hr 20 min 25 sec) 
Heartbeat CPU 0 instructions: 420000000 cycles: 967874076 heartbeat IPC: 0.366087 cumulative IPC: 0.355749 (Simulation time: 0 hr 20 min 57 sec) 
Heartbeat CPU 0 instructions: 430000002 cycles: 995553781 heartbeat IPC: 0.361276 cumulative IPC: 0.355914 (Simulation time: 0 hr 21 min 30 sec) 
Heartbeat CPU 0 instructions: 440000000 cycles: 1025031326 heartbeat IPC: 0.339241 cumulative IPC: 0.3554 (Simulation time: 0 hr 22 min 3 sec) 
Heartbeat CPU 0 instructions: 450000002 cycles: 1054250808 heartbeat IPC: 0.342237 cumulative IPC: 0.35501 (Simulation time: 0 hr 22 min 35 sec) 
Heartbeat CPU 0 instructions: 460000000 cycles: 1081936405 heartbeat IPC: 0.361199 cumulative IPC: 0.355179 (Simulation time: 0 hr 23 min 8 sec) 
Heartbeat CPU 0 instructions: 470000000 cycles: 1109563946 heartbeat IPC: 0.361958 cumulative IPC: 0.355359 (Simulation time: 0 hr 23 min 40 sec) 
Heartbeat CPU 0 instructions: 480000000 cycles: 1137443152 heartbeat IPC: 0.35869 cumulative IPC: 0.355446 (Simulation time: 0 hr 24 min 13 sec) 
Heartbeat CPU 0 instructions: 490000000 cycles: 1165032106 heartbeat IPC: 0.362464 cumulative IPC: 0.355622 (Simulation time: 0 hr 24 min 45 sec) 
Heartbeat CPU 0 instructions: 500000000 cycles: 1193302203 heartbeat IPC: 0.353731 cumulative IPC: 0.355575 (Simulation time: 0 hr 25 min 18 sec) 
Heartbeat CPU 0 instructions: 510000000 cycles: 1228445577 heartbeat IPC: 0.284549 cumulative IPC: 0.353423 (Simulation time: 0 hr 25 min 55 sec) 
Heartbeat CPU 0 instructions: 520000000 cycles: 1256379516 heartbeat IPC: 0.357987 cumulative IPC: 0.35353 (Simulation time: 0 hr 26 min 29 sec) 
Heartbeat CPU 0 instructions: 530000001 cycles: 1285632880 heartbeat IPC: 0.341841 cumulative IPC: 0.353249 (Simulation time: 0 hr 27 min 2 sec) 
Heartbeat CPU 0 instructions: 540000000 cycles: 1313610745 heartbeat IPC: 0.357425 cumulative IPC: 0.353343 (Simulation time: 0 hr 27 min 36 sec) 
Heartbeat CPU 0 instructions: 550000001 cycles: 1342777939 heartbeat IPC: 0.342851 cumulative IPC: 0.353103 (Simulation time: 0 hr 28 min 12 sec) 
Heartbeat CPU 0 instructions: 560000000 cycles: 1368132344 heartbeat IPC: 0.394409 cumulative IPC: 0.353909 (Simulation time: 0 hr 28 min 45 sec) 
Heartbeat CPU 0 instructions: 570000000 cycles: 1397524882 heartbeat IPC: 0.340222 cumulative IPC: 0.353606 (Simulation time: 0 hr 29 min 19 sec) 
Heartbeat CPU 0 instructions: 580000000 cycles: 1425419851 heartbeat IPC: 0.358488 cumulative IPC: 0.353707 (Simulation time: 0 hr 29 min 53 sec) 
Heartbeat CPU 0 instructions: 590000001 cycles: 1450147678 heartbeat IPC: 0.404403 cumulative IPC: 0.354614 (Simulation time: 0 hr 30 min 25 sec) 
Heartbeat CPU 0 instructions: 600000000 cycles: 1476203713 heartbeat IPC: 0.383788 cumulative IPC: 0.355154 (Simulation time: 0 hr 30 min 58 sec) 
Finished CPU 0 instructions: 500000000 cycles: 1407841091 cumulative IPC: 0.355154 (Simulation time: 0 hr 30 min 58 sec) 

CPU 0 Branch Prediction Accuracy: 86.4311% MPKI: 26.2662
Number of Branches: 96788573 Number of Mispredictions: 13133102
Number of LOAD Instructions: 164682285
Number of LOAD Instructions (ROI): 164682285
Number of STORE Instructions: 78194750
Number of STORE Instructions (ROI): 78194750
Total Destination Memory Operands: 83268534
Total Destination Memory Operands (ROI): 83268534
Total Source Memory Operands: 164712438
Total Source Memory Operands (ROI): 164712438
Number of DEPENDED LOADS: 7060218
Number of DEPENDED LOADS (ROI): 7060218
Number of SQ_ADDED: 83268522
Number of SQ_ADDED (ROI): 83268522
Number of LQ_ADDED: 236695834
Number of LQ_ADDED (ROI): 236695834
Number of Instructions read from trace: 600000066

ChampSim completed all CPUs

Region of Interest Statistics

CPU 0 cumulative IPC: 0.355154 instructions: 500000000 cycles: 1407841091
ITLB TOTAL     ACCESS:  100511090  HIT:  100306644  MISS:     204446
ITLB LOAD      ACCESS:  100511090  HIT:  100306644  MISS:     204446
ITLB RFO       ACCESS:          0  HIT:          0  MISS:          0
ITLB PREFETCH  ACCESS:          0  HIT:          0  MISS:          0
ITLB WRITEBACK ACCESS:          0  HIT:          0  MISS:          0
ITLB PREFETCH  REQUESTED:          0  ISSUED:          0  USEFUL:          0  USELESS:          0
ITLB TOTAL MSHR MERGED:     172424
ITLB LOAD MSHR MERGED:     172424
ITLB RFO MSHR MERGED:          0
ITLB PREFETCH MSHR MERGED:          0
ITLB WRITEBACK MSHR MERGED:          0
ITLB TOTAL ACCESSES:  100683514 HITS:  100306644 MISSES:     376870
ITLB LOAD ACCESSES:  100683514 HITS:  100306644 MISSES:     376870
ITLB RFO ACCESSES:          0 HITS:          0 MISSES:          0
ITLB PREFETCH ACCESSES:          0 HITS:          0 MISSES:          0
ITLB WRITEBACK ACCESSES:          0 HITS:          0 MISSES:          0
ITLB RQ ACCESS:  500000057
ITLB RQ TO_CACHE:  100683514
ITLB RQ MERGED:  399316543
ITLB RQ FORWARD:          0
ITLB WQ ACCESS:          0
ITLB WQ TO_CACHE:          0
ITLB WQ MERGED:          0
ITLB WQ FORWARD:          0
DTLB TOTAL     ACCESS:  165335636  HIT:  164701286  MISS:     634350
DTLB LOAD      ACCESS:  106291541  HIT:  105721557  MISS:     569984
DTLB RFO       ACCESS:   59044095  HIT:   58979729  MISS:      64366
DTLB PREFETCH  ACCESS:          0  HIT:          0  MISS:          0
DTLB WRITEBACK ACCESS:          0  HIT:          0  MISS:          0
DTLB PREFETCH  REQUESTED:          0  ISSUED:          0  USEFUL:          0  USELESS:          0
DTLB TOTAL MSHR MERGED:      99984
DTLB LOAD MSHR MERGED:      59452
DTLB RFO MSHR MERGED:      40532
DTLB PREFETCH MSHR MERGED:          0
DTLB WRITEBACK MSHR MERGED:          0
DTLB TOTAL ACCESSES:  165435620 HITS:  164701286 MISSES:     734334
DTLB LOAD ACCESSES:  106350993 HITS:  105721557 MISSES:     629436
DTLB RFO ACCESSES:   59084627 HITS:   58979729 MISSES:     104898
DTLB PREFETCH ACCESSES:          0 HITS:          0 MISSES:          0
DTLB WRITEBACK ACCESSES:          0 HITS:          0 MISSES:          0
DTLB RQ ACCESS:  200310674
DTLB RQ TO_CACHE:  165435620
DTLB RQ MERGED:   34875054
DTLB RQ FORWARD:          0
DTLB WQ ACCESS:          0
DTLB WQ TO_CACHE:          0
DTLB WQ MERGED:          0
DTLB WQ FORWARD:          0
L1D TOTAL     ACCESS:  281825931  HIT:  273916617  MISS:    7909314
L1D LOAD      ACCESS:  110415651  HIT:  107137578  MISS:    3278073
L1D RFO       ACCESS:   67114485  HIT:   66223765  MISS:     890720
L1D PREFETCH  ACCESS:  104295795  HIT:  100555274  MISS:    3740521
L1D WRITEBACK ACCESS:          0  HIT:          0  MISS:          0
L1D PREFETCH  REQUESTED:  110815938  ISSUED:  109116669  USEFUL:    1661280  USELESS:    2079205
L1D TOTAL MSHR MERGED:    2876005
L1D LOAD MSHR MERGED:     497812
L1D RFO MSHR MERGED:    1871621
L1D PREFETCH MSHR MERGED:     506572
L1D WRITEBACK MSHR MERGED:          0
L1D TOTAL ACCESSES:  284729388 HITS:  273944069 MISSES:   10785319
L1D LOAD ACCESSES:  110817394 HITS:  107139034 MISSES:    3678360
L1D RFO ACCESSES:   68974186 HITS:   66223765 MISSES:    2750421
L1D PREFETCH ACCESSES:  104937808 HITS:  100581270 MISSES:    4356538
L1D WRITEBACK ACCESSES:          0 HITS:          0 MISSES:          0
L1D RQ ACCESS:  130758071
L1D RQ TO_CACHE:  110815941
L1D RQ MERGED:   19940674
L1D RQ FORWARD:          0
L1D WQ ACCESS:   69552603
L1D WQ TO_CACHE:   68974187
L1D WQ MERGED:     578416
L1D WQ FORWARD:      27452
L1I TOTAL     ACCESS:  126558797  HIT:  122320244  MISS:    4238553
L1I LOAD      ACCESS:  126558797  HIT:  122320244  MISS:    4238553
L1I RFO       ACCESS:          0  HIT:          0  MISS:          0
L1I PREFETCH  ACCESS:          0  HIT:          0  MISS:          0
L1I WRITEBACK ACCESS:          0  HIT:          0  MISS:          0
L1I PREFETCH  REQUESTED:          0  ISSUED:          0  USEFUL:          0  USELESS:          0
L1I TOTAL MSHR MERGED:    1834511
L1I LOAD MSHR MERGED:    1834511
L1I RFO MSHR MERGED:          0
L1I PREFETCH MSHR MERGED:          0
L1I WRITEBACK MSHR MERGED:          0
L1I TOTAL ACCESSES:  128393311 HITS:  122320244 MISSES:    6073067
L1I LOAD ACCESSES:  128393311 HITS:  122320244 MISSES:    6073067
L1I RFO ACCESSES:          0 HITS:          0 MISSES:          0
L1I PREFETCH ACCESSES:          0 HITS:          0 MISSES:          0
L1I WRITEBACK ACCESSES:          0 HITS:          0 MISSES:          0
L1I RQ ACCESS:  500000057
L1I RQ TO_CACHE:  128393311
L1I RQ MERGED:  371606746
L1I RQ FORWARD:          0
L1I WQ ACCESS:          0
L1I WQ TO_CACHE:          0
L1I WQ MERGED:          0
L1I WQ FORWARD:          0
L2C TOTAL     ACCESS:   14905128  HIT:   11158643  MISS:    3746485
L2C LOAD      ACCESS:    7418894  HIT:    5098873  MISS:    2320021
L2C RFO       ACCESS:     878703  HIT:     409905  MISS:     468798
L2C PREFETCH  ACCESS:    4568296  HIT:    3627884  MISS:     940412
L2C WRITEBACK ACCESS:    2039235  HIT:    2021981  MISS:      17254
L2C PREFETCH  REQUESTED:     842746  ISSUED:     842746  USEFUL:     203355  USELESS:     736763
L2C TOTAL MSHR MERGED:       7128
L2C LOAD MSHR MERGED:        795
L2C RFO MSHR MERGED:          0
L2C PREFETCH MSHR MERGED:       6333
L2C WRITEBACK MSHR MERGED:          0
L2C TOTAL ACCESSES:   14913146 HITS:   11159090 MISSES:    3754056
L2C LOAD ACCESSES:    7419101 HITS:    5099080 MISSES:    2320021
L2C RFO ACCESSES:     878800 HITS:     410002 MISSES:     468798
L2C PREFETCH ACCESSES:    4576010 HITS:    3628027 MISSES:     947983
L2C WRITEBACK ACCESSES:    2039235 HITS:    2021981 MISSES:      17254
L2C RQ ACCESS:    8297904
L2C RQ TO_CACHE:    8297600
L2C RQ MERGED:          0
L2C RQ FORWARD:          0
L2C WQ ACCESS:    2039235
L2C WQ TO_CACHE:    2039235
L2C WQ MERGED:          0
L2C WQ FORWARD:        447
LLC TOTAL     ACCESS:    4609812  HIT:    3989690  MISS:     620122
LLC LOAD      ACCESS:    2319211  HIT:    2093210  MISS:     226001
LLC RFO       ACCESS:     468788  HIT:     398503  MISS:      70285
LLC PREFETCH  ACCESS:     941523  HIT:     650931  MISS:     290592
LLC WRITEBACK ACCESS:     880290  HIT:     847046  MISS:      33244
LLC PREFETCH  REQUESTED:          0  ISSUED:          0  USEFUL:      15870  USELESS:     275433
LLC TOTAL MSHR MERGED:        111
LLC LOAD MSHR MERGED:         39
LLC RFO MSHR MERGED:          0
LLC PREFETCH MSHR MERGED:         72
LLC WRITEBACK MSHR MERGED:          0
LLC TOTAL ACCESSES:    4609958 HITS:    3989725 MISSES:     620233
LLC LOAD ACCESSES:    2319226 HITS:    2093225 MISSES:     226001
LLC RFO ACCESSES:     468798 HITS:     398513 MISSES:      70285
LLC PREFETCH ACCESSES:     941644 HITS:     650941 MISSES:     290703
LLC WRITEBACK ACCESSES:     880290 HITS:     847046 MISSES:      33244
LLC 0 RQ ACCESS:    2788024
LLC 0 RQ TO_CACHE:    2787999
LLC 0 RQ MERGED:          0
LLC 0 RQ FORWARD:          0
LLC WQ ACCESS:     880290
LLC WQ TO_CACHE:     880290
LLC WQ MERGED:          0
LLC WQ FORWARD:         35
Major fault: 0 Minor fault: 12862
CPU 0 L1D next line prefetcher final stats
CPU 0 L2C PC-based stride prefetcher final stats
All Misses: 732571
All Hits: 4694247
SD Algo Stats - Switches: 0 SRR-Repls: 265245 BRR-Repls: 0

DRAM Statistics
 CHANNEL 0
 RQ ROW_BUFFER_HIT:     114476  ROW_BUFFER_MISS:     471503
 DBUS_CONGESTED:     364538
 WQ ROW_BUFFER_HIT:      15651  ROW_BUFFER_MISS:     183758  FULL:          0

 AVG_CONGESTED_CYCLE: 13
LOADS RETIRED: 136549171
INSTR RETIRED: 500000000
