
*** ChampSim Multicore Out-of-Order Simulator ***

Warmup Instructions: 100000000
Simulation Instructions: 500000000
Number of CPUs: 1
LLC sets: 2048
LLC ways: 16
Clean RRIP Policies: 323000103230001 Dirty RRIP Policies: 2303200123032001 PSEL Width: 10 Track Set: 4294967295 PSEL Mask: 1 Demote Mask: 2334231323342313DS Algo: 0Window size: 0
Off-chip DRAM Size: 4096 MB Channels: 1 Width: 64-bit Data Rate: 1600 MT/s

CPU 0 runs /mnt/beegfs/iconst01/spec2017/Gcc.trace.gz
NOT SORTED
TRACE STRING: /mnt/beegfs/iconst01/spec2017/Gcc.trace.gz
SORTED
TRACE STRING: /mnt/beegfs/iconst01/spec2017/Gcc.trace.gz
INITIAL
TRACE STRING: /mnt/beegfs/iconst01/spec2017/Gcc.trace.gz

champsim_seed used: 269

CPU 0 L1D next line prefetcher
CPU 0 L2C IP-based stride prefetcher
Initialize DRRIP state
Assign rand_sets[0]: 454  LLC: 2048
rand_sets[0]: 454
Assign rand_sets[1]: 1662  LLC: 2048
rand_sets[1]: 1662
Assign rand_sets[2]: 1921  LLC: 2048
rand_sets[2]: 1921
Assign rand_sets[3]: 1131  LLC: 2048
rand_sets[3]: 1131
Assign rand_sets[4]: 331  LLC: 2048
rand_sets[4]: 331
Assign rand_sets[5]: 1531  LLC: 2048
rand_sets[5]: 1531
Assign rand_sets[6]: 482  LLC: 2048
rand_sets[6]: 482
Assign rand_sets[7]: 1275  LLC: 2048
rand_sets[7]: 1275
Assign rand_sets[8]: 1876  LLC: 2048
rand_sets[8]: 1876
Assign rand_sets[9]: 2038  LLC: 2048
rand_sets[9]: 2038
Assign rand_sets[10]: 701  LLC: 2048
rand_sets[10]: 701
Assign rand_sets[11]: 479  LLC: 2048
rand_sets[11]: 479
Assign rand_sets[12]: 892  LLC: 2048
rand_sets[12]: 892
Assign rand_sets[13]: 1820  LLC: 2048
rand_sets[13]: 1820
Assign rand_sets[14]: 1505  LLC: 2048
rand_sets[14]: 1505
Assign rand_sets[15]: 1159  LLC: 2048
rand_sets[15]: 1159
Assign rand_sets[16]: 513  LLC: 2048
rand_sets[16]: 513
Assign rand_sets[17]: 703  LLC: 2048
rand_sets[17]: 703
Assign rand_sets[18]: 561  LLC: 2048
rand_sets[18]: 561
Assign rand_sets[19]: 990  LLC: 2048
rand_sets[19]: 990
Assign rand_sets[20]: 342  LLC: 2048
rand_sets[20]: 342
Assign rand_sets[21]: 882  LLC: 2048
rand_sets[21]: 882
Assign rand_sets[22]: 15  LLC: 2048
rand_sets[22]: 15
Assign rand_sets[23]: 71  LLC: 2048
rand_sets[23]: 71
Assign rand_sets[24]: 1127  LLC: 2048
rand_sets[24]: 1127
Assign rand_sets[25]: 1382  LLC: 2048
rand_sets[25]: 1382
Assign rand_sets[26]: 647  LLC: 2048
rand_sets[26]: 647
Assign rand_sets[27]: 857  LLC: 2048
rand_sets[27]: 857
Assign rand_sets[28]: 1450  LLC: 2048
rand_sets[28]: 1450
Assign rand_sets[29]: 1160  LLC: 2048
rand_sets[29]: 1160
Assign rand_sets[30]: 1852  LLC: 2048
rand_sets[30]: 1852
Assign rand_sets[31]: 1881  LLC: 2048
rand_sets[31]: 1881
Assign rand_sets[32]: 1770  LLC: 2048
rand_sets[32]: 1770
Assign rand_sets[33]: 1622  LLC: 2048
rand_sets[33]: 1622
Assign rand_sets[34]: 275  LLC: 2048
rand_sets[34]: 275
Assign rand_sets[35]: 635  LLC: 2048
rand_sets[35]: 635
Assign rand_sets[36]: 466  LLC: 2048
rand_sets[36]: 466
Assign rand_sets[37]: 1413  LLC: 2048
rand_sets[37]: 1413
Assign rand_sets[38]: 417  LLC: 2048
rand_sets[38]: 417
Assign rand_sets[39]: 472  LLC: 2048
rand_sets[39]: 472
Assign rand_sets[40]: 1340  LLC: 2048
rand_sets[40]: 1340
Assign rand_sets[41]: 852  LLC: 2048
rand_sets[41]: 852
Assign rand_sets[42]: 1365  LLC: 2048
rand_sets[42]: 1365
Assign rand_sets[43]: 47  LLC: 2048
rand_sets[43]: 47
Assign rand_sets[44]: 823  LLC: 2048
rand_sets[44]: 823
Assign rand_sets[45]: 686  LLC: 2048
rand_sets[45]: 686
Assign rand_sets[46]: 1637  LLC: 2048
rand_sets[46]: 1637
Assign rand_sets[47]: 1115  LLC: 2048
rand_sets[47]: 1115
Assign rand_sets[48]: 986  LLC: 2048
rand_sets[48]: 986
Assign rand_sets[49]: 258  LLC: 2048
rand_sets[49]: 258
Assign rand_sets[50]: 633  LLC: 2048
rand_sets[50]: 633
Assign rand_sets[51]: 920  LLC: 2048
rand_sets[51]: 920
Assign rand_sets[52]: 204  LLC: 2048
rand_sets[52]: 204
Assign rand_sets[53]: 227  LLC: 2048
rand_sets[53]: 227
Assign rand_sets[54]: 1818  LLC: 2048
rand_sets[54]: 1818
Assign rand_sets[55]: 886  LLC: 2048
rand_sets[55]: 886
Assign rand_sets[56]: 1422  LLC: 2048
rand_sets[56]: 1422
Assign rand_sets[57]: 607  LLC: 2048
rand_sets[57]: 607
Assign rand_sets[58]: 217  LLC: 2048
rand_sets[58]: 217
Assign rand_sets[59]: 1945  LLC: 2048
rand_sets[59]: 1945
Assign rand_sets[60]: 143  LLC: 2048
rand_sets[60]: 143
Assign rand_sets[61]: 1311  LLC: 2048
rand_sets[61]: 1311
Assign rand_sets[62]: 319  LLC: 2048
rand_sets[62]: 319
Assign rand_sets[63]: 1846  LLC: 2048
rand_sets[63]: 1846
 CLEAN-RRIP-POLICY-1: 0-3-2-3-0-0-0-1- CLEAN-RRIP-POLICY-2: 0-3-2-3-0-0-0-1-
 DIRTY-RRIP-POLICY-1: 2-3-0-3-2-0-0-1- DIRTY-RRIP-POLICY-2: 2-3-0-3-2-0-0-1-
 PSEL width: 10
Heartbeat CPU 0 instructions: 10000001 cycles: 7315999 heartbeat IPC: 1.36687 cumulative IPC: 1.36687 (Simulation time: 0 hr 0 min 15 sec) 
Heartbeat CPU 0 instructions: 20000000 cycles: 14307851 heartbeat IPC: 1.43024 cumulative IPC: 1.39783 (Simulation time: 0 hr 0 min 29 sec) 
Heartbeat CPU 0 instructions: 30000001 cycles: 21021354 heartbeat IPC: 1.48954 cumulative IPC: 1.42712 (Simulation time: 0 hr 0 min 45 sec) 
Heartbeat CPU 0 instructions: 40000000 cycles: 27482233 heartbeat IPC: 1.54778 cumulative IPC: 1.45549 (Simulation time: 0 hr 1 min 2 sec) 
Heartbeat CPU 0 instructions: 50000001 cycles: 33583807 heartbeat IPC: 1.63892 cumulative IPC: 1.48881 (Simulation time: 0 hr 1 min 17 sec) 
Heartbeat CPU 0 instructions: 60000000 cycles: 40064864 heartbeat IPC: 1.54296 cumulative IPC: 1.49757 (Simulation time: 0 hr 1 min 33 sec) 
Heartbeat CPU 0 instructions: 70000000 cycles: 47104217 heartbeat IPC: 1.42059 cumulative IPC: 1.48607 (Simulation time: 0 hr 1 min 48 sec) 
Heartbeat CPU 0 instructions: 80000000 cycles: 54195657 heartbeat IPC: 1.41015 cumulative IPC: 1.47613 (Simulation time: 0 hr 2 min 3 sec) 
Heartbeat CPU 0 instructions: 90000003 cycles: 61201608 heartbeat IPC: 1.42736 cumulative IPC: 1.47055 (Simulation time: 0 hr 2 min 18 sec) 
Heartbeat CPU 0 instructions: 100000000 cycles: 68370811 heartbeat IPC: 1.39485 cumulative IPC: 1.46261 (Simulation time: 0 hr 2 min 33 sec) 

Warmup complete CPU 0 instructions: 100000004 cycles: 68370812 (Simulation time: 0 hr 2 min 33 sec) 

Heartbeat CPU 0 instructions: 110000003 cycles: 96440165 heartbeat IPC: 0.356261 cumulative IPC: 0.35626 (Simulation time: 0 hr 3 min 2 sec) 
Heartbeat CPU 0 instructions: 120000000 cycles: 124004484 heartbeat IPC: 0.362788 cumulative IPC: 0.359494 (Simulation time: 0 hr 3 min 31 sec) 
Heartbeat CPU 0 instructions: 130000000 cycles: 148999214 heartbeat IPC: 0.400084 cumulative IPC: 0.372077 (Simulation time: 0 hr 4 min 0 sec) 
Heartbeat CPU 0 instructions: 140000000 cycles: 179110788 heartbeat IPC: 0.332098 cumulative IPC: 0.361206 (Simulation time: 0 hr 4 min 28 sec) 
Heartbeat CPU 0 instructions: 150000000 cycles: 209435432 heartbeat IPC: 0.329765 cumulative IPC: 0.354447 (Simulation time: 0 hr 4 min 58 sec) 
Heartbeat CPU 0 instructions: 160000000 cycles: 236929325 heartbeat IPC: 0.363717 cumulative IPC: 0.355959 (Simulation time: 0 hr 5 min 25 sec) 
Heartbeat CPU 0 instructions: 170000001 cycles: 265075060 heartbeat IPC: 0.355294 cumulative IPC: 0.355864 (Simulation time: 0 hr 5 min 56 sec) 
Heartbeat CPU 0 instructions: 180000000 cycles: 293831078 heartbeat IPC: 0.347753 cumulative IPC: 0.35483 (Simulation time: 0 hr 6 min 25 sec) 
Heartbeat CPU 0 instructions: 190000002 cycles: 322037534 heartbeat IPC: 0.354529 cumulative IPC: 0.354796 (Simulation time: 0 hr 6 min 54 sec) 
Heartbeat CPU 0 instructions: 200000000 cycles: 350753595 heartbeat IPC: 0.348237 cumulative IPC: 0.354129 (Simulation time: 0 hr 7 min 24 sec) 
Heartbeat CPU 0 instructions: 210000002 cycles: 378752157 heartbeat IPC: 0.357161 cumulative IPC: 0.354403 (Simulation time: 0 hr 7 min 53 sec) 
Heartbeat CPU 0 instructions: 220000000 cycles: 408470158 heartbeat IPC: 0.336496 cumulative IPC: 0.352838 (Simulation time: 0 hr 8 min 21 sec) 
Heartbeat CPU 0 instructions: 230000000 cycles: 436324318 heartbeat IPC: 0.359013 cumulative IPC: 0.353305 (Simulation time: 0 hr 8 min 49 sec) 
Heartbeat CPU 0 instructions: 240000000 cycles: 462696543 heartbeat IPC: 0.379187 cumulative IPC: 0.355036 (Simulation time: 0 hr 9 min 16 sec) 
Heartbeat CPU 0 instructions: 250000000 cycles: 493087208 heartbeat IPC: 0.329048 cumulative IPC: 0.353177 (Simulation time: 0 hr 9 min 47 sec) 
Heartbeat CPU 0 instructions: 260000000 cycles: 520242781 heartbeat IPC: 0.368249 cumulative IPC: 0.354083 (Simulation time: 0 hr 10 min 15 sec) 
Heartbeat CPU 0 instructions: 270000003 cycles: 548727638 heartbeat IPC: 0.351064 cumulative IPC: 0.353904 (Simulation time: 0 hr 10 min 45 sec) 
Heartbeat CPU 0 instructions: 280000000 cycles: 577289987 heartbeat IPC: 0.350111 cumulative IPC: 0.353691 (Simulation time: 0 hr 11 min 15 sec) 
Heartbeat CPU 0 instructions: 290000000 cycles: 606236097 heartbeat IPC: 0.34547 cumulative IPC: 0.353248 (Simulation time: 0 hr 11 min 45 sec) 
Heartbeat CPU 0 instructions: 300000000 cycles: 636690162 heartbeat IPC: 0.328363 cumulative IPC: 0.351915 (Simulation time: 0 hr 12 min 13 sec) 
Heartbeat CPU 0 instructions: 310000001 cycles: 666617022 heartbeat IPC: 0.334148 cumulative IPC: 0.351026 (Simulation time: 0 hr 12 min 42 sec) 
Heartbeat CPU 0 instructions: 320000000 cycles: 695267550 heartbeat IPC: 0.349034 cumulative IPC: 0.350935 (Simulation time: 0 hr 13 min 10 sec) 
Heartbeat CPU 0 instructions: 330000000 cycles: 724112577 heartbeat IPC: 0.34668 cumulative IPC: 0.350748 (Simulation time: 0 hr 13 min 39 sec) 
Heartbeat CPU 0 instructions: 340000000 cycles: 753936353 heartbeat IPC: 0.335303 cumulative IPC: 0.350076 (Simulation time: 0 hr 14 min 8 sec) 
Heartbeat CPU 0 instructions: 350000003 cycles: 781086975 heartbeat IPC: 0.368316 cumulative IPC: 0.350771 (Simulation time: 0 hr 14 min 36 sec) 
Heartbeat CPU 0 instructions: 360000000 cycles: 809936798 heartbeat IPC: 0.346622 cumulative IPC: 0.350609 (Simulation time: 0 hr 15 min 3 sec) 
Heartbeat CPU 0 instructions: 370000000 cycles: 838658621 heartbeat IPC: 0.348167 cumulative IPC: 0.350518 (Simulation time: 0 hr 15 min 31 sec) 
Heartbeat CPU 0 instructions: 380000000 cycles: 867671148 heartbeat IPC: 0.344679 cumulative IPC: 0.350306 (Simulation time: 0 hr 15 min 59 sec) 
Heartbeat CPU 0 instructions: 390000001 cycles: 895576374 heartbeat IPC: 0.358356 cumulative IPC: 0.350578 (Simulation time: 0 hr 16 min 26 sec) 
Heartbeat CPU 0 instructions: 400000000 cycles: 924628517 heartbeat IPC: 0.344209 cumulative IPC: 0.350362 (Simulation time: 0 hr 16 min 54 sec) 
Heartbeat CPU 0 instructions: 410000001 cycles: 952215865 heartbeat IPC: 0.362485 cumulative IPC: 0.35074 (Simulation time: 0 hr 17 min 21 sec) 
Heartbeat CPU 0 instructions: 420000000 cycles: 979724036 heartbeat IPC: 0.363528 cumulative IPC: 0.351126 (Simulation time: 0 hr 17 min 48 sec) 
Heartbeat CPU 0 instructions: 430000002 cycles: 1007694931 heartbeat IPC: 0.357515 cumulative IPC: 0.351316 (Simulation time: 0 hr 18 min 16 sec) 
Heartbeat CPU 0 instructions: 440000000 cycles: 1037700905 heartbeat IPC: 0.333267 cumulative IPC: 0.350758 (Simulation time: 0 hr 18 min 44 sec) 
Heartbeat CPU 0 instructions: 450000002 cycles: 1067433816 heartbeat IPC: 0.336328 cumulative IPC: 0.350328 (Simulation time: 0 hr 19 min 11 sec) 
Heartbeat CPU 0 instructions: 460000000 cycles: 1095424810 heartbeat IPC: 0.357258 cumulative IPC: 0.350517 (Simulation time: 0 hr 19 min 39 sec) 
Heartbeat CPU 0 instructions: 470000000 cycles: 1123219314 heartbeat IPC: 0.359783 cumulative IPC: 0.350761 (Simulation time: 0 hr 20 min 6 sec) 
Heartbeat CPU 0 instructions: 480000000 cycles: 1151270058 heartbeat IPC: 0.356497 cumulative IPC: 0.35091 (Simulation time: 0 hr 20 min 34 sec) 
Heartbeat CPU 0 instructions: 490000000 cycles: 1179023028 heartbeat IPC: 0.360322 cumulative IPC: 0.351145 (Simulation time: 0 hr 21 min 1 sec) 
Heartbeat CPU 0 instructions: 500000000 cycles: 1207469469 heartbeat IPC: 0.351538 cumulative IPC: 0.351155 (Simulation time: 0 hr 21 min 28 sec) 
Heartbeat CPU 0 instructions: 510000000 cycles: 1242539113 heartbeat IPC: 0.285147 cumulative IPC: 0.349183 (Simulation time: 0 hr 22 min 0 sec) 
Heartbeat CPU 0 instructions: 520000000 cycles: 1270233492 heartbeat IPC: 0.361084 cumulative IPC: 0.349458 (Simulation time: 0 hr 22 min 28 sec) 
Heartbeat CPU 0 instructions: 530000001 cycles: 1300018230 heartbeat IPC: 0.335742 cumulative IPC: 0.349126 (Simulation time: 0 hr 22 min 56 sec) 
Heartbeat CPU 0 instructions: 540000000 cycles: 1328513231 heartbeat IPC: 0.350939 cumulative IPC: 0.349167 (Simulation time: 0 hr 23 min 25 sec) 
Heartbeat CPU 0 instructions: 550000001 cycles: 1357941231 heartbeat IPC: 0.339812 cumulative IPC: 0.348953 (Simulation time: 0 hr 23 min 55 sec) 
Heartbeat CPU 0 instructions: 560000000 cycles: 1383418501 heartbeat IPC: 0.392507 cumulative IPC: 0.349797 (Simulation time: 0 hr 24 min 23 sec) 
Heartbeat CPU 0 instructions: 570000000 cycles: 1413378935 heartbeat IPC: 0.333774 cumulative IPC: 0.34944 (Simulation time: 0 hr 24 min 52 sec) 
Heartbeat CPU 0 instructions: 580000000 cycles: 1441730623 heartbeat IPC: 0.352713 cumulative IPC: 0.349508 (Simulation time: 0 hr 25 min 20 sec) 
Heartbeat CPU 0 instructions: 590000001 cycles: 1466748410 heartbeat IPC: 0.399716 cumulative IPC: 0.350406 (Simulation time: 0 hr 25 min 47 sec) 
Heartbeat CPU 0 instructions: 600000000 cycles: 1493503586 heartbeat IPC: 0.373759 cumulative IPC: 0.350845 (Simulation time: 0 hr 26 min 15 sec) 
Finished CPU 0 instructions: 500000000 cycles: 1425132796 cumulative IPC: 0.350845 (Simulation time: 0 hr 26 min 15 sec) 

CPU 0 Branch Prediction Accuracy: 86.4311% MPKI: 26.2662
Number of Branches: 96788573 Number of Mispredictions: 13133102
Number of LOAD Instructions: 164682285
Number of LOAD Instructions (ROI): 164682285
Number of STORE Instructions: 78194750
Number of STORE Instructions (ROI): 78194750
Total Destination Memory Operands: 83268534
Total Destination Memory Operands (ROI): 83268534
Total Source Memory Operands: 164712438
Total Source Memory Operands (ROI): 164712438
Number of DEPENDED LOADS: 7058503
Number of DEPENDED LOADS (ROI): 7058503
Number of SQ_ADDED: 83268522
Number of SQ_ADDED (ROI): 83268522
Number of LQ_ADDED: 236855639
Number of LQ_ADDED (ROI): 236855639
Number of Instructions read from trace: 600000066

ChampSim completed all CPUs

Region of Interest Statistics

CPU 0 cumulative IPC: 0.350845 instructions: 500000000 cycles: 1425132796
ITLB TOTAL     ACCESS:  100520085  HIT:  100315639  MISS:     204446
ITLB LOAD      ACCESS:  100520085  HIT:  100315639  MISS:     204446
ITLB RFO       ACCESS:          0  HIT:          0  MISS:          0
ITLB PREFETCH  ACCESS:          0  HIT:          0  MISS:          0
ITLB WRITEBACK ACCESS:          0  HIT:          0  MISS:          0
ITLB PREFETCH  REQUESTED:          0  ISSUED:          0  USEFUL:          0  USELESS:          0
ITLB TOTAL MSHR MERGED:     172424
ITLB LOAD MSHR MERGED:     172424
ITLB RFO MSHR MERGED:          0
ITLB PREFETCH MSHR MERGED:          0
ITLB WRITEBACK MSHR MERGED:          0
ITLB TOTAL ACCESSES:  100692509 HITS:  100315639 MISSES:     376870
ITLB LOAD ACCESSES:  100692509 HITS:  100315639 MISSES:     376870
ITLB RFO ACCESSES:          0 HITS:          0 MISSES:          0
ITLB PREFETCH ACCESSES:          0 HITS:          0 MISSES:          0
ITLB WRITEBACK ACCESSES:          0 HITS:          0 MISSES:          0
ITLB RQ ACCESS:  500000057
ITLB RQ TO_CACHE:  100692509
ITLB RQ MERGED:  399307548
ITLB RQ FORWARD:          0
ITLB WQ ACCESS:          0
ITLB WQ TO_CACHE:          0
ITLB WQ MERGED:          0
ITLB WQ FORWARD:          0
DTLB TOTAL     ACCESS:  165340203  HIT:  164705853  MISS:     634350
DTLB LOAD      ACCESS:  106294655  HIT:  105724666  MISS:     569989
DTLB RFO       ACCESS:   59045548  HIT:   58981187  MISS:      64361
DTLB PREFETCH  ACCESS:          0  HIT:          0  MISS:          0
DTLB WRITEBACK ACCESS:          0  HIT:          0  MISS:          0
DTLB PREFETCH  REQUESTED:          0  ISSUED:          0  USEFUL:          0  USELESS:          0
DTLB TOTAL MSHR MERGED:      99992
DTLB LOAD MSHR MERGED:      59439
DTLB RFO MSHR MERGED:      40553
DTLB PREFETCH MSHR MERGED:          0
DTLB WRITEBACK MSHR MERGED:          0
DTLB TOTAL ACCESSES:  165440195 HITS:  164705853 MISSES:     734342
DTLB LOAD ACCESSES:  106354094 HITS:  105724666 MISSES:     629428
DTLB RFO ACCESSES:   59086101 HITS:   58981187 MISSES:     104914
DTLB PREFETCH ACCESSES:          0 HITS:          0 MISSES:          0
DTLB WRITEBACK ACCESSES:          0 HITS:          0 MISSES:          0
DTLB RQ ACCESS:  200312396
DTLB RQ TO_CACHE:  165440195
DTLB RQ MERGED:   34872201
DTLB RQ FORWARD:          0
DTLB WQ ACCESS:          0
DTLB WQ TO_CACHE:          0
DTLB WQ MERGED:          0
DTLB WQ FORWARD:          0
L1D TOTAL     ACCESS:  281795997  HIT:  273886716  MISS:    7909281
L1D LOAD      ACCESS:  110415951  HIT:  107133898  MISS:    3282053
L1D RFO       ACCESS:   67107208  HIT:   66215919  MISS:     891289
L1D PREFETCH  ACCESS:  104272838  HIT:  100536899  MISS:    3735939
L1D WRITEBACK ACCESS:          0  HIT:          0  MISS:          0
L1D PREFETCH  REQUESTED:  110821412  ISSUED:  109122113  USEFUL:    1656730  USELESS:    2079173
L1D TOTAL MSHR MERGED:    2918231
L1D LOAD MSHR MERGED:     507075
L1D RFO MSHR MERGED:    1879117
L1D PREFETCH MSHR MERGED:     532039
L1D WRITEBACK MSHR MERGED:          0
L1D TOTAL ACCESSES:  284741876 HITS:  273914364 MISSES:   10827512
L1D LOAD ACCESSES:  110823020 HITS:  107135506 MISSES:    3687514
L1D RFO ACCESSES:   68973775 HITS:   66215919 MISSES:    2757856
L1D PREFETCH ACCESSES:  104945081 HITS:  100562939 MISSES:    4382142
L1D WRITEBACK ACCESSES:          0 HITS:          0 MISSES:          0
L1D RQ ACCESS:  130759793
L1D RQ TO_CACHE:  110821415
L1D RQ MERGED:   19936770
L1D RQ FORWARD:          0
L1D WQ ACCESS:   69552603
L1D WQ TO_CACHE:   68973776
L1D WQ MERGED:     578827
L1D WQ FORWARD:      27648
L1I TOTAL     ACCESS:  126567249  HIT:  122328697  MISS:    4238552
L1I LOAD      ACCESS:  126567249  HIT:  122328697  MISS:    4238552
L1I RFO       ACCESS:          0  HIT:          0  MISS:          0
L1I PREFETCH  ACCESS:          0  HIT:          0  MISS:          0
L1I WRITEBACK ACCESS:          0  HIT:          0  MISS:          0
L1I PREFETCH  REQUESTED:          0  ISSUED:          0  USEFUL:          0  USELESS:          0
L1I TOTAL MSHR MERGED:    1835216
L1I LOAD MSHR MERGED:    1835216
L1I RFO MSHR MERGED:          0
L1I PREFETCH MSHR MERGED:          0
L1I WRITEBACK MSHR MERGED:          0
L1I TOTAL ACCESSES:  128402468 HITS:  122328697 MISSES:    6073771
L1I LOAD ACCESSES:  128402468 HITS:  122328697 MISSES:    6073771
L1I RFO ACCESSES:          0 HITS:          0 MISSES:          0
L1I PREFETCH ACCESSES:          0 HITS:          0 MISSES:          0
L1I WRITEBACK ACCESSES:          0 HITS:          0 MISSES:          0
L1I RQ ACCESS:  500000057
L1I RQ TO_CACHE:  128402468
L1I RQ MERGED:  371597589
L1I RQ FORWARD:          0
L1I WQ ACCESS:          0
L1I WQ TO_CACHE:          0
L1I WQ MERGED:          0
L1I WQ FORWARD:          0
L2C TOTAL     ACCESS:   14905094  HIT:   11158655  MISS:    3746439
L2C LOAD      ACCESS:    7418787  HIT:    5098797  MISS:    2319990
L2C RFO       ACCESS:     878642  HIT:     409905  MISS:     468737
L2C PREFETCH  ACCESS:    4568427  HIT:    3627978  MISS:     940449
L2C WRITEBACK ACCESS:    2039238  HIT:    2021975  MISS:      17263
L2C PREFETCH  REQUESTED:     842787  ISSUED:     842787  USEFUL:     203339  USELESS:     736817
L2C TOTAL MSHR MERGED:       7152
L2C LOAD MSHR MERGED:        820
L2C RFO MSHR MERGED:          0
L2C PREFETCH MSHR MERGED:       6332
L2C WRITEBACK MSHR MERGED:          0
L2C TOTAL ACCESSES:   14913143 HITS:   11159096 MISSES:    3754047
L2C LOAD ACCESSES:    7418991 HITS:    5099001 MISSES:    2319990
L2C RFO ACCESSES:     878739 HITS:     410002 MISSES:     468737
L2C PREFETCH ACCESSES:    4576175 HITS:    3628118 MISSES:     948057
L2C WRITEBACK ACCESSES:    2039238 HITS:    2021975 MISSES:      17263
L2C RQ ACCESS:    8297733
L2C RQ TO_CACHE:    8297432
L2C RQ MERGED:          0
L2C RQ FORWARD:          0
L2C WQ ACCESS:    2039238
L2C WQ TO_CACHE:    2039238
L2C WQ MERGED:          0
L2C WQ FORWARD:        441
LLC TOTAL     ACCESS:    4609767  HIT:    3720215  MISS:     889552
LLC LOAD      ACCESS:    2319155  HIT:    1963083  MISS:     356072
LLC RFO       ACCESS:     468727  HIT:     382020  MISS:      86707
LLC PREFETCH  ACCESS:     941597  HIT:     566436  MISS:     375161
LLC WRITEBACK ACCESS:     880288  HIT:     808676  MISS:      71612
LLC PREFETCH  REQUESTED:          0  ISSUED:          0  USEFUL:      15427  USELESS:     359648
LLC TOTAL MSHR MERGED:        110
LLC LOAD MSHR MERGED:         38
LLC RFO MSHR MERGED:          0
LLC PREFETCH MSHR MERGED:         72
LLC WRITEBACK MSHR MERGED:          0
LLC TOTAL ACCESSES:    4609912 HITS:    3720250 MISSES:     889662
LLC LOAD ACCESSES:    2319170 HITS:    1963098 MISSES:     356072
LLC RFO ACCESSES:     468737 HITS:     382030 MISSES:      86707
LLC PREFETCH ACCESSES:     941717 HITS:     566446 MISSES:     375271
LLC WRITEBACK ACCESSES:     880288 HITS:     808676 MISSES:      71612
LLC 0 RQ ACCESS:    2787907
LLC 0 RQ TO_CACHE:    2787882
LLC 0 RQ MERGED:          0
LLC 0 RQ FORWARD:          0
LLC WQ ACCESS:     880288
LLC WQ TO_CACHE:     880288
LLC WQ MERGED:          0
LLC WQ FORWARD:         35
Major fault: 0 Minor fault: 12862
CPU 0 L1D next line prefetcher final stats
CPU 0 L2C PC-based stride prefetcher final stats
All Misses: 1036511
All Hits: 4390262
SD Algo Stats - Switches: 0 SRR-Repls: 408676 BRR-Repls: 0

DRAM Statistics
 CHANNEL 0
 RQ ROW_BUFFER_HIT:     155649  ROW_BUFFER_MISS:     658853
 DBUS_CONGESTED:     423898
 WQ ROW_BUFFER_HIT:      19196  ROW_BUFFER_MISS:     220733  FULL:          0

 AVG_CONGESTED_CYCLE: 13
LOADS RETIRED: 136549171
INSTR RETIRED: 500000000
