
*** ChampSim Multicore Out-of-Order Simulator ***

Warmup Instructions: 100000000
Simulation Instructions: 500000000
Number of CPUs: 1
LLC sets: 2048
LLC ways: 16
Clean RRIP Policies: 1213030112130301 Dirty RRIP Policies: 2203130122031301 PSEL Width: 10 Track Set: 4294967295 PSEL Mask: 1 Demote Mask: 3010201030102010DS Algo: 0Window size: 0
Off-chip DRAM Size: 4096 MB Channels: 1 Width: 64-bit Data Rate: 1600 MT/s

CPU 0 runs /mnt/beegfs/iconst01/spec2017/Roms.trace.gz
NOT SORTED
TRACE STRING: /mnt/beegfs/iconst01/spec2017/Roms.trace.gz
SORTED
TRACE STRING: /mnt/beegfs/iconst01/spec2017/Roms.trace.gz
INITIAL
TRACE STRING: /mnt/beegfs/iconst01/spec2017/Roms.trace.gz

champsim_seed used: 417

CPU 0 L1D next line prefetcher
CPU 0 L2C IP-based stride prefetcher
Initialize DRRIP state
Assign rand_sets[0]: 454  LLC: 2048
rand_sets[0]: 454
Assign rand_sets[1]: 1662  LLC: 2048
rand_sets[1]: 1662
Assign rand_sets[2]: 1921  LLC: 2048
rand_sets[2]: 1921
Assign rand_sets[3]: 1131  LLC: 2048
rand_sets[3]: 1131
Assign rand_sets[4]: 331  LLC: 2048
rand_sets[4]: 331
Assign rand_sets[5]: 1531  LLC: 2048
rand_sets[5]: 1531
Assign rand_sets[6]: 482  LLC: 2048
rand_sets[6]: 482
Assign rand_sets[7]: 1275  LLC: 2048
rand_sets[7]: 1275
Assign rand_sets[8]: 1876  LLC: 2048
rand_sets[8]: 1876
Assign rand_sets[9]: 2038  LLC: 2048
rand_sets[9]: 2038
Assign rand_sets[10]: 701  LLC: 2048
rand_sets[10]: 701
Assign rand_sets[11]: 479  LLC: 2048
rand_sets[11]: 479
Assign rand_sets[12]: 892  LLC: 2048
rand_sets[12]: 892
Assign rand_sets[13]: 1820  LLC: 2048
rand_sets[13]: 1820
Assign rand_sets[14]: 1505  LLC: 2048
rand_sets[14]: 1505
Assign rand_sets[15]: 1159  LLC: 2048
rand_sets[15]: 1159
Assign rand_sets[16]: 513  LLC: 2048
rand_sets[16]: 513
Assign rand_sets[17]: 703  LLC: 2048
rand_sets[17]: 703
Assign rand_sets[18]: 561  LLC: 2048
rand_sets[18]: 561
Assign rand_sets[19]: 990  LLC: 2048
rand_sets[19]: 990
Assign rand_sets[20]: 342  LLC: 2048
rand_sets[20]: 342
Assign rand_sets[21]: 882  LLC: 2048
rand_sets[21]: 882
Assign rand_sets[22]: 15  LLC: 2048
rand_sets[22]: 15
Assign rand_sets[23]: 71  LLC: 2048
rand_sets[23]: 71
Assign rand_sets[24]: 1127  LLC: 2048
rand_sets[24]: 1127
Assign rand_sets[25]: 1382  LLC: 2048
rand_sets[25]: 1382
Assign rand_sets[26]: 647  LLC: 2048
rand_sets[26]: 647
Assign rand_sets[27]: 857  LLC: 2048
rand_sets[27]: 857
Assign rand_sets[28]: 1450  LLC: 2048
rand_sets[28]: 1450
Assign rand_sets[29]: 1160  LLC: 2048
rand_sets[29]: 1160
Assign rand_sets[30]: 1852  LLC: 2048
rand_sets[30]: 1852
Assign rand_sets[31]: 1881  LLC: 2048
rand_sets[31]: 1881
Assign rand_sets[32]: 1770  LLC: 2048
rand_sets[32]: 1770
Assign rand_sets[33]: 1622  LLC: 2048
rand_sets[33]: 1622
Assign rand_sets[34]: 275  LLC: 2048
rand_sets[34]: 275
Assign rand_sets[35]: 635  LLC: 2048
rand_sets[35]: 635
Assign rand_sets[36]: 466  LLC: 2048
rand_sets[36]: 466
Assign rand_sets[37]: 1413  LLC: 2048
rand_sets[37]: 1413
Assign rand_sets[38]: 417  LLC: 2048
rand_sets[38]: 417
Assign rand_sets[39]: 472  LLC: 2048
rand_sets[39]: 472
Assign rand_sets[40]: 1340  LLC: 2048
rand_sets[40]: 1340
Assign rand_sets[41]: 852  LLC: 2048
rand_sets[41]: 852
Assign rand_sets[42]: 1365  LLC: 2048
rand_sets[42]: 1365
Assign rand_sets[43]: 47  LLC: 2048
rand_sets[43]: 47
Assign rand_sets[44]: 823  LLC: 2048
rand_sets[44]: 823
Assign rand_sets[45]: 686  LLC: 2048
rand_sets[45]: 686
Assign rand_sets[46]: 1637  LLC: 2048
rand_sets[46]: 1637
Assign rand_sets[47]: 1115  LLC: 2048
rand_sets[47]: 1115
Assign rand_sets[48]: 986  LLC: 2048
rand_sets[48]: 986
Assign rand_sets[49]: 258  LLC: 2048
rand_sets[49]: 258
Assign rand_sets[50]: 633  LLC: 2048
rand_sets[50]: 633
Assign rand_sets[51]: 920  LLC: 2048
rand_sets[51]: 920
Assign rand_sets[52]: 204  LLC: 2048
rand_sets[52]: 204
Assign rand_sets[53]: 227  LLC: 2048
rand_sets[53]: 227
Assign rand_sets[54]: 1818  LLC: 2048
rand_sets[54]: 1818
Assign rand_sets[55]: 886  LLC: 2048
rand_sets[55]: 886
Assign rand_sets[56]: 1422  LLC: 2048
rand_sets[56]: 1422
Assign rand_sets[57]: 607  LLC: 2048
rand_sets[57]: 607
Assign rand_sets[58]: 217  LLC: 2048
rand_sets[58]: 217
Assign rand_sets[59]: 1945  LLC: 2048
rand_sets[59]: 1945
Assign rand_sets[60]: 143  LLC: 2048
rand_sets[60]: 143
Assign rand_sets[61]: 1311  LLC: 2048
rand_sets[61]: 1311
Assign rand_sets[62]: 319  LLC: 2048
rand_sets[62]: 319
Assign rand_sets[63]: 1846  LLC: 2048
rand_sets[63]: 1846
 CLEAN-RRIP-POLICY-1: 1-2-1-3-0-3-0-1- CLEAN-RRIP-POLICY-2: 1-2-1-3-0-3-0-1-
 DIRTY-RRIP-POLICY-1: 2-2-0-3-1-3-0-1- DIRTY-RRIP-POLICY-2: 2-2-0-3-1-3-0-1-
 PSEL width: 10
Heartbeat CPU 0 instructions: 10000000 cycles: 4688066 heartbeat IPC: 2.13308 cumulative IPC: 2.13308 (Simulation time: 0 hr 0 min 16 sec) 
Heartbeat CPU 0 instructions: 20000000 cycles: 9325334 heartbeat IPC: 2.15644 cumulative IPC: 2.1447 (Simulation time: 0 hr 0 min 33 sec) 
Heartbeat CPU 0 instructions: 30000003 cycles: 14019728 heartbeat IPC: 2.1302 cumulative IPC: 2.13984 (Simulation time: 0 hr 0 min 50 sec) 
Heartbeat CPU 0 instructions: 40000000 cycles: 18670144 heartbeat IPC: 2.15034 cumulative IPC: 2.14246 (Simulation time: 0 hr 1 min 7 sec) 
Heartbeat CPU 0 instructions: 50000003 cycles: 23323504 heartbeat IPC: 2.14899 cumulative IPC: 2.14376 (Simulation time: 0 hr 1 min 23 sec) 
Heartbeat CPU 0 instructions: 60000000 cycles: 27976125 heartbeat IPC: 2.14933 cumulative IPC: 2.14469 (Simulation time: 0 hr 1 min 40 sec) 
Heartbeat CPU 0 instructions: 70000002 cycles: 32367310 heartbeat IPC: 2.27729 cumulative IPC: 2.16268 (Simulation time: 0 hr 1 min 54 sec) 
Heartbeat CPU 0 instructions: 80000000 cycles: 36304068 heartbeat IPC: 2.54016 cumulative IPC: 2.20361 (Simulation time: 0 hr 2 min 6 sec) 
Heartbeat CPU 0 instructions: 90000000 cycles: 40249344 heartbeat IPC: 2.53468 cumulative IPC: 2.23606 (Simulation time: 0 hr 2 min 18 sec) 
Heartbeat CPU 0 instructions: 100000000 cycles: 44211627 heartbeat IPC: 2.5238 cumulative IPC: 2.26185 (Simulation time: 0 hr 2 min 30 sec) 

Warmup complete CPU 0 instructions: 100000002 cycles: 44211628 (Simulation time: 0 hr 2 min 30 sec) 

Heartbeat CPU 0 instructions: 110000000 cycles: 52824577 heartbeat IPC: 1.16104 cumulative IPC: 1.16104 (Simulation time: 0 hr 2 min 48 sec) 
Heartbeat CPU 0 instructions: 120000000 cycles: 61496582 heartbeat IPC: 1.15314 cumulative IPC: 1.15708 (Simulation time: 0 hr 3 min 6 sec) 
Heartbeat CPU 0 instructions: 130000002 cycles: 70204885 heartbeat IPC: 1.14833 cumulative IPC: 1.15415 (Simulation time: 0 hr 3 min 25 sec) 
Heartbeat CPU 0 instructions: 140000000 cycles: 78776997 heartbeat IPC: 1.16657 cumulative IPC: 1.15723 (Simulation time: 0 hr 3 min 43 sec) 
Heartbeat CPU 0 instructions: 150000003 cycles: 87525162 heartbeat IPC: 1.1431 cumulative IPC: 1.15437 (Simulation time: 0 hr 4 min 1 sec) 
Heartbeat CPU 0 instructions: 160000000 cycles: 97789238 heartbeat IPC: 0.974272 cumulative IPC: 1.11987 (Simulation time: 0 hr 4 min 21 sec) 
Heartbeat CPU 0 instructions: 170000000 cycles: 110250854 heartbeat IPC: 0.802464 cumulative IPC: 1.05998 (Simulation time: 0 hr 4 min 44 sec) 
Heartbeat CPU 0 instructions: 180000000 cycles: 122737265 heartbeat IPC: 0.800871 cumulative IPC: 1.01878 (Simulation time: 0 hr 5 min 7 sec) 
Heartbeat CPU 0 instructions: 190000000 cycles: 135472714 heartbeat IPC: 0.78521 cumulative IPC: 0.986182 (Simulation time: 0 hr 5 min 30 sec) 
Heartbeat CPU 0 instructions: 200000000 cycles: 149393471 heartbeat IPC: 0.718352 cumulative IPC: 0.950734 (Simulation time: 0 hr 5 min 53 sec) 
Heartbeat CPU 0 instructions: 210000001 cycles: 163290670 heartbeat IPC: 0.71957 cumulative IPC: 0.923756 (Simulation time: 0 hr 6 min 16 sec) 
Heartbeat CPU 0 instructions: 220000000 cycles: 177008784 heartbeat IPC: 0.728963 cumulative IPC: 0.903634 (Simulation time: 0 hr 6 min 40 sec) 
Heartbeat CPU 0 instructions: 230000000 cycles: 190490840 heartbeat IPC: 0.741727 cumulative IPC: 0.888711 (Simulation time: 0 hr 7 min 4 sec) 
Heartbeat CPU 0 instructions: 240000000 cycles: 204088536 heartbeat IPC: 0.735419 cumulative IPC: 0.875674 (Simulation time: 0 hr 7 min 28 sec) 
Heartbeat CPU 0 instructions: 250000003 cycles: 215166815 heartbeat IPC: 0.902668 cumulative IPC: 0.877423 (Simulation time: 0 hr 7 min 49 sec) 
Heartbeat CPU 0 instructions: 260000000 cycles: 223009720 heartbeat IPC: 1.27504 cumulative IPC: 0.894864 (Simulation time: 0 hr 8 min 9 sec) 
Heartbeat CPU 0 instructions: 270000003 cycles: 231328849 heartbeat IPC: 1.20205 cumulative IPC: 0.908521 (Simulation time: 0 hr 8 min 28 sec) 
Heartbeat CPU 0 instructions: 280000000 cycles: 239769881 heartbeat IPC: 1.18469 cumulative IPC: 0.920442 (Simulation time: 0 hr 8 min 48 sec) 
Heartbeat CPU 0 instructions: 290000000 cycles: 248377018 heartbeat IPC: 1.16183 cumulative IPC: 0.930618 (Simulation time: 0 hr 9 min 8 sec) 
Heartbeat CPU 0 instructions: 300000000 cycles: 256994200 heartbeat IPC: 1.16047 cumulative IPC: 0.939927 (Simulation time: 0 hr 9 min 28 sec) 
Heartbeat CPU 0 instructions: 310000000 cycles: 265686301 heartbeat IPC: 1.15047 cumulative IPC: 0.94819 (Simulation time: 0 hr 9 min 49 sec) 
Heartbeat CPU 0 instructions: 320000000 cycles: 274431499 heartbeat IPC: 1.14348 cumulative IPC: 0.955608 (Simulation time: 0 hr 10 min 10 sec) 
Heartbeat CPU 0 instructions: 330000002 cycles: 283129048 heartbeat IPC: 1.14975 cumulative IPC: 0.962676 (Simulation time: 0 hr 10 min 31 sec) 
Heartbeat CPU 0 instructions: 340000000 cycles: 293125533 heartbeat IPC: 1.00035 cumulative IPC: 0.964189 (Simulation time: 0 hr 10 min 53 sec) 
Heartbeat CPU 0 instructions: 350000001 cycles: 301508263 heartbeat IPC: 1.19293 cumulative IPC: 0.971641 (Simulation time: 0 hr 11 min 13 sec) 
Heartbeat CPU 0 instructions: 360000000 cycles: 309907725 heartbeat IPC: 1.19055 cumulative IPC: 0.978562 (Simulation time: 0 hr 11 min 33 sec) 
Heartbeat CPU 0 instructions: 370000001 cycles: 318318355 heartbeat IPC: 1.18897 cumulative IPC: 0.985018 (Simulation time: 0 hr 11 min 53 sec) 
Heartbeat CPU 0 instructions: 380000000 cycles: 326701522 heartbeat IPC: 1.19287 cumulative IPC: 0.991186 (Simulation time: 0 hr 12 min 13 sec) 
Heartbeat CPU 0 instructions: 390000001 cycles: 334918785 heartbeat IPC: 1.21695 cumulative IPC: 0.997567 (Simulation time: 0 hr 12 min 33 sec) 
Heartbeat CPU 0 instructions: 400000000 cycles: 343207479 heartbeat IPC: 1.20646 cumulative IPC: 1.00336 (Simulation time: 0 hr 12 min 52 sec) 
Heartbeat CPU 0 instructions: 410000003 cycles: 351428506 heartbeat IPC: 1.21639 cumulative IPC: 1.00906 (Simulation time: 0 hr 13 min 12 sec) 
Heartbeat CPU 0 instructions: 420000000 cycles: 359738369 heartbeat IPC: 1.20339 cumulative IPC: 1.01418 (Simulation time: 0 hr 13 min 32 sec) 
Heartbeat CPU 0 instructions: 430000001 cycles: 367962723 heartbeat IPC: 1.2159 cumulative IPC: 1.0193 (Simulation time: 0 hr 13 min 51 sec) 
Heartbeat CPU 0 instructions: 440000000 cycles: 376149350 heartbeat IPC: 1.2215 cumulative IPC: 1.02429 (Simulation time: 0 hr 14 min 11 sec) 
Heartbeat CPU 0 instructions: 450000001 cycles: 385606578 heartbeat IPC: 1.05739 cumulative IPC: 1.02521 (Simulation time: 0 hr 14 min 32 sec) 
Heartbeat CPU 0 instructions: 460000000 cycles: 393848048 heartbeat IPC: 1.21338 cumulative IPC: 1.02964 (Simulation time: 0 hr 14 min 52 sec) 
Heartbeat CPU 0 instructions: 470000003 cycles: 401951040 heartbeat IPC: 1.23411 cumulative IPC: 1.03427 (Simulation time: 0 hr 15 min 12 sec) 
Heartbeat CPU 0 instructions: 480000000 cycles: 410090919 heartbeat IPC: 1.22852 cumulative IPC: 1.03859 (Simulation time: 0 hr 15 min 31 sec) 
Heartbeat CPU 0 instructions: 490000000 cycles: 418210307 heartbeat IPC: 1.23162 cumulative IPC: 1.04278 (Simulation time: 0 hr 15 min 51 sec) 
Heartbeat CPU 0 instructions: 500000000 cycles: 426342277 heartbeat IPC: 1.22971 cumulative IPC: 1.04676 (Simulation time: 0 hr 16 min 10 sec) 
Heartbeat CPU 0 instructions: 510000001 cycles: 434413504 heartbeat IPC: 1.23897 cumulative IPC: 1.05074 (Simulation time: 0 hr 16 min 30 sec) 
Heartbeat CPU 0 instructions: 520000000 cycles: 442537989 heartbeat IPC: 1.23085 cumulative IPC: 1.05441 (Simulation time: 0 hr 16 min 49 sec) 
Heartbeat CPU 0 instructions: 530000001 cycles: 450647472 heartbeat IPC: 1.23312 cumulative IPC: 1.05798 (Simulation time: 0 hr 17 min 9 sec) 
Heartbeat CPU 0 instructions: 540000000 cycles: 458935338 heartbeat IPC: 1.20658 cumulative IPC: 1.06095 (Simulation time: 0 hr 17 min 28 sec) 
Heartbeat CPU 0 instructions: 550000000 cycles: 467285895 heartbeat IPC: 1.19752 cumulative IPC: 1.06364 (Simulation time: 0 hr 17 min 48 sec) 
Heartbeat CPU 0 instructions: 560000000 cycles: 475392702 heartbeat IPC: 1.23353 cumulative IPC: 1.06684 (Simulation time: 0 hr 18 min 7 sec) 
Heartbeat CPU 0 instructions: 570000001 cycles: 486585087 heartbeat IPC: 0.893465 cumulative IPC: 1.06245 (Simulation time: 0 hr 18 min 29 sec) 
Heartbeat CPU 0 instructions: 580000000 cycles: 497447778 heartbeat IPC: 0.920582 cumulative IPC: 1.05905 (Simulation time: 0 hr 18 min 50 sec) 
Heartbeat CPU 0 instructions: 590000001 cycles: 508552328 heartbeat IPC: 0.900532 cumulative IPC: 1.05526 (Simulation time: 0 hr 19 min 11 sec) 
Heartbeat CPU 0 instructions: 600000000 cycles: 519396326 heartbeat IPC: 0.922169 cumulative IPC: 1.05222 (Simulation time: 0 hr 19 min 32 sec) 
Finished CPU 0 instructions: 500000001 cycles: 475184711 cumulative IPC: 1.05222 (Simulation time: 0 hr 19 min 32 sec) 

CPU 0 Branch Prediction Accuracy: 99.7422% MPKI: 0.173296
Number of Branches: 33608403 Number of Mispredictions: 86648
Number of LOAD Instructions: 180215231
Number of LOAD Instructions (ROI): 180215231
Number of STORE Instructions: 36067263
Number of STORE Instructions (ROI): 36067263
Total Destination Memory Operands: 38428915
Total Destination Memory Operands (ROI): 38428915
Total Source Memory Operands: 180215231
Total Source Memory Operands (ROI): 180215231
Number of DEPENDED LOADS: 3041522
Number of DEPENDED LOADS (ROI): 3041522
Number of SQ_ADDED: 38428892
Number of SQ_ADDED (ROI): 38428892
Number of LQ_ADDED: 207660178
Number of LQ_ADDED (ROI): 207660178
Number of Instructions read from trace: 600000257

ChampSim completed all CPUs

Region of Interest Statistics

CPU 0 cumulative IPC: 1.05222 instructions: 500000001 cycles: 475184711
ITLB TOTAL     ACCESS:   91801483  HIT:   91801464  MISS:         19
ITLB LOAD      ACCESS:   91801483  HIT:   91801464  MISS:         19
ITLB RFO       ACCESS:          0  HIT:          0  MISS:          0
ITLB PREFETCH  ACCESS:          0  HIT:          0  MISS:          0
ITLB WRITEBACK ACCESS:          0  HIT:          0  MISS:          0
ITLB PREFETCH  REQUESTED:          0  ISSUED:          0  USEFUL:          0  USELESS:          0
ITLB TOTAL MSHR MERGED:         40
ITLB LOAD MSHR MERGED:         40
ITLB RFO MSHR MERGED:          0
ITLB PREFETCH MSHR MERGED:          0
ITLB WRITEBACK MSHR MERGED:          0
ITLB TOTAL ACCESSES:   91801523 HITS:   91801464 MISSES:         59
ITLB LOAD ACCESSES:   91801523 HITS:   91801464 MISSES:         59
ITLB RFO ACCESSES:          0 HITS:          0 MISSES:          0
ITLB PREFETCH ACCESSES:          0 HITS:          0 MISSES:          0
ITLB WRITEBACK ACCESSES:          0 HITS:          0 MISSES:          0
ITLB RQ ACCESS:  500000003
ITLB RQ TO_CACHE:   91801523
ITLB RQ MERGED:  408198480
ITLB RQ FORWARD:          0
ITLB WQ ACCESS:          0
ITLB WQ TO_CACHE:          0
ITLB WQ MERGED:          0
ITLB WQ FORWARD:          0
DTLB TOTAL     ACCESS:  142039968  HIT:  141673506  MISS:     366462
DTLB LOAD      ACCESS:  119401033  HIT:  119087447  MISS:     313586
DTLB RFO       ACCESS:   22638935  HIT:   22586059  MISS:      52876
DTLB PREFETCH  ACCESS:          0  HIT:          0  MISS:          0
DTLB WRITEBACK ACCESS:          0  HIT:          0  MISS:          0
DTLB PREFETCH  REQUESTED:          0  ISSUED:          0  USEFUL:          0  USELESS:          0
DTLB TOTAL MSHR MERGED:     289006
DTLB LOAD MSHR MERGED:     241129
DTLB RFO MSHR MERGED:      47877
DTLB PREFETCH MSHR MERGED:          0
DTLB WRITEBACK MSHR MERGED:          0
DTLB TOTAL ACCESSES:  142328974 HITS:  141673506 MISSES:     655468
DTLB LOAD ACCESSES:  119642162 HITS:  119087447 MISSES:     554715
DTLB RFO ACCESSES:   22686812 HITS:   22586059 MISSES:     100753
DTLB PREFETCH ACCESSES:          0 HITS:          0 MISSES:          0
DTLB WRITEBACK ACCESSES:          0 HITS:          0 MISSES:          0
DTLB RQ ACCESS:  184791455
DTLB RQ TO_CACHE:  142328974
DTLB RQ MERGED:   42462481
DTLB RQ FORWARD:          0
DTLB WQ ACCESS:          0
DTLB WQ TO_CACHE:          0
DTLB WQ MERGED:          0
DTLB WQ FORWARD:          0
L1D TOTAL     ACCESS:  190151528  HIT:  176700753  MISS:   13450775
L1D LOAD      ACCESS:  111934103  HIT:  108681245  MISS:    3252858
L1D RFO       ACCESS:   18977975  HIT:   16196232  MISS:    2781743
L1D PREFETCH  ACCESS:   59239450  HIT:   51823276  MISS:    7416174
L1D WRITEBACK ACCESS:          0  HIT:          0  MISS:          0
L1D PREFETCH  REQUESTED:  116501125  ISSUED:  115140219  USEFUL:    7206462  USELESS:     209712
L1D TOTAL MSHR MERGED:   31542695
L1D LOAD MSHR MERGED:    7263379
L1D RFO MSHR MERGED:    9274792
L1D PREFETCH MSHR MERGED:   15004524
L1D WRITEBACK MSHR MERGED:          0
L1D TOTAL ACCESSES:  221694619 HITS:  176701148 MISSES:   44993471
L1D LOAD ACCESSES:  116501145 HITS:  108681265 MISSES:    7819880
L1D RFO ACCESSES:   28252721 HITS:   16196232 MISSES:   12056489
L1D PREFETCH ACCESSES:   76940753 HITS:   51823651 MISSES:   25117102
L1D WRITEBACK ACCESSES:          0 HITS:          0 MISSES:          0
L1D RQ ACCESS:  156535389
L1D RQ TO_CACHE:  116501128
L1D RQ MERGED:   40034241
L1D RQ FORWARD:          0
L1D WQ ACCESS:   28256066
L1D WQ TO_CACHE:   28252721
L1D WQ MERGED:       3345
L1D WQ FORWARD:        395
L1I TOTAL     ACCESS:  115796498  HIT:  115795550  MISS:        948
L1I LOAD      ACCESS:  115796498  HIT:  115795550  MISS:        948
L1I RFO       ACCESS:          0  HIT:          0  MISS:          0
L1I PREFETCH  ACCESS:          0  HIT:          0  MISS:          0
L1I WRITEBACK ACCESS:          0  HIT:          0  MISS:          0
L1I PREFETCH  REQUESTED:          0  ISSUED:          0  USEFUL:          0  USELESS:          0
L1I TOTAL MSHR MERGED:       1562
L1I LOAD MSHR MERGED:       1562
L1I RFO MSHR MERGED:          0
L1I PREFETCH MSHR MERGED:          0
L1I WRITEBACK MSHR MERGED:          0
L1I TOTAL ACCESSES:  115798060 HITS:  115795550 MISSES:       2510
L1I LOAD ACCESSES:  115798060 HITS:  115795550 MISSES:       2510
L1I RFO ACCESSES:          0 HITS:          0 MISSES:          0
L1I PREFETCH ACCESSES:          0 HITS:          0 MISSES:          0
L1I WRITEBACK ACCESSES:          0 HITS:          0 MISSES:          0
L1I RQ ACCESS:  500000007
L1I RQ TO_CACHE:  115798060
L1I RQ MERGED:  384201947
L1I RQ FORWARD:          0
L1I WQ ACCESS:          0
L1I WQ TO_CACHE:          0
L1I WQ MERGED:          0
L1I WQ FORWARD:          0
L2C TOTAL     ACCESS:   16696362  HIT:    4851554  MISS:   11844808
L2C LOAD      ACCESS:     557416  HIT:      95624  MISS:     461792
L2C RFO       ACCESS:    2781697  HIT:     266563  MISS:    2515134
L2C PREFETCH  ACCESS:   10136597  HIT:    1270999  MISS:    8865598
L2C WRITEBACK ACCESS:    3220652  HIT:    3218368  MISS:       2284
L2C PREFETCH  REQUESTED:      26049  ISSUED:      26049  USEFUL:      92958  USELESS:    8770717
L2C TOTAL MSHR MERGED:        521
L2C LOAD MSHR MERGED:          6
L2C RFO MSHR MERGED:          0
L2C PREFETCH MSHR MERGED:        515
L2C WRITEBACK MSHR MERGED:          0
L2C TOTAL ACCESSES:   16697008 HITS:    4851607 MISSES:   11845401
L2C LOAD ACCESSES:     557449 HITS:      95657 MISSES:     461792
L2C RFO ACCESSES:    2781697 HITS:     266563 MISSES:    2515134
L2C PREFETCH ACCESSES:   10137210 HITS:    1271019 MISSES:    8866191
L2C WRITEBACK ACCESSES:    3220652 HITS:    3218368 MISSES:       2284
L2C RQ ACCESS:    3339146
L2C RQ TO_CACHE:    3339113
L2C RQ MERGED:          0
L2C RQ FORWARD:          0
L2C WQ ACCESS:    3220652
L2C WQ TO_CACHE:    3220652
L2C WQ MERGED:          0
L2C WQ FORWARD:         53
LLC TOTAL     ACCESS:   14742940  HIT:    7604616  MISS:    7138324
LLC LOAD      ACCESS:     461783  HIT:     243893  MISS:     217890
LLC RFO       ACCESS:    2515115  HIT:    1878185  MISS:     636930
LLC PREFETCH  ACCESS:    8865608  HIT:    3281541  MISS:    5584067
LLC WRITEBACK ACCESS:    2900434  HIT:    2200997  MISS:     699437
LLC PREFETCH  REQUESTED:          0  ISSUED:          0  USEFUL:       3718  USELESS:    5585048
LLC TOTAL MSHR MERGED:          4
LLC LOAD MSHR MERGED:          0
LLC RFO MSHR MERGED:          0
LLC PREFETCH MSHR MERGED:          4
LLC WRITEBACK MSHR MERGED:          0
LLC TOTAL ACCESSES:   14743019 HITS:    7604690 MISSES:    7138329
LLC LOAD ACCESSES:     461786 HITS:     243896 MISSES:     217890
LLC RFO ACCESSES:    2515134 HITS:    1878204 MISSES:     636930
LLC PREFETCH ACCESSES:    8865665 HITS:    3281593 MISSES:    5584072
LLC WRITEBACK ACCESSES:    2900434 HITS:    2200997 MISSES:     699437
LLC 0 RQ ACCESS:    2976920
LLC 0 RQ TO_CACHE:    2976898
LLC 0 RQ MERGED:          0
LLC 0 RQ FORWARD:          0
LLC WQ ACCESS:    2900434
LLC WQ TO_CACHE:    2900434
LLC WQ MERGED:          0
LLC WQ FORWARD:         74
Major fault: 0 Minor fault: 57518
CPU 0 L1D next line prefetcher final stats
CPU 0 L2C PC-based stride prefetcher final stats
All Misses: 7737749
All Hits: 8501372
SD Algo Stats - Switches: 0 SRR-Repls: 224852 BRR-Repls: 0

DRAM Statistics
 CHANNEL 0
 RQ ROW_BUFFER_HIT:    3653619  ROW_BUFFER_MISS:    2781926
 DBUS_CONGESTED:    2912943
 WQ ROW_BUFFER_HIT:      88303  ROW_BUFFER_MISS:     815013  FULL:          0

 AVG_CONGESTED_CYCLE: 12
LOADS RETIRED: 157818985
INSTR RETIRED: 500000000
