
*** ChampSim Multicore Out-of-Order Simulator ***

Warmup Instructions: 100000000
Simulation Instructions: 500000000
Number of CPUs: 1
LLC sets: 2048
LLC ways: 16
Clean RRIP Policies: 2123100021231000 Dirty RRIP Policies: 103100001031000 PSEL Width: 10 Track Set: 4294967295 PSEL Mask: 1 Demote Mask: 4034144440341444DS Algo: 0Window size: 0
Off-chip DRAM Size: 4096 MB Channels: 1 Width: 64-bit Data Rate: 1600 MT/s

CPU 0 runs /mnt/beegfs/iconst01/spec2017/Gcc.trace.gz
NOT SORTED
TRACE STRING: /mnt/beegfs/iconst01/spec2017/Gcc.trace.gz
SORTED
TRACE STRING: /mnt/beegfs/iconst01/spec2017/Gcc.trace.gz
INITIAL
TRACE STRING: /mnt/beegfs/iconst01/spec2017/Gcc.trace.gz

champsim_seed used: 269

CPU 0 L1D next line prefetcher
CPU 0 L2C IP-based stride prefetcher
Initialize DRRIP state
Assign rand_sets[0]: 454  LLC: 2048
rand_sets[0]: 454
Assign rand_sets[1]: 1662  LLC: 2048
rand_sets[1]: 1662
Assign rand_sets[2]: 1921  LLC: 2048
rand_sets[2]: 1921
Assign rand_sets[3]: 1131  LLC: 2048
rand_sets[3]: 1131
Assign rand_sets[4]: 331  LLC: 2048
rand_sets[4]: 331
Assign rand_sets[5]: 1531  LLC: 2048
rand_sets[5]: 1531
Assign rand_sets[6]: 482  LLC: 2048
rand_sets[6]: 482
Assign rand_sets[7]: 1275  LLC: 2048
rand_sets[7]: 1275
Assign rand_sets[8]: 1876  LLC: 2048
rand_sets[8]: 1876
Assign rand_sets[9]: 2038  LLC: 2048
rand_sets[9]: 2038
Assign rand_sets[10]: 701  LLC: 2048
rand_sets[10]: 701
Assign rand_sets[11]: 479  LLC: 2048
rand_sets[11]: 479
Assign rand_sets[12]: 892  LLC: 2048
rand_sets[12]: 892
Assign rand_sets[13]: 1820  LLC: 2048
rand_sets[13]: 1820
Assign rand_sets[14]: 1505  LLC: 2048
rand_sets[14]: 1505
Assign rand_sets[15]: 1159  LLC: 2048
rand_sets[15]: 1159
Assign rand_sets[16]: 513  LLC: 2048
rand_sets[16]: 513
Assign rand_sets[17]: 703  LLC: 2048
rand_sets[17]: 703
Assign rand_sets[18]: 561  LLC: 2048
rand_sets[18]: 561
Assign rand_sets[19]: 990  LLC: 2048
rand_sets[19]: 990
Assign rand_sets[20]: 342  LLC: 2048
rand_sets[20]: 342
Assign rand_sets[21]: 882  LLC: 2048
rand_sets[21]: 882
Assign rand_sets[22]: 15  LLC: 2048
rand_sets[22]: 15
Assign rand_sets[23]: 71  LLC: 2048
rand_sets[23]: 71
Assign rand_sets[24]: 1127  LLC: 2048
rand_sets[24]: 1127
Assign rand_sets[25]: 1382  LLC: 2048
rand_sets[25]: 1382
Assign rand_sets[26]: 647  LLC: 2048
rand_sets[26]: 647
Assign rand_sets[27]: 857  LLC: 2048
rand_sets[27]: 857
Assign rand_sets[28]: 1450  LLC: 2048
rand_sets[28]: 1450
Assign rand_sets[29]: 1160  LLC: 2048
rand_sets[29]: 1160
Assign rand_sets[30]: 1852  LLC: 2048
rand_sets[30]: 1852
Assign rand_sets[31]: 1881  LLC: 2048
rand_sets[31]: 1881
Assign rand_sets[32]: 1770  LLC: 2048
rand_sets[32]: 1770
Assign rand_sets[33]: 1622  LLC: 2048
rand_sets[33]: 1622
Assign rand_sets[34]: 275  LLC: 2048
rand_sets[34]: 275
Assign rand_sets[35]: 635  LLC: 2048
rand_sets[35]: 635
Assign rand_sets[36]: 466  LLC: 2048
rand_sets[36]: 466
Assign rand_sets[37]: 1413  LLC: 2048
rand_sets[37]: 1413
Assign rand_sets[38]: 417  LLC: 2048
rand_sets[38]: 417
Assign rand_sets[39]: 472  LLC: 2048
rand_sets[39]: 472
Assign rand_sets[40]: 1340  LLC: 2048
rand_sets[40]: 1340
Assign rand_sets[41]: 852  LLC: 2048
rand_sets[41]: 852
Assign rand_sets[42]: 1365  LLC: 2048
rand_sets[42]: 1365
Assign rand_sets[43]: 47  LLC: 2048
rand_sets[43]: 47
Assign rand_sets[44]: 823  LLC: 2048
rand_sets[44]: 823
Assign rand_sets[45]: 686  LLC: 2048
rand_sets[45]: 686
Assign rand_sets[46]: 1637  LLC: 2048
rand_sets[46]: 1637
Assign rand_sets[47]: 1115  LLC: 2048
rand_sets[47]: 1115
Assign rand_sets[48]: 986  LLC: 2048
rand_sets[48]: 986
Assign rand_sets[49]: 258  LLC: 2048
rand_sets[49]: 258
Assign rand_sets[50]: 633  LLC: 2048
rand_sets[50]: 633
Assign rand_sets[51]: 920  LLC: 2048
rand_sets[51]: 920
Assign rand_sets[52]: 204  LLC: 2048
rand_sets[52]: 204
Assign rand_sets[53]: 227  LLC: 2048
rand_sets[53]: 227
Assign rand_sets[54]: 1818  LLC: 2048
rand_sets[54]: 1818
Assign rand_sets[55]: 886  LLC: 2048
rand_sets[55]: 886
Assign rand_sets[56]: 1422  LLC: 2048
rand_sets[56]: 1422
Assign rand_sets[57]: 607  LLC: 2048
rand_sets[57]: 607
Assign rand_sets[58]: 217  LLC: 2048
rand_sets[58]: 217
Assign rand_sets[59]: 1945  LLC: 2048
rand_sets[59]: 1945
Assign rand_sets[60]: 143  LLC: 2048
rand_sets[60]: 143
Assign rand_sets[61]: 1311  LLC: 2048
rand_sets[61]: 1311
Assign rand_sets[62]: 319  LLC: 2048
rand_sets[62]: 319
Assign rand_sets[63]: 1846  LLC: 2048
rand_sets[63]: 1846
 CLEAN-RRIP-POLICY-1: 2-1-2-3-1-0-0-0- CLEAN-RRIP-POLICY-2: 2-1-2-3-1-0-0-0-
 DIRTY-RRIP-POLICY-1: 0-1-0-3-1-0-0-0- DIRTY-RRIP-POLICY-2: 0-1-0-3-1-0-0-0-
 PSEL width: 10
Heartbeat CPU 0 instructions: 10000001 cycles: 7315979 heartbeat IPC: 1.36687 cumulative IPC: 1.36687 (Simulation time: 0 hr 0 min 15 sec) 
Heartbeat CPU 0 instructions: 20000000 cycles: 14307436 heartbeat IPC: 1.43032 cumulative IPC: 1.39787 (Simulation time: 0 hr 0 min 30 sec) 
Heartbeat CPU 0 instructions: 30000001 cycles: 21020273 heartbeat IPC: 1.48968 cumulative IPC: 1.42719 (Simulation time: 0 hr 0 min 46 sec) 
Heartbeat CPU 0 instructions: 40000000 cycles: 27481079 heartbeat IPC: 1.54779 cumulative IPC: 1.45555 (Simulation time: 0 hr 1 min 3 sec) 
Heartbeat CPU 0 instructions: 50000001 cycles: 33582652 heartbeat IPC: 1.63892 cumulative IPC: 1.48886 (Simulation time: 0 hr 1 min 18 sec) 
Heartbeat CPU 0 instructions: 60000000 cycles: 40063677 heartbeat IPC: 1.54297 cumulative IPC: 1.49762 (Simulation time: 0 hr 1 min 35 sec) 
Heartbeat CPU 0 instructions: 70000000 cycles: 47101114 heartbeat IPC: 1.42097 cumulative IPC: 1.48616 (Simulation time: 0 hr 1 min 50 sec) 
Heartbeat CPU 0 instructions: 80000000 cycles: 54190525 heartbeat IPC: 1.41055 cumulative IPC: 1.47627 (Simulation time: 0 hr 2 min 5 sec) 
Heartbeat CPU 0 instructions: 90000003 cycles: 61194742 heartbeat IPC: 1.42771 cumulative IPC: 1.47071 (Simulation time: 0 hr 2 min 19 sec) 
Heartbeat CPU 0 instructions: 100000000 cycles: 68361784 heartbeat IPC: 1.39528 cumulative IPC: 1.46281 (Simulation time: 0 hr 2 min 34 sec) 

Warmup complete CPU 0 instructions: 100000004 cycles: 68361785 (Simulation time: 0 hr 2 min 34 sec) 

Heartbeat CPU 0 instructions: 110000003 cycles: 95991675 heartbeat IPC: 0.361927 cumulative IPC: 0.361927 (Simulation time: 0 hr 3 min 3 sec) 
Heartbeat CPU 0 instructions: 120000000 cycles: 123452508 heartbeat IPC: 0.364155 cumulative IPC: 0.363037 (Simulation time: 0 hr 3 min 32 sec) 
Heartbeat CPU 0 instructions: 130000000 cycles: 148429971 heartbeat IPC: 0.400361 cumulative IPC: 0.374681 (Simulation time: 0 hr 4 min 1 sec) 
Heartbeat CPU 0 instructions: 140000000 cycles: 177809302 heartbeat IPC: 0.340375 cumulative IPC: 0.365472 (Simulation time: 0 hr 4 min 29 sec) 
Heartbeat CPU 0 instructions: 150000000 cycles: 207622176 heartbeat IPC: 0.335426 cumulative IPC: 0.35904 (Simulation time: 0 hr 4 min 58 sec) 
Heartbeat CPU 0 instructions: 160000000 cycles: 235007002 heartbeat IPC: 0.365166 cumulative IPC: 0.360046 (Simulation time: 0 hr 5 min 26 sec) 
Heartbeat CPU 0 instructions: 170000001 cycles: 263019676 heartbeat IPC: 0.356981 cumulative IPC: 0.359605 (Simulation time: 0 hr 5 min 56 sec) 
Heartbeat CPU 0 instructions: 180000000 cycles: 291437964 heartbeat IPC: 0.351886 cumulative IPC: 0.358622 (Simulation time: 0 hr 6 min 24 sec) 
Heartbeat CPU 0 instructions: 190000002 cycles: 319399440 heartbeat IPC: 0.357635 cumulative IPC: 0.358512 (Simulation time: 0 hr 6 min 53 sec) 
Heartbeat CPU 0 instructions: 200000000 cycles: 347711600 heartbeat IPC: 0.353205 cumulative IPC: 0.357974 (Simulation time: 0 hr 7 min 22 sec) 
Heartbeat CPU 0 instructions: 210000002 cycles: 375491337 heartbeat IPC: 0.359975 cumulative IPC: 0.358155 (Simulation time: 0 hr 7 min 51 sec) 
Heartbeat CPU 0 instructions: 220000000 cycles: 404511150 heartbeat IPC: 0.344592 cumulative IPC: 0.356984 (Simulation time: 0 hr 8 min 18 sec) 
Heartbeat CPU 0 instructions: 230000000 cycles: 432025263 heartbeat IPC: 0.36345 cumulative IPC: 0.357473 (Simulation time: 0 hr 8 min 46 sec) 
Heartbeat CPU 0 instructions: 240000000 cycles: 457969038 heartbeat IPC: 0.385449 cumulative IPC: 0.359336 (Simulation time: 0 hr 9 min 13 sec) 
Heartbeat CPU 0 instructions: 250000000 cycles: 488101806 heartbeat IPC: 0.331865 cumulative IPC: 0.357364 (Simulation time: 0 hr 9 min 42 sec) 
Heartbeat CPU 0 instructions: 260000000 cycles: 515194329 heartbeat IPC: 0.369106 cumulative IPC: 0.358076 (Simulation time: 0 hr 10 min 10 sec) 
Heartbeat CPU 0 instructions: 270000003 cycles: 543605915 heartbeat IPC: 0.351969 cumulative IPC: 0.357711 (Simulation time: 0 hr 10 min 40 sec) 
Heartbeat CPU 0 instructions: 280000000 cycles: 571759511 heartbeat IPC: 0.355194 cumulative IPC: 0.35757 (Simulation time: 0 hr 11 min 9 sec) 
Heartbeat CPU 0 instructions: 290000000 cycles: 600574275 heartbeat IPC: 0.347044 cumulative IPC: 0.357 (Simulation time: 0 hr 11 min 39 sec) 
Heartbeat CPU 0 instructions: 300000000 cycles: 630328367 heartbeat IPC: 0.336088 cumulative IPC: 0.355893 (Simulation time: 0 hr 12 min 7 sec) 
Heartbeat CPU 0 instructions: 310000001 cycles: 659643765 heartbeat IPC: 0.341118 cumulative IPC: 0.35516 (Simulation time: 0 hr 12 min 35 sec) 
Heartbeat CPU 0 instructions: 320000000 cycles: 687793043 heartbeat IPC: 0.355249 cumulative IPC: 0.355164 (Simulation time: 0 hr 13 min 3 sec) 
Heartbeat CPU 0 instructions: 330000000 cycles: 716387745 heartbeat IPC: 0.349715 cumulative IPC: 0.354924 (Simulation time: 0 hr 13 min 31 sec) 
Heartbeat CPU 0 instructions: 340000000 cycles: 745634655 heartbeat IPC: 0.341916 cumulative IPC: 0.354362 (Simulation time: 0 hr 14 min 0 sec) 
Heartbeat CPU 0 instructions: 350000003 cycles: 772602894 heartbeat IPC: 0.370807 cumulative IPC: 0.354992 (Simulation time: 0 hr 14 min 27 sec) 
Heartbeat CPU 0 instructions: 360000000 cycles: 800671926 heartbeat IPC: 0.356264 cumulative IPC: 0.355041 (Simulation time: 0 hr 14 min 54 sec) 
Heartbeat CPU 0 instructions: 370000000 cycles: 828886782 heartbeat IPC: 0.354423 cumulative IPC: 0.355018 (Simulation time: 0 hr 15 min 22 sec) 
Heartbeat CPU 0 instructions: 380000000 cycles: 857410882 heartbeat IPC: 0.350581 cumulative IPC: 0.354858 (Simulation time: 0 hr 15 min 49 sec) 
Heartbeat CPU 0 instructions: 390000001 cycles: 885038453 heartbeat IPC: 0.361957 cumulative IPC: 0.355098 (Simulation time: 0 hr 16 min 16 sec) 
Heartbeat CPU 0 instructions: 400000000 cycles: 913685975 heartbeat IPC: 0.34907 cumulative IPC: 0.354893 (Simulation time: 0 hr 16 min 43 sec) 
Heartbeat CPU 0 instructions: 410000001 cycles: 941018233 heartbeat IPC: 0.365868 cumulative IPC: 0.355237 (Simulation time: 0 hr 17 min 10 sec) 
Heartbeat CPU 0 instructions: 420000000 cycles: 968362602 heartbeat IPC: 0.365706 cumulative IPC: 0.355555 (Simulation time: 0 hr 17 min 37 sec) 
Heartbeat CPU 0 instructions: 430000002 cycles: 996053951 heartbeat IPC: 0.361124 cumulative IPC: 0.355721 (Simulation time: 0 hr 18 min 4 sec) 
Heartbeat CPU 0 instructions: 440000000 cycles: 1025512354 heartbeat IPC: 0.339462 cumulative IPC: 0.355221 (Simulation time: 0 hr 18 min 31 sec) 
Heartbeat CPU 0 instructions: 450000002 cycles: 1054766534 heartbeat IPC: 0.341832 cumulative IPC: 0.354824 (Simulation time: 0 hr 18 min 59 sec) 
Heartbeat CPU 0 instructions: 460000000 cycles: 1082486290 heartbeat IPC: 0.360753 cumulative IPC: 0.354986 (Simulation time: 0 hr 19 min 26 sec) 
Heartbeat CPU 0 instructions: 470000000 cycles: 1110150406 heartbeat IPC: 0.361479 cumulative IPC: 0.355158 (Simulation time: 0 hr 19 min 53 sec) 
Heartbeat CPU 0 instructions: 480000000 cycles: 1138060417 heartbeat IPC: 0.358294 cumulative IPC: 0.35524 (Simulation time: 0 hr 20 min 20 sec) 
Heartbeat CPU 0 instructions: 490000000 cycles: 1165693635 heartbeat IPC: 0.361883 cumulative IPC: 0.355408 (Simulation time: 0 hr 20 min 47 sec) 
Heartbeat CPU 0 instructions: 500000000 cycles: 1193950255 heartbeat IPC: 0.353899 cumulative IPC: 0.35537 (Simulation time: 0 hr 21 min 14 sec) 
Heartbeat CPU 0 instructions: 510000000 cycles: 1229144505 heartbeat IPC: 0.284137 cumulative IPC: 0.35321 (Simulation time: 0 hr 21 min 45 sec) 
Heartbeat CPU 0 instructions: 520000000 cycles: 1257116978 heartbeat IPC: 0.357494 cumulative IPC: 0.353311 (Simulation time: 0 hr 22 min 13 sec) 
Heartbeat CPU 0 instructions: 530000001 cycles: 1286321869 heartbeat IPC: 0.342408 cumulative IPC: 0.353049 (Simulation time: 0 hr 22 min 41 sec) 
Heartbeat CPU 0 instructions: 540000000 cycles: 1314291882 heartbeat IPC: 0.357526 cumulative IPC: 0.35315 (Simulation time: 0 hr 23 min 9 sec) 
Heartbeat CPU 0 instructions: 550000001 cycles: 1343484055 heartbeat IPC: 0.342558 cumulative IPC: 0.352907 (Simulation time: 0 hr 23 min 38 sec) 
Heartbeat CPU 0 instructions: 560000000 cycles: 1368822982 heartbeat IPC: 0.39465 cumulative IPC: 0.353721 (Simulation time: 0 hr 24 min 6 sec) 
Heartbeat CPU 0 instructions: 570000000 cycles: 1398221883 heartbeat IPC: 0.340149 cumulative IPC: 0.353421 (Simulation time: 0 hr 24 min 34 sec) 
Heartbeat CPU 0 instructions: 580000000 cycles: 1426163404 heartbeat IPC: 0.35789 cumulative IPC: 0.353513 (Simulation time: 0 hr 25 min 3 sec) 
Heartbeat CPU 0 instructions: 590000001 cycles: 1450967974 heartbeat IPC: 0.403152 cumulative IPC: 0.354403 (Simulation time: 0 hr 25 min 29 sec) 
Heartbeat CPU 0 instructions: 600000000 cycles: 1477134075 heartbeat IPC: 0.382174 cumulative IPC: 0.354919 (Simulation time: 0 hr 25 min 57 sec) 
Finished CPU 0 instructions: 500000000 cycles: 1408772312 cumulative IPC: 0.354919 (Simulation time: 0 hr 25 min 57 sec) 

CPU 0 Branch Prediction Accuracy: 86.4311% MPKI: 26.2662
Number of Branches: 96788573 Number of Mispredictions: 13133102
Number of LOAD Instructions: 164682285
Number of LOAD Instructions (ROI): 164682285
Number of STORE Instructions: 78194750
Number of STORE Instructions (ROI): 78194750
Total Destination Memory Operands: 83268534
Total Destination Memory Operands (ROI): 83268534
Total Source Memory Operands: 164712438
Total Source Memory Operands (ROI): 164712438
Number of DEPENDED LOADS: 7063263
Number of DEPENDED LOADS (ROI): 7063263
Number of SQ_ADDED: 83268522
Number of SQ_ADDED (ROI): 83268522
Number of LQ_ADDED: 236706860
Number of LQ_ADDED (ROI): 236706860
Number of Instructions read from trace: 600000066

ChampSim completed all CPUs

Region of Interest Statistics

CPU 0 cumulative IPC: 0.354919 instructions: 500000000 cycles: 1408772312
ITLB TOTAL     ACCESS:  100506840  HIT:  100302394  MISS:     204446
ITLB LOAD      ACCESS:  100506840  HIT:  100302394  MISS:     204446
ITLB RFO       ACCESS:          0  HIT:          0  MISS:          0
ITLB PREFETCH  ACCESS:          0  HIT:          0  MISS:          0
ITLB WRITEBACK ACCESS:          0  HIT:          0  MISS:          0
ITLB PREFETCH  REQUESTED:          0  ISSUED:          0  USEFUL:          0  USELESS:          0
ITLB TOTAL MSHR MERGED:     172423
ITLB LOAD MSHR MERGED:     172423
ITLB RFO MSHR MERGED:          0
ITLB PREFETCH MSHR MERGED:          0
ITLB WRITEBACK MSHR MERGED:          0
ITLB TOTAL ACCESSES:  100679263 HITS:  100302394 MISSES:     376869
ITLB LOAD ACCESSES:  100679263 HITS:  100302394 MISSES:     376869
ITLB RFO ACCESSES:          0 HITS:          0 MISSES:          0
ITLB PREFETCH ACCESSES:          0 HITS:          0 MISSES:          0
ITLB WRITEBACK ACCESSES:          0 HITS:          0 MISSES:          0
ITLB RQ ACCESS:  500000057
ITLB RQ TO_CACHE:  100679263
ITLB RQ MERGED:  399320794
ITLB RQ FORWARD:          0
ITLB WQ ACCESS:          0
ITLB WQ TO_CACHE:          0
ITLB WQ MERGED:          0
ITLB WQ FORWARD:          0
DTLB TOTAL     ACCESS:  165332846  HIT:  164698500  MISS:     634346
DTLB LOAD      ACCESS:  106289012  HIT:  105719022  MISS:     569990
DTLB RFO       ACCESS:   59043834  HIT:   58979478  MISS:      64356
DTLB PREFETCH  ACCESS:          0  HIT:          0  MISS:          0
DTLB WRITEBACK ACCESS:          0  HIT:          0  MISS:          0
DTLB PREFETCH  REQUESTED:          0  ISSUED:          0  USEFUL:          0  USELESS:          0
DTLB TOTAL MSHR MERGED:      99969
DTLB LOAD MSHR MERGED:      59441
DTLB RFO MSHR MERGED:      40528
DTLB PREFETCH MSHR MERGED:          0
DTLB WRITEBACK MSHR MERGED:          0
DTLB TOTAL ACCESSES:  165432815 HITS:  164698500 MISSES:     734315
DTLB LOAD ACCESSES:  106348453 HITS:  105719022 MISSES:     629431
DTLB RFO ACCESSES:   59084362 HITS:   58979478 MISSES:     104884
DTLB PREFETCH ACCESSES:          0 HITS:          0 MISSES:          0
DTLB WRITEBACK ACCESSES:          0 HITS:          0 MISSES:          0
DTLB RQ ACCESS:  200307629
DTLB RQ TO_CACHE:  165432815
DTLB RQ MERGED:   34874814
DTLB RQ FORWARD:          0
DTLB WQ ACCESS:          0
DTLB WQ TO_CACHE:          0
DTLB WQ MERGED:          0
DTLB WQ FORWARD:          0
L1D TOTAL     ACCESS:  281779412  HIT:  273870207  MISS:    7909205
L1D LOAD      ACCESS:  110405807  HIT:  107123886  MISS:    3281921
L1D RFO       ACCESS:   67108380  HIT:   66217444  MISS:     890936
L1D PREFETCH  ACCESS:  104265225  HIT:  100528877  MISS:    3736348
L1D WRITEBACK ACCESS:          0  HIT:          0  MISS:          0
L1D PREFETCH  REQUESTED:  110813970  ISSUED:  109114710  USEFUL:    1657177  USELESS:    2079135
L1D TOTAL MSHR MERGED:    2918610
L1D LOAD MSHR MERGED:     509552
L1D RFO MSHR MERGED:    1877812
L1D PREFETCH MSHR MERGED:     531246
L1D WRITEBACK MSHR MERGED:          0
L1D TOTAL ACCESSES:  284725532 HITS:  273897717 MISSES:   10827815
L1D LOAD ACCESSES:  110815497 HITS:  107125413 MISSES:    3690084
L1D RFO ACCESSES:   68974054 HITS:   66217444 MISSES:    2756610
L1D PREFETCH ACCESSES:  104935981 HITS:  100554860 MISSES:    4381121
L1D WRITEBACK ACCESSES:          0 HITS:          0 MISSES:          0
L1D RQ ACCESS:  130755026
L1D RQ TO_CACHE:  110813973
L1D RQ MERGED:   19939526
L1D RQ FORWARD:          0
L1D WQ ACCESS:   69552603
L1D WQ TO_CACHE:   68974055
L1D WQ MERGED:     578548
L1D WQ FORWARD:      27510
L1I TOTAL     ACCESS:  126554759  HIT:  122316207  MISS:    4238552
L1I LOAD      ACCESS:  126554759  HIT:  122316207  MISS:    4238552
L1I RFO       ACCESS:          0  HIT:          0  MISS:          0
L1I PREFETCH  ACCESS:          0  HIT:          0  MISS:          0
L1I WRITEBACK ACCESS:          0  HIT:          0  MISS:          0
L1I PREFETCH  REQUESTED:          0  ISSUED:          0  USEFUL:          0  USELESS:          0
L1I TOTAL MSHR MERGED:    1834434
L1I LOAD MSHR MERGED:    1834434
L1I RFO MSHR MERGED:          0
L1I PREFETCH MSHR MERGED:          0
L1I WRITEBACK MSHR MERGED:          0
L1I TOTAL ACCESSES:  128389196 HITS:  122316207 MISSES:    6072989
L1I LOAD ACCESSES:  128389196 HITS:  122316207 MISSES:    6072989
L1I RFO ACCESSES:          0 HITS:          0 MISSES:          0
L1I PREFETCH ACCESSES:          0 HITS:          0 MISSES:          0
L1I WRITEBACK ACCESSES:          0 HITS:          0 MISSES:          0
L1I RQ ACCESS:  500000057
L1I RQ TO_CACHE:  128389196
L1I RQ MERGED:  371610861
L1I RQ FORWARD:          0
L1I WQ ACCESS:          0
L1I WQ TO_CACHE:          0
L1I WQ MERGED:          0
L1I WQ FORWARD:          0
L2C TOTAL     ACCESS:   14903888  HIT:   11157391  MISS:    3746497
L2C LOAD      ACCESS:    7418874  HIT:    5098557  MISS:    2320317
L2C RFO       ACCESS:     878702  HIT:     409902  MISS:     468800
L2C PREFETCH  ACCESS:    4567096  HIT:    3626972  MISS:     940124
L2C WRITEBACK ACCESS:    2039216  HIT:    2021960  MISS:      17256
L2C PREFETCH  REQUESTED:     842720  ISSUED:     842720  USEFUL:     203079  USELESS:     736751
L2C TOTAL MSHR MERGED:       8146
L2C LOAD MSHR MERGED:       1064
L2C RFO MSHR MERGED:          0
L2C PREFETCH MSHR MERGED:       7082
L2C WRITEBACK MSHR MERGED:          0
L2C TOTAL ACCESSES:   14912994 HITS:   11157842 MISSES:    3755152
L2C LOAD ACCESSES:    7419084 HITS:    5098767 MISSES:    2320317
L2C RFO ACCESSES:     878798 HITS:     409998 MISSES:     468800
L2C PREFETCH ACCESSES:    4575896 HITS:    3627117 MISSES:     948779
L2C WRITEBACK ACCESSES:    2039216 HITS:    2021960 MISSES:      17256
L2C RQ ACCESS:    8297885
L2C RQ TO_CACHE:    8297579
L2C RQ MERGED:          0
L2C RQ FORWARD:          0
L2C WQ ACCESS:    2039216
L2C WQ TO_CACHE:    2039216
L2C WQ MERGED:          0
L2C WQ FORWARD:        451
LLC TOTAL     ACCESS:    4609873  HIT:    3891478  MISS:     718395
LLC LOAD      ACCESS:    2319240  HIT:    2092511  MISS:     226729
LLC RFO       ACCESS:     468788  HIT:     389720  MISS:      79068
LLC PREFETCH  ACCESS:     941553  HIT:     568564  MISS:     372989
LLC WRITEBACK ACCESS:     880292  HIT:     840683  MISS:      39609
LLC PREFETCH  REQUESTED:          0  ISSUED:          0  USEFUL:      13710  USELESS:     360002
LLC TOTAL MSHR MERGED:        128
LLC LOAD MSHR MERGED:         46
LLC RFO MSHR MERGED:          0
LLC PREFETCH MSHR MERGED:         82
LLC WRITEBACK MSHR MERGED:          0
LLC TOTAL ACCESSES:    4610037 HITS:    3891514 MISSES:     718523
LLC LOAD ACCESSES:    2319253 HITS:    2092524 MISSES:     226729
LLC RFO ACCESSES:     468800 HITS:     389732 MISSES:      79068
LLC PREFETCH ACCESSES:     941692 HITS:     568575 MISSES:     373117
LLC WRITEBACK ACCESSES:     880292 HITS:     840683 MISSES:      39609
LLC 0 RQ ACCESS:    2788053
LLC 0 RQ TO_CACHE:    2788028
LLC 0 RQ MERGED:          0
LLC 0 RQ FORWARD:          0
LLC WQ ACCESS:     880292
LLC WQ TO_CACHE:     880292
LLC WQ MERGED:          0
LLC WQ FORWARD:         36
Major fault: 0 Minor fault: 12862
CPU 0 L1D next line prefetcher final stats
CPU 0 L2C PC-based stride prefetcher final stats
All Misses: 839297
All Hits: 4587582
SD Algo Stats - Switches: 0 SRR-Repls: 263980 BRR-Repls: 0

DRAM Statistics
 CHANNEL 0
 RQ ROW_BUFFER_HIT:     127705  ROW_BUFFER_MISS:     549728
 DBUS_CONGESTED:     396816
 WQ ROW_BUFFER_HIT:      18493  ROW_BUFFER_MISS:     202263  FULL:          0

 AVG_CONGESTED_CYCLE: 13
LOADS RETIRED: 136549171
INSTR RETIRED: 500000000
