
*** ChampSim Multicore Out-of-Order Simulator ***

Warmup Instructions: 100000000
Simulation Instructions: 500000000
Number of CPUs: 1
LLC sets: 2048
LLC ways: 16
Clean RRIP Policies: 1213130112131301 Dirty RRIP Policies: 2203130122031301 PSEL Width: 10 Track Set: 4294967295 PSEL Mask: 1 Demote Mask: 3010201030102010DS Algo: 0Window size: 0
Off-chip DRAM Size: 4096 MB Channels: 1 Width: 64-bit Data Rate: 1600 MT/s

CPU 0 runs /mnt/beegfs/iconst01/spec2017/Fotonik3d.trace.gz
NOT SORTED
TRACE STRING: /mnt/beegfs/iconst01/spec2017/Fotonik3d.trace.gz
SORTED
TRACE STRING: /mnt/beegfs/iconst01/spec2017/Fotonik3d.trace.gz
INITIAL
TRACE STRING: /mnt/beegfs/iconst01/spec2017/Fotonik3d.trace.gz

champsim_seed used: 881

CPU 0 L1D next line prefetcher
CPU 0 L2C IP-based stride prefetcher
Initialize DRRIP state
Assign rand_sets[0]: 454  LLC: 2048
rand_sets[0]: 454
Assign rand_sets[1]: 1662  LLC: 2048
rand_sets[1]: 1662
Assign rand_sets[2]: 1921  LLC: 2048
rand_sets[2]: 1921
Assign rand_sets[3]: 1131  LLC: 2048
rand_sets[3]: 1131
Assign rand_sets[4]: 331  LLC: 2048
rand_sets[4]: 331
Assign rand_sets[5]: 1531  LLC: 2048
rand_sets[5]: 1531
Assign rand_sets[6]: 482  LLC: 2048
rand_sets[6]: 482
Assign rand_sets[7]: 1275  LLC: 2048
rand_sets[7]: 1275
Assign rand_sets[8]: 1876  LLC: 2048
rand_sets[8]: 1876
Assign rand_sets[9]: 2038  LLC: 2048
rand_sets[9]: 2038
Assign rand_sets[10]: 701  LLC: 2048
rand_sets[10]: 701
Assign rand_sets[11]: 479  LLC: 2048
rand_sets[11]: 479
Assign rand_sets[12]: 892  LLC: 2048
rand_sets[12]: 892
Assign rand_sets[13]: 1820  LLC: 2048
rand_sets[13]: 1820
Assign rand_sets[14]: 1505  LLC: 2048
rand_sets[14]: 1505
Assign rand_sets[15]: 1159  LLC: 2048
rand_sets[15]: 1159
Assign rand_sets[16]: 513  LLC: 2048
rand_sets[16]: 513
Assign rand_sets[17]: 703  LLC: 2048
rand_sets[17]: 703
Assign rand_sets[18]: 561  LLC: 2048
rand_sets[18]: 561
Assign rand_sets[19]: 990  LLC: 2048
rand_sets[19]: 990
Assign rand_sets[20]: 342  LLC: 2048
rand_sets[20]: 342
Assign rand_sets[21]: 882  LLC: 2048
rand_sets[21]: 882
Assign rand_sets[22]: 15  LLC: 2048
rand_sets[22]: 15
Assign rand_sets[23]: 71  LLC: 2048
rand_sets[23]: 71
Assign rand_sets[24]: 1127  LLC: 2048
rand_sets[24]: 1127
Assign rand_sets[25]: 1382  LLC: 2048
rand_sets[25]: 1382
Assign rand_sets[26]: 647  LLC: 2048
rand_sets[26]: 647
Assign rand_sets[27]: 857  LLC: 2048
rand_sets[27]: 857
Assign rand_sets[28]: 1450  LLC: 2048
rand_sets[28]: 1450
Assign rand_sets[29]: 1160  LLC: 2048
rand_sets[29]: 1160
Assign rand_sets[30]: 1852  LLC: 2048
rand_sets[30]: 1852
Assign rand_sets[31]: 1881  LLC: 2048
rand_sets[31]: 1881
Assign rand_sets[32]: 1770  LLC: 2048
rand_sets[32]: 1770
Assign rand_sets[33]: 1622  LLC: 2048
rand_sets[33]: 1622
Assign rand_sets[34]: 275  LLC: 2048
rand_sets[34]: 275
Assign rand_sets[35]: 635  LLC: 2048
rand_sets[35]: 635
Assign rand_sets[36]: 466  LLC: 2048
rand_sets[36]: 466
Assign rand_sets[37]: 1413  LLC: 2048
rand_sets[37]: 1413
Assign rand_sets[38]: 417  LLC: 2048
rand_sets[38]: 417
Assign rand_sets[39]: 472  LLC: 2048
rand_sets[39]: 472
Assign rand_sets[40]: 1340  LLC: 2048
rand_sets[40]: 1340
Assign rand_sets[41]: 852  LLC: 2048
rand_sets[41]: 852
Assign rand_sets[42]: 1365  LLC: 2048
rand_sets[42]: 1365
Assign rand_sets[43]: 47  LLC: 2048
rand_sets[43]: 47
Assign rand_sets[44]: 823  LLC: 2048
rand_sets[44]: 823
Assign rand_sets[45]: 686  LLC: 2048
rand_sets[45]: 686
Assign rand_sets[46]: 1637  LLC: 2048
rand_sets[46]: 1637
Assign rand_sets[47]: 1115  LLC: 2048
rand_sets[47]: 1115
Assign rand_sets[48]: 986  LLC: 2048
rand_sets[48]: 986
Assign rand_sets[49]: 258  LLC: 2048
rand_sets[49]: 258
Assign rand_sets[50]: 633  LLC: 2048
rand_sets[50]: 633
Assign rand_sets[51]: 920  LLC: 2048
rand_sets[51]: 920
Assign rand_sets[52]: 204  LLC: 2048
rand_sets[52]: 204
Assign rand_sets[53]: 227  LLC: 2048
rand_sets[53]: 227
Assign rand_sets[54]: 1818  LLC: 2048
rand_sets[54]: 1818
Assign rand_sets[55]: 886  LLC: 2048
rand_sets[55]: 886
Assign rand_sets[56]: 1422  LLC: 2048
rand_sets[56]: 1422
Assign rand_sets[57]: 607  LLC: 2048
rand_sets[57]: 607
Assign rand_sets[58]: 217  LLC: 2048
rand_sets[58]: 217
Assign rand_sets[59]: 1945  LLC: 2048
rand_sets[59]: 1945
Assign rand_sets[60]: 143  LLC: 2048
rand_sets[60]: 143
Assign rand_sets[61]: 1311  LLC: 2048
rand_sets[61]: 1311
Assign rand_sets[62]: 319  LLC: 2048
rand_sets[62]: 319
Assign rand_sets[63]: 1846  LLC: 2048
rand_sets[63]: 1846
 CLEAN-RRIP-POLICY-1: 1-2-1-3-1-3-0-1- CLEAN-RRIP-POLICY-2: 1-2-1-3-1-3-0-1-
 DIRTY-RRIP-POLICY-1: 2-2-0-3-1-3-0-1- DIRTY-RRIP-POLICY-2: 2-2-0-3-1-3-0-1-
 PSEL width: 10
Heartbeat CPU 0 instructions: 10000002 cycles: 7306710 heartbeat IPC: 1.36861 cumulative IPC: 1.36861 (Simulation time: 0 hr 0 min 24 sec) 
Heartbeat CPU 0 instructions: 20000000 cycles: 14613521 heartbeat IPC: 1.36859 cumulative IPC: 1.3686 (Simulation time: 0 hr 0 min 47 sec) 
Heartbeat CPU 0 instructions: 30000001 cycles: 21920197 heartbeat IPC: 1.36861 cumulative IPC: 1.3686 (Simulation time: 0 hr 1 min 11 sec) 
Heartbeat CPU 0 instructions: 40000000 cycles: 29226752 heartbeat IPC: 1.36863 cumulative IPC: 1.36861 (Simulation time: 0 hr 1 min 35 sec) 
Heartbeat CPU 0 instructions: 50000001 cycles: 36533294 heartbeat IPC: 1.36864 cumulative IPC: 1.36861 (Simulation time: 0 hr 1 min 59 sec) 
Heartbeat CPU 0 instructions: 60000000 cycles: 43840093 heartbeat IPC: 1.36859 cumulative IPC: 1.36861 (Simulation time: 0 hr 2 min 24 sec) 
Heartbeat CPU 0 instructions: 70000002 cycles: 51146686 heartbeat IPC: 1.36863 cumulative IPC: 1.36861 (Simulation time: 0 hr 2 min 48 sec) 
Heartbeat CPU 0 instructions: 80000000 cycles: 58453281 heartbeat IPC: 1.36863 cumulative IPC: 1.36861 (Simulation time: 0 hr 3 min 12 sec) 
Heartbeat CPU 0 instructions: 90000003 cycles: 65763656 heartbeat IPC: 1.36792 cumulative IPC: 1.36854 (Simulation time: 0 hr 3 min 37 sec) 
Heartbeat CPU 0 instructions: 100000000 cycles: 73074085 heartbeat IPC: 1.36791 cumulative IPC: 1.36847 (Simulation time: 0 hr 4 min 1 sec) 

Warmup complete CPU 0 instructions: 100000002 cycles: 73074097 (Simulation time: 0 hr 4 min 1 sec) 

Heartbeat CPU 0 instructions: 110000001 cycles: 85478581 heartbeat IPC: 0.806159 cumulative IPC: 0.80616 (Simulation time: 0 hr 4 min 30 sec) 
Heartbeat CPU 0 instructions: 120000000 cycles: 97819306 heartbeat IPC: 0.810325 cumulative IPC: 0.808237 (Simulation time: 0 hr 4 min 59 sec) 
Heartbeat CPU 0 instructions: 130000000 cycles: 110211562 heartbeat IPC: 0.806956 cumulative IPC: 0.80781 (Simulation time: 0 hr 5 min 28 sec) 
Heartbeat CPU 0 instructions: 140000000 cycles: 122572741 heartbeat IPC: 0.808984 cumulative IPC: 0.808103 (Simulation time: 0 hr 5 min 57 sec) 
Heartbeat CPU 0 instructions: 150000000 cycles: 134881831 heartbeat IPC: 0.812408 cumulative IPC: 0.80896 (Simulation time: 0 hr 6 min 26 sec) 
Heartbeat CPU 0 instructions: 160000000 cycles: 147243858 heartbeat IPC: 0.808929 cumulative IPC: 0.808955 (Simulation time: 0 hr 6 min 55 sec) 
Heartbeat CPU 0 instructions: 170000001 cycles: 159611391 heartbeat IPC: 0.808569 cumulative IPC: 0.8089 (Simulation time: 0 hr 7 min 24 sec) 
Heartbeat CPU 0 instructions: 180000000 cycles: 171974311 heartbeat IPC: 0.80887 cumulative IPC: 0.808896 (Simulation time: 0 hr 7 min 53 sec) 
Heartbeat CPU 0 instructions: 190000000 cycles: 184369128 heartbeat IPC: 0.806789 cumulative IPC: 0.808661 (Simulation time: 0 hr 8 min 22 sec) 
Heartbeat CPU 0 instructions: 200000000 cycles: 196716048 heartbeat IPC: 0.809919 cumulative IPC: 0.808787 (Simulation time: 0 hr 8 min 51 sec) 
Heartbeat CPU 0 instructions: 210000002 cycles: 209101028 heartbeat IPC: 0.80743 cumulative IPC: 0.808663 (Simulation time: 0 hr 9 min 20 sec) 
Heartbeat CPU 0 instructions: 220000000 cycles: 221506219 heartbeat IPC: 0.806114 cumulative IPC: 0.80845 (Simulation time: 0 hr 9 min 49 sec) 
Heartbeat CPU 0 instructions: 230000002 cycles: 233857330 heartbeat IPC: 0.809644 cumulative IPC: 0.808542 (Simulation time: 0 hr 10 min 17 sec) 
Heartbeat CPU 0 instructions: 240000000 cycles: 246969440 heartbeat IPC: 0.762654 cumulative IPC: 0.805082 (Simulation time: 0 hr 10 min 47 sec) 
Heartbeat CPU 0 instructions: 250000001 cycles: 264146031 heartbeat IPC: 0.582188 cumulative IPC: 0.785045 (Simulation time: 0 hr 11 min 18 sec) 
Heartbeat CPU 0 instructions: 260000000 cycles: 281259522 heartbeat IPC: 0.584334 cumulative IPC: 0.768546 (Simulation time: 0 hr 11 min 50 sec) 
Heartbeat CPU 0 instructions: 270000000 cycles: 298459726 heartbeat IPC: 0.581388 cumulative IPC: 0.754263 (Simulation time: 0 hr 12 min 21 sec) 
Heartbeat CPU 0 instructions: 280000000 cycles: 315604407 heartbeat IPC: 0.583271 cumulative IPC: 0.742175 (Simulation time: 0 hr 12 min 52 sec) 
Heartbeat CPU 0 instructions: 290000001 cycles: 343981763 heartbeat IPC: 0.352394 cumulative IPC: 0.701346 (Simulation time: 0 hr 13 min 31 sec) 
Heartbeat CPU 0 instructions: 300000000 cycles: 380859126 heartbeat IPC: 0.271169 cumulative IPC: 0.649804 (Simulation time: 0 hr 14 min 14 sec) 
Heartbeat CPU 0 instructions: 310000000 cycles: 397363991 heartbeat IPC: 0.605882 cumulative IPC: 0.647569 (Simulation time: 0 hr 14 min 45 sec) 
Heartbeat CPU 0 instructions: 320000000 cycles: 413880557 heartbeat IPC: 0.605453 cumulative IPC: 0.645528 (Simulation time: 0 hr 15 min 15 sec) 
Heartbeat CPU 0 instructions: 330000003 cycles: 430430296 heartbeat IPC: 0.604239 cumulative IPC: 0.643616 (Simulation time: 0 hr 15 min 45 sec) 
Heartbeat CPU 0 instructions: 340000000 cycles: 446933869 heartbeat IPC: 0.605929 cumulative IPC: 0.641952 (Simulation time: 0 hr 16 min 15 sec) 
Heartbeat CPU 0 instructions: 350000001 cycles: 461681154 heartbeat IPC: 0.678091 cumulative IPC: 0.643323 (Simulation time: 0 hr 16 min 43 sec) 
Heartbeat CPU 0 instructions: 360000000 cycles: 473570317 heartbeat IPC: 0.841102 cumulative IPC: 0.649195 (Simulation time: 0 hr 17 min 9 sec) 
Heartbeat CPU 0 instructions: 370000002 cycles: 485278278 heartbeat IPC: 0.85412 cumulative IPC: 0.655015 (Simulation time: 0 hr 17 min 35 sec) 
Heartbeat CPU 0 instructions: 380000000 cycles: 497145991 heartbeat IPC: 0.842622 cumulative IPC: 0.660265 (Simulation time: 0 hr 18 min 2 sec) 
Heartbeat CPU 0 instructions: 390000003 cycles: 510460700 heartbeat IPC: 0.751049 cumulative IPC: 0.663029 (Simulation time: 0 hr 18 min 29 sec) 
Heartbeat CPU 0 instructions: 400000000 cycles: 522710282 heartbeat IPC: 0.816354 cumulative IPC: 0.667206 (Simulation time: 0 hr 18 min 55 sec) 
Heartbeat CPU 0 instructions: 410000002 cycles: 534667312 heartbeat IPC: 0.836328 cumulative IPC: 0.671587 (Simulation time: 0 hr 19 min 22 sec) 
Heartbeat CPU 0 instructions: 420000000 cycles: 547494062 heartbeat IPC: 0.779621 cumulative IPC: 0.674508 (Simulation time: 0 hr 19 min 49 sec) 
Heartbeat CPU 0 instructions: 430000003 cycles: 565981508 heartbeat IPC: 0.540908 cumulative IPC: 0.669497 (Simulation time: 0 hr 20 min 13 sec) 
Heartbeat CPU 0 instructions: 440000000 cycles: 584551079 heartbeat IPC: 0.538515 cumulative IPC: 0.664742 (Simulation time: 0 hr 20 min 37 sec) 
Heartbeat CPU 0 instructions: 450000003 cycles: 603158620 heartbeat IPC: 0.537417 cumulative IPC: 0.660272 (Simulation time: 0 hr 21 min 1 sec) 
Heartbeat CPU 0 instructions: 460000000 cycles: 621725914 heartbeat IPC: 0.538581 cumulative IPC: 0.656154 (Simulation time: 0 hr 21 min 25 sec) 
Heartbeat CPU 0 instructions: 470000003 cycles: 640317997 heartbeat IPC: 0.537863 cumulative IPC: 0.652277 (Simulation time: 0 hr 21 min 50 sec) 
Heartbeat CPU 0 instructions: 480000000 cycles: 658893065 heartbeat IPC: 0.538356 cumulative IPC: 0.648665 (Simulation time: 0 hr 22 min 14 sec) 
Heartbeat CPU 0 instructions: 490000003 cycles: 677507143 heartbeat IPC: 0.537228 cumulative IPC: 0.645233 (Simulation time: 0 hr 22 min 38 sec) 
Heartbeat CPU 0 instructions: 500000000 cycles: 696065830 heartbeat IPC: 0.538831 cumulative IPC: 0.642063 (Simulation time: 0 hr 23 min 2 sec) 
Heartbeat CPU 0 instructions: 510000003 cycles: 714658800 heartbeat IPC: 0.537838 cumulative IPC: 0.639043 (Simulation time: 0 hr 23 min 26 sec) 
Heartbeat CPU 0 instructions: 520000000 cycles: 733238395 heartbeat IPC: 0.538225 cumulative IPC: 0.636205 (Simulation time: 0 hr 23 min 50 sec) 
Heartbeat CPU 0 instructions: 530000001 cycles: 751836542 heartbeat IPC: 0.537688 cumulative IPC: 0.633506 (Simulation time: 0 hr 24 min 15 sec) 
Heartbeat CPU 0 instructions: 540000000 cycles: 770365190 heartbeat IPC: 0.539705 cumulative IPC: 0.631013 (Simulation time: 0 hr 24 min 39 sec) 
Heartbeat CPU 0 instructions: 550000001 cycles: 788889873 heartbeat IPC: 0.53982 cumulative IPC: 0.628653 (Simulation time: 0 hr 25 min 3 sec) 
Heartbeat CPU 0 instructions: 560000000 cycles: 807405545 heartbeat IPC: 0.540083 cumulative IPC: 0.62642 (Simulation time: 0 hr 25 min 27 sec) 
Heartbeat CPU 0 instructions: 570000001 cycles: 825933029 heartbeat IPC: 0.539739 cumulative IPC: 0.624287 (Simulation time: 0 hr 25 min 51 sec) 
Heartbeat CPU 0 instructions: 580000000 cycles: 844399297 heartbeat IPC: 0.541528 cumulative IPC: 0.622306 (Simulation time: 0 hr 26 min 15 sec) 
Heartbeat CPU 0 instructions: 590000001 cycles: 862922422 heartbeat IPC: 0.539866 cumulative IPC: 0.620372 (Simulation time: 0 hr 26 min 40 sec) 
Heartbeat CPU 0 instructions: 600000000 cycles: 881429285 heartbeat IPC: 0.54034 cumulative IPC: 0.61854 (Simulation time: 0 hr 27 min 4 sec) 
Finished CPU 0 instructions: 500000002 cycles: 808355202 cumulative IPC: 0.61854 (Simulation time: 0 hr 27 min 4 sec) 

CPU 0 Branch Prediction Accuracy: 99.5931% MPKI: 0.08288
Number of Branches: 10184133 Number of Mispredictions: 41440
Number of LOAD Instructions: 261155957
Number of LOAD Instructions (ROI): 261155957
Number of STORE Instructions: 57884062
Number of STORE Instructions (ROI): 57884062
Total Destination Memory Operands: 83293336
Total Destination Memory Operands (ROI): 83293336
Total Source Memory Operands: 261155957
Total Source Memory Operands (ROI): 261155957
Number of DEPENDED LOADS: 22254941
Number of DEPENDED LOADS (ROI): 22254941
Number of SQ_ADDED: 83293300
Number of SQ_ADDED (ROI): 83293300
Number of LQ_ADDED: 1762715690
Number of LQ_ADDED (ROI): 1762715690
Number of Instructions read from trace: 600000257

ChampSim completed all CPUs

Region of Interest Statistics

CPU 0 cumulative IPC: 0.61854 instructions: 500000002 cycles: 808355202
ITLB TOTAL     ACCESS:   94637740  HIT:   94637702  MISS:         38
ITLB LOAD      ACCESS:   94637740  HIT:   94637702  MISS:         38
ITLB RFO       ACCESS:          0  HIT:          0  MISS:          0
ITLB PREFETCH  ACCESS:          0  HIT:          0  MISS:          0
ITLB WRITEBACK ACCESS:          0  HIT:          0  MISS:          0
ITLB PREFETCH  REQUESTED:          0  ISSUED:          0  USEFUL:          0  USELESS:          0
ITLB TOTAL MSHR MERGED:         93
ITLB LOAD MSHR MERGED:         93
ITLB RFO MSHR MERGED:          0
ITLB PREFETCH MSHR MERGED:          0
ITLB WRITEBACK MSHR MERGED:          0
ITLB TOTAL ACCESSES:   94637833 HITS:   94637702 MISSES:        131
ITLB LOAD ACCESSES:   94637833 HITS:   94637702 MISSES:        131
ITLB RFO ACCESSES:          0 HITS:          0 MISSES:          0
ITLB PREFETCH ACCESSES:          0 HITS:          0 MISSES:          0
ITLB WRITEBACK ACCESSES:          0 HITS:          0 MISSES:          0
ITLB RQ ACCESS:  500000001
ITLB RQ TO_CACHE:   94637834
ITLB RQ MERGED:  405362167
ITLB RQ FORWARD:          0
ITLB WQ ACCESS:          0
ITLB WQ TO_CACHE:          0
ITLB WQ MERGED:          0
ITLB WQ FORWARD:          0
DTLB TOTAL     ACCESS:  149175773  HIT:  148578813  MISS:     596960
DTLB LOAD      ACCESS:  107302085  HIT:  106705136  MISS:     596949
DTLB RFO       ACCESS:   41873688  HIT:   41873677  MISS:         11
DTLB PREFETCH  ACCESS:          0  HIT:          0  MISS:          0
DTLB WRITEBACK ACCESS:          0  HIT:          0  MISS:          0
DTLB PREFETCH  REQUESTED:          0  ISSUED:          0  USEFUL:          0  USELESS:          0
DTLB TOTAL MSHR MERGED:     134143
DTLB LOAD MSHR MERGED:     134143
DTLB RFO MSHR MERGED:          0
DTLB PREFETCH MSHR MERGED:          0
DTLB WRITEBACK MSHR MERGED:          0
DTLB TOTAL ACCESSES:  149309916 HITS:  148578813 MISSES:     731103
DTLB LOAD ACCESSES:  107436228 HITS:  106705136 MISSES:     731092
DTLB RFO ACCESSES:   41873688 HITS:   41873677 MISSES:         11
DTLB PREFETCH ACCESSES:          0 HITS:          0 MISSES:          0
DTLB WRITEBACK ACCESSES:          0 HITS:          0 MISSES:          0
DTLB RQ ACCESS:  259760953
DTLB RQ TO_CACHE:  149309916
DTLB RQ MERGED:  110451037
DTLB RQ FORWARD:          0
DTLB WQ ACCESS:          0
DTLB WQ TO_CACHE:          0
DTLB WQ MERGED:          0
DTLB WQ FORWARD:          0
L1D TOTAL     ACCESS:  261025771  HIT:  245629314  MISS:   15396457
L1D LOAD      ACCESS:  118070082  HIT:  112565225  MISS:    5504857
L1D RFO       ACCESS:   68946813  HIT:   68932408  MISS:      14405
L1D PREFETCH  ACCESS:   74008876  HIT:   64131681  MISS:    9877195
L1D WRITEBACK ACCESS:          0  HIT:          0  MISS:          0
L1D PREFETCH  REQUESTED:  120659051  ISSUED:  119081058  USEFUL:    8007736  USELESS:    1869481
L1D TOTAL MSHR MERGED:   16529621
L1D LOAD MSHR MERGED:    5003684
L1D RFO MSHR MERGED:      21759
L1D PREFETCH MSHR MERGED:   11504178
L1D WRITEBACK MSHR MERGED:          0
L1D TOTAL ACCESSES:  277665562 HITS:  245739484 MISSES:   31926078
L1D LOAD ACCESSES:  120666570 HITS:  112572744 MISSES:    8093826
L1D RFO ACCESSES:   68968572 HITS:   68932408 MISSES:      36164
L1D PREFETCH ACCESSES:   88030420 HITS:   64234332 MISSES:   23796088
L1D WRITEBACK ACCESSES:          0 HITS:          0 MISSES:          0
L1D RQ ACCESS:  190686637
L1D RQ TO_CACHE:  120659051
L1D RQ MERGED:   70020067
L1D RQ FORWARD:          0
L1D WQ ACCESS:   69074336
L1D WQ TO_CACHE:   68968574
L1D WQ MERGED:     105762
L1D WQ FORWARD:     110170
L1I TOTAL     ACCESS:  121554569  HIT:  121553496  MISS:       1073
L1I LOAD      ACCESS:  121554569  HIT:  121553496  MISS:       1073
L1I RFO       ACCESS:          0  HIT:          0  MISS:          0
L1I PREFETCH  ACCESS:          0  HIT:          0  MISS:          0
L1I WRITEBACK ACCESS:          0  HIT:          0  MISS:          0
L1I PREFETCH  REQUESTED:          0  ISSUED:          0  USEFUL:          0  USELESS:          0
L1I TOTAL MSHR MERGED:       1113
L1I LOAD MSHR MERGED:       1113
L1I RFO MSHR MERGED:          0
L1I PREFETCH MSHR MERGED:          0
L1I WRITEBACK MSHR MERGED:          0
L1I TOTAL ACCESSES:  121555682 HITS:  121553496 MISSES:       2186
L1I LOAD ACCESSES:  121555682 HITS:  121553496 MISSES:       2186
L1I RFO ACCESSES:          0 HITS:          0 MISSES:          0
L1I PREFETCH ACCESSES:          0 HITS:          0 MISSES:          0
L1I WRITEBACK ACCESSES:          0 HITS:          0 MISSES:          0
L1I RQ ACCESS:  500000000
L1I RQ TO_CACHE:  121555682
L1I RQ MERGED:  378444318
L1I RQ FORWARD:          0
L1I WQ ACCESS:          0
L1I WQ TO_CACHE:          0
L1I WQ MERGED:          0
L1I WQ FORWARD:          0
L2C TOTAL     ACCESS:   22469771  HIT:    9152274  MISS:   13317497
L2C LOAD      ACCESS:    3091184  HIT:     417615  MISS:    2673569
L2C RFO       ACCESS:      14405  HIT:      13992  MISS:        413
L2C PREFETCH  ACCESS:   12734250  HIT:    2092531  MISS:   10641719
L2C WRITEBACK ACCESS:    6629932  HIT:    6628136  MISS:       1796
L2C PREFETCH  REQUESTED:     695234  ISSUED:     695234  USEFUL:     186763  USELESS:   10455756
L2C TOTAL MSHR MERGED:      71869
L2C LOAD MSHR MERGED:      22544
L2C RFO MSHR MERGED:          0
L2C PREFETCH MSHR MERGED:      49325
L2C WRITEBACK MSHR MERGED:          0
L2C TOTAL ACCESSES:   22682813 HITS:    9152316 MISSES:   13530497
L2C LOAD ACCESSES:    3091215 HITS:     417646 MISSES:    2673569
L2C RFO ACCESSES:      14405 HITS:      13992 MISSES:        413
L2C PREFETCH ACCESSES:   12947261 HITS:    2092542 MISSES:   10854719
L2C WRITEBACK ACCESSES:    6629932 HITS:    6628136 MISSES:       1796
L2C RQ ACCESS:    3105620
L2C RQ TO_CACHE:    3105589
L2C RQ MERGED:          0
L2C RQ FORWARD:          0
L2C WQ ACCESS:    6629932
L2C WQ TO_CACHE:    6629932
L2C WQ MERGED:          0
L2C WQ FORWARD:         42
LLC TOTAL     ACCESS:   20025068  HIT:    2002098  MISS:   18022970
LLC LOAD      ACCESS:    2651025  HIT:     449227  MISS:    2201798
LLC RFO       ACCESS:        413  HIT:         18  MISS:        395
LLC PREFETCH  ACCESS:   10782399  HIT:     116797  MISS:   10665602
LLC WRITEBACK ACCESS:    6591231  HIT:    1436056  MISS:    5155175
LLC PREFETCH  REQUESTED:          0  ISSUED:          0  USEFUL:      45461  USELESS:   10621430
LLC TOTAL MSHR MERGED:      21608
LLC LOAD MSHR MERGED:       9882
LLC RFO MSHR MERGED:          0
LLC PREFETCH MSHR MERGED:      11726
LLC WRITEBACK MSHR MERGED:          0
LLC TOTAL ACCESSES:   20046677 HITS:    2002098 MISSES:   18044579
LLC LOAD ACCESSES:    2651025 HITS:     449227 MISSES:    2201798
LLC RFO ACCESSES:        413 HITS:         18 MISSES:        395
LLC PREFETCH ACCESSES:   10804008 HITS:     116797 MISSES:   10687211
LLC WRITEBACK ACCESSES:    6591231 HITS:    1436056 MISSES:    5155175
LLC 0 RQ ACCESS:    2651438
LLC 0 RQ TO_CACHE:    2651438
LLC 0 RQ MERGED:          0
LLC 0 RQ FORWARD:          0
LLC WQ ACCESS:    6591232
LLC WQ TO_CACHE:    6591232
LLC WQ MERGED:          0
LLC WQ FORWARD:          0
Major fault: 0 Minor fault: 183991
CPU 0 L1D next line prefetcher final stats
CPU 0 L2C PC-based stride prefetcher final stats
All Misses: 20876027
All Hits: 2080087
SD Algo Stats - Switches: 0 SRR-Repls: 2249964 BRR-Repls: 0

DRAM Statistics
 CHANNEL 0
 RQ ROW_BUFFER_HIT:    7155753  ROW_BUFFER_MISS:    5712043
 DBUS_CONGESTED:   11335725
 WQ ROW_BUFFER_HIT:    1038729  ROW_BUFFER_MISS:    5545331  FULL:          0

 AVG_CONGESTED_CYCLE: 13
LOADS RETIRED: 204440772
INSTR RETIRED: 500000000
