
*** ChampSim Multicore Out-of-Order Simulator ***

Warmup Instructions: 100000000
Simulation Instructions: 500000000
Number of CPUs: 1
LLC sets: 2048
LLC ways: 16
Clean RRIP Policies: 2213230222132302 Dirty RRIP Policies: 1203130212031302 PSEL Width: 10 Track Set: 4294967295 PSEL Mask: 1 Demote Mask: 1040300010403000DS Algo: 0Window size: 0
Off-chip DRAM Size: 4096 MB Channels: 1 Width: 64-bit Data Rate: 1600 MT/s

CPU 0 runs /mnt/beegfs/iconst01/spec2017/Xz.trace.gz
NOT SORTED
TRACE STRING: /mnt/beegfs/iconst01/spec2017/Xz.trace.gz
SORTED
TRACE STRING: /mnt/beegfs/iconst01/spec2017/Xz.trace.gz
INITIAL
TRACE STRING: /mnt/beegfs/iconst01/spec2017/Xz.trace.gz

champsim_seed used: 210

CPU 0 L1D next line prefetcher
CPU 0 L2C IP-based stride prefetcher
Initialize DRRIP state
Assign rand_sets[0]: 454  LLC: 2048
rand_sets[0]: 454
Assign rand_sets[1]: 1662  LLC: 2048
rand_sets[1]: 1662
Assign rand_sets[2]: 1921  LLC: 2048
rand_sets[2]: 1921
Assign rand_sets[3]: 1131  LLC: 2048
rand_sets[3]: 1131
Assign rand_sets[4]: 331  LLC: 2048
rand_sets[4]: 331
Assign rand_sets[5]: 1531  LLC: 2048
rand_sets[5]: 1531
Assign rand_sets[6]: 482  LLC: 2048
rand_sets[6]: 482
Assign rand_sets[7]: 1275  LLC: 2048
rand_sets[7]: 1275
Assign rand_sets[8]: 1876  LLC: 2048
rand_sets[8]: 1876
Assign rand_sets[9]: 2038  LLC: 2048
rand_sets[9]: 2038
Assign rand_sets[10]: 701  LLC: 2048
rand_sets[10]: 701
Assign rand_sets[11]: 479  LLC: 2048
rand_sets[11]: 479
Assign rand_sets[12]: 892  LLC: 2048
rand_sets[12]: 892
Assign rand_sets[13]: 1820  LLC: 2048
rand_sets[13]: 1820
Assign rand_sets[14]: 1505  LLC: 2048
rand_sets[14]: 1505
Assign rand_sets[15]: 1159  LLC: 2048
rand_sets[15]: 1159
Assign rand_sets[16]: 513  LLC: 2048
rand_sets[16]: 513
Assign rand_sets[17]: 703  LLC: 2048
rand_sets[17]: 703
Assign rand_sets[18]: 561  LLC: 2048
rand_sets[18]: 561
Assign rand_sets[19]: 990  LLC: 2048
rand_sets[19]: 990
Assign rand_sets[20]: 342  LLC: 2048
rand_sets[20]: 342
Assign rand_sets[21]: 882  LLC: 2048
rand_sets[21]: 882
Assign rand_sets[22]: 15  LLC: 2048
rand_sets[22]: 15
Assign rand_sets[23]: 71  LLC: 2048
rand_sets[23]: 71
Assign rand_sets[24]: 1127  LLC: 2048
rand_sets[24]: 1127
Assign rand_sets[25]: 1382  LLC: 2048
rand_sets[25]: 1382
Assign rand_sets[26]: 647  LLC: 2048
rand_sets[26]: 647
Assign rand_sets[27]: 857  LLC: 2048
rand_sets[27]: 857
Assign rand_sets[28]: 1450  LLC: 2048
rand_sets[28]: 1450
Assign rand_sets[29]: 1160  LLC: 2048
rand_sets[29]: 1160
Assign rand_sets[30]: 1852  LLC: 2048
rand_sets[30]: 1852
Assign rand_sets[31]: 1881  LLC: 2048
rand_sets[31]: 1881
Assign rand_sets[32]: 1770  LLC: 2048
rand_sets[32]: 1770
Assign rand_sets[33]: 1622  LLC: 2048
rand_sets[33]: 1622
Assign rand_sets[34]: 275  LLC: 2048
rand_sets[34]: 275
Assign rand_sets[35]: 635  LLC: 2048
rand_sets[35]: 635
Assign rand_sets[36]: 466  LLC: 2048
rand_sets[36]: 466
Assign rand_sets[37]: 1413  LLC: 2048
rand_sets[37]: 1413
Assign rand_sets[38]: 417  LLC: 2048
rand_sets[38]: 417
Assign rand_sets[39]: 472  LLC: 2048
rand_sets[39]: 472
Assign rand_sets[40]: 1340  LLC: 2048
rand_sets[40]: 1340
Assign rand_sets[41]: 852  LLC: 2048
rand_sets[41]: 852
Assign rand_sets[42]: 1365  LLC: 2048
rand_sets[42]: 1365
Assign rand_sets[43]: 47  LLC: 2048
rand_sets[43]: 47
Assign rand_sets[44]: 823  LLC: 2048
rand_sets[44]: 823
Assign rand_sets[45]: 686  LLC: 2048
rand_sets[45]: 686
Assign rand_sets[46]: 1637  LLC: 2048
rand_sets[46]: 1637
Assign rand_sets[47]: 1115  LLC: 2048
rand_sets[47]: 1115
Assign rand_sets[48]: 986  LLC: 2048
rand_sets[48]: 986
Assign rand_sets[49]: 258  LLC: 2048
rand_sets[49]: 258
Assign rand_sets[50]: 633  LLC: 2048
rand_sets[50]: 633
Assign rand_sets[51]: 920  LLC: 2048
rand_sets[51]: 920
Assign rand_sets[52]: 204  LLC: 2048
rand_sets[52]: 204
Assign rand_sets[53]: 227  LLC: 2048
rand_sets[53]: 227
Assign rand_sets[54]: 1818  LLC: 2048
rand_sets[54]: 1818
Assign rand_sets[55]: 886  LLC: 2048
rand_sets[55]: 886
Assign rand_sets[56]: 1422  LLC: 2048
rand_sets[56]: 1422
Assign rand_sets[57]: 607  LLC: 2048
rand_sets[57]: 607
Assign rand_sets[58]: 217  LLC: 2048
rand_sets[58]: 217
Assign rand_sets[59]: 1945  LLC: 2048
rand_sets[59]: 1945
Assign rand_sets[60]: 143  LLC: 2048
rand_sets[60]: 143
Assign rand_sets[61]: 1311  LLC: 2048
rand_sets[61]: 1311
Assign rand_sets[62]: 319  LLC: 2048
rand_sets[62]: 319
Assign rand_sets[63]: 1846  LLC: 2048
rand_sets[63]: 1846
 CLEAN-RRIP-POLICY-1: 2-2-1-3-2-3-0-2- CLEAN-RRIP-POLICY-2: 2-2-1-3-2-3-0-2-
 DIRTY-RRIP-POLICY-1: 1-2-0-3-1-3-0-2- DIRTY-RRIP-POLICY-2: 1-2-0-3-1-3-0-2-
 PSEL width: 10
Heartbeat CPU 0 instructions: 10000000 cycles: 4305270 heartbeat IPC: 2.32273 cumulative IPC: 2.32273 (Simulation time: 0 hr 0 min 12 sec) 
Heartbeat CPU 0 instructions: 20000000 cycles: 8617101 heartbeat IPC: 2.3192 cumulative IPC: 2.32097 (Simulation time: 0 hr 0 min 24 sec) 
Heartbeat CPU 0 instructions: 30000003 cycles: 13160977 heartbeat IPC: 2.20076 cumulative IPC: 2.27947 (Simulation time: 0 hr 0 min 36 sec) 
Heartbeat CPU 0 instructions: 40000000 cycles: 17515456 heartbeat IPC: 2.29649 cumulative IPC: 2.2837 (Simulation time: 0 hr 0 min 48 sec) 
Heartbeat CPU 0 instructions: 50000001 cycles: 21878232 heartbeat IPC: 2.29212 cumulative IPC: 2.28538 (Simulation time: 0 hr 1 min 0 sec) 
Heartbeat CPU 0 instructions: 60000000 cycles: 26178396 heartbeat IPC: 2.32549 cumulative IPC: 2.29197 (Simulation time: 0 hr 1 min 12 sec) 
Heartbeat CPU 0 instructions: 70000001 cycles: 30244263 heartbeat IPC: 2.4595 cumulative IPC: 2.31449 (Simulation time: 0 hr 1 min 23 sec) 
Heartbeat CPU 0 instructions: 80000000 cycles: 34523012 heartbeat IPC: 2.33713 cumulative IPC: 2.31729 (Simulation time: 0 hr 1 min 35 sec) 
Heartbeat CPU 0 instructions: 90000001 cycles: 38739608 heartbeat IPC: 2.37158 cumulative IPC: 2.3232 (Simulation time: 0 hr 1 min 46 sec) 
Heartbeat CPU 0 instructions: 100000000 cycles: 42979953 heartbeat IPC: 2.3583 cumulative IPC: 2.32667 (Simulation time: 0 hr 1 min 58 sec) 

Warmup complete CPU 0 instructions: 100000001 cycles: 42979954 (Simulation time: 0 hr 1 min 58 sec) 

Heartbeat CPU 0 instructions: 110000000 cycles: 53092735 heartbeat IPC: 0.988848 cumulative IPC: 0.988848 (Simulation time: 0 hr 2 min 15 sec) 
Heartbeat CPU 0 instructions: 120000000 cycles: 63689748 heartbeat IPC: 0.943662 cumulative IPC: 0.965727 (Simulation time: 0 hr 2 min 33 sec) 
Heartbeat CPU 0 instructions: 130000001 cycles: 74253896 heartbeat IPC: 0.946598 cumulative IPC: 0.959265 (Simulation time: 0 hr 2 min 51 sec) 
Heartbeat CPU 0 instructions: 140000000 cycles: 83925563 heartbeat IPC: 1.03395 cumulative IPC: 0.976906 (Simulation time: 0 hr 3 min 8 sec) 
Heartbeat CPU 0 instructions: 150000001 cycles: 94213937 heartbeat IPC: 0.971971 cumulative IPC: 0.975915 (Simulation time: 0 hr 3 min 26 sec) 
Heartbeat CPU 0 instructions: 160000000 cycles: 104245375 heartbeat IPC: 0.996866 cumulative IPC: 0.979345 (Simulation time: 0 hr 3 min 43 sec) 
Heartbeat CPU 0 instructions: 170000000 cycles: 113886626 heartbeat IPC: 1.03721 cumulative IPC: 0.987213 (Simulation time: 0 hr 4 min 1 sec) 
Heartbeat CPU 0 instructions: 180000000 cycles: 124398921 heartbeat IPC: 0.951267 cumulative IPC: 0.982572 (Simulation time: 0 hr 4 min 19 sec) 
Heartbeat CPU 0 instructions: 190000001 cycles: 134630342 heartbeat IPC: 0.977381 cumulative IPC: 0.981993 (Simulation time: 0 hr 4 min 36 sec) 
Heartbeat CPU 0 instructions: 200000000 cycles: 145162539 heartbeat IPC: 0.949469 cumulative IPC: 0.97864 (Simulation time: 0 hr 4 min 54 sec) 
Heartbeat CPU 0 instructions: 210000002 cycles: 157574384 heartbeat IPC: 0.805682 cumulative IPC: 0.959907 (Simulation time: 0 hr 5 min 13 sec) 
Heartbeat CPU 0 instructions: 220000000 cycles: 170054333 heartbeat IPC: 0.801285 cumulative IPC: 0.944329 (Simulation time: 0 hr 5 min 32 sec) 
Heartbeat CPU 0 instructions: 230000000 cycles: 182172793 heartbeat IPC: 0.825187 cumulative IPC: 0.933956 (Simulation time: 0 hr 5 min 51 sec) 
Heartbeat CPU 0 instructions: 240000000 cycles: 194237244 heartbeat IPC: 0.828882 cumulative IPC: 0.925575 (Simulation time: 0 hr 6 min 10 sec) 
Heartbeat CPU 0 instructions: 250000000 cycles: 206150420 heartbeat IPC: 0.839407 cumulative IPC: 0.919284 (Simulation time: 0 hr 6 min 29 sec) 
Heartbeat CPU 0 instructions: 260000000 cycles: 217652618 heartbeat IPC: 0.869399 cumulative IPC: 0.915999 (Simulation time: 0 hr 6 min 48 sec) 
Heartbeat CPU 0 instructions: 270000003 cycles: 229462710 heartbeat IPC: 0.846734 cumulative IPC: 0.911612 (Simulation time: 0 hr 7 min 7 sec) 
Heartbeat CPU 0 instructions: 280000000 cycles: 240953468 heartbeat IPC: 0.870264 cumulative IPC: 0.909213 (Simulation time: 0 hr 7 min 25 sec) 
Heartbeat CPU 0 instructions: 290000002 cycles: 252402696 heartbeat IPC: 0.873421 cumulative IPC: 0.907256 (Simulation time: 0 hr 7 min 44 sec) 
Heartbeat CPU 0 instructions: 300000000 cycles: 264787411 heartbeat IPC: 0.807447 cumulative IPC: 0.901683 (Simulation time: 0 hr 8 min 3 sec) 
Heartbeat CPU 0 instructions: 310000000 cycles: 276862005 heartbeat IPC: 0.828185 cumulative IPC: 0.897888 (Simulation time: 0 hr 8 min 22 sec) 
Heartbeat CPU 0 instructions: 320000000 cycles: 289440193 heartbeat IPC: 0.795027 cumulative IPC: 0.892639 (Simulation time: 0 hr 8 min 41 sec) 
Heartbeat CPU 0 instructions: 330000003 cycles: 301304678 heartbeat IPC: 0.842852 cumulative IPC: 0.890352 (Simulation time: 0 hr 8 min 59 sec) 
Heartbeat CPU 0 instructions: 340000000 cycles: 313337527 heartbeat IPC: 0.831058 cumulative IPC: 0.887713 (Simulation time: 0 hr 9 min 18 sec) 
Heartbeat CPU 0 instructions: 350000001 cycles: 324286633 heartbeat IPC: 0.913317 cumulative IPC: 0.88871 (Simulation time: 0 hr 9 min 37 sec) 
Heartbeat CPU 0 instructions: 360000000 cycles: 336004997 heartbeat IPC: 0.853361 cumulative IPC: 0.887296 (Simulation time: 0 hr 9 min 55 sec) 
Heartbeat CPU 0 instructions: 370000001 cycles: 347398947 heartbeat IPC: 0.877659 cumulative IPC: 0.886935 (Simulation time: 0 hr 10 min 14 sec) 
Heartbeat CPU 0 instructions: 380000000 cycles: 358369481 heartbeat IPC: 0.911533 cumulative IPC: 0.887791 (Simulation time: 0 hr 10 min 32 sec) 
Heartbeat CPU 0 instructions: 390000003 cycles: 368965655 heartbeat IPC: 0.943737 cumulative IPC: 0.88961 (Simulation time: 0 hr 10 min 50 sec) 
Heartbeat CPU 0 instructions: 400000000 cycles: 379165166 heartbeat IPC: 0.980439 cumulative IPC: 0.892365 (Simulation time: 0 hr 11 min 8 sec) 
Heartbeat CPU 0 instructions: 410000000 cycles: 389656966 heartbeat IPC: 0.953125 cumulative IPC: 0.894204 (Simulation time: 0 hr 11 min 26 sec) 
Heartbeat CPU 0 instructions: 420000000 cycles: 399033041 heartbeat IPC: 1.06654 cumulative IPC: 0.898742 (Simulation time: 0 hr 11 min 44 sec) 
Heartbeat CPU 0 instructions: 430000002 cycles: 408120841 heartbeat IPC: 1.10038 cumulative IPC: 0.903761 (Simulation time: 0 hr 12 min 1 sec) 
Heartbeat CPU 0 instructions: 440000000 cycles: 418354691 heartbeat IPC: 0.977149 cumulative IPC: 0.905762 (Simulation time: 0 hr 12 min 19 sec) 
Heartbeat CPU 0 instructions: 450000002 cycles: 429390034 heartbeat IPC: 0.90618 cumulative IPC: 0.905773 (Simulation time: 0 hr 12 min 37 sec) 
Heartbeat CPU 0 instructions: 460000000 cycles: 440891578 heartbeat IPC: 0.869448 cumulative IPC: 0.904724 (Simulation time: 0 hr 12 min 55 sec) 
Heartbeat CPU 0 instructions: 470000003 cycles: 451063575 heartbeat IPC: 0.983091 cumulative IPC: 0.906677 (Simulation time: 0 hr 13 min 13 sec) 
Heartbeat CPU 0 instructions: 480000000 cycles: 461573718 heartbeat IPC: 0.951462 cumulative IPC: 0.907801 (Simulation time: 0 hr 13 min 31 sec) 
Heartbeat CPU 0 instructions: 490000000 cycles: 471507575 heartbeat IPC: 1.00666 cumulative IPC: 0.910093 (Simulation time: 0 hr 13 min 48 sec) 
Heartbeat CPU 0 instructions: 500000000 cycles: 483245294 heartbeat IPC: 0.851954 cumulative IPC: 0.908543 (Simulation time: 0 hr 14 min 7 sec) 
Heartbeat CPU 0 instructions: 510000002 cycles: 495632021 heartbeat IPC: 0.807316 cumulative IPC: 0.905773 (Simulation time: 0 hr 14 min 25 sec) 
Heartbeat CPU 0 instructions: 520000000 cycles: 507477700 heartbeat IPC: 0.84419 cumulative IPC: 0.904202 (Simulation time: 0 hr 14 min 44 sec) 
Heartbeat CPU 0 instructions: 530000001 cycles: 519284903 heartbeat IPC: 0.846941 cumulative IPC: 0.902783 (Simulation time: 0 hr 15 min 2 sec) 
Heartbeat CPU 0 instructions: 540000000 cycles: 530839724 heartbeat IPC: 0.86544 cumulative IPC: 0.901899 (Simulation time: 0 hr 15 min 20 sec) 
Heartbeat CPU 0 instructions: 550000001 cycles: 542178498 heartbeat IPC: 0.88193 cumulative IPC: 0.901445 (Simulation time: 0 hr 15 min 39 sec) 
Heartbeat CPU 0 instructions: 560000000 cycles: 553687446 heartbeat IPC: 0.868889 cumulative IPC: 0.900711 (Simulation time: 0 hr 15 min 57 sec) 
Heartbeat CPU 0 instructions: 570000000 cycles: 565047534 heartbeat IPC: 0.880275 cumulative IPC: 0.900267 (Simulation time: 0 hr 16 min 15 sec) 
Heartbeat CPU 0 instructions: 580000000 cycles: 575778530 heartbeat IPC: 0.93188 cumulative IPC: 0.900903 (Simulation time: 0 hr 16 min 33 sec) 
Heartbeat CPU 0 instructions: 590000003 cycles: 587123863 heartbeat IPC: 0.88142 cumulative IPC: 0.900497 (Simulation time: 0 hr 16 min 50 sec) 
Heartbeat CPU 0 instructions: 600000000 cycles: 597673975 heartbeat IPC: 0.947857 cumulative IPC: 0.901398 (Simulation time: 0 hr 17 min 8 sec) 
Finished CPU 0 instructions: 500000001 cycles: 554694029 cumulative IPC: 0.901398 (Simulation time: 0 hr 17 min 8 sec) 

CPU 0 Branch Prediction Accuracy: 93.0095% MPKI: 10.0046
Number of Branches: 71558147 Number of Mispredictions: 5002285
Number of LOAD Instructions: 145708893
Number of LOAD Instructions (ROI): 145708893
Number of STORE Instructions: 40463820
Number of STORE Instructions (ROI): 40463820
Total Destination Memory Operands: 45240498
Total Destination Memory Operands (ROI): 45240498
Total Source Memory Operands: 145708893
Total Source Memory Operands (ROI): 145708893
Number of DEPENDED LOADS: 10669748
Number of DEPENDED LOADS (ROI): 10669748
Number of SQ_ADDED: 45240498
Number of SQ_ADDED (ROI): 45240498
Number of LQ_ADDED: 193322928
Number of LQ_ADDED (ROI): 193322928
Number of Instructions read from trace: 600000002

ChampSim completed all CPUs

Region of Interest Statistics

CPU 0 cumulative IPC: 0.901398 instructions: 500000001 cycles: 554694029
ITLB TOTAL     ACCESS:   77992709  HIT:   77992708  MISS:          1
ITLB LOAD      ACCESS:   77992709  HIT:   77992708  MISS:          1
ITLB RFO       ACCESS:          0  HIT:          0  MISS:          0
ITLB PREFETCH  ACCESS:          0  HIT:          0  MISS:          0
ITLB WRITEBACK ACCESS:          0  HIT:          0  MISS:          0
ITLB PREFETCH  REQUESTED:          0  ISSUED:          0  USEFUL:          0  USELESS:          0
ITLB TOTAL MSHR MERGED:          0
ITLB LOAD MSHR MERGED:          0
ITLB RFO MSHR MERGED:          0
ITLB PREFETCH MSHR MERGED:          0
ITLB WRITEBACK MSHR MERGED:          0
ITLB TOTAL ACCESSES:   77992709 HITS:   77992708 MISSES:          1
ITLB LOAD ACCESSES:   77992709 HITS:   77992708 MISSES:          1
ITLB RFO ACCESSES:          0 HITS:          0 MISSES:          0
ITLB PREFETCH ACCESSES:          0 HITS:          0 MISSES:          0
ITLB WRITEBACK ACCESSES:          0 HITS:          0 MISSES:          0
ITLB RQ ACCESS:  499999995
ITLB RQ TO_CACHE:   77992709
ITLB RQ MERGED:  422007286
ITLB RQ FORWARD:          0
ITLB WQ ACCESS:          0
ITLB WQ TO_CACHE:          0
ITLB WQ MERGED:          0
ITLB WQ FORWARD:          0
DTLB TOTAL     ACCESS:   98669814  HIT:   97788478  MISS:     881336
DTLB LOAD      ACCESS:   70889955  HIT:   70028422  MISS:     861533
DTLB RFO       ACCESS:   27779859  HIT:   27760056  MISS:      19803
DTLB PREFETCH  ACCESS:          0  HIT:          0  MISS:          0
DTLB WRITEBACK ACCESS:          0  HIT:          0  MISS:          0
DTLB PREFETCH  REQUESTED:          0  ISSUED:          0  USEFUL:          0  USELESS:          0
DTLB TOTAL MSHR MERGED:      87432
DTLB LOAD MSHR MERGED:      65692
DTLB RFO MSHR MERGED:      21740
DTLB PREFETCH MSHR MERGED:          0
DTLB WRITEBACK MSHR MERGED:          0
DTLB TOTAL ACCESSES:   98757246 HITS:   97788478 MISSES:     968768
DTLB LOAD ACCESSES:   70955647 HITS:   70028422 MISSES:     927225
DTLB RFO ACCESSES:   27801599 HITS:   27760056 MISSES:      41543
DTLB PREFETCH ACCESSES:          0 HITS:          0 MISSES:          0
DTLB WRITEBACK ACCESSES:          0 HITS:          0 MISSES:          0
DTLB RQ ACCESS:  150275306
DTLB RQ TO_CACHE:   98757246
DTLB RQ MERGED:   51518060
DTLB RQ FORWARD:          0
DTLB WQ ACCESS:          0
DTLB WQ TO_CACHE:          0
DTLB WQ MERGED:          0
DTLB WQ FORWARD:          0
L1D TOTAL     ACCESS:  173333651  HIT:  169165009  MISS:    4168642
L1D LOAD      ACCESS:   75283354  HIT:   73402030  MISS:    1881324
L1D RFO       ACCESS:   36778622  HIT:   36572028  MISS:     206594
L1D PREFETCH  ACCESS:   61271675  HIT:   59190951  MISS:    2080724
L1D WRITEBACK ACCESS:          0  HIT:          0  MISS:          0
L1D PREFETCH  REQUESTED:   75386712  ISSUED:   74822530  USEFUL:     415157  USELESS:    1665556
L1D TOTAL MSHR MERGED:     372995
L1D LOAD MSHR MERGED:     112110
L1D RFO MSHR MERGED:     132833
L1D PREFETCH MSHR MERGED:     128052
L1D WRITEBACK MSHR MERGED:          0
L1D TOTAL ACCESSES:  173858366 HITS:  169316729 MISSES:    4541637
L1D LOAD ACCESSES:   75389715 HITS:   73405033 MISSES:    1984682
L1D RFO ACCESSES:   36910070 HITS:   36572028 MISSES:     338042
L1D PREFETCH ACCESSES:   61558581 HITS:   59339668 MISSES:    2218913
L1D WRITEBACK ACCESSES:          0 HITS:          0 MISSES:          0
L1D RQ ACCESS:  112612903
L1D RQ TO_CACHE:   75386712
L1D RQ MERGED:   37223188
L1D RQ FORWARD:          0
L1D WQ ACCESS:   37662403
L1D WQ TO_CACHE:   36910070
L1D WQ MERGED:     752333
L1D WQ FORWARD:     151720
L1I TOTAL     ACCESS:  100700643  HIT:  100700618  MISS:         25
L1I LOAD      ACCESS:  100700643  HIT:  100700618  MISS:         25
L1I RFO       ACCESS:          0  HIT:          0  MISS:          0
L1I PREFETCH  ACCESS:          0  HIT:          0  MISS:          0
L1I WRITEBACK ACCESS:          0  HIT:          0  MISS:          0
L1I PREFETCH  REQUESTED:          0  ISSUED:          0  USEFUL:          0  USELESS:          0
L1I TOTAL MSHR MERGED:         10
L1I LOAD MSHR MERGED:         10
L1I RFO MSHR MERGED:          0
L1I PREFETCH MSHR MERGED:          0
L1I WRITEBACK MSHR MERGED:          0
L1I TOTAL ACCESSES:  100700653 HITS:  100700618 MISSES:         35
L1I LOAD ACCESSES:  100700653 HITS:  100700618 MISSES:         35
L1I RFO ACCESSES:          0 HITS:          0 MISSES:          0
L1I PREFETCH ACCESSES:          0 HITS:          0 MISSES:          0
L1I WRITEBACK ACCESSES:          0 HITS:          0 MISSES:          0
L1I RQ ACCESS:  499999995
L1I RQ TO_CACHE:  100700653
L1I RQ MERGED:  399299342
L1I RQ FORWARD:          0
L1I WQ ACCESS:          0
L1I WQ TO_CACHE:          0
L1I WQ MERGED:          0
L1I WQ FORWARD:          0
L2C TOTAL     ACCESS:    5852597  HIT:    4009405  MISS:    1843192
L2C LOAD      ACCESS:    1872473  HIT:    1061512  MISS:     810961
L2C RFO       ACCESS:     205203  HIT:     100564  MISS:     104639
L2C PREFETCH  ACCESS:    2169290  HIT:    1246118  MISS:     923172
L2C WRITEBACK ACCESS:    1605631  HIT:    1601211  MISS:       4420
L2C PREFETCH  REQUESTED:      91709  ISSUED:      91709  USEFUL:      86460  USELESS:     836735
L2C TOTAL MSHR MERGED:       1007
L2C LOAD MSHR MERGED:        254
L2C RFO MSHR MERGED:          0
L2C PREFETCH MSHR MERGED:        753
L2C WRITEBACK MSHR MERGED:          0
L2C TOTAL ACCESSES:    5853939 HITS:    4009572 MISSES:    1844367
L2C LOAD ACCESSES:    1872597 HITS:    1061636 MISSES:     810961
L2C RFO ACCESSES:     205209 HITS:     100570 MISSES:     104639
L2C PREFETCH ACCESSES:    2170502 HITS:    1246155 MISSES:     924347
L2C WRITEBACK ACCESSES:    1605631 HITS:    1601211 MISSES:       4420
L2C RQ ACCESS:    2077806
L2C RQ TO_CACHE:    2077676
L2C RQ MERGED:          0
L2C RQ FORWARD:          0
L2C WQ ACCESS:    1605631
L2C WQ TO_CACHE:    1605631
L2C WQ MERGED:          0
L2C WQ FORWARD:        167
LLC TOTAL     ACCESS:    2673581  HIT:    2211187  MISS:     462394
LLC LOAD      ACCESS:     810697  HIT:     649219  MISS:     161478
LLC RFO       ACCESS:     104639  HIT:      60786  MISS:      43853
LLC PREFETCH  ACCESS:     923570  HIT:     693437  MISS:     230133
LLC WRITEBACK ACCESS:     834675  HIT:     807745  MISS:      26930
LLC PREFETCH  REQUESTED:          0  ISSUED:          0  USEFUL:       7007  USELESS:     223431
LLC TOTAL MSHR MERGED:          5
LLC LOAD MSHR MERGED:          1
LLC RFO MSHR MERGED:          0
LLC PREFETCH MSHR MERGED:          4
LLC WRITEBACK MSHR MERGED:          0
LLC TOTAL ACCESSES:    2673598 HITS:    2211199 MISSES:     462399
LLC LOAD ACCESSES:     810707 HITS:     649229 MISSES:     161478
LLC RFO ACCESSES:     104639 HITS:      60786 MISSES:      43853
LLC PREFETCH ACCESSES:     923577 HITS:     693439 MISSES:     230138
LLC WRITEBACK ACCESSES:     834675 HITS:     807745 MISSES:      26930
LLC 0 RQ ACCESS:     915346
LLC 0 RQ TO_CACHE:     915336
LLC 0 RQ MERGED:          0
LLC 0 RQ FORWARD:          0
LLC WQ ACCESS:     834675
LLC WQ TO_CACHE:     834675
LLC WQ MERGED:          0
LLC WQ FORWARD:         12
Major fault: 0 Minor fault: 11278
CPU 0 L1D next line prefetcher final stats
CPU 0 L2C PC-based stride prefetcher final stats
All Misses: 572405
All Hits: 2482194
SD Algo Stats - Switches: 0 SRR-Repls: 193904 BRR-Repls: 0

DRAM Statistics
 CHANNEL 0
 RQ ROW_BUFFER_HIT:      28856  ROW_BUFFER_MISS:     406347
 DBUS_CONGESTED:     330906
 WQ ROW_BUFFER_HIT:      12468  ROW_BUFFER_MISS:     189944  FULL:          0

 AVG_CONGESTED_CYCLE: 13
LOADS RETIRED: 121769268
INSTR RETIRED: 500000000
