
*** ChampSim Multicore Out-of-Order Simulator ***

Warmup Instructions: 100000000
Simulation Instructions: 500000000
Number of CPUs: 1
LLC sets: 2048
LLC ways: 16
Clean RRIP Policies: 1213230112132301 Dirty RRIP Policies: 2213130122131301 PSEL Width: 10 Track Set: 4294967295 PSEL Mask: 1 Demote Mask: 40100000401000DS Algo: 0Window size: 0
Off-chip DRAM Size: 4096 MB Channels: 1 Width: 64-bit Data Rate: 1600 MT/s

CPU 0 runs /mnt/beegfs/iconst01/spec2017/Wrf.trace.gz
NOT SORTED
TRACE STRING: /mnt/beegfs/iconst01/spec2017/Wrf.trace.gz
SORTED
TRACE STRING: /mnt/beegfs/iconst01/spec2017/Wrf.trace.gz
INITIAL
TRACE STRING: /mnt/beegfs/iconst01/spec2017/Wrf.trace.gz

champsim_seed used: 303

CPU 0 L1D next line prefetcher
CPU 0 L2C IP-based stride prefetcher
Initialize DRRIP state
Assign rand_sets[0]: 454  LLC: 2048
rand_sets[0]: 454
Assign rand_sets[1]: 1662  LLC: 2048
rand_sets[1]: 1662
Assign rand_sets[2]: 1921  LLC: 2048
rand_sets[2]: 1921
Assign rand_sets[3]: 1131  LLC: 2048
rand_sets[3]: 1131
Assign rand_sets[4]: 331  LLC: 2048
rand_sets[4]: 331
Assign rand_sets[5]: 1531  LLC: 2048
rand_sets[5]: 1531
Assign rand_sets[6]: 482  LLC: 2048
rand_sets[6]: 482
Assign rand_sets[7]: 1275  LLC: 2048
rand_sets[7]: 1275
Assign rand_sets[8]: 1876  LLC: 2048
rand_sets[8]: 1876
Assign rand_sets[9]: 2038  LLC: 2048
rand_sets[9]: 2038
Assign rand_sets[10]: 701  LLC: 2048
rand_sets[10]: 701
Assign rand_sets[11]: 479  LLC: 2048
rand_sets[11]: 479
Assign rand_sets[12]: 892  LLC: 2048
rand_sets[12]: 892
Assign rand_sets[13]: 1820  LLC: 2048
rand_sets[13]: 1820
Assign rand_sets[14]: 1505  LLC: 2048
rand_sets[14]: 1505
Assign rand_sets[15]: 1159  LLC: 2048
rand_sets[15]: 1159
Assign rand_sets[16]: 513  LLC: 2048
rand_sets[16]: 513
Assign rand_sets[17]: 703  LLC: 2048
rand_sets[17]: 703
Assign rand_sets[18]: 561  LLC: 2048
rand_sets[18]: 561
Assign rand_sets[19]: 990  LLC: 2048
rand_sets[19]: 990
Assign rand_sets[20]: 342  LLC: 2048
rand_sets[20]: 342
Assign rand_sets[21]: 882  LLC: 2048
rand_sets[21]: 882
Assign rand_sets[22]: 15  LLC: 2048
rand_sets[22]: 15
Assign rand_sets[23]: 71  LLC: 2048
rand_sets[23]: 71
Assign rand_sets[24]: 1127  LLC: 2048
rand_sets[24]: 1127
Assign rand_sets[25]: 1382  LLC: 2048
rand_sets[25]: 1382
Assign rand_sets[26]: 647  LLC: 2048
rand_sets[26]: 647
Assign rand_sets[27]: 857  LLC: 2048
rand_sets[27]: 857
Assign rand_sets[28]: 1450  LLC: 2048
rand_sets[28]: 1450
Assign rand_sets[29]: 1160  LLC: 2048
rand_sets[29]: 1160
Assign rand_sets[30]: 1852  LLC: 2048
rand_sets[30]: 1852
Assign rand_sets[31]: 1881  LLC: 2048
rand_sets[31]: 1881
Assign rand_sets[32]: 1770  LLC: 2048
rand_sets[32]: 1770
Assign rand_sets[33]: 1622  LLC: 2048
rand_sets[33]: 1622
Assign rand_sets[34]: 275  LLC: 2048
rand_sets[34]: 275
Assign rand_sets[35]: 635  LLC: 2048
rand_sets[35]: 635
Assign rand_sets[36]: 466  LLC: 2048
rand_sets[36]: 466
Assign rand_sets[37]: 1413  LLC: 2048
rand_sets[37]: 1413
Assign rand_sets[38]: 417  LLC: 2048
rand_sets[38]: 417
Assign rand_sets[39]: 472  LLC: 2048
rand_sets[39]: 472
Assign rand_sets[40]: 1340  LLC: 2048
rand_sets[40]: 1340
Assign rand_sets[41]: 852  LLC: 2048
rand_sets[41]: 852
Assign rand_sets[42]: 1365  LLC: 2048
rand_sets[42]: 1365
Assign rand_sets[43]: 47  LLC: 2048
rand_sets[43]: 47
Assign rand_sets[44]: 823  LLC: 2048
rand_sets[44]: 823
Assign rand_sets[45]: 686  LLC: 2048
rand_sets[45]: 686
Assign rand_sets[46]: 1637  LLC: 2048
rand_sets[46]: 1637
Assign rand_sets[47]: 1115  LLC: 2048
rand_sets[47]: 1115
Assign rand_sets[48]: 986  LLC: 2048
rand_sets[48]: 986
Assign rand_sets[49]: 258  LLC: 2048
rand_sets[49]: 258
Assign rand_sets[50]: 633  LLC: 2048
rand_sets[50]: 633
Assign rand_sets[51]: 920  LLC: 2048
rand_sets[51]: 920
Assign rand_sets[52]: 204  LLC: 2048
rand_sets[52]: 204
Assign rand_sets[53]: 227  LLC: 2048
rand_sets[53]: 227
Assign rand_sets[54]: 1818  LLC: 2048
rand_sets[54]: 1818
Assign rand_sets[55]: 886  LLC: 2048
rand_sets[55]: 886
Assign rand_sets[56]: 1422  LLC: 2048
rand_sets[56]: 1422
Assign rand_sets[57]: 607  LLC: 2048
rand_sets[57]: 607
Assign rand_sets[58]: 217  LLC: 2048
rand_sets[58]: 217
Assign rand_sets[59]: 1945  LLC: 2048
rand_sets[59]: 1945
Assign rand_sets[60]: 143  LLC: 2048
rand_sets[60]: 143
Assign rand_sets[61]: 1311  LLC: 2048
rand_sets[61]: 1311
Assign rand_sets[62]: 319  LLC: 2048
rand_sets[62]: 319
Assign rand_sets[63]: 1846  LLC: 2048
rand_sets[63]: 1846
 CLEAN-RRIP-POLICY-1: 1-2-1-3-2-3-0-1- CLEAN-RRIP-POLICY-2: 1-2-1-3-2-3-0-1-
 DIRTY-RRIP-POLICY-1: 2-2-1-3-1-3-0-1- DIRTY-RRIP-POLICY-2: 2-2-1-3-1-3-0-1-
 PSEL width: 10
Heartbeat CPU 0 instructions: 10000002 cycles: 6559549 heartbeat IPC: 1.5245 cumulative IPC: 1.5245 (Simulation time: 0 hr 0 min 22 sec) 
Heartbeat CPU 0 instructions: 20000000 cycles: 12222111 heartbeat IPC: 1.76598 cumulative IPC: 1.63638 (Simulation time: 0 hr 0 min 42 sec) 
Heartbeat CPU 0 instructions: 30000003 cycles: 18203887 heartbeat IPC: 1.67174 cumulative IPC: 1.648 (Simulation time: 0 hr 1 min 2 sec) 
Heartbeat CPU 0 instructions: 40000000 cycles: 24059230 heartbeat IPC: 1.70784 cumulative IPC: 1.66256 (Simulation time: 0 hr 1 min 23 sec) 
Heartbeat CPU 0 instructions: 50000000 cycles: 29527515 heartbeat IPC: 1.82873 cumulative IPC: 1.69334 (Simulation time: 0 hr 1 min 43 sec) 
Heartbeat CPU 0 instructions: 60000000 cycles: 35640326 heartbeat IPC: 1.63591 cumulative IPC: 1.68349 (Simulation time: 0 hr 2 min 5 sec) 
Heartbeat CPU 0 instructions: 70000000 cycles: 41360000 heartbeat IPC: 1.74835 cumulative IPC: 1.69246 (Simulation time: 0 hr 2 min 25 sec) 
Heartbeat CPU 0 instructions: 80000000 cycles: 47230901 heartbeat IPC: 1.70332 cumulative IPC: 1.69381 (Simulation time: 0 hr 2 min 45 sec) 
Heartbeat CPU 0 instructions: 90000000 cycles: 52984395 heartbeat IPC: 1.73807 cumulative IPC: 1.69861 (Simulation time: 0 hr 3 min 6 sec) 
Heartbeat CPU 0 instructions: 100000000 cycles: 58537437 heartbeat IPC: 1.80081 cumulative IPC: 1.70831 (Simulation time: 0 hr 3 min 26 sec) 

Warmup complete CPU 0 instructions: 100000004 cycles: 58537439 (Simulation time: 0 hr 3 min 26 sec) 

Heartbeat CPU 0 instructions: 110000001 cycles: 72456109 heartbeat IPC: 0.718459 cumulative IPC: 0.718459 (Simulation time: 0 hr 3 min 52 sec) 
Heartbeat CPU 0 instructions: 120000000 cycles: 83161140 heartbeat IPC: 0.93414 cumulative IPC: 0.812225 (Simulation time: 0 hr 4 min 16 sec) 
Heartbeat CPU 0 instructions: 130000000 cycles: 92990856 heartbeat IPC: 1.01732 cumulative IPC: 0.870741 (Simulation time: 0 hr 4 min 38 sec) 
Heartbeat CPU 0 instructions: 140000000 cycles: 103615486 heartbeat IPC: 0.941209 cumulative IPC: 0.88735 (Simulation time: 0 hr 5 min 1 sec) 
Heartbeat CPU 0 instructions: 150000002 cycles: 114523590 heartbeat IPC: 0.91675 cumulative IPC: 0.893078 (Simulation time: 0 hr 5 min 25 sec) 
Heartbeat CPU 0 instructions: 160000000 cycles: 123419592 heartbeat IPC: 1.1241 cumulative IPC: 0.924753 (Simulation time: 0 hr 5 min 47 sec) 
Heartbeat CPU 0 instructions: 170000003 cycles: 133784501 heartbeat IPC: 0.964794 cumulative IPC: 0.930269 (Simulation time: 0 hr 6 min 9 sec) 
Heartbeat CPU 0 instructions: 180000000 cycles: 146346617 heartbeat IPC: 0.796044 cumulative IPC: 0.911066 (Simulation time: 0 hr 6 min 34 sec) 
Heartbeat CPU 0 instructions: 190000000 cycles: 161423351 heartbeat IPC: 0.663274 cumulative IPC: 0.874755 (Simulation time: 0 hr 6 min 58 sec) 
Heartbeat CPU 0 instructions: 200000000 cycles: 176457885 heartbeat IPC: 0.665135 cumulative IPC: 0.848029 (Simulation time: 0 hr 7 min 22 sec) 
Heartbeat CPU 0 instructions: 210000000 cycles: 191495400 heartbeat IPC: 0.665003 cumulative IPC: 0.827329 (Simulation time: 0 hr 7 min 45 sec) 
Heartbeat CPU 0 instructions: 220000000 cycles: 207418661 heartbeat IPC: 0.628012 cumulative IPC: 0.806012 (Simulation time: 0 hr 8 min 12 sec) 
Heartbeat CPU 0 instructions: 230000003 cycles: 225973390 heartbeat IPC: 0.538946 cumulative IPC: 0.776416 (Simulation time: 0 hr 8 min 40 sec) 
Heartbeat CPU 0 instructions: 240000000 cycles: 235407675 heartbeat IPC: 1.05996 cumulative IPC: 0.791541 (Simulation time: 0 hr 9 min 2 sec) 
Heartbeat CPU 0 instructions: 250000000 cycles: 244115237 heartbeat IPC: 1.14843 cumulative IPC: 0.808286 (Simulation time: 0 hr 9 min 23 sec) 
Heartbeat CPU 0 instructions: 260000000 cycles: 253153947 heartbeat IPC: 1.10635 cumulative IPC: 0.82213 (Simulation time: 0 hr 9 min 45 sec) 
Heartbeat CPU 0 instructions: 270000000 cycles: 262751637 heartbeat IPC: 1.04192 cumulative IPC: 0.832459 (Simulation time: 0 hr 10 min 8 sec) 
Heartbeat CPU 0 instructions: 280000000 cycles: 272554681 heartbeat IPC: 1.02009 cumulative IPC: 0.841054 (Simulation time: 0 hr 10 min 31 sec) 
Heartbeat CPU 0 instructions: 290000000 cycles: 282646045 heartbeat IPC: 0.990946 cumulative IPC: 0.847803 (Simulation time: 0 hr 10 min 56 sec) 
Heartbeat CPU 0 instructions: 300000000 cycles: 291473513 heartbeat IPC: 1.13283 cumulative IPC: 0.858605 (Simulation time: 0 hr 11 min 18 sec) 
Heartbeat CPU 0 instructions: 310000002 cycles: 305946998 heartbeat IPC: 0.690919 cumulative IPC: 0.848795 (Simulation time: 0 hr 11 min 45 sec) 
Heartbeat CPU 0 instructions: 320000000 cycles: 322062770 heartbeat IPC: 0.62051 cumulative IPC: 0.834834 (Simulation time: 0 hr 12 min 13 sec) 
Heartbeat CPU 0 instructions: 330000002 cycles: 332748127 heartbeat IPC: 0.93586 cumulative IPC: 0.838771 (Simulation time: 0 hr 12 min 37 sec) 
Heartbeat CPU 0 instructions: 340000000 cycles: 343167722 heartbeat IPC: 0.95973 cumulative IPC: 0.843199 (Simulation time: 0 hr 13 min 1 sec) 
Heartbeat CPU 0 instructions: 350000002 cycles: 356090483 heartbeat IPC: 0.773829 cumulative IPC: 0.840186 (Simulation time: 0 hr 13 min 26 sec) 
Heartbeat CPU 0 instructions: 360000000 cycles: 367285387 heartbeat IPC: 0.893263 cumulative IPC: 0.842111 (Simulation time: 0 hr 13 min 50 sec) 
Heartbeat CPU 0 instructions: 370000000 cycles: 378029901 heartbeat IPC: 0.930708 cumulative IPC: 0.84509 (Simulation time: 0 hr 14 min 14 sec) 
Heartbeat CPU 0 instructions: 380000000 cycles: 388571284 heartbeat IPC: 0.948642 cumulative IPC: 0.848398 (Simulation time: 0 hr 14 min 38 sec) 
Heartbeat CPU 0 instructions: 390000003 cycles: 405785381 heartbeat IPC: 0.580919 cumulative IPC: 0.835138 (Simulation time: 0 hr 15 min 7 sec) 
Heartbeat CPU 0 instructions: 400000000 cycles: 416432362 heartbeat IPC: 0.939233 cumulative IPC: 0.838235 (Simulation time: 0 hr 15 min 30 sec) 
Heartbeat CPU 0 instructions: 410000002 cycles: 426636562 heartbeat IPC: 0.979989 cumulative IPC: 0.842164 (Simulation time: 0 hr 15 min 52 sec) 
Heartbeat CPU 0 instructions: 420000000 cycles: 436549935 heartbeat IPC: 1.00874 cumulative IPC: 0.846533 (Simulation time: 0 hr 16 min 14 sec) 
Heartbeat CPU 0 instructions: 430000001 cycles: 446529818 heartbeat IPC: 1.00202 cumulative IPC: 0.850532 (Simulation time: 0 hr 16 min 36 sec) 
Heartbeat CPU 0 instructions: 440000000 cycles: 458106907 heartbeat IPC: 0.863775 cumulative IPC: 0.850916 (Simulation time: 0 hr 16 min 58 sec) 
Heartbeat CPU 0 instructions: 450000002 cycles: 473191042 heartbeat IPC: 0.662948 cumulative IPC: 0.844078 (Simulation time: 0 hr 17 min 22 sec) 
Heartbeat CPU 0 instructions: 460000000 cycles: 488235215 heartbeat IPC: 0.664709 cumulative IPC: 0.837798 (Simulation time: 0 hr 17 min 46 sec) 
Heartbeat CPU 0 instructions: 470000003 cycles: 503263774 heartbeat IPC: 0.6654 cumulative IPC: 0.831972 (Simulation time: 0 hr 18 min 10 sec) 
Heartbeat CPU 0 instructions: 480000000 cycles: 519201369 heartbeat IPC: 0.627447 cumulative IPC: 0.824896 (Simulation time: 0 hr 18 min 36 sec) 
Heartbeat CPU 0 instructions: 490000002 cycles: 537855557 heartbeat IPC: 0.536073 cumulative IPC: 0.813656 (Simulation time: 0 hr 19 min 5 sec) 
Heartbeat CPU 0 instructions: 500000000 cycles: 547246295 heartbeat IPC: 1.06488 cumulative IPC: 0.818483 (Simulation time: 0 hr 19 min 27 sec) 
Heartbeat CPU 0 instructions: 510000002 cycles: 556030353 heartbeat IPC: 1.13843 cumulative IPC: 0.824132 (Simulation time: 0 hr 19 min 48 sec) 
Heartbeat CPU 0 instructions: 520000000 cycles: 565048540 heartbeat IPC: 1.10887 cumulative IPC: 0.829202 (Simulation time: 0 hr 20 min 10 sec) 
Heartbeat CPU 0 instructions: 530000002 cycles: 574655340 heartbeat IPC: 1.04093 cumulative IPC: 0.833143 (Simulation time: 0 hr 20 min 32 sec) 
Heartbeat CPU 0 instructions: 540000000 cycles: 584402119 heartbeat IPC: 1.02598 cumulative IPC: 0.836717 (Simulation time: 0 hr 20 min 56 sec) 
Heartbeat CPU 0 instructions: 550000002 cycles: 594531272 heartbeat IPC: 0.98725 cumulative IPC: 0.839562 (Simulation time: 0 hr 21 min 21 sec) 
Heartbeat CPU 0 instructions: 560000000 cycles: 603356867 heartbeat IPC: 1.13307 cumulative IPC: 0.844316 (Simulation time: 0 hr 21 min 43 sec) 
Heartbeat CPU 0 instructions: 570000003 cycles: 617683553 heartbeat IPC: 0.697998 cumulative IPC: 0.840567 (Simulation time: 0 hr 22 min 9 sec) 
Heartbeat CPU 0 instructions: 580000000 cycles: 633942299 heartbeat IPC: 0.615053 cumulative IPC: 0.834195 (Simulation time: 0 hr 22 min 38 sec) 
Heartbeat CPU 0 instructions: 590000002 cycles: 644208869 heartbeat IPC: 0.974035 cumulative IPC: 0.836647 (Simulation time: 0 hr 23 min 1 sec) 
Heartbeat CPU 0 instructions: 600000000 cycles: 655047585 heartbeat IPC: 0.922618 cumulative IPC: 0.838209 (Simulation time: 0 hr 23 min 25 sec) 
Finished CPU 0 instructions: 500000000 cycles: 596510165 cumulative IPC: 0.838209 (Simulation time: 0 hr 23 min 25 sec) 

CPU 0 Branch Prediction Accuracy: 99.5219% MPKI: 0.251582
Number of Branches: 26312578 Number of Mispredictions: 125791
Number of LOAD Instructions: 235643083
Number of LOAD Instructions (ROI): 235643083
Number of STORE Instructions: 37593550
Number of STORE Instructions (ROI): 37593550
Total Destination Memory Operands: 40480968
Total Destination Memory Operands (ROI): 40480968
Total Source Memory Operands: 235643083
Total Source Memory Operands (ROI): 235643083
Number of DEPENDED LOADS: 6699846
Number of DEPENDED LOADS (ROI): 6699846
Number of SQ_ADDED: 40480950
Number of SQ_ADDED (ROI): 40480950
Number of LQ_ADDED: 389241866
Number of LQ_ADDED (ROI): 389241866
Number of Instructions read from trace: 600000259

ChampSim completed all CPUs

Region of Interest Statistics

CPU 0 cumulative IPC: 0.838209 instructions: 500000000 cycles: 596510165
ITLB TOTAL     ACCESS:  109339466  HIT:  109338953  MISS:        513
ITLB LOAD      ACCESS:  109339466  HIT:  109338953  MISS:        513
ITLB RFO       ACCESS:          0  HIT:          0  MISS:          0
ITLB PREFETCH  ACCESS:          0  HIT:          0  MISS:          0
ITLB WRITEBACK ACCESS:          0  HIT:          0  MISS:          0
ITLB PREFETCH  REQUESTED:          0  ISSUED:          0  USEFUL:          0  USELESS:          0
ITLB TOTAL MSHR MERGED:        974
ITLB LOAD MSHR MERGED:        974
ITLB RFO MSHR MERGED:          0
ITLB PREFETCH MSHR MERGED:          0
ITLB WRITEBACK MSHR MERGED:          0
ITLB TOTAL ACCESSES:  109340440 HITS:  109338953 MISSES:       1487
ITLB LOAD ACCESSES:  109340440 HITS:  109338953 MISSES:       1487
ITLB RFO ACCESSES:          0 HITS:          0 MISSES:          0
ITLB PREFETCH ACCESSES:          0 HITS:          0 MISSES:          0
ITLB WRITEBACK ACCESSES:          0 HITS:          0 MISSES:          0
ITLB RQ ACCESS:  500000003
ITLB RQ TO_CACHE:  109340440
ITLB RQ MERGED:  390659563
ITLB RQ FORWARD:          0
ITLB WQ ACCESS:          0
ITLB WQ TO_CACHE:          0
ITLB WQ MERGED:          0
ITLB WQ FORWARD:          0
DTLB TOTAL     ACCESS:  130442628  HIT:  130184947  MISS:     257681
DTLB LOAD      ACCESS:  109045366  HIT:  108824550  MISS:     220816
DTLB RFO       ACCESS:   21397262  HIT:   21360397  MISS:      36865
DTLB PREFETCH  ACCESS:          0  HIT:          0  MISS:          0
DTLB WRITEBACK ACCESS:          0  HIT:          0  MISS:          0
DTLB PREFETCH  REQUESTED:          0  ISSUED:          0  USEFUL:          0  USELESS:          0
DTLB TOTAL MSHR MERGED:     122075
DTLB LOAD MSHR MERGED:      83984
DTLB RFO MSHR MERGED:      38091
DTLB PREFETCH MSHR MERGED:          0
DTLB WRITEBACK MSHR MERGED:          0
DTLB TOTAL ACCESSES:  130564703 HITS:  130184947 MISSES:     379756
DTLB LOAD ACCESSES:  109129350 HITS:  108824550 MISSES:     304800
DTLB RFO ACCESSES:   21435353 HITS:   21360397 MISSES:      74956
DTLB PREFETCH ACCESSES:          0 HITS:          0 MISSES:          0
DTLB WRITEBACK ACCESSES:          0 HITS:          0 MISSES:          0
DTLB RQ ACCESS:  218634607
DTLB RQ TO_CACHE:  130564704
DTLB RQ MERGED:   88069903
DTLB RQ FORWARD:          0
DTLB WQ ACCESS:          0
DTLB WQ TO_CACHE:          0
DTLB WQ MERGED:          0
DTLB WQ FORWARD:          0
L1D TOTAL     ACCESS:  204655628  HIT:  193583725  MISS:   11071903
L1D LOAD      ACCESS:  106305844  HIT:  103138064  MISS:    3167780
L1D RFO       ACCESS:   26959172  HIT:   25208987  MISS:    1750185
L1D PREFETCH  ACCESS:   71390612  HIT:   65236674  MISS:    6153938
L1D WRITEBACK ACCESS:          0  HIT:          0  MISS:          0
L1D PREFETCH  REQUESTED:  108928925  ISSUED:  107266624  USEFUL:    5699356  USELESS:     454576
L1D TOTAL MSHR MERGED:   18303918
L1D LOAD MSHR MERGED:    4627333
L1D RFO MSHR MERGED:    6479622
L1D PREFETCH MSHR MERGED:    7196963
L1D WRITEBACK MSHR MERGED:          0
L1D TOTAL ACCESSES:  223020331 HITS:  193644510 MISSES:   29375821
L1D LOAD ACCESSES:  108954079 HITS:  103163218 MISSES:    5790861
L1D RFO ACCESSES:   33436745 HITS:   25208987 MISSES:    8227758
L1D PREFETCH ACCESSES:   80629507 HITS:   65272305 MISSES:   15357202
L1D WRITEBACK ACCESSES:          0 HITS:          0 MISSES:          0
L1D RQ ACCESS:  184991169
L1D RQ TO_CACHE:  108928925
L1D RQ MERGED:   76037090
L1D RQ FORWARD:          0
L1D WQ ACCESS:   33643426
L1D WQ TO_CACHE:   33436744
L1D WQ MERGED:     206682
L1D WQ FORWARD:      60785
L1I TOTAL     ACCESS:  134025491  HIT:  134000914  MISS:      24577
L1I LOAD      ACCESS:  134025491  HIT:  134000914  MISS:      24577
L1I RFO       ACCESS:          0  HIT:          0  MISS:          0
L1I PREFETCH  ACCESS:          0  HIT:          0  MISS:          0
L1I WRITEBACK ACCESS:          0  HIT:          0  MISS:          0
L1I PREFETCH  REQUESTED:          0  ISSUED:          0  USEFUL:          0  USELESS:          0
L1I TOTAL MSHR MERGED:      30388
L1I LOAD MSHR MERGED:      30388
L1I RFO MSHR MERGED:          0
L1I PREFETCH MSHR MERGED:          0
L1I WRITEBACK MSHR MERGED:          0
L1I TOTAL ACCESSES:  134055879 HITS:  134000914 MISSES:      54965
L1I LOAD ACCESSES:  134055879 HITS:  134000914 MISSES:      54965
L1I RFO ACCESSES:          0 HITS:          0 MISSES:          0
L1I PREFETCH ACCESSES:          0 HITS:          0 MISSES:          0
L1I WRITEBACK ACCESSES:          0 HITS:          0 MISSES:          0
L1I RQ ACCESS:  500000005
L1I RQ TO_CACHE:  134055879
L1I RQ MERGED:  365944126
L1I RQ FORWARD:          0
L1I WQ ACCESS:          0
L1I WQ TO_CACHE:          0
L1I WQ MERGED:          0
L1I WQ FORWARD:          0
L2C TOTAL     ACCESS:   14941628  HIT:    6945771  MISS:    7995857
L2C LOAD      ACCESS:    1187917  HIT:     299094  MISS:     888823
L2C RFO       ACCESS:    1747928  HIT:     369293  MISS:    1378635
L2C PREFETCH  ACCESS:    8323887  HIT:    2604166  MISS:    5719721
L2C WRITEBACK ACCESS:    3681896  HIT:    3673218  MISS:       8678
L2C PREFETCH  REQUESTED:     390223  ISSUED:     390222  USEFUL:     114377  USELESS:    5606179
L2C TOTAL MSHR MERGED:      41893
L2C LOAD MSHR MERGED:       2346
L2C RFO MSHR MERGED:       1367
L2C PREFETCH MSHR MERGED:      38180
L2C WRITEBACK MSHR MERGED:          0
L2C TOTAL ACCESSES:   15104343 HITS:    6946461 MISSES:    8157882
L2C LOAD ACCESSES:    1188105 HITS:     299282 MISSES:     888823
L2C RFO ACCESSES:    1748136 HITS:     369501 MISSES:    1378635
L2C PREFETCH ACCESSES:    8486206 HITS:    2604460 MISSES:    5881746
L2C WRITEBACK ACCESSES:    3681896 HITS:    3673218 MISSES:       8678
L2C RQ ACCESS:    2936241
L2C RQ TO_CACHE:    2935845
L2C RQ MERGED:          0
L2C RQ FORWARD:          0
L2C WQ ACCESS:    3681896
L2C WQ TO_CACHE:    3681896
L2C WQ MERGED:          0
L2C WQ FORWARD:        690
LLC TOTAL     ACCESS:   11182188  HIT:    2956891  MISS:    8225297
LLC LOAD      ACCESS:     886471  HIT:     313204  MISS:     573267
LLC RFO       ACCESS:    1377266  HIT:     226280  MISS:    1150986
LLC PREFETCH  ACCESS:    5814332  HIT:    1135569  MISS:    4678763
LLC WRITEBACK ACCESS:    3104119  HIT:    1281838  MISS:    1822281
LLC PREFETCH  REQUESTED:          0  ISSUED:          0  USEFUL:      34160  USELESS:    4643815
LLC TOTAL MSHR MERGED:      21954
LLC LOAD MSHR MERGED:       6623
LLC RFO MSHR MERGED:        580
LLC PREFETCH MSHR MERGED:      14751
LLC WRITEBACK MSHR MERGED:          0
LLC TOTAL ACCESSES:   11204161 HITS:    2956910 MISSES:    8247251
LLC LOAD ACCESSES:     886477 HITS:     313210 MISSES:     573267
LLC RFO ACCESSES:    1377268 HITS:     226282 MISSES:    1150986
LLC PREFETCH ACCESSES:    5836297 HITS:    1135580 MISSES:    4700717
LLC WRITEBACK ACCESSES:    3104119 HITS:    1281838 MISSES:    1822281
LLC 0 RQ ACCESS:    2263745
LLC 0 RQ TO_CACHE:    2263737
LLC 0 RQ MERGED:          0
LLC 0 RQ FORWARD:          0
LLC WQ ACCESS:    3104119
LLC WQ TO_CACHE:    3104119
LLC WQ MERGED:          0
LLC WQ FORWARD:         19
Major fault: 0 Minor fault: 11519
CPU 0 L1D next line prefetcher final stats
CPU 0 L2C PC-based stride prefetcher final stats
All Misses: 10334683
All Hits: 3458618
SD Algo Stats - Switches: 0 SRR-Repls: 644715 BRR-Repls: 0

DRAM Statistics
 CHANNEL 0
 RQ ROW_BUFFER_HIT:    3913959  ROW_BUFFER_MISS:    2488127
 DBUS_CONGESTED:    4390577
 WQ ROW_BUFFER_HIT:     308886  ROW_BUFFER_MISS:    1876963  FULL:        221

 AVG_CONGESTED_CYCLE: 13
LOADS RETIRED: 190375692
INSTR RETIRED: 500000000
