
*** ChampSim Multicore Out-of-Order Simulator ***

Warmup Instructions: 100000000
Simulation Instructions: 500000000
Number of CPUs: 1
LLC sets: 2048
LLC ways: 16
Clean RRIP Policies: 1213131112131311 Dirty RRIP Policies: 2203130122031301 PSEL Width: 10 Track Set: 4294967295 PSEL Mask: 1 Demote Mask: 3040102030401020DS Algo: 0Window size: 0
Off-chip DRAM Size: 4096 MB Channels: 1 Width: 64-bit Data Rate: 1600 MT/s

CPU 0 runs /mnt/beegfs/iconst01/spec2017/x264.trace.gz
NOT SORTED
TRACE STRING: /mnt/beegfs/iconst01/spec2017/x264.trace.gz
SORTED
TRACE STRING: /mnt/beegfs/iconst01/spec2017/x264.trace.gz
INITIAL
TRACE STRING: /mnt/beegfs/iconst01/spec2017/x264.trace.gz

champsim_seed used: 276

CPU 0 L1D next line prefetcher
CPU 0 L2C IP-based stride prefetcher
Initialize DRRIP state
Assign rand_sets[0]: 454  LLC: 2048
rand_sets[0]: 454
Assign rand_sets[1]: 1662  LLC: 2048
rand_sets[1]: 1662
Assign rand_sets[2]: 1921  LLC: 2048
rand_sets[2]: 1921
Assign rand_sets[3]: 1131  LLC: 2048
rand_sets[3]: 1131
Assign rand_sets[4]: 331  LLC: 2048
rand_sets[4]: 331
Assign rand_sets[5]: 1531  LLC: 2048
rand_sets[5]: 1531
Assign rand_sets[6]: 482  LLC: 2048
rand_sets[6]: 482
Assign rand_sets[7]: 1275  LLC: 2048
rand_sets[7]: 1275
Assign rand_sets[8]: 1876  LLC: 2048
rand_sets[8]: 1876
Assign rand_sets[9]: 2038  LLC: 2048
rand_sets[9]: 2038
Assign rand_sets[10]: 701  LLC: 2048
rand_sets[10]: 701
Assign rand_sets[11]: 479  LLC: 2048
rand_sets[11]: 479
Assign rand_sets[12]: 892  LLC: 2048
rand_sets[12]: 892
Assign rand_sets[13]: 1820  LLC: 2048
rand_sets[13]: 1820
Assign rand_sets[14]: 1505  LLC: 2048
rand_sets[14]: 1505
Assign rand_sets[15]: 1159  LLC: 2048
rand_sets[15]: 1159
Assign rand_sets[16]: 513  LLC: 2048
rand_sets[16]: 513
Assign rand_sets[17]: 703  LLC: 2048
rand_sets[17]: 703
Assign rand_sets[18]: 561  LLC: 2048
rand_sets[18]: 561
Assign rand_sets[19]: 990  LLC: 2048
rand_sets[19]: 990
Assign rand_sets[20]: 342  LLC: 2048
rand_sets[20]: 342
Assign rand_sets[21]: 882  LLC: 2048
rand_sets[21]: 882
Assign rand_sets[22]: 15  LLC: 2048
rand_sets[22]: 15
Assign rand_sets[23]: 71  LLC: 2048
rand_sets[23]: 71
Assign rand_sets[24]: 1127  LLC: 2048
rand_sets[24]: 1127
Assign rand_sets[25]: 1382  LLC: 2048
rand_sets[25]: 1382
Assign rand_sets[26]: 647  LLC: 2048
rand_sets[26]: 647
Assign rand_sets[27]: 857  LLC: 2048
rand_sets[27]: 857
Assign rand_sets[28]: 1450  LLC: 2048
rand_sets[28]: 1450
Assign rand_sets[29]: 1160  LLC: 2048
rand_sets[29]: 1160
Assign rand_sets[30]: 1852  LLC: 2048
rand_sets[30]: 1852
Assign rand_sets[31]: 1881  LLC: 2048
rand_sets[31]: 1881
Assign rand_sets[32]: 1770  LLC: 2048
rand_sets[32]: 1770
Assign rand_sets[33]: 1622  LLC: 2048
rand_sets[33]: 1622
Assign rand_sets[34]: 275  LLC: 2048
rand_sets[34]: 275
Assign rand_sets[35]: 635  LLC: 2048
rand_sets[35]: 635
Assign rand_sets[36]: 466  LLC: 2048
rand_sets[36]: 466
Assign rand_sets[37]: 1413  LLC: 2048
rand_sets[37]: 1413
Assign rand_sets[38]: 417  LLC: 2048
rand_sets[38]: 417
Assign rand_sets[39]: 472  LLC: 2048
rand_sets[39]: 472
Assign rand_sets[40]: 1340  LLC: 2048
rand_sets[40]: 1340
Assign rand_sets[41]: 852  LLC: 2048
rand_sets[41]: 852
Assign rand_sets[42]: 1365  LLC: 2048
rand_sets[42]: 1365
Assign rand_sets[43]: 47  LLC: 2048
rand_sets[43]: 47
Assign rand_sets[44]: 823  LLC: 2048
rand_sets[44]: 823
Assign rand_sets[45]: 686  LLC: 2048
rand_sets[45]: 686
Assign rand_sets[46]: 1637  LLC: 2048
rand_sets[46]: 1637
Assign rand_sets[47]: 1115  LLC: 2048
rand_sets[47]: 1115
Assign rand_sets[48]: 986  LLC: 2048
rand_sets[48]: 986
Assign rand_sets[49]: 258  LLC: 2048
rand_sets[49]: 258
Assign rand_sets[50]: 633  LLC: 2048
rand_sets[50]: 633
Assign rand_sets[51]: 920  LLC: 2048
rand_sets[51]: 920
Assign rand_sets[52]: 204  LLC: 2048
rand_sets[52]: 204
Assign rand_sets[53]: 227  LLC: 2048
rand_sets[53]: 227
Assign rand_sets[54]: 1818  LLC: 2048
rand_sets[54]: 1818
Assign rand_sets[55]: 886  LLC: 2048
rand_sets[55]: 886
Assign rand_sets[56]: 1422  LLC: 2048
rand_sets[56]: 1422
Assign rand_sets[57]: 607  LLC: 2048
rand_sets[57]: 607
Assign rand_sets[58]: 217  LLC: 2048
rand_sets[58]: 217
Assign rand_sets[59]: 1945  LLC: 2048
rand_sets[59]: 1945
Assign rand_sets[60]: 143  LLC: 2048
rand_sets[60]: 143
Assign rand_sets[61]: 1311  LLC: 2048
rand_sets[61]: 1311
Assign rand_sets[62]: 319  LLC: 2048
rand_sets[62]: 319
Assign rand_sets[63]: 1846  LLC: 2048
rand_sets[63]: 1846
 CLEAN-RRIP-POLICY-1: 1-2-1-3-1-3-1-1- CLEAN-RRIP-POLICY-2: 1-2-1-3-1-3-1-1-
 DIRTY-RRIP-POLICY-1: 2-2-0-3-1-3-0-1- DIRTY-RRIP-POLICY-2: 2-2-0-3-1-3-0-1-
 PSEL width: 10
Heartbeat CPU 0 instructions: 10000000 cycles: 4124759 heartbeat IPC: 2.42438 cumulative IPC: 2.42438 (Simulation time: 0 hr 0 min 14 sec) 
Heartbeat CPU 0 instructions: 20000000 cycles: 8233863 heartbeat IPC: 2.43362 cumulative IPC: 2.42899 (Simulation time: 0 hr 0 min 27 sec) 
Heartbeat CPU 0 instructions: 30000003 cycles: 12464696 heartbeat IPC: 2.3636 cumulative IPC: 2.4068 (Simulation time: 0 hr 0 min 40 sec) 
Heartbeat CPU 0 instructions: 40000000 cycles: 16636669 heartbeat IPC: 2.39695 cumulative IPC: 2.40433 (Simulation time: 0 hr 0 min 53 sec) 
Heartbeat CPU 0 instructions: 50000000 cycles: 20699131 heartbeat IPC: 2.46156 cumulative IPC: 2.41556 (Simulation time: 0 hr 1 min 6 sec) 
Heartbeat CPU 0 instructions: 60000000 cycles: 25022616 heartbeat IPC: 2.31295 cumulative IPC: 2.39783 (Simulation time: 0 hr 1 min 19 sec) 
Heartbeat CPU 0 instructions: 70000000 cycles: 29370973 heartbeat IPC: 2.29972 cumulative IPC: 2.38331 (Simulation time: 0 hr 1 min 32 sec) 
Heartbeat CPU 0 instructions: 80000000 cycles: 33721133 heartbeat IPC: 2.29877 cumulative IPC: 2.3724 (Simulation time: 0 hr 1 min 45 sec) 
Heartbeat CPU 0 instructions: 90000002 cycles: 38032107 heartbeat IPC: 2.31966 cumulative IPC: 2.36642 (Simulation time: 0 hr 1 min 58 sec) 
Heartbeat CPU 0 instructions: 100000000 cycles: 42329031 heartbeat IPC: 2.32725 cumulative IPC: 2.36244 (Simulation time: 0 hr 2 min 11 sec) 

Warmup complete CPU 0 instructions: 100000001 cycles: 42329032 (Simulation time: 0 hr 2 min 11 sec) 

Heartbeat CPU 0 instructions: 110000001 cycles: 49388275 heartbeat IPC: 1.41658 cumulative IPC: 1.41658 (Simulation time: 0 hr 2 min 28 sec) 
Heartbeat CPU 0 instructions: 120000000 cycles: 58884907 heartbeat IPC: 1.053 cumulative IPC: 1.20803 (Simulation time: 0 hr 2 min 47 sec) 
Heartbeat CPU 0 instructions: 130000000 cycles: 63698429 heartbeat IPC: 2.07748 cumulative IPC: 1.40388 (Simulation time: 0 hr 3 min 3 sec) 
Heartbeat CPU 0 instructions: 140000000 cycles: 68618261 heartbeat IPC: 2.03259 cumulative IPC: 1.52154 (Simulation time: 0 hr 3 min 20 sec) 
Heartbeat CPU 0 instructions: 150000002 cycles: 75438707 heartbeat IPC: 1.46618 cumulative IPC: 1.51013 (Simulation time: 0 hr 3 min 37 sec) 
Heartbeat CPU 0 instructions: 160000000 cycles: 83270599 heartbeat IPC: 1.27683 cumulative IPC: 1.4655 (Simulation time: 0 hr 3 min 55 sec) 
Heartbeat CPU 0 instructions: 170000000 cycles: 90670146 heartbeat IPC: 1.35143 cumulative IPC: 1.44804 (Simulation time: 0 hr 4 min 12 sec) 
Heartbeat CPU 0 instructions: 180000000 cycles: 97975451 heartbeat IPC: 1.36887 cumulative IPC: 1.43765 (Simulation time: 0 hr 4 min 29 sec) 
Heartbeat CPU 0 instructions: 190000002 cycles: 105143632 heartbeat IPC: 1.39505 cumulative IPC: 1.43279 (Simulation time: 0 hr 4 min 45 sec) 
Heartbeat CPU 0 instructions: 200000000 cycles: 112371939 heartbeat IPC: 1.38345 cumulative IPC: 1.4277 (Simulation time: 0 hr 5 min 2 sec) 
Heartbeat CPU 0 instructions: 210000000 cycles: 119243721 heartbeat IPC: 1.45523 cumulative IPC: 1.43016 (Simulation time: 0 hr 5 min 19 sec) 
Heartbeat CPU 0 instructions: 220000000 cycles: 126010981 heartbeat IPC: 1.4777 cumulative IPC: 1.434 (Simulation time: 0 hr 5 min 35 sec) 
Heartbeat CPU 0 instructions: 230000003 cycles: 132736613 heartbeat IPC: 1.48685 cumulative IPC: 1.43793 (Simulation time: 0 hr 5 min 51 sec) 
Heartbeat CPU 0 instructions: 240000000 cycles: 139484469 heartbeat IPC: 1.48195 cumulative IPC: 1.44099 (Simulation time: 0 hr 6 min 7 sec) 
Heartbeat CPU 0 instructions: 250000001 cycles: 146207931 heartbeat IPC: 1.48733 cumulative IPC: 1.44399 (Simulation time: 0 hr 6 min 24 sec) 
Heartbeat CPU 0 instructions: 260000000 cycles: 152915496 heartbeat IPC: 1.49085 cumulative IPC: 1.44683 (Simulation time: 0 hr 6 min 40 sec) 
Heartbeat CPU 0 instructions: 270000001 cycles: 159893547 heartbeat IPC: 1.43307 cumulative IPC: 1.44601 (Simulation time: 0 hr 6 min 56 sec) 
Heartbeat CPU 0 instructions: 280000000 cycles: 167423523 heartbeat IPC: 1.32803 cumulative IPC: 1.43891 (Simulation time: 0 hr 7 min 13 sec) 
Heartbeat CPU 0 instructions: 290000000 cycles: 175344265 heartbeat IPC: 1.26251 cumulative IPC: 1.42841 (Simulation time: 0 hr 7 min 31 sec) 
Heartbeat CPU 0 instructions: 300000000 cycles: 183520331 heartbeat IPC: 1.22308 cumulative IPC: 1.41652 (Simulation time: 0 hr 7 min 48 sec) 
Heartbeat CPU 0 instructions: 310000002 cycles: 191828750 heartbeat IPC: 1.2036 cumulative IPC: 1.40468 (Simulation time: 0 hr 8 min 6 sec) 
Heartbeat CPU 0 instructions: 320000000 cycles: 201816344 heartbeat IPC: 1.00124 cumulative IPC: 1.37942 (Simulation time: 0 hr 8 min 26 sec) 
Heartbeat CPU 0 instructions: 330000002 cycles: 206452942 heartbeat IPC: 2.15675 cumulative IPC: 1.40138 (Simulation time: 0 hr 8 min 42 sec) 
Heartbeat CPU 0 instructions: 340000000 cycles: 211686296 heartbeat IPC: 1.91082 cumulative IPC: 1.41712 (Simulation time: 0 hr 8 min 59 sec) 
Heartbeat CPU 0 instructions: 350000000 cycles: 218888682 heartbeat IPC: 1.38843 cumulative IPC: 1.41595 (Simulation time: 0 hr 9 min 17 sec) 
Heartbeat CPU 0 instructions: 360000000 cycles: 226535897 heartbeat IPC: 1.30767 cumulative IPC: 1.41146 (Simulation time: 0 hr 9 min 34 sec) 
Heartbeat CPU 0 instructions: 370000000 cycles: 233939928 heartbeat IPC: 1.35062 cumulative IPC: 1.40911 (Simulation time: 0 hr 9 min 51 sec) 
Heartbeat CPU 0 instructions: 380000000 cycles: 241207094 heartbeat IPC: 1.37605 cumulative IPC: 1.4079 (Simulation time: 0 hr 10 min 8 sec) 
Heartbeat CPU 0 instructions: 390000000 cycles: 249322214 heartbeat IPC: 1.23227 cumulative IPC: 1.40101 (Simulation time: 0 hr 10 min 25 sec) 
Heartbeat CPU 0 instructions: 400000000 cycles: 257527953 heartbeat IPC: 1.21866 cumulative IPC: 1.39406 (Simulation time: 0 hr 10 min 43 sec) 
Heartbeat CPU 0 instructions: 410000001 cycles: 265346489 heartbeat IPC: 1.27901 cumulative IPC: 1.39003 (Simulation time: 0 hr 11 min 0 sec) 
Heartbeat CPU 0 instructions: 420000000 cycles: 273399812 heartbeat IPC: 1.24172 cumulative IPC: 1.38486 (Simulation time: 0 hr 11 min 18 sec) 
Heartbeat CPU 0 instructions: 430000001 cycles: 281661376 heartbeat IPC: 1.21042 cumulative IPC: 1.37884 (Simulation time: 0 hr 11 min 36 sec) 
Heartbeat CPU 0 instructions: 440000000 cycles: 289703922 heartbeat IPC: 1.24339 cumulative IPC: 1.37443 (Simulation time: 0 hr 11 min 53 sec) 
Heartbeat CPU 0 instructions: 450000001 cycles: 297573152 heartbeat IPC: 1.27077 cumulative IPC: 1.37124 (Simulation time: 0 hr 12 min 11 sec) 
Heartbeat CPU 0 instructions: 460000000 cycles: 307519136 heartbeat IPC: 1.00543 cumulative IPC: 1.35752 (Simulation time: 0 hr 12 min 31 sec) 
Heartbeat CPU 0 instructions: 470000002 cycles: 312146050 heartbeat IPC: 2.16127 cumulative IPC: 1.3713 (Simulation time: 0 hr 12 min 47 sec) 
Heartbeat CPU 0 instructions: 480000000 cycles: 317403843 heartbeat IPC: 1.90194 cumulative IPC: 1.38144 (Simulation time: 0 hr 13 min 3 sec) 
Heartbeat CPU 0 instructions: 490000001 cycles: 324718117 heartbeat IPC: 1.36719 cumulative IPC: 1.38107 (Simulation time: 0 hr 13 min 22 sec) 
Heartbeat CPU 0 instructions: 500000000 cycles: 333449014 heartbeat IPC: 1.14536 cumulative IPC: 1.374 (Simulation time: 0 hr 13 min 42 sec) 
Heartbeat CPU 0 instructions: 510000002 cycles: 342180644 heartbeat IPC: 1.14526 cumulative IPC: 1.36734 (Simulation time: 0 hr 14 min 1 sec) 
Heartbeat CPU 0 instructions: 520000000 cycles: 350908897 heartbeat IPC: 1.1457 cumulative IPC: 1.36107 (Simulation time: 0 hr 14 min 21 sec) 
Heartbeat CPU 0 instructions: 530000000 cycles: 359617211 heartbeat IPC: 1.14833 cumulative IPC: 1.35523 (Simulation time: 0 hr 14 min 41 sec) 
Heartbeat CPU 0 instructions: 540000000 cycles: 367871404 heartbeat IPC: 1.21151 cumulative IPC: 1.35159 (Simulation time: 0 hr 15 min 0 sec) 
Heartbeat CPU 0 instructions: 550000000 cycles: 374908846 heartbeat IPC: 1.42097 cumulative IPC: 1.35306 (Simulation time: 0 hr 15 min 17 sec) 
Heartbeat CPU 0 instructions: 560000000 cycles: 381521731 heartbeat IPC: 1.5122 cumulative IPC: 1.35616 (Simulation time: 0 hr 15 min 34 sec) 
Heartbeat CPU 0 instructions: 570000002 cycles: 388112876 heartbeat IPC: 1.51719 cumulative IPC: 1.35923 (Simulation time: 0 hr 15 min 51 sec) 
Heartbeat CPU 0 instructions: 580000000 cycles: 394760503 heartbeat IPC: 1.5043 cumulative IPC: 1.36197 (Simulation time: 0 hr 16 min 8 sec) 
Heartbeat CPU 0 instructions: 590000002 cycles: 401447068 heartbeat IPC: 1.49554 cumulative IPC: 1.36445 (Simulation time: 0 hr 16 min 25 sec) 
Heartbeat CPU 0 instructions: 600000000 cycles: 408256714 heartbeat IPC: 1.4685 cumulative IPC: 1.36639 (Simulation time: 0 hr 16 min 42 sec) 
Finished CPU 0 instructions: 500000000 cycles: 365927690 cumulative IPC: 1.36639 (Simulation time: 0 hr 16 min 42 sec) 

CPU 0 Branch Prediction Accuracy: 93.4682% MPKI: 2.44079
Number of Branches: 18683822 Number of Mispredictions: 1220394
Number of LOAD Instructions: 142551610
Number of LOAD Instructions (ROI): 142551610
Number of STORE Instructions: 44807454
Number of STORE Instructions (ROI): 44807454
Total Destination Memory Operands: 48357071
Total Destination Memory Operands (ROI): 48357071
Total Source Memory Operands: 142551610
Total Source Memory Operands (ROI): 142551610
Number of DEPENDED LOADS: 7395076
Number of DEPENDED LOADS (ROI): 7395076
Number of SQ_ADDED: 48357051
Number of SQ_ADDED (ROI): 48357051
Number of LQ_ADDED: 157227628
Number of LQ_ADDED (ROI): 157227628
Number of Instructions read from trace: 600000256

ChampSim completed all CPUs

Region of Interest Statistics

CPU 0 cumulative IPC: 1.36639 instructions: 500000000 cycles: 365927690
ITLB TOTAL     ACCESS:   88176600  HIT:   88176531  MISS:         69
ITLB LOAD      ACCESS:   88176600  HIT:   88176531  MISS:         69
ITLB RFO       ACCESS:          0  HIT:          0  MISS:          0
ITLB PREFETCH  ACCESS:          0  HIT:          0  MISS:          0
ITLB WRITEBACK ACCESS:          0  HIT:          0  MISS:          0
ITLB PREFETCH  REQUESTED:          0  ISSUED:          0  USEFUL:          0  USELESS:          0
ITLB TOTAL MSHR MERGED:         85
ITLB LOAD MSHR MERGED:         85
ITLB RFO MSHR MERGED:          0
ITLB PREFETCH MSHR MERGED:          0
ITLB WRITEBACK MSHR MERGED:          0
ITLB TOTAL ACCESSES:   88176685 HITS:   88176531 MISSES:        154
ITLB LOAD ACCESSES:   88176685 HITS:   88176531 MISSES:        154
ITLB RFO ACCESSES:          0 HITS:          0 MISSES:          0
ITLB PREFETCH ACCESSES:          0 HITS:          0 MISSES:          0
ITLB WRITEBACK ACCESSES:          0 HITS:          0 MISSES:          0
ITLB RQ ACCESS:  500000000
ITLB RQ TO_CACHE:   88176685
ITLB RQ MERGED:  411823315
ITLB RQ FORWARD:          0
ITLB WQ ACCESS:          0
ITLB WQ TO_CACHE:          0
ITLB WQ MERGED:          0
ITLB WQ FORWARD:          0
DTLB TOTAL     ACCESS:   88203411  HIT:   88075993  MISS:     127418
DTLB LOAD      ACCESS:   59485444  HIT:   59392974  MISS:      92470
DTLB RFO       ACCESS:   28717967  HIT:   28683019  MISS:      34948
DTLB PREFETCH  ACCESS:          0  HIT:          0  MISS:          0
DTLB WRITEBACK ACCESS:          0  HIT:          0  MISS:          0
DTLB PREFETCH  REQUESTED:          0  ISSUED:          0  USEFUL:          0  USELESS:          0
DTLB TOTAL MSHR MERGED:     141073
DTLB LOAD MSHR MERGED:     107646
DTLB RFO MSHR MERGED:      33427
DTLB PREFETCH MSHR MERGED:          0
DTLB WRITEBACK MSHR MERGED:          0
DTLB TOTAL ACCESSES:   88344484 HITS:   88075993 MISSES:     268491
DTLB LOAD ACCESSES:   59593090 HITS:   59392974 MISSES:     200116
DTLB RFO ACCESSES:   28751394 HITS:   28683019 MISSES:      68375
DTLB PREFETCH ACCESSES:          0 HITS:          0 MISSES:          0
DTLB WRITEBACK ACCESSES:          0 HITS:          0 MISSES:          0
DTLB RQ ACCESS:  154558823
DTLB RQ TO_CACHE:   88344484
DTLB RQ MERGED:   66214339
DTLB RQ FORWARD:          0
DTLB WQ ACCESS:          0
DTLB WQ TO_CACHE:          0
DTLB WQ MERGED:          0
DTLB WQ FORWARD:          0
L1D TOTAL     ACCESS:  128082337  HIT:  124856849  MISS:    3225488
L1D LOAD      ACCESS:   53172486  HIT:   51977261  MISS:    1195225
L1D RFO       ACCESS:   37367839  HIT:   36753671  MISS:     614168
L1D PREFETCH  ACCESS:   37542012  HIT:   36125917  MISS:    1416095
L1D WRITEBACK ACCESS:          0  HIT:          0  MISS:          0
L1D PREFETCH  REQUESTED:   53657461  ISSUED:   52457351  USEFUL:     352136  USELESS:    1063924
L1D TOTAL MSHR MERGED:    2820554
L1D LOAD MSHR MERGED:     523636
L1D RFO MSHR MERGED:    1586671
L1D PREFETCH MSHR MERGED:     710247
L1D WRITEBACK MSHR MERGED:          0
L1D TOTAL ACCESSES:  130937810 HITS:  124891768 MISSES:    6046042
L1D LOAD ACCESSES:   53660375 HITS:   51980175 MISSES:    1680200
L1D RFO ACCESSES:   38952835 HITS:   36753671 MISSES:    2199164
L1D PREFETCH ACCESSES:   38324600 HITS:   36157922 MISSES:    2166678
L1D WRITEBACK ACCESSES:          0 HITS:          0 MISSES:          0
L1D RQ ACCESS:  113713931
L1D RQ TO_CACHE:   53657461
L1D RQ MERGED:   60053556
L1D RQ FORWARD:          0
L1D WQ ACCESS:   40844891
L1D WQ TO_CACHE:   38952835
L1D WQ MERGED:    1892056
L1D WQ FORWARD:      34919
L1I TOTAL     ACCESS:  108368139  HIT:  107809005  MISS:     559134
L1I LOAD      ACCESS:  108368139  HIT:  107809005  MISS:     559134
L1I RFO       ACCESS:          0  HIT:          0  MISS:          0
L1I PREFETCH  ACCESS:          0  HIT:          0  MISS:          0
L1I WRITEBACK ACCESS:          0  HIT:          0  MISS:          0
L1I PREFETCH  REQUESTED:          0  ISSUED:          0  USEFUL:          0  USELESS:          0
L1I TOTAL MSHR MERGED:     525784
L1I LOAD MSHR MERGED:     525784
L1I RFO MSHR MERGED:          0
L1I PREFETCH MSHR MERGED:          0
L1I WRITEBACK MSHR MERGED:          0
L1I TOTAL ACCESSES:  108893923 HITS:  107809005 MISSES:    1084918
L1I LOAD ACCESSES:  108893923 HITS:  107809005 MISSES:    1084918
L1I RFO ACCESSES:          0 HITS:          0 MISSES:          0
L1I PREFETCH ACCESSES:          0 HITS:          0 MISSES:          0
L1I WRITEBACK ACCESSES:          0 HITS:          0 MISSES:          0
L1I RQ ACCESS:  500000002
L1I RQ TO_CACHE:  108893923
L1I RQ MERGED:  391106079
L1I RQ FORWARD:          0
L1I WQ ACCESS:          0
L1I WQ TO_CACHE:          0
L1I WQ MERGED:          0
L1I WQ FORWARD:          0
L2C TOTAL     ACCESS:    4691660  HIT:    3865617  MISS:     826043
L2C LOAD      ACCESS:    1715591  HIT:    1562525  MISS:     153066
L2C RFO       ACCESS:     611068  HIT:     421174  MISS:     189894
L2C PREFETCH  ACCESS:    1662098  HIT:    1181201  MISS:     480897
L2C WRITEBACK ACCESS:     702903  HIT:     700717  MISS:       2186
L2C PREFETCH  REQUESTED:     256328  ISSUED:     256328  USEFUL:     172947  USELESS:     308616
L2C TOTAL MSHR MERGED:      13567
L2C LOAD MSHR MERGED:       4176
L2C RFO MSHR MERGED:          0
L2C PREFETCH MSHR MERGED:       9391
L2C WRITEBACK MSHR MERGED:          0
L2C TOTAL ACCESSES:    4711989 HITS:    3867219 MISSES:     844770
L2C LOAD ACCESSES:    1715698 HITS:    1562632 MISSES:     153066
L2C RFO ACCESSES:     612493 HITS:     422599 MISSES:     189894
L2C PREFETCH ACCESSES:    1680895 HITS:    1181271 MISSES:     499624
L2C WRITEBACK ACCESSES:     702903 HITS:     700717 MISSES:       2186
L2C RQ ACCESS:    2328191
L2C RQ TO_CACHE:    2326659
L2C RQ MERGED:          0
L2C RQ FORWARD:          0
L2C WQ ACCESS:     702903
L2C WQ TO_CACHE:     702903
L2C WQ MERGED:          0
L2C WQ FORWARD:       1602
LLC TOTAL     ACCESS:    1047374  HIT:     287955  MISS:     759419
LLC LOAD      ACCESS:     148887  HIT:      89503  MISS:      59384
LLC RFO       ACCESS:     189886  HIT:       6917  MISS:     182969
LLC PREFETCH  ACCESS:     487724  HIT:     152250  MISS:     335474
LLC WRITEBACK ACCESS:     220877  HIT:      39285  MISS:     181592
LLC PREFETCH  REQUESTED:          0  ISSUED:          0  USEFUL:       2237  USELESS:     333896
LLC TOTAL MSHR MERGED:       1783
LLC LOAD MSHR MERGED:        648
LLC RFO MSHR MERGED:          0
LLC PREFETCH MSHR MERGED:       1135
LLC WRITEBACK MSHR MERGED:          0
LLC TOTAL ACCESSES:    1049168 HITS:     287966 MISSES:     761202
LLC LOAD ACCESSES:     148890 HITS:      89506 MISSES:      59384
LLC RFO ACCESSES:     189894 HITS:       6925 MISSES:     182969
LLC PREFETCH ACCESSES:     489507 HITS:     152250 MISSES:     337257
LLC WRITEBACK ACCESSES:     220877 HITS:      39285 MISSES:     181592
LLC 0 RQ ACCESS:     338784
LLC 0 RQ TO_CACHE:     338773
LLC 0 RQ MERGED:          0
LLC 0 RQ FORWARD:          0
LLC WQ ACCESS:     220877
LLC WQ TO_CACHE:     220877
LLC WQ MERGED:          0
LLC WQ FORWARD:         11
Major fault: 0 Minor fault: 6811
CPU 0 L1D next line prefetcher final stats
CPU 0 L2C PC-based stride prefetcher final stats
All Misses: 899096
All Hits: 355261
SD Algo Stats - Switches: 0 SRR-Repls: 67069 BRR-Repls: 0

DRAM Statistics
 CHANNEL 0
 RQ ROW_BUFFER_HIT:     290194  ROW_BUFFER_MISS:     287558
 DBUS_CONGESTED:     400278
 WQ ROW_BUFFER_HIT:      24742  ROW_BUFFER_MISS:     191504  FULL:          0

 AVG_CONGESTED_CYCLE: 13
LOADS RETIRED: 119922929
INSTR RETIRED: 500000000
