
*** ChampSim Multicore Out-of-Order Simulator ***

Warmup Instructions: 100000000
Simulation Instructions: 500000000
Number of CPUs: 1
LLC sets: 2048
LLC ways: 16
Clean RRIP Policies: 2203030022030300 Dirty RRIP Policies: 1203030012030300 PSEL Width: 10 Track Set: 4294967295 PSEL Mask: 1 Demote Mask: 2102021421020214DS Algo: 0Window size: 0
Off-chip DRAM Size: 4096 MB Channels: 1 Width: 64-bit Data Rate: 1600 MT/s

CPU 0 runs /mnt/beegfs/iconst01/spec2017/Omnetpp.trace.gz
NOT SORTED
TRACE STRING: /mnt/beegfs/iconst01/spec2017/Omnetpp.trace.gz
SORTED
TRACE STRING: /mnt/beegfs/iconst01/spec2017/Omnetpp.trace.gz
INITIAL
TRACE STRING: /mnt/beegfs/iconst01/spec2017/Omnetpp.trace.gz

champsim_seed used: 739

CPU 0 L1D next line prefetcher
CPU 0 L2C IP-based stride prefetcher
Initialize DRRIP state
Assign rand_sets[0]: 454  LLC: 2048
rand_sets[0]: 454
Assign rand_sets[1]: 1662  LLC: 2048
rand_sets[1]: 1662
Assign rand_sets[2]: 1921  LLC: 2048
rand_sets[2]: 1921
Assign rand_sets[3]: 1131  LLC: 2048
rand_sets[3]: 1131
Assign rand_sets[4]: 331  LLC: 2048
rand_sets[4]: 331
Assign rand_sets[5]: 1531  LLC: 2048
rand_sets[5]: 1531
Assign rand_sets[6]: 482  LLC: 2048
rand_sets[6]: 482
Assign rand_sets[7]: 1275  LLC: 2048
rand_sets[7]: 1275
Assign rand_sets[8]: 1876  LLC: 2048
rand_sets[8]: 1876
Assign rand_sets[9]: 2038  LLC: 2048
rand_sets[9]: 2038
Assign rand_sets[10]: 701  LLC: 2048
rand_sets[10]: 701
Assign rand_sets[11]: 479  LLC: 2048
rand_sets[11]: 479
Assign rand_sets[12]: 892  LLC: 2048
rand_sets[12]: 892
Assign rand_sets[13]: 1820  LLC: 2048
rand_sets[13]: 1820
Assign rand_sets[14]: 1505  LLC: 2048
rand_sets[14]: 1505
Assign rand_sets[15]: 1159  LLC: 2048
rand_sets[15]: 1159
Assign rand_sets[16]: 513  LLC: 2048
rand_sets[16]: 513
Assign rand_sets[17]: 703  LLC: 2048
rand_sets[17]: 703
Assign rand_sets[18]: 561  LLC: 2048
rand_sets[18]: 561
Assign rand_sets[19]: 990  LLC: 2048
rand_sets[19]: 990
Assign rand_sets[20]: 342  LLC: 2048
rand_sets[20]: 342
Assign rand_sets[21]: 882  LLC: 2048
rand_sets[21]: 882
Assign rand_sets[22]: 15  LLC: 2048
rand_sets[22]: 15
Assign rand_sets[23]: 71  LLC: 2048
rand_sets[23]: 71
Assign rand_sets[24]: 1127  LLC: 2048
rand_sets[24]: 1127
Assign rand_sets[25]: 1382  LLC: 2048
rand_sets[25]: 1382
Assign rand_sets[26]: 647  LLC: 2048
rand_sets[26]: 647
Assign rand_sets[27]: 857  LLC: 2048
rand_sets[27]: 857
Assign rand_sets[28]: 1450  LLC: 2048
rand_sets[28]: 1450
Assign rand_sets[29]: 1160  LLC: 2048
rand_sets[29]: 1160
Assign rand_sets[30]: 1852  LLC: 2048
rand_sets[30]: 1852
Assign rand_sets[31]: 1881  LLC: 2048
rand_sets[31]: 1881
Assign rand_sets[32]: 1770  LLC: 2048
rand_sets[32]: 1770
Assign rand_sets[33]: 1622  LLC: 2048
rand_sets[33]: 1622
Assign rand_sets[34]: 275  LLC: 2048
rand_sets[34]: 275
Assign rand_sets[35]: 635  LLC: 2048
rand_sets[35]: 635
Assign rand_sets[36]: 466  LLC: 2048
rand_sets[36]: 466
Assign rand_sets[37]: 1413  LLC: 2048
rand_sets[37]: 1413
Assign rand_sets[38]: 417  LLC: 2048
rand_sets[38]: 417
Assign rand_sets[39]: 472  LLC: 2048
rand_sets[39]: 472
Assign rand_sets[40]: 1340  LLC: 2048
rand_sets[40]: 1340
Assign rand_sets[41]: 852  LLC: 2048
rand_sets[41]: 852
Assign rand_sets[42]: 1365  LLC: 2048
rand_sets[42]: 1365
Assign rand_sets[43]: 47  LLC: 2048
rand_sets[43]: 47
Assign rand_sets[44]: 823  LLC: 2048
rand_sets[44]: 823
Assign rand_sets[45]: 686  LLC: 2048
rand_sets[45]: 686
Assign rand_sets[46]: 1637  LLC: 2048
rand_sets[46]: 1637
Assign rand_sets[47]: 1115  LLC: 2048
rand_sets[47]: 1115
Assign rand_sets[48]: 986  LLC: 2048
rand_sets[48]: 986
Assign rand_sets[49]: 258  LLC: 2048
rand_sets[49]: 258
Assign rand_sets[50]: 633  LLC: 2048
rand_sets[50]: 633
Assign rand_sets[51]: 920  LLC: 2048
rand_sets[51]: 920
Assign rand_sets[52]: 204  LLC: 2048
rand_sets[52]: 204
Assign rand_sets[53]: 227  LLC: 2048
rand_sets[53]: 227
Assign rand_sets[54]: 1818  LLC: 2048
rand_sets[54]: 1818
Assign rand_sets[55]: 886  LLC: 2048
rand_sets[55]: 886
Assign rand_sets[56]: 1422  LLC: 2048
rand_sets[56]: 1422
Assign rand_sets[57]: 607  LLC: 2048
rand_sets[57]: 607
Assign rand_sets[58]: 217  LLC: 2048
rand_sets[58]: 217
Assign rand_sets[59]: 1945  LLC: 2048
rand_sets[59]: 1945
Assign rand_sets[60]: 143  LLC: 2048
rand_sets[60]: 143
Assign rand_sets[61]: 1311  LLC: 2048
rand_sets[61]: 1311
Assign rand_sets[62]: 319  LLC: 2048
rand_sets[62]: 319
Assign rand_sets[63]: 1846  LLC: 2048
rand_sets[63]: 1846
 CLEAN-RRIP-POLICY-1: 2-2-0-3-0-3-0-0- CLEAN-RRIP-POLICY-2: 2-2-0-3-0-3-0-0-
 DIRTY-RRIP-POLICY-1: 1-2-0-3-0-3-0-0- DIRTY-RRIP-POLICY-2: 1-2-0-3-0-3-0-0-
 PSEL width: 10
Heartbeat CPU 0 instructions: 10000000 cycles: 7320271 heartbeat IPC: 1.36607 cumulative IPC: 1.36607 (Simulation time: 0 hr 0 min 19 sec) 
Heartbeat CPU 0 instructions: 20000000 cycles: 14624627 heartbeat IPC: 1.36905 cumulative IPC: 1.36756 (Simulation time: 0 hr 0 min 39 sec) 
Heartbeat CPU 0 instructions: 30000003 cycles: 21926612 heartbeat IPC: 1.36949 cumulative IPC: 1.3682 (Simulation time: 0 hr 0 min 58 sec) 
Heartbeat CPU 0 instructions: 40000000 cycles: 29215312 heartbeat IPC: 1.37199 cumulative IPC: 1.36915 (Simulation time: 0 hr 1 min 17 sec) 
Heartbeat CPU 0 instructions: 50000000 cycles: 36492257 heartbeat IPC: 1.3742 cumulative IPC: 1.37015 (Simulation time: 0 hr 1 min 36 sec) 
Heartbeat CPU 0 instructions: 60000000 cycles: 43772583 heartbeat IPC: 1.37356 cumulative IPC: 1.37072 (Simulation time: 0 hr 1 min 56 sec) 
Heartbeat CPU 0 instructions: 70000001 cycles: 51058469 heartbeat IPC: 1.37252 cumulative IPC: 1.37098 (Simulation time: 0 hr 2 min 15 sec) 
Heartbeat CPU 0 instructions: 80000000 cycles: 58333969 heartbeat IPC: 1.37448 cumulative IPC: 1.37141 (Simulation time: 0 hr 2 min 34 sec) 
Heartbeat CPU 0 instructions: 90000000 cycles: 65640780 heartbeat IPC: 1.36859 cumulative IPC: 1.3711 (Simulation time: 0 hr 2 min 54 sec) 
Heartbeat CPU 0 instructions: 100000000 cycles: 72933347 heartbeat IPC: 1.37126 cumulative IPC: 1.37111 (Simulation time: 0 hr 3 min 13 sec) 

Warmup complete CPU 0 instructions: 100000002 cycles: 72933348 (Simulation time: 0 hr 3 min 13 sec) 

Heartbeat CPU 0 instructions: 110000002 cycles: 113998704 heartbeat IPC: 0.243514 cumulative IPC: 0.243514 (Simulation time: 0 hr 3 min 52 sec) 
Heartbeat CPU 0 instructions: 120000000 cycles: 154786778 heartbeat IPC: 0.24517 cumulative IPC: 0.244339 (Simulation time: 0 hr 4 min 30 sec) 
Heartbeat CPU 0 instructions: 130000002 cycles: 195758080 heartbeat IPC: 0.244073 cumulative IPC: 0.24425 (Simulation time: 0 hr 5 min 8 sec) 
Heartbeat CPU 0 instructions: 140000000 cycles: 236863968 heartbeat IPC: 0.243274 cumulative IPC: 0.244006 (Simulation time: 0 hr 5 min 47 sec) 
Heartbeat CPU 0 instructions: 150000002 cycles: 277557284 heartbeat IPC: 0.245741 cumulative IPC: 0.244351 (Simulation time: 0 hr 6 min 26 sec) 
Heartbeat CPU 0 instructions: 160000000 cycles: 318244544 heartbeat IPC: 0.245777 cumulative IPC: 0.244587 (Simulation time: 0 hr 7 min 5 sec) 
Heartbeat CPU 0 instructions: 170000001 cycles: 358134932 heartbeat IPC: 0.250687 cumulative IPC: 0.24544 (Simulation time: 0 hr 7 min 43 sec) 
Heartbeat CPU 0 instructions: 180000000 cycles: 398763597 heartbeat IPC: 0.246132 cumulative IPC: 0.245527 (Simulation time: 0 hr 8 min 21 sec) 
Heartbeat CPU 0 instructions: 190000002 cycles: 439375812 heartbeat IPC: 0.246231 cumulative IPC: 0.245605 (Simulation time: 0 hr 8 min 59 sec) 
Heartbeat CPU 0 instructions: 200000000 cycles: 481419038 heartbeat IPC: 0.23785 cumulative IPC: 0.244807 (Simulation time: 0 hr 9 min 38 sec) 
Heartbeat CPU 0 instructions: 210000003 cycles: 522120578 heartbeat IPC: 0.245691 cumulative IPC: 0.244887 (Simulation time: 0 hr 10 min 16 sec) 
Heartbeat CPU 0 instructions: 220000000 cycles: 563096354 heartbeat IPC: 0.244047 cumulative IPC: 0.244817 (Simulation time: 0 hr 10 min 55 sec) 
Heartbeat CPU 0 instructions: 230000000 cycles: 603985002 heartbeat IPC: 0.244567 cumulative IPC: 0.244797 (Simulation time: 0 hr 11 min 34 sec) 
Heartbeat CPU 0 instructions: 240000000 cycles: 644584856 heartbeat IPC: 0.246306 cumulative IPC: 0.244904 (Simulation time: 0 hr 12 min 12 sec) 
Heartbeat CPU 0 instructions: 250000000 cycles: 685254708 heartbeat IPC: 0.245882 cumulative IPC: 0.244969 (Simulation time: 0 hr 12 min 49 sec) 
Heartbeat CPU 0 instructions: 260000000 cycles: 726041375 heartbeat IPC: 0.245178 cumulative IPC: 0.244982 (Simulation time: 0 hr 13 min 27 sec) 
Heartbeat CPU 0 instructions: 270000000 cycles: 766921815 heartbeat IPC: 0.244616 cumulative IPC: 0.244961 (Simulation time: 0 hr 14 min 6 sec) 
Heartbeat CPU 0 instructions: 280000000 cycles: 808150443 heartbeat IPC: 0.24255 cumulative IPC: 0.244826 (Simulation time: 0 hr 14 min 44 sec) 
Heartbeat CPU 0 instructions: 290000001 cycles: 848541656 heartbeat IPC: 0.247579 cumulative IPC: 0.244969 (Simulation time: 0 hr 15 min 22 sec) 
Heartbeat CPU 0 instructions: 300000000 cycles: 889629700 heartbeat IPC: 0.24338 cumulative IPC: 0.244889 (Simulation time: 0 hr 15 min 59 sec) 
Heartbeat CPU 0 instructions: 310000000 cycles: 930719493 heartbeat IPC: 0.243369 cumulative IPC: 0.244816 (Simulation time: 0 hr 16 min 37 sec) 
Heartbeat CPU 0 instructions: 320000000 cycles: 971487436 heartbeat IPC: 0.245291 cumulative IPC: 0.244838 (Simulation time: 0 hr 17 min 15 sec) 
Heartbeat CPU 0 instructions: 330000000 cycles: 1012274817 heartbeat IPC: 0.245174 cumulative IPC: 0.244852 (Simulation time: 0 hr 17 min 53 sec) 
Heartbeat CPU 0 instructions: 340000000 cycles: 1053704873 heartbeat IPC: 0.241371 cumulative IPC: 0.244705 (Simulation time: 0 hr 18 min 31 sec) 
Heartbeat CPU 0 instructions: 350000001 cycles: 1094560803 heartbeat IPC: 0.244763 cumulative IPC: 0.244708 (Simulation time: 0 hr 19 min 9 sec) 
Heartbeat CPU 0 instructions: 360000000 cycles: 1135621342 heartbeat IPC: 0.243543 cumulative IPC: 0.244663 (Simulation time: 0 hr 19 min 46 sec) 
Heartbeat CPU 0 instructions: 370000000 cycles: 1175745127 heartbeat IPC: 0.249229 cumulative IPC: 0.244829 (Simulation time: 0 hr 20 min 24 sec) 
Heartbeat CPU 0 instructions: 380000000 cycles: 1216870385 heartbeat IPC: 0.24316 cumulative IPC: 0.244769 (Simulation time: 0 hr 21 min 1 sec) 
Heartbeat CPU 0 instructions: 390000001 cycles: 1257472439 heartbeat IPC: 0.246293 cumulative IPC: 0.244821 (Simulation time: 0 hr 21 min 39 sec) 
Heartbeat CPU 0 instructions: 400000000 cycles: 1298200749 heartbeat IPC: 0.245529 cumulative IPC: 0.244845 (Simulation time: 0 hr 22 min 16 sec) 
Heartbeat CPU 0 instructions: 410000000 cycles: 1338702723 heartbeat IPC: 0.246902 cumulative IPC: 0.24491 (Simulation time: 0 hr 22 min 54 sec) 
Heartbeat CPU 0 instructions: 420000000 cycles: 1379271744 heartbeat IPC: 0.246494 cumulative IPC: 0.24496 (Simulation time: 0 hr 23 min 31 sec) 
Heartbeat CPU 0 instructions: 430000000 cycles: 1419939551 heartbeat IPC: 0.245895 cumulative IPC: 0.244988 (Simulation time: 0 hr 24 min 9 sec) 
Heartbeat CPU 0 instructions: 440000000 cycles: 1460637040 heartbeat IPC: 0.245715 cumulative IPC: 0.245009 (Simulation time: 0 hr 24 min 46 sec) 
Heartbeat CPU 0 instructions: 450000002 cycles: 1501224991 heartbeat IPC: 0.246379 cumulative IPC: 0.245048 (Simulation time: 0 hr 25 min 23 sec) 
Heartbeat CPU 0 instructions: 460000000 cycles: 1541216231 heartbeat IPC: 0.250055 cumulative IPC: 0.245184 (Simulation time: 0 hr 26 min 1 sec) 
Heartbeat CPU 0 instructions: 470000000 cycles: 1582113344 heartbeat IPC: 0.244516 cumulative IPC: 0.245166 (Simulation time: 0 hr 26 min 38 sec) 
Heartbeat CPU 0 instructions: 480000000 cycles: 1622641164 heartbeat IPC: 0.246744 cumulative IPC: 0.245208 (Simulation time: 0 hr 27 min 16 sec) 
Heartbeat CPU 0 instructions: 490000001 cycles: 1663289031 heartbeat IPC: 0.246015 cumulative IPC: 0.245228 (Simulation time: 0 hr 27 min 54 sec) 
Heartbeat CPU 0 instructions: 500000000 cycles: 1704178124 heartbeat IPC: 0.244564 cumulative IPC: 0.245212 (Simulation time: 0 hr 28 min 31 sec) 
Heartbeat CPU 0 instructions: 510000000 cycles: 1744490626 heartbeat IPC: 0.248062 cumulative IPC: 0.24528 (Simulation time: 0 hr 29 min 7 sec) 
Heartbeat CPU 0 instructions: 520000000 cycles: 1785613644 heartbeat IPC: 0.243173 cumulative IPC: 0.24523 (Simulation time: 0 hr 29 min 44 sec) 
Heartbeat CPU 0 instructions: 530000000 cycles: 1826173347 heartbeat IPC: 0.24655 cumulative IPC: 0.24526 (Simulation time: 0 hr 30 min 20 sec) 
Heartbeat CPU 0 instructions: 540000000 cycles: 1866499228 heartbeat IPC: 0.24798 cumulative IPC: 0.245321 (Simulation time: 0 hr 30 min 56 sec) 
Heartbeat CPU 0 instructions: 550000001 cycles: 1907576512 heartbeat IPC: 0.243444 cumulative IPC: 0.245279 (Simulation time: 0 hr 31 min 32 sec) 
Heartbeat CPU 0 instructions: 560000000 cycles: 1948750666 heartbeat IPC: 0.242871 cumulative IPC: 0.245226 (Simulation time: 0 hr 32 min 8 sec) 
Heartbeat CPU 0 instructions: 570000003 cycles: 1989809145 heartbeat IPC: 0.243555 cumulative IPC: 0.245191 (Simulation time: 0 hr 32 min 43 sec) 
Heartbeat CPU 0 instructions: 580000000 cycles: 2030754769 heartbeat IPC: 0.244226 cumulative IPC: 0.24517 (Simulation time: 0 hr 33 min 19 sec) 
Heartbeat CPU 0 instructions: 590000001 cycles: 2072181907 heartbeat IPC: 0.241388 cumulative IPC: 0.245092 (Simulation time: 0 hr 33 min 55 sec) 
Heartbeat CPU 0 instructions: 600000000 cycles: 2113339069 heartbeat IPC: 0.242971 cumulative IPC: 0.245049 (Simulation time: 0 hr 34 min 32 sec) 
Finished CPU 0 instructions: 500000000 cycles: 2040405729 cumulative IPC: 0.245049 (Simulation time: 0 hr 34 min 32 sec) 

CPU 0 Branch Prediction Accuracy: 96.2429% MPKI: 5.85335
Number of Branches: 77897976 Number of Mispredictions: 2926674
Number of LOAD Instructions: 193081861
Number of LOAD Instructions (ROI): 193081861
Number of STORE Instructions: 97310749
Number of STORE Instructions (ROI): 97310749
Total Destination Memory Operands: 106368027
Total Destination Memory Operands (ROI): 106368027
Total Source Memory Operands: 193081861
Total Source Memory Operands (ROI): 193081861
Number of DEPENDED LOADS: 6465455
Number of DEPENDED LOADS (ROI): 6465455
Number of SQ_ADDED: 106367982
Number of SQ_ADDED (ROI): 106367982
Number of LQ_ADDED: 432625814
Number of LQ_ADDED (ROI): 432625814
Number of Instructions read from trace: 600000256

ChampSim completed all CPUs

Region of Interest Statistics

CPU 0 cumulative IPC: 0.245049 instructions: 500000000 cycles: 2040405729
ITLB TOTAL     ACCESS:  151077558  HIT:  151061727  MISS:      15831
ITLB LOAD      ACCESS:  151077558  HIT:  151061727  MISS:      15831
ITLB RFO       ACCESS:          0  HIT:          0  MISS:          0
ITLB PREFETCH  ACCESS:          0  HIT:          0  MISS:          0
ITLB WRITEBACK ACCESS:          0  HIT:          0  MISS:          0
ITLB PREFETCH  REQUESTED:          0  ISSUED:          0  USEFUL:          0  USELESS:          0
ITLB TOTAL MSHR MERGED:      17520
ITLB LOAD MSHR MERGED:      17520
ITLB RFO MSHR MERGED:          0
ITLB PREFETCH MSHR MERGED:          0
ITLB WRITEBACK MSHR MERGED:          0
ITLB TOTAL ACCESSES:  151095078 HITS:  151061727 MISSES:      33351
ITLB LOAD ACCESSES:  151095078 HITS:  151061727 MISSES:      33351
ITLB RFO ACCESSES:          0 HITS:          0 MISSES:          0
ITLB PREFETCH ACCESSES:          0 HITS:          0 MISSES:          0
ITLB WRITEBACK ACCESSES:          0 HITS:          0 MISSES:          0
ITLB RQ ACCESS:  500000242
ITLB RQ TO_CACHE:  151095078
ITLB RQ MERGED:  348905164
ITLB RQ FORWARD:          0
ITLB WQ ACCESS:          0
ITLB WQ TO_CACHE:          0
ITLB WQ MERGED:          0
ITLB WQ FORWARD:          0
DTLB TOTAL     ACCESS:  199544373  HIT:  194165379  MISS:    5378994
DTLB LOAD      ACCESS:  123123493  HIT:  118104988  MISS:    5018505
DTLB RFO       ACCESS:   76420880  HIT:   76060391  MISS:     360489
DTLB PREFETCH  ACCESS:          0  HIT:          0  MISS:          0
DTLB WRITEBACK ACCESS:          0  HIT:          0  MISS:          0
DTLB PREFETCH  REQUESTED:          0  ISSUED:          0  USEFUL:          0  USELESS:          0
DTLB TOTAL MSHR MERGED:     916728
DTLB LOAD MSHR MERGED:     807353
DTLB RFO MSHR MERGED:     109375
DTLB PREFETCH MSHR MERGED:          0
DTLB WRITEBACK MSHR MERGED:          0
DTLB TOTAL ACCESSES:  200461101 HITS:  194165379 MISSES:    6295722
DTLB LOAD ACCESSES:  123930846 HITS:  118104988 MISSES:    5825858
DTLB RFO ACCESSES:   76530255 HITS:   76060391 MISSES:     469864
DTLB PREFETCH ACCESSES:          0 HITS:          0 MISSES:          0
DTLB WRITEBACK ACCESSES:          0 HITS:          0 MISSES:          0
DTLB RQ ACCESS:  243860868
DTLB RQ TO_CACHE:  200461101
DTLB RQ MERGED:   43399767
DTLB RQ FORWARD:          0
DTLB WQ ACCESS:          0
DTLB WQ TO_CACHE:          0
DTLB WQ MERGED:          0
DTLB WQ FORWARD:          0
L1D TOTAL     ACCESS:  335478294  HIT:  317382544  MISS:   18095750
L1D LOAD      ACCESS:  127663777  HIT:  118714261  MISS:    8949516
L1D RFO       ACCESS:   87018250  HIT:   86225098  MISS:     793152
L1D PREFETCH  ACCESS:  120796267  HIT:  112443185  MISS:    8353082
L1D WRITEBACK ACCESS:          0  HIT:          0  MISS:          0
L1D PREFETCH  REQUESTED:  128464417  ISSUED:  126866353  USEFUL:    1734502  USELESS:    6618591
L1D TOTAL MSHR MERGED:    3936267
L1D LOAD MSHR MERGED:     970209
L1D RFO MSHR MERGED:    1125731
L1D PREFETCH MSHR MERGED:    1840327
L1D WRITEBACK MSHR MERGED:          0
L1D TOTAL ACCESSES:  339504896 HITS:  317472879 MISSES:   22032017
L1D LOAD ACCESSES:  128464923 HITS:  118714767 MISSES:    9750156
L1D RFO ACCESSES:   88070429 HITS:   86225098 MISSES:    1845331
L1D PREFETCH ACCESSES:  122969544 HITS:  112533014 MISSES:   10436530
L1D WRITEBACK ACCESSES:          0 HITS:          0 MISSES:          0
L1D RQ ACCESS:  155229483
L1D RQ TO_CACHE:  128464417
L1D RQ MERGED:   26764560
L1D RQ FORWARD:          0
L1D WQ ACCESS:   88631385
L1D WQ TO_CACHE:   88070428
L1D WQ MERGED:     560957
L1D WQ FORWARD:      90335
L1I TOTAL     ACCESS:  175380764  HIT:  175114335  MISS:     266429
L1I LOAD      ACCESS:  175380764  HIT:  175114335  MISS:     266429
L1I RFO       ACCESS:          0  HIT:          0  MISS:          0
L1I PREFETCH  ACCESS:          0  HIT:          0  MISS:          0
L1I WRITEBACK ACCESS:          0  HIT:          0  MISS:          0
L1I PREFETCH  REQUESTED:          0  ISSUED:          0  USEFUL:          0  USELESS:          0
L1I TOTAL MSHR MERGED:     214609
L1I LOAD MSHR MERGED:     214609
L1I RFO MSHR MERGED:          0
L1I PREFETCH MSHR MERGED:          0
L1I WRITEBACK MSHR MERGED:          0
L1I TOTAL ACCESSES:  175595373 HITS:  175114335 MISSES:     481038
L1I LOAD ACCESSES:  175595373 HITS:  175114335 MISSES:     481038
L1I RFO ACCESSES:          0 HITS:          0 MISSES:          0
L1I PREFETCH ACCESSES:          0 HITS:          0 MISSES:          0
L1I WRITEBACK ACCESSES:          0 HITS:          0 MISSES:          0
L1I RQ ACCESS:  500000242
L1I RQ TO_CACHE:  175595373
L1I RQ MERGED:  324404869
L1I RQ FORWARD:          0
L1I WQ ACCESS:          0
L1I WQ TO_CACHE:          0
L1I WQ MERGED:          0
L1I WQ FORWARD:          0
L2C TOTAL     ACCESS:   23738195  HIT:   12112373  MISS:   11625822
L2C LOAD      ACCESS:    9045200  HIT:    3565209  MISS:    5479991
L2C RFO       ACCESS:     719543  HIT:     129773  MISS:     589770
L2C PREFETCH  ACCESS:    8613214  HIT:    3085847  MISS:    5527367
L2C WRITEBACK ACCESS:    5360238  HIT:    5331544  MISS:      28694
L2C PREFETCH  REQUESTED:      18042  ISSUED:      18042  USEFUL:     322914  USELESS:    5204627
L2C TOTAL MSHR MERGED:         26
L2C LOAD MSHR MERGED:          3
L2C RFO MSHR MERGED:          0
L2C PREFETCH MSHR MERGED:         23
L2C WRITEBACK MSHR MERGED:          0
L2C TOTAL ACCESSES:   23740001 HITS:   12114149 MISSES:   11625852
L2C LOAD ACCESSES:    9046376 HITS:    3566385 MISSES:    5479991
L2C RFO ACCESSES:     719600 HITS:     129830 MISSES:     589770
L2C PREFETCH ACCESSES:    8613787 HITS:    3086390 MISSES:    5527397
L2C WRITEBACK ACCESSES:    5360238 HITS:    5331544 MISSES:      28694
L2C RQ ACCESS:    9765976
L2C RQ TO_CACHE:    9764743
L2C RQ MERGED:          0
L2C RQ FORWARD:          0
L2C WQ ACCESS:    5360238
L2C WQ TO_CACHE:    5360238
L2C WQ MERGED:          0
L2C WQ FORWARD:       1776
LLC TOTAL     ACCESS:   15448748  HIT:    5814252  MISS:    9634496
LLC LOAD      ACCESS:    5479960  HIT:    1774732  MISS:    3705228
LLC RFO       ACCESS:     589768  HIT:     229503  MISS:     360265
LLC PREFETCH  ACCESS:    5527357  HIT:     866479  MISS:    4660878
LLC WRITEBACK ACCESS:    3851663  HIT:    2943538  MISS:     908125
LLC PREFETCH  REQUESTED:          0  ISSUED:          0  USEFUL:      14991  USELESS:    4646335
LLC TOTAL MSHR MERGED:          0
LLC LOAD MSHR MERGED:          0
LLC RFO MSHR MERGED:          0
LLC PREFETCH MSHR MERGED:          0
LLC WRITEBACK MSHR MERGED:          0
LLC TOTAL ACCESSES:   15448795 HITS:    5814299 MISSES:    9634496
LLC LOAD ACCESSES:    5479988 HITS:    1774760 MISSES:    3705228
LLC RFO ACCESSES:     589770 HITS:     229505 MISSES:     360265
LLC PREFETCH ACCESSES:    5527374 HITS:     866496 MISSES:    4660878
LLC WRITEBACK ACCESSES:    3851663 HITS:    2943538 MISSES:     908125
LLC 0 RQ ACCESS:    6069758
LLC 0 RQ TO_CACHE:    6069728
LLC 0 RQ MERGED:          0
LLC 0 RQ FORWARD:          0
LLC WQ ACCESS:    3851663
LLC WQ TO_CACHE:    3851663
LLC WQ MERGED:          0
LLC WQ FORWARD:         47
Major fault: 0 Minor fault: 44814
CPU 0 L1D next line prefetcher final stats
CPU 0 L2C PC-based stride prefetcher final stats
All Misses: 11658486
All Hits: 6962773
SD Algo Stats - Switches: 0 SRR-Repls: 4231273 BRR-Repls: 0

DRAM Statistics
 CHANNEL 0
 RQ ROW_BUFFER_HIT:    1496074  ROW_BUFFER_MISS:    7227676
 DBUS_CONGESTED:    6020078
 WQ ROW_BUFFER_HIT:     208902  ROW_BUFFER_MISS:    2343724  FULL:          0

 AVG_CONGESTED_CYCLE: 13
LOADS RETIRED: 160808997
INSTR RETIRED: 500000000
