
*** ChampSim Multicore Out-of-Order Simulator ***

Warmup Instructions: 100000000
Simulation Instructions: 500000000
Number of CPUs: 1
LLC sets: 2048
LLC ways: 16
Clean RRIP Policies: 2203030022030300 Dirty RRIP Policies: 1203030012030300 PSEL Width: 10 Track Set: 4294967295 PSEL Mask: 1 Demote Mask: 2102021421020214DS Algo: 0Window size: 0
Off-chip DRAM Size: 4096 MB Channels: 1 Width: 64-bit Data Rate: 1600 MT/s

CPU 0 runs /mnt/beegfs/iconst01/spec2017/Roms.trace.gz
NOT SORTED
TRACE STRING: /mnt/beegfs/iconst01/spec2017/Roms.trace.gz
SORTED
TRACE STRING: /mnt/beegfs/iconst01/spec2017/Roms.trace.gz
INITIAL
TRACE STRING: /mnt/beegfs/iconst01/spec2017/Roms.trace.gz

champsim_seed used: 417

CPU 0 L1D next line prefetcher
CPU 0 L2C IP-based stride prefetcher
Initialize DRRIP state
Assign rand_sets[0]: 454  LLC: 2048
rand_sets[0]: 454
Assign rand_sets[1]: 1662  LLC: 2048
rand_sets[1]: 1662
Assign rand_sets[2]: 1921  LLC: 2048
rand_sets[2]: 1921
Assign rand_sets[3]: 1131  LLC: 2048
rand_sets[3]: 1131
Assign rand_sets[4]: 331  LLC: 2048
rand_sets[4]: 331
Assign rand_sets[5]: 1531  LLC: 2048
rand_sets[5]: 1531
Assign rand_sets[6]: 482  LLC: 2048
rand_sets[6]: 482
Assign rand_sets[7]: 1275  LLC: 2048
rand_sets[7]: 1275
Assign rand_sets[8]: 1876  LLC: 2048
rand_sets[8]: 1876
Assign rand_sets[9]: 2038  LLC: 2048
rand_sets[9]: 2038
Assign rand_sets[10]: 701  LLC: 2048
rand_sets[10]: 701
Assign rand_sets[11]: 479  LLC: 2048
rand_sets[11]: 479
Assign rand_sets[12]: 892  LLC: 2048
rand_sets[12]: 892
Assign rand_sets[13]: 1820  LLC: 2048
rand_sets[13]: 1820
Assign rand_sets[14]: 1505  LLC: 2048
rand_sets[14]: 1505
Assign rand_sets[15]: 1159  LLC: 2048
rand_sets[15]: 1159
Assign rand_sets[16]: 513  LLC: 2048
rand_sets[16]: 513
Assign rand_sets[17]: 703  LLC: 2048
rand_sets[17]: 703
Assign rand_sets[18]: 561  LLC: 2048
rand_sets[18]: 561
Assign rand_sets[19]: 990  LLC: 2048
rand_sets[19]: 990
Assign rand_sets[20]: 342  LLC: 2048
rand_sets[20]: 342
Assign rand_sets[21]: 882  LLC: 2048
rand_sets[21]: 882
Assign rand_sets[22]: 15  LLC: 2048
rand_sets[22]: 15
Assign rand_sets[23]: 71  LLC: 2048
rand_sets[23]: 71
Assign rand_sets[24]: 1127  LLC: 2048
rand_sets[24]: 1127
Assign rand_sets[25]: 1382  LLC: 2048
rand_sets[25]: 1382
Assign rand_sets[26]: 647  LLC: 2048
rand_sets[26]: 647
Assign rand_sets[27]: 857  LLC: 2048
rand_sets[27]: 857
Assign rand_sets[28]: 1450  LLC: 2048
rand_sets[28]: 1450
Assign rand_sets[29]: 1160  LLC: 2048
rand_sets[29]: 1160
Assign rand_sets[30]: 1852  LLC: 2048
rand_sets[30]: 1852
Assign rand_sets[31]: 1881  LLC: 2048
rand_sets[31]: 1881
Assign rand_sets[32]: 1770  LLC: 2048
rand_sets[32]: 1770
Assign rand_sets[33]: 1622  LLC: 2048
rand_sets[33]: 1622
Assign rand_sets[34]: 275  LLC: 2048
rand_sets[34]: 275
Assign rand_sets[35]: 635  LLC: 2048
rand_sets[35]: 635
Assign rand_sets[36]: 466  LLC: 2048
rand_sets[36]: 466
Assign rand_sets[37]: 1413  LLC: 2048
rand_sets[37]: 1413
Assign rand_sets[38]: 417  LLC: 2048
rand_sets[38]: 417
Assign rand_sets[39]: 472  LLC: 2048
rand_sets[39]: 472
Assign rand_sets[40]: 1340  LLC: 2048
rand_sets[40]: 1340
Assign rand_sets[41]: 852  LLC: 2048
rand_sets[41]: 852
Assign rand_sets[42]: 1365  LLC: 2048
rand_sets[42]: 1365
Assign rand_sets[43]: 47  LLC: 2048
rand_sets[43]: 47
Assign rand_sets[44]: 823  LLC: 2048
rand_sets[44]: 823
Assign rand_sets[45]: 686  LLC: 2048
rand_sets[45]: 686
Assign rand_sets[46]: 1637  LLC: 2048
rand_sets[46]: 1637
Assign rand_sets[47]: 1115  LLC: 2048
rand_sets[47]: 1115
Assign rand_sets[48]: 986  LLC: 2048
rand_sets[48]: 986
Assign rand_sets[49]: 258  LLC: 2048
rand_sets[49]: 258
Assign rand_sets[50]: 633  LLC: 2048
rand_sets[50]: 633
Assign rand_sets[51]: 920  LLC: 2048
rand_sets[51]: 920
Assign rand_sets[52]: 204  LLC: 2048
rand_sets[52]: 204
Assign rand_sets[53]: 227  LLC: 2048
rand_sets[53]: 227
Assign rand_sets[54]: 1818  LLC: 2048
rand_sets[54]: 1818
Assign rand_sets[55]: 886  LLC: 2048
rand_sets[55]: 886
Assign rand_sets[56]: 1422  LLC: 2048
rand_sets[56]: 1422
Assign rand_sets[57]: 607  LLC: 2048
rand_sets[57]: 607
Assign rand_sets[58]: 217  LLC: 2048
rand_sets[58]: 217
Assign rand_sets[59]: 1945  LLC: 2048
rand_sets[59]: 1945
Assign rand_sets[60]: 143  LLC: 2048
rand_sets[60]: 143
Assign rand_sets[61]: 1311  LLC: 2048
rand_sets[61]: 1311
Assign rand_sets[62]: 319  LLC: 2048
rand_sets[62]: 319
Assign rand_sets[63]: 1846  LLC: 2048
rand_sets[63]: 1846
 CLEAN-RRIP-POLICY-1: 2-2-0-3-0-3-0-0- CLEAN-RRIP-POLICY-2: 2-2-0-3-0-3-0-0-
 DIRTY-RRIP-POLICY-1: 1-2-0-3-0-3-0-0- DIRTY-RRIP-POLICY-2: 1-2-0-3-0-3-0-0-
 PSEL width: 10
Heartbeat CPU 0 instructions: 10000000 cycles: 4688066 heartbeat IPC: 2.13308 cumulative IPC: 2.13308 (Simulation time: 0 hr 0 min 17 sec) 
Heartbeat CPU 0 instructions: 20000000 cycles: 9325334 heartbeat IPC: 2.15644 cumulative IPC: 2.1447 (Simulation time: 0 hr 0 min 33 sec) 
Heartbeat CPU 0 instructions: 30000003 cycles: 14019722 heartbeat IPC: 2.1302 cumulative IPC: 2.13984 (Simulation time: 0 hr 0 min 50 sec) 
Heartbeat CPU 0 instructions: 40000000 cycles: 18670141 heartbeat IPC: 2.15034 cumulative IPC: 2.14246 (Simulation time: 0 hr 1 min 7 sec) 
Heartbeat CPU 0 instructions: 50000003 cycles: 23323506 heartbeat IPC: 2.14898 cumulative IPC: 2.14376 (Simulation time: 0 hr 1 min 24 sec) 
Heartbeat CPU 0 instructions: 60000000 cycles: 27976137 heartbeat IPC: 2.14932 cumulative IPC: 2.14469 (Simulation time: 0 hr 1 min 40 sec) 
Heartbeat CPU 0 instructions: 70000002 cycles: 32367293 heartbeat IPC: 2.27731 cumulative IPC: 2.16268 (Simulation time: 0 hr 1 min 55 sec) 
Heartbeat CPU 0 instructions: 80000000 cycles: 36304085 heartbeat IPC: 2.54014 cumulative IPC: 2.20361 (Simulation time: 0 hr 2 min 7 sec) 
Heartbeat CPU 0 instructions: 90000000 cycles: 40249327 heartbeat IPC: 2.5347 cumulative IPC: 2.23606 (Simulation time: 0 hr 2 min 18 sec) 
Heartbeat CPU 0 instructions: 100000000 cycles: 44211568 heartbeat IPC: 2.52382 cumulative IPC: 2.26185 (Simulation time: 0 hr 2 min 30 sec) 

Warmup complete CPU 0 instructions: 100000002 cycles: 44211569 (Simulation time: 0 hr 2 min 30 sec) 

Heartbeat CPU 0 instructions: 110000000 cycles: 52825925 heartbeat IPC: 1.16085 cumulative IPC: 1.16085 (Simulation time: 0 hr 2 min 49 sec) 
Heartbeat CPU 0 instructions: 120000000 cycles: 61502928 heartbeat IPC: 1.15247 cumulative IPC: 1.15665 (Simulation time: 0 hr 3 min 7 sec) 
Heartbeat CPU 0 instructions: 130000002 cycles: 70232554 heartbeat IPC: 1.14552 cumulative IPC: 1.15292 (Simulation time: 0 hr 3 min 26 sec) 
Heartbeat CPU 0 instructions: 140000000 cycles: 78807755 heartbeat IPC: 1.16615 cumulative IPC: 1.1562 (Simulation time: 0 hr 3 min 44 sec) 
Heartbeat CPU 0 instructions: 150000003 cycles: 87536827 heartbeat IPC: 1.1456 cumulative IPC: 1.15406 (Simulation time: 0 hr 4 min 3 sec) 
Heartbeat CPU 0 instructions: 160000000 cycles: 97810513 heartbeat IPC: 0.97336 cumulative IPC: 1.11943 (Simulation time: 0 hr 4 min 24 sec) 
Heartbeat CPU 0 instructions: 170000000 cycles: 110113799 heartbeat IPC: 0.812791 cumulative IPC: 1.06218 (Simulation time: 0 hr 4 min 47 sec) 
Heartbeat CPU 0 instructions: 180000000 cycles: 122495976 heartbeat IPC: 0.807612 cumulative IPC: 1.02191 (Simulation time: 0 hr 5 min 10 sec) 
Heartbeat CPU 0 instructions: 190000000 cycles: 135167630 heartbeat IPC: 0.789163 cumulative IPC: 0.989489 (Simulation time: 0 hr 5 min 33 sec) 
Heartbeat CPU 0 instructions: 200000000 cycles: 149196593 heartbeat IPC: 0.712811 cumulative IPC: 0.952517 (Simulation time: 0 hr 5 min 57 sec) 
Heartbeat CPU 0 instructions: 210000001 cycles: 163190962 heartbeat IPC: 0.714573 cumulative IPC: 0.92453 (Simulation time: 0 hr 6 min 20 sec) 
Heartbeat CPU 0 instructions: 220000000 cycles: 176935919 heartbeat IPC: 0.727539 cumulative IPC: 0.90413 (Simulation time: 0 hr 6 min 44 sec) 
Heartbeat CPU 0 instructions: 230000000 cycles: 190496023 heartbeat IPC: 0.737457 cumulative IPC: 0.88868 (Simulation time: 0 hr 7 min 8 sec) 
Heartbeat CPU 0 instructions: 240000000 cycles: 204105067 heartbeat IPC: 0.734805 cumulative IPC: 0.875583 (Simulation time: 0 hr 7 min 33 sec) 
Heartbeat CPU 0 instructions: 250000003 cycles: 215149437 heartbeat IPC: 0.905439 cumulative IPC: 0.877512 (Simulation time: 0 hr 7 min 55 sec) 
Heartbeat CPU 0 instructions: 260000000 cycles: 222985858 heartbeat IPC: 1.27609 cumulative IPC: 0.894983 (Simulation time: 0 hr 8 min 14 sec) 
Heartbeat CPU 0 instructions: 270000003 cycles: 231319958 heartbeat IPC: 1.19989 cumulative IPC: 0.908564 (Simulation time: 0 hr 8 min 34 sec) 
Heartbeat CPU 0 instructions: 280000000 cycles: 239773770 heartbeat IPC: 1.1829 cumulative IPC: 0.920423 (Simulation time: 0 hr 8 min 54 sec) 
Heartbeat CPU 0 instructions: 290000000 cycles: 248368328 heartbeat IPC: 1.16353 cumulative IPC: 0.930657 (Simulation time: 0 hr 9 min 14 sec) 
Heartbeat CPU 0 instructions: 300000000 cycles: 257004044 heartbeat IPC: 1.15798 cumulative IPC: 0.939883 (Simulation time: 0 hr 9 min 35 sec) 
Heartbeat CPU 0 instructions: 310000000 cycles: 265688912 heartbeat IPC: 1.15143 cumulative IPC: 0.948178 (Simulation time: 0 hr 9 min 56 sec) 
Heartbeat CPU 0 instructions: 320000000 cycles: 274436765 heartbeat IPC: 1.14314 cumulative IPC: 0.955586 (Simulation time: 0 hr 10 min 17 sec) 
Heartbeat CPU 0 instructions: 330000002 cycles: 283142325 heartbeat IPC: 1.14869 cumulative IPC: 0.962622 (Simulation time: 0 hr 10 min 38 sec) 
Heartbeat CPU 0 instructions: 340000000 cycles: 293180988 heartbeat IPC: 0.996148 cumulative IPC: 0.963974 (Simulation time: 0 hr 11 min 1 sec) 
Heartbeat CPU 0 instructions: 350000001 cycles: 301626271 heartbeat IPC: 1.18409 cumulative IPC: 0.971196 (Simulation time: 0 hr 11 min 21 sec) 
Heartbeat CPU 0 instructions: 360000000 cycles: 310074984 heartbeat IPC: 1.18361 cumulative IPC: 0.977946 (Simulation time: 0 hr 11 min 41 sec) 
Heartbeat CPU 0 instructions: 370000001 cycles: 318513360 heartbeat IPC: 1.18506 cumulative IPC: 0.984317 (Simulation time: 0 hr 12 min 2 sec) 
Heartbeat CPU 0 instructions: 380000000 cycles: 326903078 heartbeat IPC: 1.19194 cumulative IPC: 0.990479 (Simulation time: 0 hr 12 min 22 sec) 
Heartbeat CPU 0 instructions: 390000001 cycles: 335127108 heartbeat IPC: 1.21595 cumulative IPC: 0.996853 (Simulation time: 0 hr 12 min 42 sec) 
Heartbeat CPU 0 instructions: 400000000 cycles: 343429195 heartbeat IPC: 1.20452 cumulative IPC: 1.00261 (Simulation time: 0 hr 13 min 1 sec) 
Heartbeat CPU 0 instructions: 410000003 cycles: 351649109 heartbeat IPC: 1.21656 cumulative IPC: 1.00833 (Simulation time: 0 hr 13 min 21 sec) 
Heartbeat CPU 0 instructions: 420000000 cycles: 359952437 heartbeat IPC: 1.20434 cumulative IPC: 1.01349 (Simulation time: 0 hr 13 min 41 sec) 
Heartbeat CPU 0 instructions: 430000001 cycles: 368187227 heartbeat IPC: 1.21436 cumulative IPC: 1.0186 (Simulation time: 0 hr 14 min 1 sec) 
Heartbeat CPU 0 instructions: 440000000 cycles: 376367049 heartbeat IPC: 1.22252 cumulative IPC: 1.02362 (Simulation time: 0 hr 14 min 21 sec) 
Heartbeat CPU 0 instructions: 450000001 cycles: 385789807 heartbeat IPC: 1.06126 cumulative IPC: 1.02466 (Simulation time: 0 hr 14 min 43 sec) 
Heartbeat CPU 0 instructions: 460000000 cycles: 394011583 heartbeat IPC: 1.21628 cumulative IPC: 1.02916 (Simulation time: 0 hr 15 min 2 sec) 
Heartbeat CPU 0 instructions: 470000003 cycles: 402108913 heartbeat IPC: 1.23498 cumulative IPC: 1.03382 (Simulation time: 0 hr 15 min 22 sec) 
Heartbeat CPU 0 instructions: 480000000 cycles: 410238330 heartbeat IPC: 1.2301 cumulative IPC: 1.03818 (Simulation time: 0 hr 15 min 42 sec) 
Heartbeat CPU 0 instructions: 490000000 cycles: 418349330 heartbeat IPC: 1.23289 cumulative IPC: 1.0424 (Simulation time: 0 hr 16 min 2 sec) 
Heartbeat CPU 0 instructions: 500000000 cycles: 426466992 heartbeat IPC: 1.23188 cumulative IPC: 1.04642 (Simulation time: 0 hr 16 min 21 sec) 
Heartbeat CPU 0 instructions: 510000001 cycles: 434544740 heartbeat IPC: 1.23797 cumulative IPC: 1.05038 (Simulation time: 0 hr 16 min 41 sec) 
Heartbeat CPU 0 instructions: 520000000 cycles: 442654731 heartbeat IPC: 1.23305 cumulative IPC: 1.0541 (Simulation time: 0 hr 17 min 1 sec) 
Heartbeat CPU 0 instructions: 530000001 cycles: 450772081 heartbeat IPC: 1.23193 cumulative IPC: 1.05765 (Simulation time: 0 hr 17 min 20 sec) 
Heartbeat CPU 0 instructions: 540000000 cycles: 459067505 heartbeat IPC: 1.20548 cumulative IPC: 1.06061 (Simulation time: 0 hr 17 min 40 sec) 
Heartbeat CPU 0 instructions: 550000000 cycles: 467422802 heartbeat IPC: 1.19685 cumulative IPC: 1.0633 (Simulation time: 0 hr 18 min 0 sec) 
Heartbeat CPU 0 instructions: 560000000 cycles: 475519640 heartbeat IPC: 1.23505 cumulative IPC: 1.06652 (Simulation time: 0 hr 18 min 20 sec) 
Heartbeat CPU 0 instructions: 570000001 cycles: 486711836 heartbeat IPC: 0.89348 cumulative IPC: 1.06215 (Simulation time: 0 hr 18 min 41 sec) 
Heartbeat CPU 0 instructions: 580000000 cycles: 497476515 heartbeat IPC: 0.928964 cumulative IPC: 1.05898 (Simulation time: 0 hr 19 min 2 sec) 
Heartbeat CPU 0 instructions: 590000001 cycles: 508518567 heartbeat IPC: 0.905629 cumulative IPC: 1.05534 (Simulation time: 0 hr 19 min 24 sec) 
Heartbeat CPU 0 instructions: 600000000 cycles: 519277637 heartbeat IPC: 0.929448 cumulative IPC: 1.05249 (Simulation time: 0 hr 19 min 45 sec) 
Finished CPU 0 instructions: 500000001 cycles: 475066081 cumulative IPC: 1.05249 (Simulation time: 0 hr 19 min 45 sec) 

CPU 0 Branch Prediction Accuracy: 99.7422% MPKI: 0.173296
Number of Branches: 33608403 Number of Mispredictions: 86648
Number of LOAD Instructions: 180215231
Number of LOAD Instructions (ROI): 180215231
Number of STORE Instructions: 36067263
Number of STORE Instructions (ROI): 36067263
Total Destination Memory Operands: 38428915
Total Destination Memory Operands (ROI): 38428915
Total Source Memory Operands: 180215231
Total Source Memory Operands (ROI): 180215231
Number of DEPENDED LOADS: 3041379
Number of DEPENDED LOADS (ROI): 3041379
Number of SQ_ADDED: 38428892
Number of SQ_ADDED (ROI): 38428892
Number of LQ_ADDED: 207627453
Number of LQ_ADDED (ROI): 207627453
Number of Instructions read from trace: 600000257

ChampSim completed all CPUs

Region of Interest Statistics

CPU 0 cumulative IPC: 1.05249 instructions: 500000001 cycles: 475066081
ITLB TOTAL     ACCESS:   91807434  HIT:   91807415  MISS:         19
ITLB LOAD      ACCESS:   91807434  HIT:   91807415  MISS:         19
ITLB RFO       ACCESS:          0  HIT:          0  MISS:          0
ITLB PREFETCH  ACCESS:          0  HIT:          0  MISS:          0
ITLB WRITEBACK ACCESS:          0  HIT:          0  MISS:          0
ITLB PREFETCH  REQUESTED:          0  ISSUED:          0  USEFUL:          0  USELESS:          0
ITLB TOTAL MSHR MERGED:         40
ITLB LOAD MSHR MERGED:         40
ITLB RFO MSHR MERGED:          0
ITLB PREFETCH MSHR MERGED:          0
ITLB WRITEBACK MSHR MERGED:          0
ITLB TOTAL ACCESSES:   91807474 HITS:   91807415 MISSES:         59
ITLB LOAD ACCESSES:   91807474 HITS:   91807415 MISSES:         59
ITLB RFO ACCESSES:          0 HITS:          0 MISSES:          0
ITLB PREFETCH ACCESSES:          0 HITS:          0 MISSES:          0
ITLB WRITEBACK ACCESSES:          0 HITS:          0 MISSES:          0
ITLB RQ ACCESS:  500000003
ITLB RQ TO_CACHE:   91807474
ITLB RQ MERGED:  408192529
ITLB RQ FORWARD:          0
ITLB WQ ACCESS:          0
ITLB WQ TO_CACHE:          0
ITLB WQ MERGED:          0
ITLB WQ FORWARD:          0
DTLB TOTAL     ACCESS:  142054815  HIT:  141688354  MISS:     366461
DTLB LOAD      ACCESS:  119416934  HIT:  119103349  MISS:     313585
DTLB RFO       ACCESS:   22637881  HIT:   22585005  MISS:      52876
DTLB PREFETCH  ACCESS:          0  HIT:          0  MISS:          0
DTLB WRITEBACK ACCESS:          0  HIT:          0  MISS:          0
DTLB PREFETCH  REQUESTED:          0  ISSUED:          0  USEFUL:          0  USELESS:          0
DTLB TOTAL MSHR MERGED:     288966
DTLB LOAD MSHR MERGED:     240927
DTLB RFO MSHR MERGED:      48039
DTLB PREFETCH MSHR MERGED:          0
DTLB WRITEBACK MSHR MERGED:          0
DTLB TOTAL ACCESSES:  142343781 HITS:  141688354 MISSES:     655427
DTLB LOAD ACCESSES:  119657861 HITS:  119103349 MISSES:     554512
DTLB RFO ACCESSES:   22685920 HITS:   22585005 MISSES:     100915
DTLB PREFETCH ACCESSES:          0 HITS:          0 MISSES:          0
DTLB WRITEBACK ACCESSES:          0 HITS:          0 MISSES:          0
DTLB RQ ACCESS:  184791598
DTLB RQ TO_CACHE:  142343781
DTLB RQ MERGED:   42447817
DTLB RQ FORWARD:          0
DTLB WQ ACCESS:          0
DTLB WQ TO_CACHE:          0
DTLB WQ MERGED:          0
DTLB WQ FORWARD:          0
L1D TOTAL     ACCESS:  190295574  HIT:  176844620  MISS:   13450954
L1D LOAD      ACCESS:  111943396  HIT:  108694305  MISS:    3249091
L1D RFO       ACCESS:   19069316  HIT:   16287566  MISS:    2781750
L1D PREFETCH  ACCESS:   59282862  HIT:   51862749  MISS:    7420113
L1D WRITEBACK ACCESS:          0  HIT:          0  MISS:          0
L1D PREFETCH  REQUESTED:  116508028  ISSUED:  115147252  USEFUL:    7210448  USELESS:     209665
L1D TOTAL MSHR MERGED:   31431980
L1D LOAD MSHR MERGED:    7257695
L1D RFO MSHR MERGED:    9183468
L1D PREFETCH MSHR MERGED:   14990817
L1D WRITEBACK MSHR MERGED:          0
L1D TOTAL ACCESSES:  221727965 HITS:  176845030 MISSES:   44882935
L1D LOAD ACCESSES:  116508050 HITS:  108694327 MISSES:    7813723
L1D RFO ACCESSES:   28252729 HITS:   16287566 MISSES:   11965163
L1D PREFETCH ACCESSES:   76967186 HITS:   51863137 MISSES:   25104049
L1D WRITEBACK ACCESSES:          0 HITS:          0 MISSES:          0
L1D RQ ACCESS:  156535532
L1D RQ TO_CACHE:  116508031
L1D RQ MERGED:   40027479
L1D RQ FORWARD:          0
L1D WQ ACCESS:   28256066
L1D WQ TO_CACHE:   28252729
L1D WQ MERGED:       3337
L1D WQ FORWARD:        410
L1I TOTAL     ACCESS:  115800567  HIT:  115799619  MISS:        948
L1I LOAD      ACCESS:  115800567  HIT:  115799619  MISS:        948
L1I RFO       ACCESS:          0  HIT:          0  MISS:          0
L1I PREFETCH  ACCESS:          0  HIT:          0  MISS:          0
L1I WRITEBACK ACCESS:          0  HIT:          0  MISS:          0
L1I PREFETCH  REQUESTED:          0  ISSUED:          0  USEFUL:          0  USELESS:          0
L1I TOTAL MSHR MERGED:       1574
L1I LOAD MSHR MERGED:       1574
L1I RFO MSHR MERGED:          0
L1I PREFETCH MSHR MERGED:          0
L1I WRITEBACK MSHR MERGED:          0
L1I TOTAL ACCESSES:  115802141 HITS:  115799619 MISSES:       2522
L1I LOAD ACCESSES:  115802141 HITS:  115799619 MISSES:       2522
L1I RFO ACCESSES:          0 HITS:          0 MISSES:          0
L1I PREFETCH ACCESSES:          0 HITS:          0 MISSES:          0
L1I WRITEBACK ACCESSES:          0 HITS:          0 MISSES:          0
L1I RQ ACCESS:  500000007
L1I RQ TO_CACHE:  115802141
L1I RQ MERGED:  384197866
L1I RQ FORWARD:          0
L1I WQ ACCESS:          0
L1I WQ TO_CACHE:          0
L1I WQ MERGED:          0
L1I WQ FORWARD:          0
L2C TOTAL     ACCESS:   16696557  HIT:    4852607  MISS:   11843950
L2C LOAD      ACCESS:     556946  HIT:      95506  MISS:     461440
L2C RFO       ACCESS:    2781695  HIT:     266604  MISS:    2515091
L2C PREFETCH  ACCESS:   10137272  HIT:    1272135  MISS:    8865137
L2C WRITEBACK ACCESS:    3220644  HIT:    3218362  MISS:       2282
L2C PREFETCH  REQUESTED:      25995  ISSUED:      25995  USEFUL:      92962  USELESS:    8770248
L2C TOTAL MSHR MERGED:        492
L2C LOAD MSHR MERGED:          3
L2C RFO MSHR MERGED:          0
L2C PREFETCH MSHR MERGED:        489
L2C WRITEBACK MSHR MERGED:          0
L2C TOTAL ACCESSES:   16697162 HITS:    4852655 MISSES:   11844507
L2C LOAD ACCESSES:     556976 HITS:      95536 MISSES:     461440
L2C RFO ACCESSES:    2781695 HITS:     266604 MISSES:    2515091
L2C PREFETCH ACCESSES:   10137847 HITS:    1272153 MISSES:    8865694
L2C WRITEBACK ACCESSES:    3220644 HITS:    3218362 MISSES:       2282
L2C RQ ACCESS:    3338671
L2C RQ TO_CACHE:    3338641
L2C RQ MERGED:          0
L2C RQ FORWARD:          0
L2C WQ ACCESS:    3220644
L2C WQ TO_CACHE:    3220644
L2C WQ MERGED:          0
L2C WQ FORWARD:         48
LLC TOTAL     ACCESS:   14742047  HIT:    7682303  MISS:    7059744
LLC LOAD      ACCESS:     461434  HIT:     240745  MISS:     220689
LLC RFO       ACCESS:    2515068  HIT:    1912471  MISS:     602597
LLC PREFETCH  ACCESS:    8865149  HIT:    3293034  MISS:    5572115
LLC WRITEBACK ACCESS:    2900396  HIT:    2236053  MISS:     664343
LLC PREFETCH  REQUESTED:          0  ISSUED:          0  USEFUL:       3638  USELESS:    5572690
LLC TOTAL MSHR MERGED:          1
LLC LOAD MSHR MERGED:          0
LLC RFO MSHR MERGED:          0
LLC PREFETCH MSHR MERGED:          1
LLC WRITEBACK MSHR MERGED:          0
LLC TOTAL ACCESSES:   14742123 HITS:    7682378 MISSES:    7059745
LLC LOAD ACCESSES:     461437 HITS:     240748 MISSES:     220689
LLC RFO ACCESSES:    2515091 HITS:    1912494 MISSES:     602597
LLC PREFETCH ACCESSES:    8865199 HITS:    3293083 MISSES:    5572116
LLC WRITEBACK ACCESSES:    2900396 HITS:    2236053 MISSES:     664343
LLC 0 RQ ACCESS:    2976528
LLC 0 RQ TO_CACHE:    2976502
LLC 0 RQ MERGED:          0
LLC 0 RQ FORWARD:          0
LLC WQ ACCESS:    2900396
LLC WQ TO_CACHE:    2900396
LLC WQ MERGED:          0
LLC WQ FORWARD:         75
Major fault: 0 Minor fault: 57518
CPU 0 L1D next line prefetcher final stats
CPU 0 L2C PC-based stride prefetcher final stats
All Misses: 7657525
All Hits: 8580696
SD Algo Stats - Switches: 0 SRR-Repls: 228020 BRR-Repls: 0

DRAM Statistics
 CHANNEL 0
 RQ ROW_BUFFER_HIT:    3617842  ROW_BUFFER_MISS:    2775213
 DBUS_CONGESTED:    2867264
 WQ ROW_BUFFER_HIT:     104105  ROW_BUFFER_MISS:     775119  FULL:          0

 AVG_CONGESTED_CYCLE: 12
LOADS RETIRED: 157818985
INSTR RETIRED: 500000000
