
*** ChampSim Multicore Out-of-Order Simulator ***

Warmup Instructions: 100000000
Simulation Instructions: 100000000
Number of CPUs: 1
LLC sets: 2048
LLC ways: 16
Clean RRIP Policies: 303020203030202 Dirty RRIP Policies: 303020203030202 PSEL Width: 10 Track Set: 4294967295 PSEL Mask: 1 Demote Mask: 4044404440444044DS Algo: 0Window size: 0
Off-chip DRAM Size: 4096 MB Channels: 1 Width: 64-bit Data Rate: 1600 MT/s

CPU 0 runs /mnt/beegfs/iconst01/spec2017/Gcc.trace.gz
NOT SORTED
TRACE STRING: /mnt/beegfs/iconst01/spec2017/Gcc.trace.gz
SORTED
TRACE STRING: /mnt/beegfs/iconst01/spec2017/Gcc.trace.gz
INITIAL
TRACE STRING: /mnt/beegfs/iconst01/spec2017/Gcc.trace.gz

champsim_seed used: 269

CPU 0 L1D next line prefetcher
CPU 0 L2C IP-based stride prefetcher
Initialize DRRIP state
Assign rand_sets[0]: 454  LLC: 2048
rand_sets[0]: 454
Assign rand_sets[1]: 1662  LLC: 2048
rand_sets[1]: 1662
Assign rand_sets[2]: 1921  LLC: 2048
rand_sets[2]: 1921
Assign rand_sets[3]: 1131  LLC: 2048
rand_sets[3]: 1131
Assign rand_sets[4]: 331  LLC: 2048
rand_sets[4]: 331
Assign rand_sets[5]: 1531  LLC: 2048
rand_sets[5]: 1531
Assign rand_sets[6]: 482  LLC: 2048
rand_sets[6]: 482
Assign rand_sets[7]: 1275  LLC: 2048
rand_sets[7]: 1275
Assign rand_sets[8]: 1876  LLC: 2048
rand_sets[8]: 1876
Assign rand_sets[9]: 2038  LLC: 2048
rand_sets[9]: 2038
Assign rand_sets[10]: 701  LLC: 2048
rand_sets[10]: 701
Assign rand_sets[11]: 479  LLC: 2048
rand_sets[11]: 479
Assign rand_sets[12]: 892  LLC: 2048
rand_sets[12]: 892
Assign rand_sets[13]: 1820  LLC: 2048
rand_sets[13]: 1820
Assign rand_sets[14]: 1505  LLC: 2048
rand_sets[14]: 1505
Assign rand_sets[15]: 1159  LLC: 2048
rand_sets[15]: 1159
Assign rand_sets[16]: 513  LLC: 2048
rand_sets[16]: 513
Assign rand_sets[17]: 703  LLC: 2048
rand_sets[17]: 703
Assign rand_sets[18]: 561  LLC: 2048
rand_sets[18]: 561
Assign rand_sets[19]: 990  LLC: 2048
rand_sets[19]: 990
Assign rand_sets[20]: 342  LLC: 2048
rand_sets[20]: 342
Assign rand_sets[21]: 882  LLC: 2048
rand_sets[21]: 882
Assign rand_sets[22]: 15  LLC: 2048
rand_sets[22]: 15
Assign rand_sets[23]: 71  LLC: 2048
rand_sets[23]: 71
Assign rand_sets[24]: 1127  LLC: 2048
rand_sets[24]: 1127
Assign rand_sets[25]: 1382  LLC: 2048
rand_sets[25]: 1382
Assign rand_sets[26]: 647  LLC: 2048
rand_sets[26]: 647
Assign rand_sets[27]: 857  LLC: 2048
rand_sets[27]: 857
Assign rand_sets[28]: 1450  LLC: 2048
rand_sets[28]: 1450
Assign rand_sets[29]: 1160  LLC: 2048
rand_sets[29]: 1160
Assign rand_sets[30]: 1852  LLC: 2048
rand_sets[30]: 1852
Assign rand_sets[31]: 1881  LLC: 2048
rand_sets[31]: 1881
Assign rand_sets[32]: 1770  LLC: 2048
rand_sets[32]: 1770
Assign rand_sets[33]: 1622  LLC: 2048
rand_sets[33]: 1622
Assign rand_sets[34]: 275  LLC: 2048
rand_sets[34]: 275
Assign rand_sets[35]: 635  LLC: 2048
rand_sets[35]: 635
Assign rand_sets[36]: 466  LLC: 2048
rand_sets[36]: 466
Assign rand_sets[37]: 1413  LLC: 2048
rand_sets[37]: 1413
Assign rand_sets[38]: 417  LLC: 2048
rand_sets[38]: 417
Assign rand_sets[39]: 472  LLC: 2048
rand_sets[39]: 472
Assign rand_sets[40]: 1340  LLC: 2048
rand_sets[40]: 1340
Assign rand_sets[41]: 852  LLC: 2048
rand_sets[41]: 852
Assign rand_sets[42]: 1365  LLC: 2048
rand_sets[42]: 1365
Assign rand_sets[43]: 47  LLC: 2048
rand_sets[43]: 47
Assign rand_sets[44]: 823  LLC: 2048
rand_sets[44]: 823
Assign rand_sets[45]: 686  LLC: 2048
rand_sets[45]: 686
Assign rand_sets[46]: 1637  LLC: 2048
rand_sets[46]: 1637
Assign rand_sets[47]: 1115  LLC: 2048
rand_sets[47]: 1115
Assign rand_sets[48]: 986  LLC: 2048
rand_sets[48]: 986
Assign rand_sets[49]: 258  LLC: 2048
rand_sets[49]: 258
Assign rand_sets[50]: 633  LLC: 2048
rand_sets[50]: 633
Assign rand_sets[51]: 920  LLC: 2048
rand_sets[51]: 920
Assign rand_sets[52]: 204  LLC: 2048
rand_sets[52]: 204
Assign rand_sets[53]: 227  LLC: 2048
rand_sets[53]: 227
Assign rand_sets[54]: 1818  LLC: 2048
rand_sets[54]: 1818
Assign rand_sets[55]: 886  LLC: 2048
rand_sets[55]: 886
Assign rand_sets[56]: 1422  LLC: 2048
rand_sets[56]: 1422
Assign rand_sets[57]: 607  LLC: 2048
rand_sets[57]: 607
Assign rand_sets[58]: 217  LLC: 2048
rand_sets[58]: 217
Assign rand_sets[59]: 1945  LLC: 2048
rand_sets[59]: 1945
Assign rand_sets[60]: 143  LLC: 2048
rand_sets[60]: 143
Assign rand_sets[61]: 1311  LLC: 2048
rand_sets[61]: 1311
Assign rand_sets[62]: 319  LLC: 2048
rand_sets[62]: 319
Assign rand_sets[63]: 1846  LLC: 2048
rand_sets[63]: 1846
 CLEAN-RRIP-POLICY-1: 0-3-0-3-0-2-0-2- CLEAN-RRIP-POLICY-2: 0-3-0-3-0-2-0-2-
 DIRTY-RRIP-POLICY-1: 0-3-0-3-0-2-0-2- DIRTY-RRIP-POLICY-2: 0-3-0-3-0-2-0-2-
 PSEL width: 10
Heartbeat CPU 0 instructions: 10000001 cycles: 7315998 heartbeat IPC: 1.36687 cumulative IPC: 1.36687 (Simulation time: 0 hr 0 min 14 sec) 
Heartbeat CPU 0 instructions: 20000000 cycles: 14307904 heartbeat IPC: 1.43023 cumulative IPC: 1.39783 (Simulation time: 0 hr 0 min 28 sec) 
Heartbeat CPU 0 instructions: 30000001 cycles: 21021101 heartbeat IPC: 1.4896 cumulative IPC: 1.42714 (Simulation time: 0 hr 0 min 44 sec) 
Heartbeat CPU 0 instructions: 40000000 cycles: 27481978 heartbeat IPC: 1.54778 cumulative IPC: 1.4555 (Simulation time: 0 hr 1 min 0 sec) 
Heartbeat CPU 0 instructions: 50000001 cycles: 33583871 heartbeat IPC: 1.63884 cumulative IPC: 1.48881 (Simulation time: 0 hr 1 min 15 sec) 
Heartbeat CPU 0 instructions: 60000000 cycles: 40065255 heartbeat IPC: 1.54288 cumulative IPC: 1.49756 (Simulation time: 0 hr 1 min 30 sec) 
Heartbeat CPU 0 instructions: 70000000 cycles: 47105273 heartbeat IPC: 1.42045 cumulative IPC: 1.48603 (Simulation time: 0 hr 1 min 44 sec) 
Heartbeat CPU 0 instructions: 80000000 cycles: 54196722 heartbeat IPC: 1.41015 cumulative IPC: 1.4761 (Simulation time: 0 hr 1 min 57 sec) 
Heartbeat CPU 0 instructions: 90000003 cycles: 61202421 heartbeat IPC: 1.42741 cumulative IPC: 1.47053 (Simulation time: 0 hr 2 min 11 sec) 
Heartbeat CPU 0 instructions: 100000000 cycles: 68370663 heartbeat IPC: 1.39504 cumulative IPC: 1.46262 (Simulation time: 0 hr 2 min 25 sec) 

Warmup complete CPU 0 instructions: 100000004 cycles: 68370664 (Simulation time: 0 hr 2 min 25 sec) 

Heartbeat CPU 0 instructions: 110000003 cycles: 96120425 heartbeat IPC: 0.360364 cumulative IPC: 0.360363 (Simulation time: 0 hr 2 min 51 sec) 
Heartbeat CPU 0 instructions: 120000000 cycles: 123604103 heartbeat IPC: 0.363852 cumulative IPC: 0.362099 (Simulation time: 0 hr 3 min 18 sec) 
Heartbeat CPU 0 instructions: 130000000 cycles: 148614500 heartbeat IPC: 0.399834 cumulative IPC: 0.37386 (Simulation time: 0 hr 3 min 45 sec) 
Heartbeat CPU 0 instructions: 140000000 cycles: 178358219 heartbeat IPC: 0.336205 cumulative IPC: 0.363677 (Simulation time: 0 hr 4 min 11 sec) 
Heartbeat CPU 0 instructions: 150000000 cycles: 208375317 heartbeat IPC: 0.333143 cumulative IPC: 0.357131 (Simulation time: 0 hr 4 min 37 sec) 
Heartbeat CPU 0 instructions: 160000000 cycles: 235846724 heartbeat IPC: 0.364015 cumulative IPC: 0.35826 (Simulation time: 0 hr 5 min 3 sec) 
Heartbeat CPU 0 instructions: 170000001 cycles: 263874014 heartbeat IPC: 0.356795 cumulative IPC: 0.35805 (Simulation time: 0 hr 5 min 30 sec) 
Heartbeat CPU 0 instructions: 180000000 cycles: 292380664 heartbeat IPC: 0.350795 cumulative IPC: 0.357127 (Simulation time: 0 hr 5 min 57 sec) 
Heartbeat CPU 0 instructions: 190000002 cycles: 320440056 heartbeat IPC: 0.356387 cumulative IPC: 0.357045 (Simulation time: 0 hr 6 min 24 sec) 
Heartbeat CPU 0 instructions: 200000000 cycles: 348868079 heartbeat IPC: 0.351766 cumulative IPC: 0.35651 (Simulation time: 0 hr 6 min 51 sec) 
Finished CPU 0 instructions: 100000000 cycles: 280497428 cumulative IPC: 0.35651 (Simulation time: 0 hr 6 min 51 sec) 

CPU 0 Branch Prediction Accuracy: 87.7062% MPKI: 23.4739
Number of Branches: 19094112 Number of Mispredictions: 2347395
Number of LOAD Instructions: 56201042
Number of LOAD Instructions (ROI): 56201042
Number of STORE Instructions: 26046982
Number of STORE Instructions (ROI): 26046982
Total Destination Memory Operands: 27648705
Total Destination Memory Operands (ROI): 27648705
Total Source Memory Operands: 56216934
Total Source Memory Operands (ROI): 56216934
Number of DEPENDED LOADS: 2547807
Number of DEPENDED LOADS (ROI): 2547807
Number of SQ_ADDED: 27648697
Number of SQ_ADDED (ROI): 27648697
Number of LQ_ADDED: 69716986
Number of LQ_ADDED (ROI): 69716986
Number of Instructions read from trace: 200000144

ChampSim completed all CPUs

Region of Interest Statistics

CPU 0 cumulative IPC: 0.35651 instructions: 100000000 cycles: 280497428
ITLB TOTAL     ACCESS:   20427421  HIT:   20400520  MISS:      26901
ITLB LOAD      ACCESS:   20427421  HIT:   20400520  MISS:      26901
ITLB RFO       ACCESS:          0  HIT:          0  MISS:          0
ITLB PREFETCH  ACCESS:          0  HIT:          0  MISS:          0
ITLB WRITEBACK ACCESS:          0  HIT:          0  MISS:          0
ITLB PREFETCH  REQUESTED:          0  ISSUED:          0  USEFUL:          0  USELESS:          0
ITLB TOTAL MSHR MERGED:      23613
ITLB LOAD MSHR MERGED:      23613
ITLB RFO MSHR MERGED:          0
ITLB PREFETCH MSHR MERGED:          0
ITLB WRITEBACK MSHR MERGED:          0
ITLB TOTAL ACCESSES:   20451034 HITS:   20400520 MISSES:      50514
ITLB LOAD ACCESSES:   20451034 HITS:   20400520 MISSES:      50514
ITLB RFO ACCESSES:          0 HITS:          0 MISSES:          0
ITLB PREFETCH ACCESSES:          0 HITS:          0 MISSES:          0
ITLB WRITEBACK ACCESSES:          0 HITS:          0 MISSES:          0
ITLB RQ ACCESS:  100000135
ITLB RQ TO_CACHE:   20451034
ITLB RQ MERGED:   79549101
ITLB RQ FORWARD:          0
ITLB WQ ACCESS:          0
ITLB WQ TO_CACHE:          0
ITLB WQ MERGED:          0
ITLB WQ FORWARD:          0
DTLB TOTAL     ACCESS:   33491579  HIT:   33386431  MISS:     105148
DTLB LOAD      ACCESS:   21573547  HIT:   21477773  MISS:      95774
DTLB RFO       ACCESS:   11918032  HIT:   11908658  MISS:       9374
DTLB PREFETCH  ACCESS:          0  HIT:          0  MISS:          0
DTLB WRITEBACK ACCESS:          0  HIT:          0  MISS:          0
DTLB PREFETCH  REQUESTED:          0  ISSUED:          0  USEFUL:          0  USELESS:          0
DTLB TOTAL MSHR MERGED:      15541
DTLB LOAD MSHR MERGED:      11013
DTLB RFO MSHR MERGED:       4528
DTLB PREFETCH MSHR MERGED:          0
DTLB WRITEBACK MSHR MERGED:          0
DTLB TOTAL ACCESSES:   33507120 HITS:   33386431 MISSES:     120689
DTLB LOAD ACCESSES:   21584560 HITS:   21477773 MISSES:     106787
DTLB RFO ACCESSES:   11922560 HITS:   11908658 MISSES:      13902
DTLB PREFETCH ACCESSES:          0 HITS:          0 MISSES:          0
DTLB WRITEBACK ACCESSES:          0 HITS:          0 MISSES:          0
DTLB RQ ACCESS:   40707745
DTLB RQ TO_CACHE:   33507120
DTLB RQ MERGED:    7200625
DTLB RQ FORWARD:          0
DTLB WQ ACCESS:          0
DTLB WQ TO_CACHE:          0
DTLB WQ MERGED:          0
DTLB WQ FORWARD:          0
L1D TOTAL     ACCESS:   57415749  HIT:   55940734  MISS:    1475015
L1D LOAD      ACCESS:   22523598  HIT:   21899820  MISS:     623778
L1D RFO       ACCESS:   13574976  HIT:   13449662  MISS:     125314
L1D PREFETCH  ACCESS:   21317175  HIT:   20591252  MISS:     725923
L1D WRITEBACK ACCESS:          0  HIT:          0  MISS:          0
L1D PREFETCH  REQUESTED:   22581172  ISSUED:   22210840  USEFUL:     353110  USELESS:     372810
L1D TOTAL MSHR MERGED:     419610
L1D LOAD MSHR MERGED:      76991
L1D RFO MSHR MERGED:     242611
L1D PREFETCH MSHR MERGED:     100008
L1D WRITEBACK MSHR MERGED:          0
L1D TOTAL ACCESSES:   57840875 HITS:   55946250 MISSES:    1894625
L1D LOAD ACCESSES:   22581483 HITS:   21900131 MISSES:     681352
L1D RFO ACCESSES:   13816015 HITS:   13449662 MISSES:     366353
L1D PREFETCH ACCESSES:   21443377 HITS:   20596457 MISSES:     846920
L1D WRITEBACK ACCESSES:          0 HITS:          0 MISSES:          0
L1D RQ ACCESS:   26774967
L1D RQ TO_CACHE:   22581174
L1D RQ MERGED:    4193482
L1D RQ FORWARD:          0
L1D WQ ACCESS:   13932778
L1D WQ TO_CACHE:   13816015
L1D WQ MERGED:     116763
L1D WQ FORWARD:       5516
L1I TOTAL     ACCESS:   25840931  HIT:   25155118  MISS:     685813
L1I LOAD      ACCESS:   25840931  HIT:   25155118  MISS:     685813
L1I RFO       ACCESS:          0  HIT:          0  MISS:          0
L1I PREFETCH  ACCESS:          0  HIT:          0  MISS:          0
L1I WRITEBACK ACCESS:          0  HIT:          0  MISS:          0
L1I PREFETCH  REQUESTED:          0  ISSUED:          0  USEFUL:          0  USELESS:          0
L1I TOTAL MSHR MERGED:     296812
L1I LOAD MSHR MERGED:     296812
L1I RFO MSHR MERGED:          0
L1I PREFETCH MSHR MERGED:          0
L1I WRITEBACK MSHR MERGED:          0
L1I TOTAL ACCESSES:   26137743 HITS:   25155118 MISSES:     982625
L1I LOAD ACCESSES:   26137743 HITS:   25155118 MISSES:     982625
L1I RFO ACCESSES:          0 HITS:          0 MISSES:          0
L1I PREFETCH ACCESSES:          0 HITS:          0 MISSES:          0
L1I WRITEBACK ACCESSES:          0 HITS:          0 MISSES:          0
L1I RQ ACCESS:  100000135
L1I RQ TO_CACHE:   26137743
L1I RQ MERGED:   73862392
L1I RQ FORWARD:          0
L1I WQ ACCESS:          0
L1I WQ TO_CACHE:          0
L1I WQ MERGED:          0
L1I WQ FORWARD:          0
L2C TOTAL     ACCESS:    2609710  HIT:    2081726  MISS:     527984
L2C LOAD      ACCESS:    1290142  HIT:     967117  MISS:     323025
L2C RFO       ACCESS:     123726  HIT:      64582  MISS:      59144
L2C PREFETCH  ACCESS:     873522  HIT:     729631  MISS:     143891
L2C WRITEBACK ACCESS:     322320  HIT:     320396  MISS:       1924
L2C PREFETCH  REQUESTED:     151219  ISSUED:     151219  USEFUL:      41108  USELESS:     102794
L2C TOTAL MSHR MERGED:       1690
L2C LOAD MSHR MERGED:        162
L2C RFO MSHR MERGED:          0
L2C PREFETCH MSHR MERGED:       1528
L2C WRITEBACK MSHR MERGED:          0
L2C TOTAL ACCESSES:    2611474 HITS:    2081795 MISSES:     529679
L2C LOAD ACCESSES:    1290174 HITS:     967149 MISSES:     323025
L2C RFO ACCESSES:     123742 HITS:      64598 MISSES:      59144
L2C PREFETCH ACCESSES:     875238 HITS:     729652 MISSES:     145586
L2C WRITEBACK ACCESSES:     322320 HITS:     320396 MISSES:       1924
L2C RQ ACCESS:    1413916
L2C RQ TO_CACHE:    1413868
L2C RQ MERGED:          0
L2C RQ FORWARD:          0
L2C WQ ACCESS:     322320
L2C WQ TO_CACHE:     322320
L2C WQ MERGED:          0
L2C WQ FORWARD:         69
LLC TOTAL     ACCESS:     649503  HIT:     565827  MISS:      83676
LLC LOAD      ACCESS:     322859  HIT:     281713  MISS:      41146
LLC RFO       ACCESS:      59144  HIT:      51793  MISS:       7351
LLC PREFETCH  ACCESS:     144057  HIT:     114696  MISS:      29361
LLC WRITEBACK ACCESS:     123443  HIT:     117625  MISS:       5818
LLC PREFETCH  REQUESTED:          0  ISSUED:          0  USEFUL:       2320  USELESS:      26586
LLC TOTAL MSHR MERGED:          0
LLC LOAD MSHR MERGED:          0
LLC RFO MSHR MERGED:          0
LLC PREFETCH MSHR MERGED:          0
LLC WRITEBACK MSHR MERGED:          0
LLC TOTAL ACCESSES:     649508 HITS:     565832 MISSES:      83676
LLC LOAD ACCESSES:     322863 HITS:     281717 MISSES:      41146
LLC RFO ACCESSES:      59144 HITS:      51793 MISSES:       7351
LLC PREFETCH ACCESSES:     144058 HITS:     114697 MISSES:      29361
LLC WRITEBACK ACCESSES:     123443 HITS:     117625 MISSES:       5818
LLC 0 RQ ACCESS:     382007
LLC 0 RQ TO_CACHE:     382003
LLC 0 RQ MERGED:          0
LLC 0 RQ FORWARD:          0
LLC WQ ACCESS:     123443
LLC WQ TO_CACHE:     123443
LLC WQ MERGED:          0
LLC WQ FORWARD:          5
Major fault: 0 Minor fault: 6231
CPU 0 L1D next line prefetcher final stats
CPU 0 L2C PC-based stride prefetcher final stats
All Misses: 210135
All Hits: 1256374
SD Algo Stats - Switches: 0 SRR-Repls: 104044 BRR-Repls: 0

DRAM Statistics
 CHANNEL 0
 RQ ROW_BUFFER_HIT:      20972  ROW_BUFFER_MISS:      56696
 DBUS_CONGESTED:      34246
 WQ ROW_BUFFER_HIT:       1151  ROW_BUFFER_MISS:      19113  FULL:          0

 AVG_CONGESTED_CYCLE: 13
LOADS RETIRED: 28067902
INSTR RETIRED: 100000000
