
*** ChampSim Multicore Out-of-Order Simulator ***

Warmup Instructions: 100000000
Simulation Instructions: 100000000
Number of CPUs: 1
LLC sets: 2048
LLC ways: 16
Clean RRIP Policies: 303020203030202 Dirty RRIP Policies: 303020203030202 PSEL Width: 10 Track Set: 4294967295 PSEL Mask: 1 Demote Mask: 4044404440444044DS Algo: 0Window size: 0
Off-chip DRAM Size: 4096 MB Channels: 1 Width: 64-bit Data Rate: 1600 MT/s

CPU 0 runs /mnt/beegfs/iconst01/spec2017/Xalancbmk.trace.gz
NOT SORTED
TRACE STRING: /mnt/beegfs/iconst01/spec2017/Xalancbmk.trace.gz
SORTED
TRACE STRING: /mnt/beegfs/iconst01/spec2017/Xalancbmk.trace.gz
INITIAL
TRACE STRING: /mnt/beegfs/iconst01/spec2017/Xalancbmk.trace.gz

champsim_seed used: 913

CPU 0 L1D next line prefetcher
CPU 0 L2C IP-based stride prefetcher
Initialize DRRIP state
Assign rand_sets[0]: 454  LLC: 2048
rand_sets[0]: 454
Assign rand_sets[1]: 1662  LLC: 2048
rand_sets[1]: 1662
Assign rand_sets[2]: 1921  LLC: 2048
rand_sets[2]: 1921
Assign rand_sets[3]: 1131  LLC: 2048
rand_sets[3]: 1131
Assign rand_sets[4]: 331  LLC: 2048
rand_sets[4]: 331
Assign rand_sets[5]: 1531  LLC: 2048
rand_sets[5]: 1531
Assign rand_sets[6]: 482  LLC: 2048
rand_sets[6]: 482
Assign rand_sets[7]: 1275  LLC: 2048
rand_sets[7]: 1275
Assign rand_sets[8]: 1876  LLC: 2048
rand_sets[8]: 1876
Assign rand_sets[9]: 2038  LLC: 2048
rand_sets[9]: 2038
Assign rand_sets[10]: 701  LLC: 2048
rand_sets[10]: 701
Assign rand_sets[11]: 479  LLC: 2048
rand_sets[11]: 479
Assign rand_sets[12]: 892  LLC: 2048
rand_sets[12]: 892
Assign rand_sets[13]: 1820  LLC: 2048
rand_sets[13]: 1820
Assign rand_sets[14]: 1505  LLC: 2048
rand_sets[14]: 1505
Assign rand_sets[15]: 1159  LLC: 2048
rand_sets[15]: 1159
Assign rand_sets[16]: 513  LLC: 2048
rand_sets[16]: 513
Assign rand_sets[17]: 703  LLC: 2048
rand_sets[17]: 703
Assign rand_sets[18]: 561  LLC: 2048
rand_sets[18]: 561
Assign rand_sets[19]: 990  LLC: 2048
rand_sets[19]: 990
Assign rand_sets[20]: 342  LLC: 2048
rand_sets[20]: 342
Assign rand_sets[21]: 882  LLC: 2048
rand_sets[21]: 882
Assign rand_sets[22]: 15  LLC: 2048
rand_sets[22]: 15
Assign rand_sets[23]: 71  LLC: 2048
rand_sets[23]: 71
Assign rand_sets[24]: 1127  LLC: 2048
rand_sets[24]: 1127
Assign rand_sets[25]: 1382  LLC: 2048
rand_sets[25]: 1382
Assign rand_sets[26]: 647  LLC: 2048
rand_sets[26]: 647
Assign rand_sets[27]: 857  LLC: 2048
rand_sets[27]: 857
Assign rand_sets[28]: 1450  LLC: 2048
rand_sets[28]: 1450
Assign rand_sets[29]: 1160  LLC: 2048
rand_sets[29]: 1160
Assign rand_sets[30]: 1852  LLC: 2048
rand_sets[30]: 1852
Assign rand_sets[31]: 1881  LLC: 2048
rand_sets[31]: 1881
Assign rand_sets[32]: 1770  LLC: 2048
rand_sets[32]: 1770
Assign rand_sets[33]: 1622  LLC: 2048
rand_sets[33]: 1622
Assign rand_sets[34]: 275  LLC: 2048
rand_sets[34]: 275
Assign rand_sets[35]: 635  LLC: 2048
rand_sets[35]: 635
Assign rand_sets[36]: 466  LLC: 2048
rand_sets[36]: 466
Assign rand_sets[37]: 1413  LLC: 2048
rand_sets[37]: 1413
Assign rand_sets[38]: 417  LLC: 2048
rand_sets[38]: 417
Assign rand_sets[39]: 472  LLC: 2048
rand_sets[39]: 472
Assign rand_sets[40]: 1340  LLC: 2048
rand_sets[40]: 1340
Assign rand_sets[41]: 852  LLC: 2048
rand_sets[41]: 852
Assign rand_sets[42]: 1365  LLC: 2048
rand_sets[42]: 1365
Assign rand_sets[43]: 47  LLC: 2048
rand_sets[43]: 47
Assign rand_sets[44]: 823  LLC: 2048
rand_sets[44]: 823
Assign rand_sets[45]: 686  LLC: 2048
rand_sets[45]: 686
Assign rand_sets[46]: 1637  LLC: 2048
rand_sets[46]: 1637
Assign rand_sets[47]: 1115  LLC: 2048
rand_sets[47]: 1115
Assign rand_sets[48]: 986  LLC: 2048
rand_sets[48]: 986
Assign rand_sets[49]: 258  LLC: 2048
rand_sets[49]: 258
Assign rand_sets[50]: 633  LLC: 2048
rand_sets[50]: 633
Assign rand_sets[51]: 920  LLC: 2048
rand_sets[51]: 920
Assign rand_sets[52]: 204  LLC: 2048
rand_sets[52]: 204
Assign rand_sets[53]: 227  LLC: 2048
rand_sets[53]: 227
Assign rand_sets[54]: 1818  LLC: 2048
rand_sets[54]: 1818
Assign rand_sets[55]: 886  LLC: 2048
rand_sets[55]: 886
Assign rand_sets[56]: 1422  LLC: 2048
rand_sets[56]: 1422
Assign rand_sets[57]: 607  LLC: 2048
rand_sets[57]: 607
Assign rand_sets[58]: 217  LLC: 2048
rand_sets[58]: 217
Assign rand_sets[59]: 1945  LLC: 2048
rand_sets[59]: 1945
Assign rand_sets[60]: 143  LLC: 2048
rand_sets[60]: 143
Assign rand_sets[61]: 1311  LLC: 2048
rand_sets[61]: 1311
Assign rand_sets[62]: 319  LLC: 2048
rand_sets[62]: 319
Assign rand_sets[63]: 1846  LLC: 2048
rand_sets[63]: 1846
 CLEAN-RRIP-POLICY-1: 0-3-0-3-0-2-0-2- CLEAN-RRIP-POLICY-2: 0-3-0-3-0-2-0-2-
 DIRTY-RRIP-POLICY-1: 0-3-0-3-0-2-0-2- DIRTY-RRIP-POLICY-2: 0-3-0-3-0-2-0-2-
 PSEL width: 10
Heartbeat CPU 0 instructions: 10000003 cycles: 4591869 heartbeat IPC: 2.17776 cumulative IPC: 2.17776 (Simulation time: 0 hr 0 min 15 sec) 
Heartbeat CPU 0 instructions: 20000000 cycles: 8986195 heartbeat IPC: 2.27566 cumulative IPC: 2.22564 (Simulation time: 0 hr 0 min 29 sec) 
Heartbeat CPU 0 instructions: 30000000 cycles: 13397136 heartbeat IPC: 2.26709 cumulative IPC: 2.23928 (Simulation time: 0 hr 0 min 43 sec) 
Heartbeat CPU 0 instructions: 40000000 cycles: 18023535 heartbeat IPC: 2.16151 cumulative IPC: 2.21932 (Simulation time: 0 hr 0 min 59 sec) 
Heartbeat CPU 0 instructions: 50000002 cycles: 22441299 heartbeat IPC: 2.26359 cumulative IPC: 2.22804 (Simulation time: 0 hr 1 min 13 sec) 
Heartbeat CPU 0 instructions: 60000000 cycles: 27096483 heartbeat IPC: 2.14814 cumulative IPC: 2.21431 (Simulation time: 0 hr 1 min 28 sec) 
Heartbeat CPU 0 instructions: 70000003 cycles: 31502205 heartbeat IPC: 2.26978 cumulative IPC: 2.22207 (Simulation time: 0 hr 1 min 42 sec) 
Heartbeat CPU 0 instructions: 80000000 cycles: 35923832 heartbeat IPC: 2.26161 cumulative IPC: 2.22693 (Simulation time: 0 hr 1 min 56 sec) 
Heartbeat CPU 0 instructions: 90000002 cycles: 40381139 heartbeat IPC: 2.24351 cumulative IPC: 2.22876 (Simulation time: 0 hr 2 min 11 sec) 
Heartbeat CPU 0 instructions: 100000000 cycles: 44853231 heartbeat IPC: 2.23609 cumulative IPC: 2.22949 (Simulation time: 0 hr 2 min 25 sec) 

Warmup complete CPU 0 instructions: 100000003 cycles: 44853232 (Simulation time: 0 hr 2 min 25 sec) 

Heartbeat CPU 0 instructions: 110000000 cycles: 71477220 heartbeat IPC: 0.375601 cumulative IPC: 0.375601 (Simulation time: 0 hr 2 min 56 sec) 
Heartbeat CPU 0 instructions: 120000000 cycles: 99317917 heartbeat IPC: 0.359186 cumulative IPC: 0.36721 (Simulation time: 0 hr 3 min 28 sec) 
Heartbeat CPU 0 instructions: 130000000 cycles: 122411695 heartbeat IPC: 0.433017 cumulative IPC: 0.386805 (Simulation time: 0 hr 3 min 56 sec) 
Heartbeat CPU 0 instructions: 140000000 cycles: 144868693 heartbeat IPC: 0.445295 cumulative IPC: 0.399938 (Simulation time: 0 hr 4 min 24 sec) 
Heartbeat CPU 0 instructions: 150000000 cycles: 168936576 heartbeat IPC: 0.415491 cumulative IPC: 0.402955 (Simulation time: 0 hr 4 min 52 sec) 
Heartbeat CPU 0 instructions: 160000000 cycles: 193605010 heartbeat IPC: 0.405376 cumulative IPC: 0.403356 (Simulation time: 0 hr 5 min 22 sec) 
Heartbeat CPU 0 instructions: 170000002 cycles: 214852320 heartbeat IPC: 0.470648 cumulative IPC: 0.411767 (Simulation time: 0 hr 5 min 49 sec) 
Heartbeat CPU 0 instructions: 180000000 cycles: 237015299 heartbeat IPC: 0.451203 cumulative IPC: 0.416315 (Simulation time: 0 hr 6 min 16 sec) 
Heartbeat CPU 0 instructions: 190000000 cycles: 256008126 heartbeat IPC: 0.526515 cumulative IPC: 0.426227 (Simulation time: 0 hr 6 min 42 sec) 
Heartbeat CPU 0 instructions: 200000000 cycles: 276752156 heartbeat IPC: 0.482066 cumulative IPC: 0.431222 (Simulation time: 0 hr 7 min 8 sec) 
Finished CPU 0 instructions: 100000002 cycles: 231898934 cumulative IPC: 0.431222 (Simulation time: 0 hr 7 min 8 sec) 

CPU 0 Branch Prediction Accuracy: 99.5409% MPKI: 1.33464
Number of Branches: 29071694 Number of Mispredictions: 133464
Number of LOAD Instructions: 62953883
Number of LOAD Instructions (ROI): 62953883
Number of STORE Instructions: 2304532
Number of STORE Instructions (ROI): 2304532
Total Destination Memory Operands: 3186145
Total Destination Memory Operands (ROI): 3186145
Total Source Memory Operands: 62953883
Total Source Memory Operands (ROI): 62953883
Number of DEPENDED LOADS: 86644
Number of DEPENDED LOADS (ROI): 86644
Number of SQ_ADDED: 3186143
Number of SQ_ADDED (ROI): 3186143
Number of LQ_ADDED: 65695668
Number of LQ_ADDED (ROI): 65695668
Number of Instructions read from trace: 200000258

ChampSim completed all CPUs

Region of Interest Statistics

CPU 0 cumulative IPC: 0.431222 instructions: 100000002 cycles: 231898934
ITLB TOTAL     ACCESS:   29353999  HIT:   29345714  MISS:       8285
ITLB LOAD      ACCESS:   29353999  HIT:   29345714  MISS:       8285
ITLB RFO       ACCESS:          0  HIT:          0  MISS:          0
ITLB PREFETCH  ACCESS:          0  HIT:          0  MISS:          0
ITLB WRITEBACK ACCESS:          0  HIT:          0  MISS:          0
ITLB PREFETCH  REQUESTED:          0  ISSUED:          0  USEFUL:          0  USELESS:          0
ITLB TOTAL MSHR MERGED:      11997
ITLB LOAD MSHR MERGED:      11997
ITLB RFO MSHR MERGED:          0
ITLB PREFETCH MSHR MERGED:          0
ITLB WRITEBACK MSHR MERGED:          0
ITLB TOTAL ACCESSES:   29365996 HITS:   29345714 MISSES:      20282
ITLB LOAD ACCESSES:   29365996 HITS:   29345714 MISSES:      20282
ITLB RFO ACCESSES:          0 HITS:          0 MISSES:          0
ITLB PREFETCH ACCESSES:          0 HITS:          0 MISSES:          0
ITLB WRITEBACK ACCESSES:          0 HITS:          0 MISSES:          0
ITLB RQ ACCESS:  100000002
ITLB RQ TO_CACHE:   29365996
ITLB RQ MERGED:   70634006
ITLB RQ FORWARD:          0
ITLB WQ ACCESS:          0
ITLB WQ TO_CACHE:          0
ITLB WQ MERGED:          0
ITLB WQ FORWARD:          0
DTLB TOTAL     ACCESS:   27046530  HIT:   26806850  MISS:     239680
DTLB LOAD      ACCESS:   25377556  HIT:   25139666  MISS:     237890
DTLB RFO       ACCESS:    1668974  HIT:    1667184  MISS:       1790
DTLB PREFETCH  ACCESS:          0  HIT:          0  MISS:          0
DTLB WRITEBACK ACCESS:          0  HIT:          0  MISS:          0
DTLB PREFETCH  REQUESTED:          0  ISSUED:          0  USEFUL:          0  USELESS:          0
DTLB TOTAL MSHR MERGED:     121810
DTLB LOAD MSHR MERGED:     120899
DTLB RFO MSHR MERGED:        911
DTLB PREFETCH MSHR MERGED:          0
DTLB WRITEBACK MSHR MERGED:          0
DTLB TOTAL ACCESSES:   27168340 HITS:   26806850 MISSES:     361490
DTLB LOAD ACCESSES:   25498455 HITS:   25139666 MISSES:     358789
DTLB RFO ACCESSES:    1669885 HITS:    1667184 MISSES:       2701
DTLB PREFETCH ACCESSES:          0 HITS:          0 MISSES:          0
DTLB WRITEBACK ACCESSES:          0 HITS:          0 MISSES:          0
DTLB RQ ACCESS:   33215153
DTLB RQ TO_CACHE:   27168340
DTLB RQ MERGED:    6046813
DTLB RQ FORWARD:          0
DTLB WQ ACCESS:          0
DTLB WQ TO_CACHE:          0
DTLB WQ MERGED:          0
DTLB WQ FORWARD:          0
L1D TOTAL     ACCESS:   31712011  HIT:   28210774  MISS:    3501237
L1D LOAD      ACCESS:   18074176  HIT:   15832655  MISS:    2241521
L1D RFO       ACCESS:    1766435  HIT:    1748115  MISS:      18320
L1D PREFETCH  ACCESS:   11871400  HIT:   10630004  MISS:    1241396
L1D WRITEBACK ACCESS:          0  HIT:          0  MISS:          0
L1D PREFETCH  REQUESTED:   18814896  ISSUED:   18639185  USEFUL:     402610  USELESS:     838787
L1D TOTAL MSHR MERGED:    2939632
L1D LOAD MSHR MERGED:    1403740
L1D RFO MSHR MERGED:      26415
L1D PREFETCH MSHR MERGED:    1509477
L1D WRITEBACK MSHR MERGED:          0
L1D TOTAL ACCESSES:   34651670 HITS:   28210800 MISSES:    6440870
L1D LOAD ACCESSES:   18814896 HITS:   15832655 MISSES:    2982241
L1D RFO ACCESSES:    1792527 HITS:    1748115 MISSES:      44412
L1D PREFETCH ACCESSES:   14044247 HITS:   10630030 MISSES:    3414217
L1D WRITEBACK ACCESSES:          0 HITS:          0 MISSES:          0
L1D RQ ACCESS:   31419089
L1D RQ TO_CACHE:   18814898
L1D RQ MERGED:   12604191
L1D RQ FORWARD:          0
L1D WQ ACCESS:    1796066
L1D WQ TO_CACHE:    1792527
L1D WQ MERGED:       3539
L1D WQ FORWARD:         26
L1I TOTAL     ACCESS:   35979609  HIT:   35839781  MISS:     139828
L1I LOAD      ACCESS:   35979609  HIT:   35839781  MISS:     139828
L1I RFO       ACCESS:          0  HIT:          0  MISS:          0
L1I PREFETCH  ACCESS:          0  HIT:          0  MISS:          0
L1I WRITEBACK ACCESS:          0  HIT:          0  MISS:          0
L1I PREFETCH  REQUESTED:          0  ISSUED:          0  USEFUL:          0  USELESS:          0
L1I TOTAL MSHR MERGED:     122316
L1I LOAD MSHR MERGED:     122316
L1I RFO MSHR MERGED:          0
L1I PREFETCH MSHR MERGED:          0
L1I WRITEBACK MSHR MERGED:          0
L1I TOTAL ACCESSES:   36101925 HITS:   35839781 MISSES:     262144
L1I LOAD ACCESSES:   36101925 HITS:   35839781 MISSES:     262144
L1I RFO ACCESSES:          0 HITS:          0 MISSES:          0
L1I PREFETCH ACCESSES:          0 HITS:          0 MISSES:          0
L1I WRITEBACK ACCESSES:          0 HITS:          0 MISSES:          0
L1I RQ ACCESS:  100000003
L1I RQ TO_CACHE:   36101925
L1I RQ MERGED:   63898078
L1I RQ FORWARD:          0
L1I WQ ACCESS:          0
L1I WQ TO_CACHE:          0
L1I WQ MERGED:          0
L1I WQ FORWARD:          0
L2C TOTAL     ACCESS:    3890280  HIT:     423203  MISS:    3467077
L2C LOAD      ACCESS:    1718300  HIT:     201194  MISS:    1517106
L2C RFO       ACCESS:      17989  HIT:      11760  MISS:       6229
L2C PREFETCH  ACCESS:    2094492  HIT:     151277  MISS:    1943215
L2C WRITEBACK ACCESS:      59499  HIT:      58972  MISS:        527
L2C PREFETCH  REQUESTED:     190488  ISSUED:     190488  USEFUL:      51852  USELESS:    1891005
L2C TOTAL MSHR MERGED:        200
L2C LOAD MSHR MERGED:         48
L2C RFO MSHR MERGED:          0
L2C PREFETCH MSHR MERGED:        152
L2C WRITEBACK MSHR MERGED:          0
L2C TOTAL ACCESSES:    3890829 HITS:     423254 MISSES:    3467575
L2C LOAD ACCESSES:    1718329 HITS:     201223 MISSES:    1517106
L2C RFO ACCESSES:      17997 HITS:      11768 MISSES:       6229
L2C PREFETCH ACCESSES:    2095004 HITS:     151291 MISSES:    1943713
L2C WRITEBACK ACCESSES:      59499 HITS:      58972 MISSES:        527
L2C RQ ACCESS:    1736326
L2C RQ TO_CACHE:    1736289
L2C RQ MERGED:          0
L2C RQ FORWARD:          0
L2C WQ ACCESS:      59499
L2C WQ TO_CACHE:      59499
L2C WQ MERGED:          0
L2C WQ FORWARD:         51
LLC TOTAL     ACCESS:    3487560  HIT:    1136115  MISS:    2351445
LLC LOAD      ACCESS:    1517058  HIT:     859690  MISS:     657368
LLC RFO       ACCESS:       6229  HIT:       4435  MISS:       1794
LLC PREFETCH  ACCESS:    1943561  HIT:     253340  MISS:    1690221
LLC WRITEBACK ACCESS:      20712  HIT:      18650  MISS:       2062
LLC PREFETCH  REQUESTED:          0  ISSUED:          0  USEFUL:        406  USELESS:    1689656
LLC TOTAL MSHR MERGED:          0
LLC LOAD MSHR MERGED:          0
LLC RFO MSHR MERGED:          0
LLC PREFETCH MSHR MERGED:          0
LLC WRITEBACK MSHR MERGED:          0
LLC TOTAL ACCESSES:    3487560 HITS:    1136115 MISSES:    2351445
LLC LOAD ACCESSES:    1517058 HITS:     859690 MISSES:     657368
LLC RFO ACCESSES:       6229 HITS:       4435 MISSES:       1794
LLC PREFETCH ACCESSES:    1943561 HITS:     253340 MISSES:    1690221
LLC WRITEBACK ACCESSES:      20712 HITS:      18650 MISSES:       2062
LLC 0 RQ ACCESS:    1523287
LLC 0 RQ TO_CACHE:    1523287
LLC 0 RQ MERGED:          0
LLC 0 RQ FORWARD:          0
LLC WQ ACCESS:      20712
LLC WQ TO_CACHE:      20712
LLC WQ MERGED:          0
LLC WQ FORWARD:          0
Major fault: 0 Minor fault: 5799
CPU 0 L1D next line prefetcher final stats
CPU 0 L2C PC-based stride prefetcher final stats
All Misses: 4520562
All Hits: 2186519
SD Algo Stats - Switches: 0 SRR-Repls: 1000290 BRR-Repls: 0

DRAM Statistics
 CHANNEL 0
 RQ ROW_BUFFER_HIT:    1752265  ROW_BUFFER_MISS:     596612
 DBUS_CONGESTED:    1076018
 WQ ROW_BUFFER_HIT:        185  ROW_BUFFER_MISS:       4426  FULL:          0

 AVG_CONGESTED_CYCLE: 12
LOADS RETIRED: 31473262
INSTR RETIRED: 100000000
