
*** ChampSim Multicore Out-of-Order Simulator ***

Warmup Instructions: 100000000
Simulation Instructions: 100000000
Number of CPUs: 1
LLC sets: 2048
LLC ways: 16
Clean RRIP Policies: 303020203030202 Dirty RRIP Policies: 303020203030202 PSEL Width: 10 Track Set: 4294967295 PSEL Mask: 1 Demote Mask: 4044404440444044DS Algo: 0Window size: 0
Off-chip DRAM Size: 4096 MB Channels: 1 Width: 64-bit Data Rate: 1600 MT/s

CPU 0 runs /mnt/beegfs/iconst01/spec2017/Xz.trace.gz
NOT SORTED
TRACE STRING: /mnt/beegfs/iconst01/spec2017/Xz.trace.gz
SORTED
TRACE STRING: /mnt/beegfs/iconst01/spec2017/Xz.trace.gz
INITIAL
TRACE STRING: /mnt/beegfs/iconst01/spec2017/Xz.trace.gz

champsim_seed used: 210

CPU 0 L1D next line prefetcher
CPU 0 L2C IP-based stride prefetcher
Initialize DRRIP state
Assign rand_sets[0]: 454  LLC: 2048
rand_sets[0]: 454
Assign rand_sets[1]: 1662  LLC: 2048
rand_sets[1]: 1662
Assign rand_sets[2]: 1921  LLC: 2048
rand_sets[2]: 1921
Assign rand_sets[3]: 1131  LLC: 2048
rand_sets[3]: 1131
Assign rand_sets[4]: 331  LLC: 2048
rand_sets[4]: 331
Assign rand_sets[5]: 1531  LLC: 2048
rand_sets[5]: 1531
Assign rand_sets[6]: 482  LLC: 2048
rand_sets[6]: 482
Assign rand_sets[7]: 1275  LLC: 2048
rand_sets[7]: 1275
Assign rand_sets[8]: 1876  LLC: 2048
rand_sets[8]: 1876
Assign rand_sets[9]: 2038  LLC: 2048
rand_sets[9]: 2038
Assign rand_sets[10]: 701  LLC: 2048
rand_sets[10]: 701
Assign rand_sets[11]: 479  LLC: 2048
rand_sets[11]: 479
Assign rand_sets[12]: 892  LLC: 2048
rand_sets[12]: 892
Assign rand_sets[13]: 1820  LLC: 2048
rand_sets[13]: 1820
Assign rand_sets[14]: 1505  LLC: 2048
rand_sets[14]: 1505
Assign rand_sets[15]: 1159  LLC: 2048
rand_sets[15]: 1159
Assign rand_sets[16]: 513  LLC: 2048
rand_sets[16]: 513
Assign rand_sets[17]: 703  LLC: 2048
rand_sets[17]: 703
Assign rand_sets[18]: 561  LLC: 2048
rand_sets[18]: 561
Assign rand_sets[19]: 990  LLC: 2048
rand_sets[19]: 990
Assign rand_sets[20]: 342  LLC: 2048
rand_sets[20]: 342
Assign rand_sets[21]: 882  LLC: 2048
rand_sets[21]: 882
Assign rand_sets[22]: 15  LLC: 2048
rand_sets[22]: 15
Assign rand_sets[23]: 71  LLC: 2048
rand_sets[23]: 71
Assign rand_sets[24]: 1127  LLC: 2048
rand_sets[24]: 1127
Assign rand_sets[25]: 1382  LLC: 2048
rand_sets[25]: 1382
Assign rand_sets[26]: 647  LLC: 2048
rand_sets[26]: 647
Assign rand_sets[27]: 857  LLC: 2048
rand_sets[27]: 857
Assign rand_sets[28]: 1450  LLC: 2048
rand_sets[28]: 1450
Assign rand_sets[29]: 1160  LLC: 2048
rand_sets[29]: 1160
Assign rand_sets[30]: 1852  LLC: 2048
rand_sets[30]: 1852
Assign rand_sets[31]: 1881  LLC: 2048
rand_sets[31]: 1881
Assign rand_sets[32]: 1770  LLC: 2048
rand_sets[32]: 1770
Assign rand_sets[33]: 1622  LLC: 2048
rand_sets[33]: 1622
Assign rand_sets[34]: 275  LLC: 2048
rand_sets[34]: 275
Assign rand_sets[35]: 635  LLC: 2048
rand_sets[35]: 635
Assign rand_sets[36]: 466  LLC: 2048
rand_sets[36]: 466
Assign rand_sets[37]: 1413  LLC: 2048
rand_sets[37]: 1413
Assign rand_sets[38]: 417  LLC: 2048
rand_sets[38]: 417
Assign rand_sets[39]: 472  LLC: 2048
rand_sets[39]: 472
Assign rand_sets[40]: 1340  LLC: 2048
rand_sets[40]: 1340
Assign rand_sets[41]: 852  LLC: 2048
rand_sets[41]: 852
Assign rand_sets[42]: 1365  LLC: 2048
rand_sets[42]: 1365
Assign rand_sets[43]: 47  LLC: 2048
rand_sets[43]: 47
Assign rand_sets[44]: 823  LLC: 2048
rand_sets[44]: 823
Assign rand_sets[45]: 686  LLC: 2048
rand_sets[45]: 686
Assign rand_sets[46]: 1637  LLC: 2048
rand_sets[46]: 1637
Assign rand_sets[47]: 1115  LLC: 2048
rand_sets[47]: 1115
Assign rand_sets[48]: 986  LLC: 2048
rand_sets[48]: 986
Assign rand_sets[49]: 258  LLC: 2048
rand_sets[49]: 258
Assign rand_sets[50]: 633  LLC: 2048
rand_sets[50]: 633
Assign rand_sets[51]: 920  LLC: 2048
rand_sets[51]: 920
Assign rand_sets[52]: 204  LLC: 2048
rand_sets[52]: 204
Assign rand_sets[53]: 227  LLC: 2048
rand_sets[53]: 227
Assign rand_sets[54]: 1818  LLC: 2048
rand_sets[54]: 1818
Assign rand_sets[55]: 886  LLC: 2048
rand_sets[55]: 886
Assign rand_sets[56]: 1422  LLC: 2048
rand_sets[56]: 1422
Assign rand_sets[57]: 607  LLC: 2048
rand_sets[57]: 607
Assign rand_sets[58]: 217  LLC: 2048
rand_sets[58]: 217
Assign rand_sets[59]: 1945  LLC: 2048
rand_sets[59]: 1945
Assign rand_sets[60]: 143  LLC: 2048
rand_sets[60]: 143
Assign rand_sets[61]: 1311  LLC: 2048
rand_sets[61]: 1311
Assign rand_sets[62]: 319  LLC: 2048
rand_sets[62]: 319
Assign rand_sets[63]: 1846  LLC: 2048
rand_sets[63]: 1846
 CLEAN-RRIP-POLICY-1: 0-3-0-3-0-2-0-2- CLEAN-RRIP-POLICY-2: 0-3-0-3-0-2-0-2-
 DIRTY-RRIP-POLICY-1: 0-3-0-3-0-2-0-2- DIRTY-RRIP-POLICY-2: 0-3-0-3-0-2-0-2-
 PSEL width: 10
Heartbeat CPU 0 instructions: 10000000 cycles: 4305294 heartbeat IPC: 2.32272 cumulative IPC: 2.32272 (Simulation time: 0 hr 0 min 11 sec) 
Heartbeat CPU 0 instructions: 20000000 cycles: 8617172 heartbeat IPC: 2.31918 cumulative IPC: 2.32095 (Simulation time: 0 hr 0 min 23 sec) 
Heartbeat CPU 0 instructions: 30000003 cycles: 13161064 heartbeat IPC: 2.20076 cumulative IPC: 2.27945 (Simulation time: 0 hr 0 min 36 sec) 
Heartbeat CPU 0 instructions: 40000000 cycles: 17515574 heartbeat IPC: 2.29647 cumulative IPC: 2.28368 (Simulation time: 0 hr 0 min 48 sec) 
Heartbeat CPU 0 instructions: 50000001 cycles: 21878406 heartbeat IPC: 2.29209 cumulative IPC: 2.28536 (Simulation time: 0 hr 1 min 0 sec) 
Heartbeat CPU 0 instructions: 60000000 cycles: 26178657 heartbeat IPC: 2.32545 cumulative IPC: 2.29194 (Simulation time: 0 hr 1 min 11 sec) 
Heartbeat CPU 0 instructions: 70000001 cycles: 30244563 heartbeat IPC: 2.45948 cumulative IPC: 2.31447 (Simulation time: 0 hr 1 min 22 sec) 
Heartbeat CPU 0 instructions: 80000000 cycles: 34523403 heartbeat IPC: 2.33708 cumulative IPC: 2.31727 (Simulation time: 0 hr 1 min 33 sec) 
Heartbeat CPU 0 instructions: 90000001 cycles: 38740033 heartbeat IPC: 2.37156 cumulative IPC: 2.32318 (Simulation time: 0 hr 1 min 45 sec) 
Heartbeat CPU 0 instructions: 100000000 cycles: 42980427 heartbeat IPC: 2.35827 cumulative IPC: 2.32664 (Simulation time: 0 hr 1 min 56 sec) 

Warmup complete CPU 0 instructions: 100000001 cycles: 42980428 (Simulation time: 0 hr 1 min 56 sec) 

Heartbeat CPU 0 instructions: 110000000 cycles: 53102909 heartbeat IPC: 0.9879 cumulative IPC: 0.9879 (Simulation time: 0 hr 2 min 13 sec) 
Heartbeat CPU 0 instructions: 120000000 cycles: 63713729 heartbeat IPC: 0.942434 cumulative IPC: 0.964632 (Simulation time: 0 hr 2 min 30 sec) 
Heartbeat CPU 0 instructions: 130000001 cycles: 74290882 heartbeat IPC: 0.945434 cumulative IPC: 0.958146 (Simulation time: 0 hr 2 min 47 sec) 
Heartbeat CPU 0 instructions: 140000000 cycles: 83978247 heartbeat IPC: 1.03227 cumulative IPC: 0.975662 (Simulation time: 0 hr 3 min 4 sec) 
Heartbeat CPU 0 instructions: 150000001 cycles: 94278330 heartbeat IPC: 0.970866 cumulative IPC: 0.974699 (Simulation time: 0 hr 3 min 21 sec) 
Heartbeat CPU 0 instructions: 160000000 cycles: 104314326 heartbeat IPC: 0.996413 cumulative IPC: 0.978252 (Simulation time: 0 hr 3 min 38 sec) 
Heartbeat CPU 0 instructions: 170000000 cycles: 113974207 heartbeat IPC: 1.03521 cumulative IPC: 0.986002 (Simulation time: 0 hr 3 min 55 sec) 
Heartbeat CPU 0 instructions: 180000000 cycles: 124502951 heartbeat IPC: 0.949781 cumulative IPC: 0.981324 (Simulation time: 0 hr 4 min 12 sec) 
Heartbeat CPU 0 instructions: 190000001 cycles: 134740983 heartbeat IPC: 0.97675 cumulative IPC: 0.980814 (Simulation time: 0 hr 4 min 29 sec) 
Heartbeat CPU 0 instructions: 200000000 cycles: 145296024 heartbeat IPC: 0.947415 cumulative IPC: 0.977368 (Simulation time: 0 hr 4 min 46 sec) 
Finished CPU 0 instructions: 100000000 cycles: 102315604 cumulative IPC: 0.977368 (Simulation time: 0 hr 4 min 46 sec) 

CPU 0 Branch Prediction Accuracy: 93.7407% MPKI: 9.31631
Number of Branches: 14883860 Number of Mispredictions: 931631
Number of LOAD Instructions: 47857773
Number of LOAD Instructions (ROI): 47857773
Number of STORE Instructions: 12946642
Number of STORE Instructions (ROI): 12946642
Total Destination Memory Operands: 14358284
Total Destination Memory Operands (ROI): 14358284
Total Source Memory Operands: 47857773
Total Source Memory Operands (ROI): 47857773
Number of DEPENDED LOADS: 3144532
Number of DEPENDED LOADS (ROI): 3144532
Number of SQ_ADDED: 14358280
Number of SQ_ADDED (ROI): 14358280
Number of LQ_ADDED: 56944562
Number of LQ_ADDED (ROI): 56944562
Number of Instructions read from trace: 200000038

ChampSim completed all CPUs

Region of Interest Statistics

CPU 0 cumulative IPC: 0.977368 instructions: 100000000 cycles: 102315604
ITLB TOTAL     ACCESS:   15472286  HIT:   15472286  MISS:          0
ITLB LOAD      ACCESS:   15472286  HIT:   15472286  MISS:          0
ITLB RFO       ACCESS:          0  HIT:          0  MISS:          0
ITLB PREFETCH  ACCESS:          0  HIT:          0  MISS:          0
ITLB WRITEBACK ACCESS:          0  HIT:          0  MISS:          0
ITLB PREFETCH  REQUESTED:          0  ISSUED:          0  USEFUL:          0  USELESS:          0
ITLB TOTAL MSHR MERGED:          0
ITLB LOAD MSHR MERGED:          0
ITLB RFO MSHR MERGED:          0
ITLB PREFETCH MSHR MERGED:          0
ITLB WRITEBACK MSHR MERGED:          0
ITLB TOTAL ACCESSES:   15472286 HITS:   15472286 MISSES:          0
ITLB LOAD ACCESSES:   15472286 HITS:   15472286 MISSES:          0
ITLB RFO ACCESSES:          0 HITS:          0 MISSES:          0
ITLB PREFETCH ACCESSES:          0 HITS:          0 MISSES:          0
ITLB WRITEBACK ACCESSES:          0 HITS:          0 MISSES:          0
ITLB RQ ACCESS:  100000031
ITLB RQ TO_CACHE:   15472286
ITLB RQ MERGED:   84527745
ITLB RQ FORWARD:          0
ITLB WQ ACCESS:          0
ITLB WQ TO_CACHE:          0
ITLB WQ MERGED:          0
ITLB WQ FORWARD:          0
DTLB TOTAL     ACCESS:   19029585  HIT:   18911659  MISS:     117926
DTLB LOAD      ACCESS:   13949346  HIT:   13834914  MISS:     114432
DTLB RFO       ACCESS:    5080239  HIT:    5076745  MISS:       3494
DTLB PREFETCH  ACCESS:          0  HIT:          0  MISS:          0
DTLB WRITEBACK ACCESS:          0  HIT:          0  MISS:          0
DTLB PREFETCH  REQUESTED:          0  ISSUED:          0  USEFUL:          0  USELESS:          0
DTLB TOTAL MSHR MERGED:      10747
DTLB LOAD MSHR MERGED:       7665
DTLB RFO MSHR MERGED:       3082
DTLB PREFETCH MSHR MERGED:          0
DTLB WRITEBACK MSHR MERGED:          0
DTLB TOTAL ACCESSES:   19040332 HITS:   18911659 MISSES:     128673
DTLB LOAD ACCESSES:   13957011 HITS:   13834914 MISSES:     122097
DTLB RFO ACCESSES:    5083321 HITS:    5076745 MISSES:       6576
DTLB PREFETCH ACCESSES:          0 HITS:          0 MISSES:          0
DTLB WRITEBACK ACCESSES:          0 HITS:          0 MISSES:          0
DTLB RQ ACCESS:   29067179
DTLB RQ TO_CACHE:   19040332
DTLB RQ MERGED:   10026847
DTLB RQ FORWARD:          0
DTLB WQ ACCESS:          0
DTLB WQ TO_CACHE:          0
DTLB WQ MERGED:          0
DTLB WQ FORWARD:          0
L1D TOTAL     ACCESS:   32714503  HIT:   32131832  MISS:     582671
L1D LOAD      ACCESS:   14530466  HIT:   14278203  MISS:     252263
L1D RFO       ACCESS:    6638881  HIT:    6605024  MISS:      33857
L1D PREFETCH  ACCESS:   11545156  HIT:   11248605  MISS:     296551
L1D WRITEBACK ACCESS:          0  HIT:          0  MISS:          0
L1D PREFETCH  REQUESTED:   14545561  ISSUED:   14443948  USEFUL:      75284  USELESS:     221238
L1D TOTAL MSHR MERGED:      54562
L1D LOAD MSHR MERGED:      16548
L1D RFO MSHR MERGED:      20204
L1D PREFETCH MSHR MERGED:      17810
L1D WRITEBACK MSHR MERGED:          0
L1D TOTAL ACCESSES:   32801990 HITS:   32164757 MISSES:     637233
L1D LOAD ACCESSES:   14546137 HITS:   14278779 MISSES:     267358
L1D RFO ACCESSES:    6658886 HITS:    6605024 MISSES:      53862
L1D PREFETCH ACCESSES:   11596967 HITS:   11280954 MISSES:     316013
L1D WRITEBACK ACCESSES:          0 HITS:          0 MISSES:          0
L1D RQ ACCESS:   22286991
L1D RQ TO_CACHE:   14545561
L1D RQ MERGED:    7740854
L1D RQ FORWARD:          0
L1D WQ ACCESS:    6780185
L1D WQ TO_CACHE:    6658886
L1D WQ MERGED:     121299
L1D WQ FORWARD:      32925
L1I TOTAL     ACCESS:   19798278  HIT:   19798278  MISS:          0
L1I LOAD      ACCESS:   19798278  HIT:   19798278  MISS:          0
L1I RFO       ACCESS:          0  HIT:          0  MISS:          0
L1I PREFETCH  ACCESS:          0  HIT:          0  MISS:          0
L1I WRITEBACK ACCESS:          0  HIT:          0  MISS:          0
L1I PREFETCH  REQUESTED:          0  ISSUED:          0  USEFUL:          0  USELESS:          0
L1I TOTAL MSHR MERGED:          0
L1I LOAD MSHR MERGED:          0
L1I RFO MSHR MERGED:          0
L1I PREFETCH MSHR MERGED:          0
L1I WRITEBACK MSHR MERGED:          0
L1I TOTAL ACCESSES:   19798278 HITS:   19798278 MISSES:          0
L1I LOAD ACCESSES:   19798278 HITS:   19798278 MISSES:          0
L1I RFO ACCESSES:          0 HITS:          0 MISSES:          0
L1I PREFETCH ACCESSES:          0 HITS:          0 MISSES:          0
L1I WRITEBACK ACCESSES:          0 HITS:          0 MISSES:          0
L1I RQ ACCESS:  100000031
L1I RQ TO_CACHE:   19798278
L1I RQ MERGED:   80201753
L1I RQ FORWARD:          0
L1I WQ ACCESS:          0
L1I WQ TO_CACHE:          0
L1I WQ MERGED:          0
L1I WQ FORWARD:          0
L2C TOTAL     ACCESS:     834877  HIT:     562577  MISS:     272300
L2C LOAD      ACCESS:     250805  HIT:     134078  MISS:     116727
L2C RFO       ACCESS:      33655  HIT:      22279  MISS:      11376
L2C PREFETCH  ACCESS:     309495  HIT:     166070  MISS:     143425
L2C WRITEBACK ACCESS:     240922  HIT:     240150  MISS:        772
L2C PREFETCH  REQUESTED:      12473  ISSUED:      12473  USEFUL:      13563  USELESS:     129965
L2C TOTAL MSHR MERGED:         83
L2C LOAD MSHR MERGED:         22
L2C RFO MSHR MERGED:          0
L2C PREFETCH MSHR MERGED:         61
L2C WRITEBACK MSHR MERGED:          0
L2C TOTAL ACCESSES:     834986 HITS:     562589 MISSES:     272397
L2C LOAD ACCESSES:     250810 HITS:     134083 MISSES:     116727
L2C RFO ACCESSES:      33658 HITS:      22282 MISSES:      11376
L2C PREFETCH ACCESSES:     309596 HITS:     166074 MISSES:     143522
L2C WRITEBACK ACCESSES:     240922 HITS:     240150 MISSES:        772
L2C RQ ACCESS:     284468
L2C RQ TO_CACHE:     284460
L2C RQ MERGED:          0
L2C RQ FORWARD:          0
L2C WQ ACCESS:     240922
L2C WQ TO_CACHE:     240922
L2C WQ MERGED:          0
L2C WQ FORWARD:         12
LLC TOTAL     ACCESS:     397983  HIT:     328426  MISS:      69557
LLC LOAD      ACCESS:     116703  HIT:      94403  MISS:      22300
LLC RFO       ACCESS:      11376  HIT:       6043  MISS:       5333
LLC PREFETCH  ACCESS:     143457  HIT:     107767  MISS:      35690
LLC WRITEBACK ACCESS:     126447  HIT:     120213  MISS:       6234
LLC PREFETCH  REQUESTED:          0  ISSUED:          0  USEFUL:       1565  USELESS:      33697
LLC TOTAL MSHR MERGED:          1
LLC LOAD MSHR MERGED:          0
LLC RFO MSHR MERGED:          0
LLC PREFETCH MSHR MERGED:          1
LLC WRITEBACK MSHR MERGED:          0
LLC TOTAL ACCESSES:     397987 HITS:     328429 MISSES:      69558
LLC LOAD ACCESSES:     116705 HITS:      94405 MISSES:      22300
LLC RFO ACCESSES:      11376 HITS:       6043 MISSES:       5333
LLC PREFETCH ACCESSES:     143459 HITS:     107768 MISSES:      35691
LLC WRITEBACK ACCESSES:     126447 HITS:     120213 MISSES:       6234
LLC 0 RQ ACCESS:     128081
LLC 0 RQ TO_CACHE:     128079
LLC 0 RQ MERGED:          0
LLC 0 RQ FORWARD:          0
LLC WQ ACCESS:     126447
LLC WQ TO_CACHE:     126447
LLC WQ MERGED:          0
LLC WQ FORWARD:          3
Major fault: 0 Minor fault: 9188
CPU 0 L1D next line prefetcher final stats
CPU 0 L2C PC-based stride prefetcher final stats
All Misses: 184084
All Hits: 594918
SD Algo Stats - Switches: 0 SRR-Repls: 60707 BRR-Repls: 0

DRAM Statistics
 CHANNEL 0
 RQ ROW_BUFFER_HIT:       4563  ROW_BUFFER_MISS:      58681
 DBUS_CONGESTED:      45740
 WQ ROW_BUFFER_HIT:       1715  ROW_BUFFER_MISS:      26900  FULL:          0

 AVG_CONGESTED_CYCLE: 13
LOADS RETIRED: 23918140
INSTR RETIRED: 100000000
