
*** ChampSim Multicore Out-of-Order Simulator ***

Warmup Instructions: 100000000
Simulation Instructions: 500000000
Number of CPUs: 1
LLC sets: 2048
LLC ways: 16
Clean RRIP Policies: 303020203030202 Dirty RRIP Policies: 303020203030202 PSEL Width: 10 Track Set: 4294967295 PSEL Mask: 1 Demote Mask: 4044404440444044DS Algo: 0Window size: 0
Off-chip DRAM Size: 4096 MB Channels: 1 Width: 64-bit Data Rate: 1600 MT/s

CPU 0 runs /mnt/beegfs/iconst01/spec2017/Xz.trace.gz
NOT SORTED
TRACE STRING: /mnt/beegfs/iconst01/spec2017/Xz.trace.gz
SORTED
TRACE STRING: /mnt/beegfs/iconst01/spec2017/Xz.trace.gz
INITIAL
TRACE STRING: /mnt/beegfs/iconst01/spec2017/Xz.trace.gz

champsim_seed used: 210

CPU 0 L1D next line prefetcher
CPU 0 L2C IP-based stride prefetcher
Initialize DRRIP state
Assign rand_sets[0]: 454  LLC: 2048
rand_sets[0]: 454
Assign rand_sets[1]: 1662  LLC: 2048
rand_sets[1]: 1662
Assign rand_sets[2]: 1921  LLC: 2048
rand_sets[2]: 1921
Assign rand_sets[3]: 1131  LLC: 2048
rand_sets[3]: 1131
Assign rand_sets[4]: 331  LLC: 2048
rand_sets[4]: 331
Assign rand_sets[5]: 1531  LLC: 2048
rand_sets[5]: 1531
Assign rand_sets[6]: 482  LLC: 2048
rand_sets[6]: 482
Assign rand_sets[7]: 1275  LLC: 2048
rand_sets[7]: 1275
Assign rand_sets[8]: 1876  LLC: 2048
rand_sets[8]: 1876
Assign rand_sets[9]: 2038  LLC: 2048
rand_sets[9]: 2038
Assign rand_sets[10]: 701  LLC: 2048
rand_sets[10]: 701
Assign rand_sets[11]: 479  LLC: 2048
rand_sets[11]: 479
Assign rand_sets[12]: 892  LLC: 2048
rand_sets[12]: 892
Assign rand_sets[13]: 1820  LLC: 2048
rand_sets[13]: 1820
Assign rand_sets[14]: 1505  LLC: 2048
rand_sets[14]: 1505
Assign rand_sets[15]: 1159  LLC: 2048
rand_sets[15]: 1159
Assign rand_sets[16]: 513  LLC: 2048
rand_sets[16]: 513
Assign rand_sets[17]: 703  LLC: 2048
rand_sets[17]: 703
Assign rand_sets[18]: 561  LLC: 2048
rand_sets[18]: 561
Assign rand_sets[19]: 990  LLC: 2048
rand_sets[19]: 990
Assign rand_sets[20]: 342  LLC: 2048
rand_sets[20]: 342
Assign rand_sets[21]: 882  LLC: 2048
rand_sets[21]: 882
Assign rand_sets[22]: 15  LLC: 2048
rand_sets[22]: 15
Assign rand_sets[23]: 71  LLC: 2048
rand_sets[23]: 71
Assign rand_sets[24]: 1127  LLC: 2048
rand_sets[24]: 1127
Assign rand_sets[25]: 1382  LLC: 2048
rand_sets[25]: 1382
Assign rand_sets[26]: 647  LLC: 2048
rand_sets[26]: 647
Assign rand_sets[27]: 857  LLC: 2048
rand_sets[27]: 857
Assign rand_sets[28]: 1450  LLC: 2048
rand_sets[28]: 1450
Assign rand_sets[29]: 1160  LLC: 2048
rand_sets[29]: 1160
Assign rand_sets[30]: 1852  LLC: 2048
rand_sets[30]: 1852
Assign rand_sets[31]: 1881  LLC: 2048
rand_sets[31]: 1881
Assign rand_sets[32]: 1770  LLC: 2048
rand_sets[32]: 1770
Assign rand_sets[33]: 1622  LLC: 2048
rand_sets[33]: 1622
Assign rand_sets[34]: 275  LLC: 2048
rand_sets[34]: 275
Assign rand_sets[35]: 635  LLC: 2048
rand_sets[35]: 635
Assign rand_sets[36]: 466  LLC: 2048
rand_sets[36]: 466
Assign rand_sets[37]: 1413  LLC: 2048
rand_sets[37]: 1413
Assign rand_sets[38]: 417  LLC: 2048
rand_sets[38]: 417
Assign rand_sets[39]: 472  LLC: 2048
rand_sets[39]: 472
Assign rand_sets[40]: 1340  LLC: 2048
rand_sets[40]: 1340
Assign rand_sets[41]: 852  LLC: 2048
rand_sets[41]: 852
Assign rand_sets[42]: 1365  LLC: 2048
rand_sets[42]: 1365
Assign rand_sets[43]: 47  LLC: 2048
rand_sets[43]: 47
Assign rand_sets[44]: 823  LLC: 2048
rand_sets[44]: 823
Assign rand_sets[45]: 686  LLC: 2048
rand_sets[45]: 686
Assign rand_sets[46]: 1637  LLC: 2048
rand_sets[46]: 1637
Assign rand_sets[47]: 1115  LLC: 2048
rand_sets[47]: 1115
Assign rand_sets[48]: 986  LLC: 2048
rand_sets[48]: 986
Assign rand_sets[49]: 258  LLC: 2048
rand_sets[49]: 258
Assign rand_sets[50]: 633  LLC: 2048
rand_sets[50]: 633
Assign rand_sets[51]: 920  LLC: 2048
rand_sets[51]: 920
Assign rand_sets[52]: 204  LLC: 2048
rand_sets[52]: 204
Assign rand_sets[53]: 227  LLC: 2048
rand_sets[53]: 227
Assign rand_sets[54]: 1818  LLC: 2048
rand_sets[54]: 1818
Assign rand_sets[55]: 886  LLC: 2048
rand_sets[55]: 886
Assign rand_sets[56]: 1422  LLC: 2048
rand_sets[56]: 1422
Assign rand_sets[57]: 607  LLC: 2048
rand_sets[57]: 607
Assign rand_sets[58]: 217  LLC: 2048
rand_sets[58]: 217
Assign rand_sets[59]: 1945  LLC: 2048
rand_sets[59]: 1945
Assign rand_sets[60]: 143  LLC: 2048
rand_sets[60]: 143
Assign rand_sets[61]: 1311  LLC: 2048
rand_sets[61]: 1311
Assign rand_sets[62]: 319  LLC: 2048
rand_sets[62]: 319
Assign rand_sets[63]: 1846  LLC: 2048
rand_sets[63]: 1846
 CLEAN-RRIP-POLICY-1: 0-3-0-3-0-2-0-2- CLEAN-RRIP-POLICY-2: 0-3-0-3-0-2-0-2-
 DIRTY-RRIP-POLICY-1: 0-3-0-3-0-2-0-2- DIRTY-RRIP-POLICY-2: 0-3-0-3-0-2-0-2-
 PSEL width: 10
Heartbeat CPU 0 instructions: 10000000 cycles: 4305294 heartbeat IPC: 2.32272 cumulative IPC: 2.32272 (Simulation time: 0 hr 0 min 11 sec) 
Heartbeat CPU 0 instructions: 20000000 cycles: 8617172 heartbeat IPC: 2.31918 cumulative IPC: 2.32095 (Simulation time: 0 hr 0 min 22 sec) 
Heartbeat CPU 0 instructions: 30000003 cycles: 13161064 heartbeat IPC: 2.20076 cumulative IPC: 2.27945 (Simulation time: 0 hr 0 min 34 sec) 
Heartbeat CPU 0 instructions: 40000000 cycles: 17515574 heartbeat IPC: 2.29647 cumulative IPC: 2.28368 (Simulation time: 0 hr 0 min 45 sec) 
Heartbeat CPU 0 instructions: 50000001 cycles: 21878406 heartbeat IPC: 2.29209 cumulative IPC: 2.28536 (Simulation time: 0 hr 0 min 56 sec) 
Heartbeat CPU 0 instructions: 60000000 cycles: 26178657 heartbeat IPC: 2.32545 cumulative IPC: 2.29194 (Simulation time: 0 hr 1 min 7 sec) 
Heartbeat CPU 0 instructions: 70000001 cycles: 30244563 heartbeat IPC: 2.45948 cumulative IPC: 2.31447 (Simulation time: 0 hr 1 min 17 sec) 
Heartbeat CPU 0 instructions: 80000000 cycles: 34523403 heartbeat IPC: 2.33708 cumulative IPC: 2.31727 (Simulation time: 0 hr 1 min 27 sec) 
Heartbeat CPU 0 instructions: 90000001 cycles: 38740033 heartbeat IPC: 2.37156 cumulative IPC: 2.32318 (Simulation time: 0 hr 1 min 38 sec) 
Heartbeat CPU 0 instructions: 100000000 cycles: 42980427 heartbeat IPC: 2.35827 cumulative IPC: 2.32664 (Simulation time: 0 hr 1 min 48 sec) 

Warmup complete CPU 0 instructions: 100000001 cycles: 42980428 (Simulation time: 0 hr 1 min 48 sec) 

Heartbeat CPU 0 instructions: 110000000 cycles: 53102909 heartbeat IPC: 0.9879 cumulative IPC: 0.9879 (Simulation time: 0 hr 2 min 4 sec) 
Heartbeat CPU 0 instructions: 120000000 cycles: 63713729 heartbeat IPC: 0.942434 cumulative IPC: 0.964632 (Simulation time: 0 hr 2 min 21 sec) 
Heartbeat CPU 0 instructions: 130000001 cycles: 74290882 heartbeat IPC: 0.945434 cumulative IPC: 0.958146 (Simulation time: 0 hr 2 min 37 sec) 
Heartbeat CPU 0 instructions: 140000000 cycles: 83978247 heartbeat IPC: 1.03227 cumulative IPC: 0.975662 (Simulation time: 0 hr 2 min 52 sec) 
Heartbeat CPU 0 instructions: 150000001 cycles: 94278330 heartbeat IPC: 0.970866 cumulative IPC: 0.974699 (Simulation time: 0 hr 3 min 8 sec) 
Heartbeat CPU 0 instructions: 160000000 cycles: 104314326 heartbeat IPC: 0.996413 cumulative IPC: 0.978252 (Simulation time: 0 hr 3 min 24 sec) 
Heartbeat CPU 0 instructions: 170000000 cycles: 113974207 heartbeat IPC: 1.03521 cumulative IPC: 0.986002 (Simulation time: 0 hr 3 min 40 sec) 
Heartbeat CPU 0 instructions: 180000000 cycles: 124502951 heartbeat IPC: 0.949781 cumulative IPC: 0.981324 (Simulation time: 0 hr 3 min 56 sec) 
Heartbeat CPU 0 instructions: 190000001 cycles: 134740983 heartbeat IPC: 0.97675 cumulative IPC: 0.980814 (Simulation time: 0 hr 4 min 12 sec) 
Heartbeat CPU 0 instructions: 200000000 cycles: 145296024 heartbeat IPC: 0.947415 cumulative IPC: 0.977368 (Simulation time: 0 hr 4 min 28 sec) 
Heartbeat CPU 0 instructions: 210000002 cycles: 157758876 heartbeat IPC: 0.802385 cumulative IPC: 0.958368 (Simulation time: 0 hr 4 min 45 sec) 
Heartbeat CPU 0 instructions: 220000000 cycles: 170268259 heartbeat IPC: 0.7994 cumulative IPC: 0.942745 (Simulation time: 0 hr 5 min 2 sec) 
Heartbeat CPU 0 instructions: 230000000 cycles: 182397619 heartbeat IPC: 0.824446 cumulative IPC: 0.932453 (Simulation time: 0 hr 5 min 19 sec) 
Heartbeat CPU 0 instructions: 240000000 cycles: 194484742 heartbeat IPC: 0.827327 cumulative IPC: 0.924066 (Simulation time: 0 hr 5 min 36 sec) 
Heartbeat CPU 0 instructions: 250000000 cycles: 206412362 heartbeat IPC: 0.83839 cumulative IPC: 0.917813 (Simulation time: 0 hr 5 min 53 sec) 
Heartbeat CPU 0 instructions: 260000000 cycles: 217940618 heartbeat IPC: 0.867434 cumulative IPC: 0.914494 (Simulation time: 0 hr 6 min 10 sec) 
Heartbeat CPU 0 instructions: 270000003 cycles: 229773434 heartbeat IPC: 0.845108 cumulative IPC: 0.910098 (Simulation time: 0 hr 6 min 27 sec) 
Heartbeat CPU 0 instructions: 280000000 cycles: 241277144 heartbeat IPC: 0.869285 cumulative IPC: 0.907731 (Simulation time: 0 hr 6 min 44 sec) 
Heartbeat CPU 0 instructions: 290000002 cycles: 252753501 heartbeat IPC: 0.871357 cumulative IPC: 0.905741 (Simulation time: 0 hr 7 min 0 sec) 
Heartbeat CPU 0 instructions: 300000000 cycles: 265180468 heartbeat IPC: 0.804701 cumulative IPC: 0.90009 (Simulation time: 0 hr 7 min 17 sec) 
Heartbeat CPU 0 instructions: 310000000 cycles: 277297858 heartbeat IPC: 0.82526 cumulative IPC: 0.89622 (Simulation time: 0 hr 7 min 34 sec) 
Heartbeat CPU 0 instructions: 320000000 cycles: 289914812 heartbeat IPC: 0.792584 cumulative IPC: 0.890925 (Simulation time: 0 hr 7 min 52 sec) 
Heartbeat CPU 0 instructions: 330000003 cycles: 301814334 heartbeat IPC: 0.84037 cumulative IPC: 0.888601 (Simulation time: 0 hr 8 min 9 sec) 
Heartbeat CPU 0 instructions: 340000000 cycles: 313893067 heartbeat IPC: 0.827901 cumulative IPC: 0.885894 (Simulation time: 0 hr 8 min 25 sec) 
Heartbeat CPU 0 instructions: 350000001 cycles: 324866133 heartbeat IPC: 0.911322 cumulative IPC: 0.886884 (Simulation time: 0 hr 8 min 42 sec) 
Heartbeat CPU 0 instructions: 360000000 cycles: 336634969 heartbeat IPC: 0.849702 cumulative IPC: 0.885394 (Simulation time: 0 hr 8 min 59 sec) 
Heartbeat CPU 0 instructions: 370000001 cycles: 348054532 heartbeat IPC: 0.87569 cumulative IPC: 0.885031 (Simulation time: 0 hr 9 min 15 sec) 
Heartbeat CPU 0 instructions: 380000000 cycles: 359049465 heartbeat IPC: 0.90951 cumulative IPC: 0.885882 (Simulation time: 0 hr 9 min 32 sec) 
Heartbeat CPU 0 instructions: 390000003 cycles: 369658890 heartbeat IPC: 0.942558 cumulative IPC: 0.887723 (Simulation time: 0 hr 9 min 48 sec) 
Heartbeat CPU 0 instructions: 400000000 cycles: 379868737 heartbeat IPC: 0.979446 cumulative IPC: 0.890503 (Simulation time: 0 hr 10 min 5 sec) 
Heartbeat CPU 0 instructions: 410000000 cycles: 390360826 heartbeat IPC: 0.953099 cumulative IPC: 0.892393 (Simulation time: 0 hr 10 min 21 sec) 
Heartbeat CPU 0 instructions: 420000000 cycles: 399742679 heartbeat IPC: 1.06589 cumulative IPC: 0.896956 (Simulation time: 0 hr 10 min 37 sec) 
Heartbeat CPU 0 instructions: 430000002 cycles: 408832644 heartbeat IPC: 1.10011 cumulative IPC: 0.902004 (Simulation time: 0 hr 10 min 53 sec) 
Heartbeat CPU 0 instructions: 440000000 cycles: 419080320 heartbeat IPC: 0.975831 cumulative IPC: 0.904015 (Simulation time: 0 hr 11 min 9 sec) 
Heartbeat CPU 0 instructions: 450000002 cycles: 430144548 heartbeat IPC: 0.903814 cumulative IPC: 0.904009 (Simulation time: 0 hr 11 min 25 sec) 
Heartbeat CPU 0 instructions: 460000000 cycles: 441684161 heartbeat IPC: 0.86658 cumulative IPC: 0.902926 (Simulation time: 0 hr 11 min 42 sec) 
Heartbeat CPU 0 instructions: 470000003 cycles: 451872316 heartbeat IPC: 0.981532 cumulative IPC: 0.904885 (Simulation time: 0 hr 11 min 58 sec) 
Heartbeat CPU 0 instructions: 480000000 cycles: 462387914 heartbeat IPC: 0.950968 cumulative IPC: 0.90604 (Simulation time: 0 hr 12 min 14 sec) 
Heartbeat CPU 0 instructions: 490000000 cycles: 472329321 heartbeat IPC: 1.00589 cumulative IPC: 0.908352 (Simulation time: 0 hr 12 min 30 sec) 
Heartbeat CPU 0 instructions: 500000000 cycles: 484106360 heartbeat IPC: 0.84911 cumulative IPC: 0.906771 (Simulation time: 0 hr 12 min 47 sec) 
Heartbeat CPU 0 instructions: 510000002 cycles: 496534737 heartbeat IPC: 0.80461 cumulative IPC: 0.903971 (Simulation time: 0 hr 13 min 5 sec) 
Heartbeat CPU 0 instructions: 520000000 cycles: 508391725 heartbeat IPC: 0.843384 cumulative IPC: 0.902428 (Simulation time: 0 hr 13 min 22 sec) 
Heartbeat CPU 0 instructions: 530000001 cycles: 520224515 heartbeat IPC: 0.845109 cumulative IPC: 0.901006 (Simulation time: 0 hr 13 min 39 sec) 
Heartbeat CPU 0 instructions: 540000000 cycles: 531790697 heartbeat IPC: 0.864589 cumulative IPC: 0.900145 (Simulation time: 0 hr 13 min 55 sec) 
Heartbeat CPU 0 instructions: 550000001 cycles: 543137598 heartbeat IPC: 0.881298 cumulative IPC: 0.899717 (Simulation time: 0 hr 14 min 12 sec) 
Heartbeat CPU 0 instructions: 560000000 cycles: 554661314 heartbeat IPC: 0.867776 cumulative IPC: 0.898998 (Simulation time: 0 hr 14 min 29 sec) 
Heartbeat CPU 0 instructions: 570000000 cycles: 566042930 heartbeat IPC: 0.87861 cumulative IPC: 0.898554 (Simulation time: 0 hr 14 min 45 sec) 
Heartbeat CPU 0 instructions: 580000000 cycles: 576780360 heartbeat IPC: 0.931322 cumulative IPC: 0.899213 (Simulation time: 0 hr 15 min 2 sec) 
Heartbeat CPU 0 instructions: 590000003 cycles: 588161899 heartbeat IPC: 0.878616 cumulative IPC: 0.898783 (Simulation time: 0 hr 15 min 18 sec) 
Heartbeat CPU 0 instructions: 600000000 cycles: 598735123 heartbeat IPC: 0.945785 cumulative IPC: 0.899678 (Simulation time: 0 hr 15 min 34 sec) 
Finished CPU 0 instructions: 500000001 cycles: 555754703 cumulative IPC: 0.899678 (Simulation time: 0 hr 15 min 34 sec) 

CPU 0 Branch Prediction Accuracy: 93.0095% MPKI: 10.0046
Number of Branches: 71558147 Number of Mispredictions: 5002285
Number of LOAD Instructions: 145708893
Number of LOAD Instructions (ROI): 145708893
Number of STORE Instructions: 40463820
Number of STORE Instructions (ROI): 40463820
Total Destination Memory Operands: 45240498
Total Destination Memory Operands (ROI): 45240498
Total Source Memory Operands: 145708893
Total Source Memory Operands (ROI): 145708893
Number of DEPENDED LOADS: 10662958
Number of DEPENDED LOADS (ROI): 10662958
Number of SQ_ADDED: 45240498
Number of SQ_ADDED (ROI): 45240498
Number of LQ_ADDED: 193326583
Number of LQ_ADDED (ROI): 193326583
Number of Instructions read from trace: 600000002

ChampSim completed all CPUs

Region of Interest Statistics

CPU 0 cumulative IPC: 0.899678 instructions: 500000001 cycles: 555754703
ITLB TOTAL     ACCESS:   77992798  HIT:   77992797  MISS:          1
ITLB LOAD      ACCESS:   77992798  HIT:   77992797  MISS:          1
ITLB RFO       ACCESS:          0  HIT:          0  MISS:          0
ITLB PREFETCH  ACCESS:          0  HIT:          0  MISS:          0
ITLB WRITEBACK ACCESS:          0  HIT:          0  MISS:          0
ITLB PREFETCH  REQUESTED:          0  ISSUED:          0  USEFUL:          0  USELESS:          0
ITLB TOTAL MSHR MERGED:          0
ITLB LOAD MSHR MERGED:          0
ITLB RFO MSHR MERGED:          0
ITLB PREFETCH MSHR MERGED:          0
ITLB WRITEBACK MSHR MERGED:          0
ITLB TOTAL ACCESSES:   77992798 HITS:   77992797 MISSES:          1
ITLB LOAD ACCESSES:   77992798 HITS:   77992797 MISSES:          1
ITLB RFO ACCESSES:          0 HITS:          0 MISSES:          0
ITLB PREFETCH ACCESSES:          0 HITS:          0 MISSES:          0
ITLB WRITEBACK ACCESSES:          0 HITS:          0 MISSES:          0
ITLB RQ ACCESS:  499999995
ITLB RQ TO_CACHE:   77992798
ITLB RQ MERGED:  422007197
ITLB RQ FORWARD:          0
ITLB WQ ACCESS:          0
ITLB WQ TO_CACHE:          0
ITLB WQ MERGED:          0
ITLB WQ FORWARD:          0
DTLB TOTAL     ACCESS:   98671053  HIT:   97789717  MISS:     881336
DTLB LOAD      ACCESS:   70891650  HIT:   70030117  MISS:     861533
DTLB RFO       ACCESS:   27779403  HIT:   27759600  MISS:      19803
DTLB PREFETCH  ACCESS:          0  HIT:          0  MISS:          0
DTLB WRITEBACK ACCESS:          0  HIT:          0  MISS:          0
DTLB PREFETCH  REQUESTED:          0  ISSUED:          0  USEFUL:          0  USELESS:          0
DTLB TOTAL MSHR MERGED:      87363
DTLB LOAD MSHR MERGED:      65624
DTLB RFO MSHR MERGED:      21739
DTLB PREFETCH MSHR MERGED:          0
DTLB WRITEBACK MSHR MERGED:          0
DTLB TOTAL ACCESSES:   98758416 HITS:   97789717 MISSES:     968699
DTLB LOAD ACCESSES:   70957274 HITS:   70030117 MISSES:     927157
DTLB RFO ACCESSES:   27801142 HITS:   27759600 MISSES:      41542
DTLB PREFETCH ACCESSES:          0 HITS:          0 MISSES:          0
DTLB WRITEBACK ACCESSES:          0 HITS:          0 MISSES:          0
DTLB RQ ACCESS:  150282096
DTLB RQ TO_CACHE:   98758416
DTLB RQ MERGED:   51523680
DTLB RQ FORWARD:          0
DTLB WQ ACCESS:          0
DTLB WQ TO_CACHE:          0
DTLB WQ MERGED:          0
DTLB WQ FORWARD:          0
L1D TOTAL     ACCESS:  173349383  HIT:  169180761  MISS:    4168622
L1D LOAD      ACCESS:   75290448  HIT:   73409203  MISS:    1881245
L1D RFO       ACCESS:   36778700  HIT:   36572110  MISS:     206590
L1D PREFETCH  ACCESS:   61280235  HIT:   59199448  MISS:    2080787
L1D WRITEBACK ACCESS:          0  HIT:          0  MISS:          0
L1D PREFETCH  REQUESTED:   75394189  ISSUED:   74830016  USEFUL:     415238  USELESS:    1665538
L1D TOTAL MSHR MERGED:     372551
L1D LOAD MSHR MERGED:     112430
L1D RFO MSHR MERGED:     132755
L1D PREFETCH MSHR MERGED:     127366
L1D WRITEBACK MSHR MERGED:          0
L1D TOTAL ACCESSES:  173873278 HITS:  169332105 MISSES:    4541173
L1D LOAD ACCESSES:   75396893 HITS:   73411907 MISSES:    1984986
L1D RFO ACCESSES:   36910076 HITS:   36572110 MISSES:     337966
L1D PREFETCH ACCESSES:   61566309 HITS:   59348088 MISSES:    2218221
L1D WRITEBACK ACCESSES:          0 HITS:          0 MISSES:          0
L1D RQ ACCESS:  112619693
L1D RQ TO_CACHE:   75394189
L1D RQ MERGED:   37222800
L1D RQ FORWARD:          0
L1D WQ ACCESS:   37662403
L1D WQ TO_CACHE:   36910076
L1D WQ MERGED:     752327
L1D WQ FORWARD:     151344
L1I TOTAL     ACCESS:  100700787  HIT:  100700762  MISS:         25
L1I LOAD      ACCESS:  100700787  HIT:  100700762  MISS:         25
L1I RFO       ACCESS:          0  HIT:          0  MISS:          0
L1I PREFETCH  ACCESS:          0  HIT:          0  MISS:          0
L1I WRITEBACK ACCESS:          0  HIT:          0  MISS:          0
L1I PREFETCH  REQUESTED:          0  ISSUED:          0  USEFUL:          0  USELESS:          0
L1I TOTAL MSHR MERGED:         10
L1I LOAD MSHR MERGED:         10
L1I RFO MSHR MERGED:          0
L1I PREFETCH MSHR MERGED:          0
L1I WRITEBACK MSHR MERGED:          0
L1I TOTAL ACCESSES:  100700797 HITS:  100700762 MISSES:         35
L1I LOAD ACCESSES:  100700797 HITS:  100700762 MISSES:         35
L1I RFO ACCESSES:          0 HITS:          0 MISSES:          0
L1I PREFETCH ACCESSES:          0 HITS:          0 MISSES:          0
L1I WRITEBACK ACCESSES:          0 HITS:          0 MISSES:          0
L1I RQ ACCESS:  499999995
L1I RQ TO_CACHE:  100700797
L1I RQ MERGED:  399299198
L1I RQ FORWARD:          0
L1I WQ ACCESS:          0
L1I WQ TO_CACHE:          0
L1I WQ MERGED:          0
L1I WQ FORWARD:          0
L2C TOTAL     ACCESS:    5852602  HIT:    4009408  MISS:    1843194
L2C LOAD      ACCESS:    1872456  HIT:    1061508  MISS:     810948
L2C RFO       ACCESS:     205204  HIT:     100565  MISS:     104639
L2C PREFETCH  ACCESS:    2169306  HIT:    1246119  MISS:     923187
L2C WRITEBACK ACCESS:    1605636  HIT:    1601216  MISS:       4420
L2C PREFETCH  REQUESTED:      91705  ISSUED:      91705  USEFUL:      86457  USELESS:     836753
L2C TOTAL MSHR MERGED:        995
L2C LOAD MSHR MERGED:        252
L2C RFO MSHR MERGED:          0
L2C PREFETCH MSHR MERGED:        743
L2C WRITEBACK MSHR MERGED:          0
L2C TOTAL ACCESSES:    5853918 HITS:    4009577 MISSES:    1844341
L2C LOAD ACCESSES:    1872581 HITS:    1061633 MISSES:     810948
L2C RFO ACCESSES:     205211 HITS:     100572 MISSES:     104639
L2C PREFETCH ACCESSES:    2170490 HITS:    1246156 MISSES:     924334
L2C WRITEBACK ACCESSES:    1605636 HITS:    1601216 MISSES:       4420
L2C RQ ACCESS:    2077792
L2C RQ TO_CACHE:    2077660
L2C RQ MERGED:          0
L2C RQ FORWARD:          0
L2C WQ ACCESS:    1605636
L2C WQ TO_CACHE:    1605636
L2C WQ MERGED:          0
L2C WQ FORWARD:        169
LLC TOTAL     ACCESS:    2673575  HIT:    2173296  MISS:     500279
LLC LOAD      ACCESS:     810687  HIT:     641330  MISS:     169357
LLC RFO       ACCESS:     104639  HIT:      60818  MISS:      43821
LLC PREFETCH  ACCESS:     923573  HIT:     677043  MISS:     246530
LLC WRITEBACK ACCESS:     834676  HIT:     794105  MISS:      40571
LLC PREFETCH  REQUESTED:          0  ISSUED:          0  USEFUL:       8390  USELESS:     238257
LLC TOTAL MSHR MERGED:          7
LLC LOAD MSHR MERGED:          3
LLC RFO MSHR MERGED:          0
LLC PREFETCH MSHR MERGED:          4
LLC WRITEBACK MSHR MERGED:          0
LLC TOTAL ACCESSES:    2673593 HITS:    2173307 MISSES:     500286
LLC LOAD ACCESSES:     810696 HITS:     641339 MISSES:     169357
LLC RFO ACCESSES:     104639 HITS:      60818 MISSES:      43821
LLC PREFETCH ACCESSES:     923582 HITS:     677045 MISSES:     246537
LLC WRITEBACK ACCESSES:     834676 HITS:     794105 MISSES:      40571
LLC 0 RQ ACCESS:     915335
LLC 0 RQ TO_CACHE:     915326
LLC 0 RQ MERGED:          0
LLC 0 RQ FORWARD:          0
LLC WQ ACCESS:     834676
LLC WQ TO_CACHE:     834676
LLC WQ MERGED:          0
LLC WQ FORWARD:         11
Major fault: 0 Minor fault: 11278
CPU 0 L1D next line prefetcher final stats
CPU 0 L2C PC-based stride prefetcher final stats
All Misses: 614806
All Hits: 2439788
SD Algo Stats - Switches: 0 SRR-Repls: 203341 BRR-Repls: 0

DRAM Statistics
 CHANNEL 0
 RQ ROW_BUFFER_HIT:      29454  ROW_BUFFER_MISS:     429796
 DBUS_CONGESTED:     342145
 WQ ROW_BUFFER_HIT:      13159  ROW_BUFFER_MISS:     193552  FULL:          0

 AVG_CONGESTED_CYCLE: 13
LOADS RETIRED: 121769268
INSTR RETIRED: 500000000
