
*** ChampSim Multicore Out-of-Order Simulator ***

Warmup Instructions: 100000000
Simulation Instructions: 500000000
Number of CPUs: 1
LLC sets: 2048
LLC ways: 16
Clean RRIP Policies: 2213230222132302 Dirty RRIP Policies: 2203130222031302 PSEL Width: 10 Track Set: 4294967295 PSEL Mask: 1 Demote Mask: 3000100030001000DS Algo: 0Window size: 0
Off-chip DRAM Size: 4096 MB Channels: 1 Width: 64-bit Data Rate: 1600 MT/s

CPU 0 runs /mnt/beegfs/iconst01/spec2017/Xalancbmk.trace.gz
NOT SORTED
TRACE STRING: /mnt/beegfs/iconst01/spec2017/Xalancbmk.trace.gz
SORTED
TRACE STRING: /mnt/beegfs/iconst01/spec2017/Xalancbmk.trace.gz
INITIAL
TRACE STRING: /mnt/beegfs/iconst01/spec2017/Xalancbmk.trace.gz

champsim_seed used: 913

CPU 0 L1D next line prefetcher
CPU 0 L2C IP-based stride prefetcher
Initialize DRRIP state
Assign rand_sets[0]: 454  LLC: 2048
rand_sets[0]: 454
Assign rand_sets[1]: 1662  LLC: 2048
rand_sets[1]: 1662
Assign rand_sets[2]: 1921  LLC: 2048
rand_sets[2]: 1921
Assign rand_sets[3]: 1131  LLC: 2048
rand_sets[3]: 1131
Assign rand_sets[4]: 331  LLC: 2048
rand_sets[4]: 331
Assign rand_sets[5]: 1531  LLC: 2048
rand_sets[5]: 1531
Assign rand_sets[6]: 482  LLC: 2048
rand_sets[6]: 482
Assign rand_sets[7]: 1275  LLC: 2048
rand_sets[7]: 1275
Assign rand_sets[8]: 1876  LLC: 2048
rand_sets[8]: 1876
Assign rand_sets[9]: 2038  LLC: 2048
rand_sets[9]: 2038
Assign rand_sets[10]: 701  LLC: 2048
rand_sets[10]: 701
Assign rand_sets[11]: 479  LLC: 2048
rand_sets[11]: 479
Assign rand_sets[12]: 892  LLC: 2048
rand_sets[12]: 892
Assign rand_sets[13]: 1820  LLC: 2048
rand_sets[13]: 1820
Assign rand_sets[14]: 1505  LLC: 2048
rand_sets[14]: 1505
Assign rand_sets[15]: 1159  LLC: 2048
rand_sets[15]: 1159
Assign rand_sets[16]: 513  LLC: 2048
rand_sets[16]: 513
Assign rand_sets[17]: 703  LLC: 2048
rand_sets[17]: 703
Assign rand_sets[18]: 561  LLC: 2048
rand_sets[18]: 561
Assign rand_sets[19]: 990  LLC: 2048
rand_sets[19]: 990
Assign rand_sets[20]: 342  LLC: 2048
rand_sets[20]: 342
Assign rand_sets[21]: 882  LLC: 2048
rand_sets[21]: 882
Assign rand_sets[22]: 15  LLC: 2048
rand_sets[22]: 15
Assign rand_sets[23]: 71  LLC: 2048
rand_sets[23]: 71
Assign rand_sets[24]: 1127  LLC: 2048
rand_sets[24]: 1127
Assign rand_sets[25]: 1382  LLC: 2048
rand_sets[25]: 1382
Assign rand_sets[26]: 647  LLC: 2048
rand_sets[26]: 647
Assign rand_sets[27]: 857  LLC: 2048
rand_sets[27]: 857
Assign rand_sets[28]: 1450  LLC: 2048
rand_sets[28]: 1450
Assign rand_sets[29]: 1160  LLC: 2048
rand_sets[29]: 1160
Assign rand_sets[30]: 1852  LLC: 2048
rand_sets[30]: 1852
Assign rand_sets[31]: 1881  LLC: 2048
rand_sets[31]: 1881
Assign rand_sets[32]: 1770  LLC: 2048
rand_sets[32]: 1770
Assign rand_sets[33]: 1622  LLC: 2048
rand_sets[33]: 1622
Assign rand_sets[34]: 275  LLC: 2048
rand_sets[34]: 275
Assign rand_sets[35]: 635  LLC: 2048
rand_sets[35]: 635
Assign rand_sets[36]: 466  LLC: 2048
rand_sets[36]: 466
Assign rand_sets[37]: 1413  LLC: 2048
rand_sets[37]: 1413
Assign rand_sets[38]: 417  LLC: 2048
rand_sets[38]: 417
Assign rand_sets[39]: 472  LLC: 2048
rand_sets[39]: 472
Assign rand_sets[40]: 1340  LLC: 2048
rand_sets[40]: 1340
Assign rand_sets[41]: 852  LLC: 2048
rand_sets[41]: 852
Assign rand_sets[42]: 1365  LLC: 2048
rand_sets[42]: 1365
Assign rand_sets[43]: 47  LLC: 2048
rand_sets[43]: 47
Assign rand_sets[44]: 823  LLC: 2048
rand_sets[44]: 823
Assign rand_sets[45]: 686  LLC: 2048
rand_sets[45]: 686
Assign rand_sets[46]: 1637  LLC: 2048
rand_sets[46]: 1637
Assign rand_sets[47]: 1115  LLC: 2048
rand_sets[47]: 1115
Assign rand_sets[48]: 986  LLC: 2048
rand_sets[48]: 986
Assign rand_sets[49]: 258  LLC: 2048
rand_sets[49]: 258
Assign rand_sets[50]: 633  LLC: 2048
rand_sets[50]: 633
Assign rand_sets[51]: 920  LLC: 2048
rand_sets[51]: 920
Assign rand_sets[52]: 204  LLC: 2048
rand_sets[52]: 204
Assign rand_sets[53]: 227  LLC: 2048
rand_sets[53]: 227
Assign rand_sets[54]: 1818  LLC: 2048
rand_sets[54]: 1818
Assign rand_sets[55]: 886  LLC: 2048
rand_sets[55]: 886
Assign rand_sets[56]: 1422  LLC: 2048
rand_sets[56]: 1422
Assign rand_sets[57]: 607  LLC: 2048
rand_sets[57]: 607
Assign rand_sets[58]: 217  LLC: 2048
rand_sets[58]: 217
Assign rand_sets[59]: 1945  LLC: 2048
rand_sets[59]: 1945
Assign rand_sets[60]: 143  LLC: 2048
rand_sets[60]: 143
Assign rand_sets[61]: 1311  LLC: 2048
rand_sets[61]: 1311
Assign rand_sets[62]: 319  LLC: 2048
rand_sets[62]: 319
Assign rand_sets[63]: 1846  LLC: 2048
rand_sets[63]: 1846
 CLEAN-RRIP-POLICY-1: 2-2-1-3-2-3-0-2- CLEAN-RRIP-POLICY-2: 2-2-1-3-2-3-0-2-
 DIRTY-RRIP-POLICY-1: 2-2-0-3-1-3-0-2- DIRTY-RRIP-POLICY-2: 2-2-0-3-1-3-0-2-
 PSEL width: 10
Heartbeat CPU 0 instructions: 10000003 cycles: 4592543 heartbeat IPC: 2.17744 cumulative IPC: 2.17744 (Simulation time: 0 hr 0 min 16 sec) 
Heartbeat CPU 0 instructions: 20000000 cycles: 8984819 heartbeat IPC: 2.27672 cumulative IPC: 2.22598 (Simulation time: 0 hr 0 min 30 sec) 
Heartbeat CPU 0 instructions: 30000000 cycles: 13393675 heartbeat IPC: 2.26816 cumulative IPC: 2.23986 (Simulation time: 0 hr 0 min 45 sec) 
Heartbeat CPU 0 instructions: 40000000 cycles: 18021935 heartbeat IPC: 2.16064 cumulative IPC: 2.21952 (Simulation time: 0 hr 1 min 1 sec) 
Heartbeat CPU 0 instructions: 50000002 cycles: 22438151 heartbeat IPC: 2.26438 cumulative IPC: 2.22835 (Simulation time: 0 hr 1 min 15 sec) 
Heartbeat CPU 0 instructions: 60000000 cycles: 27093547 heartbeat IPC: 2.14804 cumulative IPC: 2.21455 (Simulation time: 0 hr 1 min 32 sec) 
Heartbeat CPU 0 instructions: 70000003 cycles: 31498312 heartbeat IPC: 2.27027 cumulative IPC: 2.22234 (Simulation time: 0 hr 1 min 46 sec) 
Heartbeat CPU 0 instructions: 80000000 cycles: 35918713 heartbeat IPC: 2.26224 cumulative IPC: 2.22725 (Simulation time: 0 hr 2 min 1 sec) 
Heartbeat CPU 0 instructions: 90000002 cycles: 40373685 heartbeat IPC: 2.24468 cumulative IPC: 2.22917 (Simulation time: 0 hr 2 min 16 sec) 
Heartbeat CPU 0 instructions: 100000000 cycles: 44845137 heartbeat IPC: 2.23641 cumulative IPC: 2.2299 (Simulation time: 0 hr 2 min 31 sec) 

Warmup complete CPU 0 instructions: 100000003 cycles: 44845138 (Simulation time: 0 hr 2 min 31 sec) 

Heartbeat CPU 0 instructions: 110000000 cycles: 71865857 heartbeat IPC: 0.370086 cumulative IPC: 0.370086 (Simulation time: 0 hr 3 min 4 sec) 
Heartbeat CPU 0 instructions: 120000000 cycles: 100442776 heartbeat IPC: 0.349933 cumulative IPC: 0.359727 (Simulation time: 0 hr 3 min 38 sec) 
Heartbeat CPU 0 instructions: 130000000 cycles: 123840980 heartbeat IPC: 0.427383 cumulative IPC: 0.379767 (Simulation time: 0 hr 4 min 8 sec) 
Heartbeat CPU 0 instructions: 140000000 cycles: 146480320 heartbeat IPC: 0.441709 cumulative IPC: 0.393564 (Simulation time: 0 hr 4 min 38 sec) 
Heartbeat CPU 0 instructions: 150000000 cycles: 170881069 heartbeat IPC: 0.409823 cumulative IPC: 0.396712 (Simulation time: 0 hr 5 min 9 sec) 
Heartbeat CPU 0 instructions: 160000000 cycles: 195837257 heartbeat IPC: 0.400702 cumulative IPC: 0.397372 (Simulation time: 0 hr 5 min 40 sec) 
Heartbeat CPU 0 instructions: 170000002 cycles: 217200183 heartbeat IPC: 0.468101 cumulative IPC: 0.406138 (Simulation time: 0 hr 6 min 8 sec) 
Heartbeat CPU 0 instructions: 180000000 cycles: 239655988 heartbeat IPC: 0.445319 cumulative IPC: 0.410655 (Simulation time: 0 hr 6 min 38 sec) 
Heartbeat CPU 0 instructions: 190000000 cycles: 258605861 heartbeat IPC: 0.527708 cumulative IPC: 0.421032 (Simulation time: 0 hr 7 min 5 sec) 
Heartbeat CPU 0 instructions: 200000000 cycles: 279552635 heartbeat IPC: 0.4774 cumulative IPC: 0.426062 (Simulation time: 0 hr 7 min 33 sec) 
Heartbeat CPU 0 instructions: 210000001 cycles: 306010804 heartbeat IPC: 0.377955 cumulative IPC: 0.421189 (Simulation time: 0 hr 8 min 6 sec) 
Heartbeat CPU 0 instructions: 220000000 cycles: 331818700 heartbeat IPC: 0.387478 cumulative IPC: 0.418157 (Simulation time: 0 hr 8 min 37 sec) 
Heartbeat CPU 0 instructions: 230000000 cycles: 354130704 heartbeat IPC: 0.448189 cumulative IPC: 0.420324 (Simulation time: 0 hr 9 min 7 sec) 
Heartbeat CPU 0 instructions: 240000000 cycles: 379973472 heartbeat IPC: 0.386955 cumulative IPC: 0.41775 (Simulation time: 0 hr 9 min 39 sec) 
Heartbeat CPU 0 instructions: 250000001 cycles: 404938948 heartbeat IPC: 0.400553 cumulative IPC: 0.416558 (Simulation time: 0 hr 10 min 10 sec) 
Heartbeat CPU 0 instructions: 260000000 cycles: 425842125 heartbeat IPC: 0.478396 cumulative IPC: 0.419951 (Simulation time: 0 hr 10 min 39 sec) 
Heartbeat CPU 0 instructions: 270000000 cycles: 447359717 heartbeat IPC: 0.464736 cumulative IPC: 0.422345 (Simulation time: 0 hr 11 min 7 sec) 
Heartbeat CPU 0 instructions: 280000000 cycles: 475274295 heartbeat IPC: 0.358236 cumulative IPC: 0.418187 (Simulation time: 0 hr 11 min 41 sec) 
Heartbeat CPU 0 instructions: 290000000 cycles: 496375470 heartbeat IPC: 0.473907 cumulative IPC: 0.420791 (Simulation time: 0 hr 12 min 9 sec) 
Heartbeat CPU 0 instructions: 300000000 cycles: 516796122 heartbeat IPC: 0.4897 cumulative IPC: 0.423773 (Simulation time: 0 hr 12 min 37 sec) 
Heartbeat CPU 0 instructions: 310000000 cycles: 535935506 heartbeat IPC: 0.522483 cumulative IPC: 0.42762 (Simulation time: 0 hr 13 min 3 sec) 
Heartbeat CPU 0 instructions: 320000000 cycles: 565475153 heartbeat IPC: 0.338528 cumulative IPC: 0.422565 (Simulation time: 0 hr 13 min 38 sec) 
Heartbeat CPU 0 instructions: 330000001 cycles: 584890102 heartbeat IPC: 0.515067 cumulative IPC: 0.42589 (Simulation time: 0 hr 14 min 4 sec) 
Heartbeat CPU 0 instructions: 340000000 cycles: 604142679 heartbeat IPC: 0.519411 cumulative IPC: 0.42911 (Simulation time: 0 hr 14 min 31 sec) 
Heartbeat CPU 0 instructions: 350000001 cycles: 629384846 heartbeat IPC: 0.396163 cumulative IPC: 0.427687 (Simulation time: 0 hr 15 min 2 sec) 
Heartbeat CPU 0 instructions: 360000000 cycles: 651703718 heartbeat IPC: 0.448051 cumulative IPC: 0.428436 (Simulation time: 0 hr 15 min 31 sec) 
Heartbeat CPU 0 instructions: 370000001 cycles: 676851450 heartbeat IPC: 0.39765 cumulative IPC: 0.427211 (Simulation time: 0 hr 16 min 2 sec) 
Heartbeat CPU 0 instructions: 380000000 cycles: 700036814 heartbeat IPC: 0.431307 cumulative IPC: 0.427356 (Simulation time: 0 hr 16 min 31 sec) 
Heartbeat CPU 0 instructions: 390000000 cycles: 718818352 heartbeat IPC: 0.532438 cumulative IPC: 0.430284 (Simulation time: 0 hr 16 min 57 sec) 
Heartbeat CPU 0 instructions: 400000000 cycles: 738622974 heartbeat IPC: 0.504933 cumulative IPC: 0.432415 (Simulation time: 0 hr 17 min 24 sec) 
Heartbeat CPU 0 instructions: 410000001 cycles: 764951601 heartbeat IPC: 0.379815 cumulative IPC: 0.430492 (Simulation time: 0 hr 17 min 54 sec) 
Heartbeat CPU 0 instructions: 420000000 cycles: 789603510 heartbeat IPC: 0.405648 cumulative IPC: 0.42967 (Simulation time: 0 hr 18 min 24 sec) 
Heartbeat CPU 0 instructions: 430000002 cycles: 810768136 heartbeat IPC: 0.472487 cumulative IPC: 0.430853 (Simulation time: 0 hr 18 min 51 sec) 
Heartbeat CPU 0 instructions: 440000000 cycles: 830918337 heartbeat IPC: 0.496273 cumulative IPC: 0.43253 (Simulation time: 0 hr 19 min 17 sec) 
Heartbeat CPU 0 instructions: 450000002 cycles: 857792683 heartbeat IPC: 0.372102 cumulative IPC: 0.430532 (Simulation time: 0 hr 19 min 48 sec) 
Heartbeat CPU 0 instructions: 460000000 cycles: 883877874 heartbeat IPC: 0.383359 cumulative IPC: 0.429065 (Simulation time: 0 hr 20 min 18 sec) 
Heartbeat CPU 0 instructions: 470000002 cycles: 909860130 heartbeat IPC: 0.384878 cumulative IPC: 0.427738 (Simulation time: 0 hr 20 min 48 sec) 
Heartbeat CPU 0 instructions: 480000000 cycles: 934152037 heartbeat IPC: 0.41166 cumulative IPC: 0.427299 (Simulation time: 0 hr 21 min 17 sec) 
Heartbeat CPU 0 instructions: 490000000 cycles: 954998129 heartbeat IPC: 0.479706 cumulative IPC: 0.428499 (Simulation time: 0 hr 21 min 44 sec) 
Heartbeat CPU 0 instructions: 500000000 cycles: 979875969 heartbeat IPC: 0.401964 cumulative IPC: 0.427793 (Simulation time: 0 hr 22 min 13 sec) 
Heartbeat CPU 0 instructions: 510000000 cycles: 1004937297 heartbeat IPC: 0.399021 cumulative IPC: 0.427042 (Simulation time: 0 hr 22 min 43 sec) 
Heartbeat CPU 0 instructions: 520000000 cycles: 1025934883 heartbeat IPC: 0.476245 cumulative IPC: 0.428095 (Simulation time: 0 hr 23 min 9 sec) 
Heartbeat CPU 0 instructions: 530000003 cycles: 1051665073 heartbeat IPC: 0.388649 cumulative IPC: 0.427087 (Simulation time: 0 hr 23 min 39 sec) 
Heartbeat CPU 0 instructions: 540000000 cycles: 1074613786 heartbeat IPC: 0.435754 cumulative IPC: 0.42728 (Simulation time: 0 hr 24 min 7 sec) 
Heartbeat CPU 0 instructions: 550000000 cycles: 1100196532 heartbeat IPC: 0.390888 cumulative IPC: 0.426398 (Simulation time: 0 hr 24 min 37 sec) 
Heartbeat CPU 0 instructions: 560000000 cycles: 1123293374 heartbeat IPC: 0.43296 cumulative IPC: 0.426539 (Simulation time: 0 hr 25 min 5 sec) 
Heartbeat CPU 0 instructions: 570000002 cycles: 1146759832 heartbeat IPC: 0.42614 cumulative IPC: 0.42653 (Simulation time: 0 hr 25 min 34 sec) 
Heartbeat CPU 0 instructions: 580000000 cycles: 1167677636 heartbeat IPC: 0.478062 cumulative IPC: 0.42749 (Simulation time: 0 hr 26 min 0 sec) 
Heartbeat CPU 0 instructions: 590000001 cycles: 1191643222 heartbeat IPC: 0.417265 cumulative IPC: 0.427277 (Simulation time: 0 hr 26 min 29 sec) 
Heartbeat CPU 0 instructions: 600000000 cycles: 1210778754 heartbeat IPC: 0.522588 cumulative IPC: 0.428841 (Simulation time: 0 hr 26 min 54 sec) 
Finished CPU 0 instructions: 500000000 cycles: 1165933637 cumulative IPC: 0.428841 (Simulation time: 0 hr 26 min 54 sec) 

CPU 0 Branch Prediction Accuracy: 99.5434% MPKI: 1.33026
Number of Branches: 145676990 Number of Mispredictions: 665128
Number of LOAD Instructions: 188863207
Number of LOAD Instructions (ROI): 188863207
Number of STORE Instructions: 7332002
Number of STORE Instructions (ROI): 7332002
Total Destination Memory Operands: 10029285
Total Destination Memory Operands (ROI): 10029285
Total Source Memory Operands: 188863207
Total Source Memory Operands (ROI): 188863207
Number of DEPENDED LOADS: 291405
Number of DEPENDED LOADS (ROI): 291405
Number of SQ_ADDED: 10029285
Number of SQ_ADDED (ROI): 10029285
Number of LQ_ADDED: 200649472
Number of LQ_ADDED (ROI): 200649472
Number of Instructions read from trace: 600000010

ChampSim completed all CPUs

Region of Interest Statistics

CPU 0 cumulative IPC: 0.428841 instructions: 500000000 cycles: 1165933637
ITLB TOTAL     ACCESS:  145824482  HIT:  145784955  MISS:      39527
ITLB LOAD      ACCESS:  145824482  HIT:  145784955  MISS:      39527
ITLB RFO       ACCESS:          0  HIT:          0  MISS:          0
ITLB PREFETCH  ACCESS:          0  HIT:          0  MISS:          0
ITLB WRITEBACK ACCESS:          0  HIT:          0  MISS:          0
ITLB PREFETCH  REQUESTED:          0  ISSUED:          0  USEFUL:          0  USELESS:          0
ITLB TOTAL MSHR MERGED:      57361
ITLB LOAD MSHR MERGED:      57361
ITLB RFO MSHR MERGED:          0
ITLB PREFETCH MSHR MERGED:          0
ITLB WRITEBACK MSHR MERGED:          0
ITLB TOTAL ACCESSES:  145881843 HITS:  145784955 MISSES:      96888
ITLB LOAD ACCESSES:  145881843 HITS:  145784955 MISSES:      96888
ITLB RFO ACCESSES:          0 HITS:          0 MISSES:          0
ITLB PREFETCH ACCESSES:          0 HITS:          0 MISSES:          0
ITLB WRITEBACK ACCESSES:          0 HITS:          0 MISSES:          0
ITLB RQ ACCESS:  499999754
ITLB RQ TO_CACHE:  145881843
ITLB RQ MERGED:  354117911
ITLB RQ FORWARD:          0
ITLB WQ ACCESS:          0
ITLB WQ TO_CACHE:          0
ITLB WQ MERGED:          0
ITLB WQ FORWARD:          0
DTLB TOTAL     ACCESS:  135199277  HIT:  134030916  MISS:    1168361
DTLB LOAD      ACCESS:  127158465  HIT:  125999210  MISS:    1159255
DTLB RFO       ACCESS:    8040812  HIT:    8031706  MISS:       9106
DTLB PREFETCH  ACCESS:          0  HIT:          0  MISS:          0
DTLB WRITEBACK ACCESS:          0  HIT:          0  MISS:          0
DTLB PREFETCH  REQUESTED:          0  ISSUED:          0  USEFUL:          0  USELESS:          0
DTLB TOTAL MSHR MERGED:     579221
DTLB LOAD MSHR MERGED:     574843
DTLB RFO MSHR MERGED:       4378
DTLB PREFETCH MSHR MERGED:          0
DTLB WRITEBACK MSHR MERGED:          0
DTLB TOTAL ACCESSES:  135778498 HITS:  134030916 MISSES:    1747582
DTLB LOAD ACCESSES:  127733308 HITS:  125999210 MISSES:    1734098
DTLB RFO ACCESSES:    8045190 HITS:    8031706 MISSES:      13484
DTLB PREFETCH ACCESSES:          0 HITS:          0 MISSES:          0
DTLB WRITEBACK ACCESSES:          0 HITS:          0 MISSES:          0
DTLB RQ ACCESS:  165762936
DTLB RQ TO_CACHE:  135778498
DTLB RQ MERGED:   29984438
DTLB RQ FORWARD:          0
DTLB WQ ACCESS:          0
DTLB WQ TO_CACHE:          0
DTLB WQ MERGED:          0
DTLB WQ FORWARD:          0
L1D TOTAL     ACCESS:  157084013  HIT:  139768319  MISS:   17315694
L1D LOAD      ACCESS:   90000802  HIT:   78864146  MISS:   11136656
L1D RFO       ACCESS:    8499344  HIT:    8412191  MISS:      87153
L1D PREFETCH  ACCESS:   58583867  HIT:   52491982  MISS:    6091885
L1D WRITEBACK ACCESS:          0  HIT:          0  MISS:          0
L1D PREFETCH  REQUESTED:   93720514  ISSUED:   92852882  USEFUL:    2010487  USELESS:    4081471
L1D TOTAL MSHR MERGED:   14979944
L1D LOAD MSHR MERGED:    7112647
L1D RFO MSHR MERGED:     125098
L1D PREFETCH MSHR MERGED:    7742199
L1D WRITEBACK MSHR MERGED:          0
L1D TOTAL ACCESSES:  172064111 HITS:  139768473 MISSES:   32295638
L1D LOAD ACCESSES:   93720517 HITS:   78864149 MISSES:   14856368
L1D RFO ACCESSES:    8622615 HITS:    8412191 MISSES:     210424
L1D PREFETCH ACCESSES:   69720979 HITS:   52492133 MISSES:   17228846
L1D WRITEBACK ACCESSES:          0 HITS:          0 MISSES:          0
L1D RQ ACCESS:  157123730
L1D RQ TO_CACHE:   93720514
L1D RQ MERGED:   63403213
L1D RQ FORWARD:          0
L1D WQ ACCESS:    8639208
L1D WQ TO_CACHE:    8622615
L1D WQ MERGED:      16593
L1D WQ FORWARD:        154
L1I TOTAL     ACCESS:  178805475  HIT:  178141816  MISS:     663659
L1I LOAD      ACCESS:  178805475  HIT:  178141816  MISS:     663659
L1I RFO       ACCESS:          0  HIT:          0  MISS:          0
L1I PREFETCH  ACCESS:          0  HIT:          0  MISS:          0
L1I WRITEBACK ACCESS:          0  HIT:          0  MISS:          0
L1I PREFETCH  REQUESTED:          0  ISSUED:          0  USEFUL:          0  USELESS:          0
L1I TOTAL MSHR MERGED:     596841
L1I LOAD MSHR MERGED:     596841
L1I RFO MSHR MERGED:          0
L1I PREFETCH MSHR MERGED:          0
L1I WRITEBACK MSHR MERGED:          0
L1I TOTAL ACCESSES:  179402316 HITS:  178141816 MISSES:    1260500
L1I LOAD ACCESSES:  179402316 HITS:  178141816 MISSES:    1260500
L1I RFO ACCESSES:          0 HITS:          0 MISSES:          0
L1I PREFETCH ACCESSES:          0 HITS:          0 MISSES:          0
L1I WRITEBACK ACCESSES:          0 HITS:          0 MISSES:          0
L1I RQ ACCESS:  499999757
L1I RQ TO_CACHE:  179402316
L1I RQ MERGED:  320597441
L1I RQ FORWARD:          0
L1I WQ ACCESS:          0
L1I WQ TO_CACHE:          0
L1I WQ MERGED:          0
L1I WQ FORWARD:          0
L2C TOTAL     ACCESS:   19277804  HIT:    2057979  MISS:   17219825
L2C LOAD      ACCESS:    8407277  HIT:     951448  MISS:    7455829
L2C RFO       ACCESS:      85303  HIT:      53740  MISS:      31563
L2C PREFETCH  ACCESS:   10500190  HIT:     770568  MISS:    9729622
L2C WRITEBACK ACCESS:     285034  HIT:     282223  MISS:       2811
L2C PREFETCH  REQUESTED:    1017912  ISSUED:    1017912  USEFUL:     275031  USELESS:    9453684
L2C TOTAL MSHR MERGED:        978
L2C LOAD MSHR MERGED:        206
L2C RFO MSHR MERGED:          1
L2C PREFETCH MSHR MERGED:        771
L2C WRITEBACK MSHR MERGED:          0
L2C TOTAL ACCESSES:   19281038 HITS:    2058170 MISSES:   17222868
L2C LOAD ACCESSES:    8407380 HITS:     951551 MISSES:    7455829
L2C RFO ACCESSES:      85326 HITS:      53763 MISSES:      31563
L2C PREFETCH ACCESSES:   10503298 HITS:     770633 MISSES:    9732665
L2C WRITEBACK ACCESSES:     285034 HITS:     282223 MISSES:       2811
L2C RQ ACCESS:    8492706
L2C RQ TO_CACHE:    8492580
L2C RQ MERGED:          0
L2C RQ FORWARD:          0
L2C WQ ACCESS:     285034
L2C WQ TO_CACHE:     285034
L2C WQ MERGED:          0
L2C WQ FORWARD:        191
LLC TOTAL     ACCESS:   17325132  HIT:    4948502  MISS:   12376630
LLC LOAD      ACCESS:    7455623  HIT:    3914365  MISS:    3541258
LLC RFO       ACCESS:      31562  HIT:      16829  MISS:      14733
LLC PREFETCH  ACCESS:    9731889  HIT:     932898  MISS:    8798991
LLC WRITEBACK ACCESS:     106058  HIT:      84410  MISS:      21648
LLC PREFETCH  REQUESTED:          0  ISSUED:          0  USEFUL:       2048  USELESS:    8796213
LLC TOTAL MSHR MERGED:          5
LLC LOAD MSHR MERGED:          0
LLC RFO MSHR MERGED:          0
LLC PREFETCH MSHR MERGED:          5
LLC WRITEBACK MSHR MERGED:          0
LLC TOTAL ACCESSES:   17325137 HITS:    4948502 MISSES:   12376635
LLC LOAD ACCESSES:    7455623 HITS:    3914365 MISSES:    3541258
LLC RFO ACCESSES:      31562 HITS:      16829 MISSES:      14733
LLC PREFETCH ACCESSES:    9731894 HITS:     932898 MISSES:    8798996
LLC WRITEBACK ACCESSES:     106058 HITS:      84410 MISSES:      21648
LLC 0 RQ ACCESS:    7487185
LLC 0 RQ TO_CACHE:    7487185
LLC 0 RQ MERGED:          0
LLC 0 RQ FORWARD:          0
LLC WQ ACCESS:     106058
LLC WQ TO_CACHE:     106058
LLC WQ MERGED:          0
LLC WQ FORWARD:          0
Major fault: 0 Minor fault: 6432
CPU 0 L1D next line prefetcher final stats
CPU 0 L2C PC-based stride prefetcher final stats
All Misses: 14608356
All Hits: 5936438
SD Algo Stats - Switches: 0 SRR-Repls: 3786668 BRR-Repls: 0

DRAM Statistics
 CHANNEL 0
 RQ ROW_BUFFER_HIT:    9335070  ROW_BUFFER_MISS:    3014731
 DBUS_CONGESTED:    5791936
 WQ ROW_BUFFER_HIT:       1549  ROW_BUFFER_MISS:      41689  FULL:          0

 AVG_CONGESTED_CYCLE: 12
LOADS RETIRED: 157382665
INSTR RETIRED: 500000000
