
*** ChampSim Multicore Out-of-Order Simulator ***

Warmup Instructions: 100000000
Simulation Instructions: 500000000
Number of CPUs: 1
LLC sets: 2048
LLC ways: 16
Clean RRIP Policies: 1313010113130101 Dirty RRIP Policies: 1313110113131101 PSEL Width: 10 Track Set: 4294967295 PSEL Mask: 1 Demote Mask: 3000210430002104DS Algo: 0Window size: 0
Off-chip DRAM Size: 4096 MB Channels: 1 Width: 64-bit Data Rate: 1600 MT/s

CPU 0 runs /mnt/beegfs/iconst01/spec2017/Gcc.trace.gz
NOT SORTED
TRACE STRING: /mnt/beegfs/iconst01/spec2017/Gcc.trace.gz
SORTED
TRACE STRING: /mnt/beegfs/iconst01/spec2017/Gcc.trace.gz
INITIAL
TRACE STRING: /mnt/beegfs/iconst01/spec2017/Gcc.trace.gz

champsim_seed used: 269

CPU 0 L1D next line prefetcher
CPU 0 L2C IP-based stride prefetcher
Initialize DRRIP state
Assign rand_sets[0]: 454  LLC: 2048
rand_sets[0]: 454
Assign rand_sets[1]: 1662  LLC: 2048
rand_sets[1]: 1662
Assign rand_sets[2]: 1921  LLC: 2048
rand_sets[2]: 1921
Assign rand_sets[3]: 1131  LLC: 2048
rand_sets[3]: 1131
Assign rand_sets[4]: 331  LLC: 2048
rand_sets[4]: 331
Assign rand_sets[5]: 1531  LLC: 2048
rand_sets[5]: 1531
Assign rand_sets[6]: 482  LLC: 2048
rand_sets[6]: 482
Assign rand_sets[7]: 1275  LLC: 2048
rand_sets[7]: 1275
Assign rand_sets[8]: 1876  LLC: 2048
rand_sets[8]: 1876
Assign rand_sets[9]: 2038  LLC: 2048
rand_sets[9]: 2038
Assign rand_sets[10]: 701  LLC: 2048
rand_sets[10]: 701
Assign rand_sets[11]: 479  LLC: 2048
rand_sets[11]: 479
Assign rand_sets[12]: 892  LLC: 2048
rand_sets[12]: 892
Assign rand_sets[13]: 1820  LLC: 2048
rand_sets[13]: 1820
Assign rand_sets[14]: 1505  LLC: 2048
rand_sets[14]: 1505
Assign rand_sets[15]: 1159  LLC: 2048
rand_sets[15]: 1159
Assign rand_sets[16]: 513  LLC: 2048
rand_sets[16]: 513
Assign rand_sets[17]: 703  LLC: 2048
rand_sets[17]: 703
Assign rand_sets[18]: 561  LLC: 2048
rand_sets[18]: 561
Assign rand_sets[19]: 990  LLC: 2048
rand_sets[19]: 990
Assign rand_sets[20]: 342  LLC: 2048
rand_sets[20]: 342
Assign rand_sets[21]: 882  LLC: 2048
rand_sets[21]: 882
Assign rand_sets[22]: 15  LLC: 2048
rand_sets[22]: 15
Assign rand_sets[23]: 71  LLC: 2048
rand_sets[23]: 71
Assign rand_sets[24]: 1127  LLC: 2048
rand_sets[24]: 1127
Assign rand_sets[25]: 1382  LLC: 2048
rand_sets[25]: 1382
Assign rand_sets[26]: 647  LLC: 2048
rand_sets[26]: 647
Assign rand_sets[27]: 857  LLC: 2048
rand_sets[27]: 857
Assign rand_sets[28]: 1450  LLC: 2048
rand_sets[28]: 1450
Assign rand_sets[29]: 1160  LLC: 2048
rand_sets[29]: 1160
Assign rand_sets[30]: 1852  LLC: 2048
rand_sets[30]: 1852
Assign rand_sets[31]: 1881  LLC: 2048
rand_sets[31]: 1881
Assign rand_sets[32]: 1770  LLC: 2048
rand_sets[32]: 1770
Assign rand_sets[33]: 1622  LLC: 2048
rand_sets[33]: 1622
Assign rand_sets[34]: 275  LLC: 2048
rand_sets[34]: 275
Assign rand_sets[35]: 635  LLC: 2048
rand_sets[35]: 635
Assign rand_sets[36]: 466  LLC: 2048
rand_sets[36]: 466
Assign rand_sets[37]: 1413  LLC: 2048
rand_sets[37]: 1413
Assign rand_sets[38]: 417  LLC: 2048
rand_sets[38]: 417
Assign rand_sets[39]: 472  LLC: 2048
rand_sets[39]: 472
Assign rand_sets[40]: 1340  LLC: 2048
rand_sets[40]: 1340
Assign rand_sets[41]: 852  LLC: 2048
rand_sets[41]: 852
Assign rand_sets[42]: 1365  LLC: 2048
rand_sets[42]: 1365
Assign rand_sets[43]: 47  LLC: 2048
rand_sets[43]: 47
Assign rand_sets[44]: 823  LLC: 2048
rand_sets[44]: 823
Assign rand_sets[45]: 686  LLC: 2048
rand_sets[45]: 686
Assign rand_sets[46]: 1637  LLC: 2048
rand_sets[46]: 1637
Assign rand_sets[47]: 1115  LLC: 2048
rand_sets[47]: 1115
Assign rand_sets[48]: 986  LLC: 2048
rand_sets[48]: 986
Assign rand_sets[49]: 258  LLC: 2048
rand_sets[49]: 258
Assign rand_sets[50]: 633  LLC: 2048
rand_sets[50]: 633
Assign rand_sets[51]: 920  LLC: 2048
rand_sets[51]: 920
Assign rand_sets[52]: 204  LLC: 2048
rand_sets[52]: 204
Assign rand_sets[53]: 227  LLC: 2048
rand_sets[53]: 227
Assign rand_sets[54]: 1818  LLC: 2048
rand_sets[54]: 1818
Assign rand_sets[55]: 886  LLC: 2048
rand_sets[55]: 886
Assign rand_sets[56]: 1422  LLC: 2048
rand_sets[56]: 1422
Assign rand_sets[57]: 607  LLC: 2048
rand_sets[57]: 607
Assign rand_sets[58]: 217  LLC: 2048
rand_sets[58]: 217
Assign rand_sets[59]: 1945  LLC: 2048
rand_sets[59]: 1945
Assign rand_sets[60]: 143  LLC: 2048
rand_sets[60]: 143
Assign rand_sets[61]: 1311  LLC: 2048
rand_sets[61]: 1311
Assign rand_sets[62]: 319  LLC: 2048
rand_sets[62]: 319
Assign rand_sets[63]: 1846  LLC: 2048
rand_sets[63]: 1846
 CLEAN-RRIP-POLICY-1: 1-3-1-3-0-1-0-1- CLEAN-RRIP-POLICY-2: 1-3-1-3-0-1-0-1-
 DIRTY-RRIP-POLICY-1: 1-3-1-3-1-1-0-1- DIRTY-RRIP-POLICY-2: 1-3-1-3-1-1-0-1-
 PSEL width: 10
Heartbeat CPU 0 instructions: 10000001 cycles: 7316001 heartbeat IPC: 1.36687 cumulative IPC: 1.36687 (Simulation time: 0 hr 0 min 18 sec) 
Heartbeat CPU 0 instructions: 20000000 cycles: 14307480 heartbeat IPC: 1.43031 cumulative IPC: 1.39787 (Simulation time: 0 hr 0 min 35 sec) 
Heartbeat CPU 0 instructions: 30000001 cycles: 21020305 heartbeat IPC: 1.48969 cumulative IPC: 1.42719 (Simulation time: 0 hr 0 min 54 sec) 
Heartbeat CPU 0 instructions: 40000000 cycles: 27481036 heartbeat IPC: 1.54781 cumulative IPC: 1.45555 (Simulation time: 0 hr 1 min 13 sec) 
Heartbeat CPU 0 instructions: 50000001 cycles: 33582685 heartbeat IPC: 1.6389 cumulative IPC: 1.48886 (Simulation time: 0 hr 1 min 31 sec) 
Heartbeat CPU 0 instructions: 60000000 cycles: 40063807 heartbeat IPC: 1.54294 cumulative IPC: 1.49761 (Simulation time: 0 hr 1 min 50 sec) 
Heartbeat CPU 0 instructions: 70000000 cycles: 47101804 heartbeat IPC: 1.42086 cumulative IPC: 1.48614 (Simulation time: 0 hr 2 min 7 sec) 
Heartbeat CPU 0 instructions: 80000000 cycles: 54191252 heartbeat IPC: 1.41055 cumulative IPC: 1.47625 (Simulation time: 0 hr 2 min 24 sec) 
Heartbeat CPU 0 instructions: 90000003 cycles: 61195427 heartbeat IPC: 1.42772 cumulative IPC: 1.4707 (Simulation time: 0 hr 2 min 41 sec) 
Heartbeat CPU 0 instructions: 100000000 cycles: 68362407 heartbeat IPC: 1.39529 cumulative IPC: 1.46279 (Simulation time: 0 hr 2 min 58 sec) 

Warmup complete CPU 0 instructions: 100000004 cycles: 68362408 (Simulation time: 0 hr 2 min 58 sec) 

Heartbeat CPU 0 instructions: 110000003 cycles: 95945653 heartbeat IPC: 0.362539 cumulative IPC: 0.362539 (Simulation time: 0 hr 3 min 32 sec) 
Heartbeat CPU 0 instructions: 120000000 cycles: 123379627 heartbeat IPC: 0.364511 cumulative IPC: 0.363522 (Simulation time: 0 hr 4 min 7 sec) 
Heartbeat CPU 0 instructions: 130000000 cycles: 148342859 heartbeat IPC: 0.400589 cumulative IPC: 0.375092 (Simulation time: 0 hr 4 min 40 sec) 
Heartbeat CPU 0 instructions: 140000000 cycles: 177724973 heartbeat IPC: 0.340343 cumulative IPC: 0.365756 (Simulation time: 0 hr 5 min 14 sec) 
Heartbeat CPU 0 instructions: 150000000 cycles: 207526775 heartbeat IPC: 0.33555 cumulative IPC: 0.359287 (Simulation time: 0 hr 5 min 47 sec) 
Heartbeat CPU 0 instructions: 160000000 cycles: 234912960 heartbeat IPC: 0.365148 cumulative IPC: 0.360251 (Simulation time: 0 hr 6 min 20 sec) 
Heartbeat CPU 0 instructions: 170000001 cycles: 262890711 heartbeat IPC: 0.357427 cumulative IPC: 0.359845 (Simulation time: 0 hr 6 min 55 sec) 
Heartbeat CPU 0 instructions: 180000000 cycles: 291277996 heartbeat IPC: 0.35227 cumulative IPC: 0.35888 (Simulation time: 0 hr 7 min 30 sec) 
Heartbeat CPU 0 instructions: 190000002 cycles: 319223781 heartbeat IPC: 0.357836 cumulative IPC: 0.358764 (Simulation time: 0 hr 8 min 4 sec) 
Heartbeat CPU 0 instructions: 200000000 cycles: 347518192 heartbeat IPC: 0.353427 cumulative IPC: 0.358223 (Simulation time: 0 hr 8 min 38 sec) 
Heartbeat CPU 0 instructions: 210000002 cycles: 375291195 heartbeat IPC: 0.360062 cumulative IPC: 0.358389 (Simulation time: 0 hr 9 min 12 sec) 
Heartbeat CPU 0 instructions: 220000000 cycles: 404329092 heartbeat IPC: 0.344377 cumulative IPC: 0.357178 (Simulation time: 0 hr 9 min 45 sec) 
Heartbeat CPU 0 instructions: 230000000 cycles: 431824553 heartbeat IPC: 0.363696 cumulative IPC: 0.357671 (Simulation time: 0 hr 10 min 18 sec) 
Heartbeat CPU 0 instructions: 240000000 cycles: 457727228 heartbeat IPC: 0.386061 cumulative IPC: 0.35956 (Simulation time: 0 hr 10 min 50 sec) 
Heartbeat CPU 0 instructions: 250000000 cycles: 487819624 heartbeat IPC: 0.33231 cumulative IPC: 0.357605 (Simulation time: 0 hr 11 min 25 sec) 
Heartbeat CPU 0 instructions: 260000000 cycles: 514882410 heartbeat IPC: 0.369511 cumulative IPC: 0.358327 (Simulation time: 0 hr 11 min 59 sec) 
Heartbeat CPU 0 instructions: 270000003 cycles: 543260500 heartbeat IPC: 0.352385 cumulative IPC: 0.357972 (Simulation time: 0 hr 12 min 34 sec) 
Heartbeat CPU 0 instructions: 280000000 cycles: 571384929 heartbeat IPC: 0.355563 cumulative IPC: 0.357837 (Simulation time: 0 hr 13 min 9 sec) 
Heartbeat CPU 0 instructions: 290000000 cycles: 600210124 heartbeat IPC: 0.346919 cumulative IPC: 0.357245 (Simulation time: 0 hr 13 min 44 sec) 
Heartbeat CPU 0 instructions: 300000000 cycles: 629989520 heartbeat IPC: 0.335803 cumulative IPC: 0.356108 (Simulation time: 0 hr 14 min 18 sec) 
Heartbeat CPU 0 instructions: 310000001 cycles: 659307787 heartbeat IPC: 0.341084 cumulative IPC: 0.355363 (Simulation time: 0 hr 14 min 51 sec) 
Heartbeat CPU 0 instructions: 320000000 cycles: 687417242 heartbeat IPC: 0.355752 cumulative IPC: 0.35538 (Simulation time: 0 hr 15 min 24 sec) 
Heartbeat CPU 0 instructions: 330000000 cycles: 715985865 heartbeat IPC: 0.350034 cumulative IPC: 0.355145 (Simulation time: 0 hr 15 min 58 sec) 
Heartbeat CPU 0 instructions: 340000000 cycles: 745190430 heartbeat IPC: 0.342412 cumulative IPC: 0.354595 (Simulation time: 0 hr 16 min 32 sec) 
Heartbeat CPU 0 instructions: 350000003 cycles: 772163896 heartbeat IPC: 0.370735 cumulative IPC: 0.355214 (Simulation time: 0 hr 17 min 5 sec) 
Heartbeat CPU 0 instructions: 360000000 cycles: 800207502 heartbeat IPC: 0.356587 cumulative IPC: 0.355266 (Simulation time: 0 hr 17 min 37 sec) 
Heartbeat CPU 0 instructions: 370000000 cycles: 828371605 heartbeat IPC: 0.355062 cumulative IPC: 0.355259 (Simulation time: 0 hr 18 min 9 sec) 
Heartbeat CPU 0 instructions: 380000000 cycles: 856859553 heartbeat IPC: 0.351026 cumulative IPC: 0.355106 (Simulation time: 0 hr 18 min 42 sec) 
Heartbeat CPU 0 instructions: 390000001 cycles: 884459515 heartbeat IPC: 0.362319 cumulative IPC: 0.35535 (Simulation time: 0 hr 19 min 14 sec) 
Heartbeat CPU 0 instructions: 400000000 cycles: 913085881 heartbeat IPC: 0.349328 cumulative IPC: 0.355146 (Simulation time: 0 hr 19 min 46 sec) 
Heartbeat CPU 0 instructions: 410000001 cycles: 940385552 heartbeat IPC: 0.366305 cumulative IPC: 0.355495 (Simulation time: 0 hr 20 min 18 sec) 
Heartbeat CPU 0 instructions: 420000000 cycles: 967694769 heartbeat IPC: 0.366177 cumulative IPC: 0.355819 (Simulation time: 0 hr 20 min 50 sec) 
Heartbeat CPU 0 instructions: 430000002 cycles: 995371599 heartbeat IPC: 0.361313 cumulative IPC: 0.355984 (Simulation time: 0 hr 21 min 22 sec) 
Heartbeat CPU 0 instructions: 440000000 cycles: 1024840031 heartbeat IPC: 0.339346 cumulative IPC: 0.355471 (Simulation time: 0 hr 21 min 55 sec) 
Heartbeat CPU 0 instructions: 450000002 cycles: 1054055420 heartbeat IPC: 0.342285 cumulative IPC: 0.35508 (Simulation time: 0 hr 22 min 28 sec) 
Heartbeat CPU 0 instructions: 460000000 cycles: 1081734417 heartbeat IPC: 0.361285 cumulative IPC: 0.35525 (Simulation time: 0 hr 23 min 0 sec) 
Heartbeat CPU 0 instructions: 470000000 cycles: 1109362719 heartbeat IPC: 0.361948 cumulative IPC: 0.355427 (Simulation time: 0 hr 23 min 32 sec) 
Heartbeat CPU 0 instructions: 480000000 cycles: 1137238478 heartbeat IPC: 0.358735 cumulative IPC: 0.355514 (Simulation time: 0 hr 24 min 4 sec) 
Heartbeat CPU 0 instructions: 490000000 cycles: 1164825337 heartbeat IPC: 0.362491 cumulative IPC: 0.355689 (Simulation time: 0 hr 24 min 36 sec) 
Heartbeat CPU 0 instructions: 500000000 cycles: 1193093803 heartbeat IPC: 0.353751 cumulative IPC: 0.35564 (Simulation time: 0 hr 25 min 9 sec) 
Heartbeat CPU 0 instructions: 510000000 cycles: 1228388491 heartbeat IPC: 0.283329 cumulative IPC: 0.35344 (Simulation time: 0 hr 25 min 46 sec) 
Heartbeat CPU 0 instructions: 520000000 cycles: 1256311233 heartbeat IPC: 0.358131 cumulative IPC: 0.353551 (Simulation time: 0 hr 26 min 19 sec) 
Heartbeat CPU 0 instructions: 530000001 cycles: 1285559747 heartbeat IPC: 0.341898 cumulative IPC: 0.353271 (Simulation time: 0 hr 26 min 53 sec) 
Heartbeat CPU 0 instructions: 540000000 cycles: 1313541505 heartbeat IPC: 0.357376 cumulative IPC: 0.353363 (Simulation time: 0 hr 27 min 26 sec) 
Heartbeat CPU 0 instructions: 550000001 cycles: 1342709073 heartbeat IPC: 0.342847 cumulative IPC: 0.353122 (Simulation time: 0 hr 28 min 1 sec) 
Heartbeat CPU 0 instructions: 560000000 cycles: 1368056623 heartbeat IPC: 0.394515 cumulative IPC: 0.353929 (Simulation time: 0 hr 28 min 34 sec) 
Heartbeat CPU 0 instructions: 570000000 cycles: 1397449732 heartbeat IPC: 0.340216 cumulative IPC: 0.353626 (Simulation time: 0 hr 29 min 8 sec) 
Heartbeat CPU 0 instructions: 580000000 cycles: 1425333916 heartbeat IPC: 0.358626 cumulative IPC: 0.353729 (Simulation time: 0 hr 29 min 42 sec) 
Heartbeat CPU 0 instructions: 590000001 cycles: 1450076069 heartbeat IPC: 0.404169 cumulative IPC: 0.354632 (Simulation time: 0 hr 30 min 14 sec) 
Heartbeat CPU 0 instructions: 600000000 cycles: 1476137086 heartbeat IPC: 0.383715 cumulative IPC: 0.35517 (Simulation time: 0 hr 30 min 46 sec) 
Finished CPU 0 instructions: 500000000 cycles: 1407774700 cumulative IPC: 0.35517 (Simulation time: 0 hr 30 min 46 sec) 

CPU 0 Branch Prediction Accuracy: 86.4311% MPKI: 26.2662
Number of Branches: 96788573 Number of Mispredictions: 13133102
Number of LOAD Instructions: 164682285
Number of LOAD Instructions (ROI): 164682285
Number of STORE Instructions: 78194750
Number of STORE Instructions (ROI): 78194750
Total Destination Memory Operands: 83268534
Total Destination Memory Operands (ROI): 83268534
Total Source Memory Operands: 164712438
Total Source Memory Operands (ROI): 164712438
Number of DEPENDED LOADS: 7060643
Number of DEPENDED LOADS (ROI): 7060643
Number of SQ_ADDED: 83268522
Number of SQ_ADDED (ROI): 83268522
Number of LQ_ADDED: 236699753
Number of LQ_ADDED (ROI): 236699753
Number of Instructions read from trace: 600000066

ChampSim completed all CPUs

Region of Interest Statistics

CPU 0 cumulative IPC: 0.35517 instructions: 500000000 cycles: 1407774700
ITLB TOTAL     ACCESS:  100511198  HIT:  100306752  MISS:     204446
ITLB LOAD      ACCESS:  100511198  HIT:  100306752  MISS:     204446
ITLB RFO       ACCESS:          0  HIT:          0  MISS:          0
ITLB PREFETCH  ACCESS:          0  HIT:          0  MISS:          0
ITLB WRITEBACK ACCESS:          0  HIT:          0  MISS:          0
ITLB PREFETCH  REQUESTED:          0  ISSUED:          0  USEFUL:          0  USELESS:          0
ITLB TOTAL MSHR MERGED:     172424
ITLB LOAD MSHR MERGED:     172424
ITLB RFO MSHR MERGED:          0
ITLB PREFETCH MSHR MERGED:          0
ITLB WRITEBACK MSHR MERGED:          0
ITLB TOTAL ACCESSES:  100683622 HITS:  100306752 MISSES:     376870
ITLB LOAD ACCESSES:  100683622 HITS:  100306752 MISSES:     376870
ITLB RFO ACCESSES:          0 HITS:          0 MISSES:          0
ITLB PREFETCH ACCESSES:          0 HITS:          0 MISSES:          0
ITLB WRITEBACK ACCESSES:          0 HITS:          0 MISSES:          0
ITLB RQ ACCESS:  500000057
ITLB RQ TO_CACHE:  100683622
ITLB RQ MERGED:  399316435
ITLB RQ FORWARD:          0
ITLB WQ ACCESS:          0
ITLB WQ TO_CACHE:          0
ITLB WQ MERGED:          0
ITLB WQ FORWARD:          0
DTLB TOTAL     ACCESS:  165335346  HIT:  164700998  MISS:     634348
DTLB LOAD      ACCESS:  106291249  HIT:  105721255  MISS:     569994
DTLB RFO       ACCESS:   59044097  HIT:   58979743  MISS:      64354
DTLB PREFETCH  ACCESS:          0  HIT:          0  MISS:          0
DTLB WRITEBACK ACCESS:          0  HIT:          0  MISS:          0
DTLB PREFETCH  REQUESTED:          0  ISSUED:          0  USEFUL:          0  USELESS:          0
DTLB TOTAL MSHR MERGED:      99988
DTLB LOAD MSHR MERGED:      59455
DTLB RFO MSHR MERGED:      40533
DTLB PREFETCH MSHR MERGED:          0
DTLB WRITEBACK MSHR MERGED:          0
DTLB TOTAL ACCESSES:  165435334 HITS:  164700998 MISSES:     734336
DTLB LOAD ACCESSES:  106350704 HITS:  105721255 MISSES:     629449
DTLB RFO ACCESSES:   59084630 HITS:   58979743 MISSES:     104887
DTLB PREFETCH ACCESSES:          0 HITS:          0 MISSES:          0
DTLB WRITEBACK ACCESSES:          0 HITS:          0 MISSES:          0
DTLB RQ ACCESS:  200310249
DTLB RQ TO_CACHE:  165435334
DTLB RQ MERGED:   34874915
DTLB RQ FORWARD:          0
DTLB WQ ACCESS:          0
DTLB WQ TO_CACHE:          0
DTLB WQ MERGED:          0
DTLB WQ FORWARD:          0
L1D TOTAL     ACCESS:  281823275  HIT:  273913972  MISS:    7909303
L1D LOAD      ACCESS:  110415308  HIT:  107137080  MISS:    3278228
L1D RFO       ACCESS:   67113512  HIT:   66222719  MISS:     890793
L1D PREFETCH  ACCESS:  104294455  HIT:  100554173  MISS:    3740282
L1D WRITEBACK ACCESS:          0  HIT:          0  MISS:          0
L1D PREFETCH  REQUESTED:  110815612  ISSUED:  109116369  USEFUL:    1661047  USELESS:    2079199
L1D TOTAL MSHR MERGED:    2877973
L1D LOAD MSHR MERGED:     497970
L1D RFO MSHR MERGED:    1872664
L1D PREFETCH MSHR MERGED:     507339
L1D WRITEBACK MSHR MERGED:          0
L1D TOTAL ACCESSES:  284728709 HITS:  273941433 MISSES:   10787276
L1D LOAD ACCESSES:  110817062 HITS:  107138530 MISSES:    3678532
L1D RFO ACCESSES:   68974176 HITS:   66222719 MISSES:    2751457
L1D PREFETCH ACCESSES:  104937471 HITS:  100580184 MISSES:    4357287
L1D WRITEBACK ACCESSES:          0 HITS:          0 MISSES:          0
L1D RQ ACCESS:  130757646
L1D RQ TO_CACHE:  110815615
L1D RQ MERGED:   19940581
L1D RQ FORWARD:          0
L1D WQ ACCESS:   69552603
L1D WQ TO_CACHE:   68974177
L1D WQ MERGED:     578426
L1D WQ FORWARD:      27461
L1I TOTAL     ACCESS:  126558891  HIT:  122320337  MISS:    4238554
L1I LOAD      ACCESS:  126558891  HIT:  122320337  MISS:    4238554
L1I RFO       ACCESS:          0  HIT:          0  MISS:          0
L1I PREFETCH  ACCESS:          0  HIT:          0  MISS:          0
L1I WRITEBACK ACCESS:          0  HIT:          0  MISS:          0
L1I PREFETCH  REQUESTED:          0  ISSUED:          0  USEFUL:          0  USELESS:          0
L1I TOTAL MSHR MERGED:    1834472
L1I LOAD MSHR MERGED:    1834472
L1I RFO MSHR MERGED:          0
L1I PREFETCH MSHR MERGED:          0
L1I WRITEBACK MSHR MERGED:          0
L1I TOTAL ACCESSES:  128393366 HITS:  122320337 MISSES:    6073029
L1I LOAD ACCESSES:  128393366 HITS:  122320337 MISSES:    6073029
L1I RFO ACCESSES:          0 HITS:          0 MISSES:          0
L1I PREFETCH ACCESSES:          0 HITS:          0 MISSES:          0
L1I WRITEBACK ACCESSES:          0 HITS:          0 MISSES:          0
L1I RQ ACCESS:  500000057
L1I RQ TO_CACHE:  128393366
L1I RQ MERGED:  371606691
L1I RQ FORWARD:          0
L1I WQ ACCESS:          0
L1I WQ TO_CACHE:          0
L1I WQ MERGED:          0
L1I WQ FORWARD:          0
L2C TOTAL     ACCESS:   14905065  HIT:   11158579  MISS:    3746486
L2C LOAD      ACCESS:    7418910  HIT:    5098865  MISS:    2320045
L2C RFO       ACCESS:     878695  HIT:     409893  MISS:     468802
L2C PREFETCH  ACCESS:    4568222  HIT:    3627837  MISS:     940385
L2C WRITEBACK ACCESS:    2039238  HIT:    2021984  MISS:      17254
L2C PREFETCH  REQUESTED:     842745  ISSUED:     842745  USEFUL:     203372  USELESS:     736719
L2C TOTAL MSHR MERGED:       7196
L2C LOAD MSHR MERGED:        808
L2C RFO MSHR MERGED:          0
L2C PREFETCH MSHR MERGED:       6388
L2C WRITEBACK MSHR MERGED:          0
L2C TOTAL ACCESSES:   14913150 HITS:   11159026 MISSES:    3754124
L2C LOAD ACCESSES:    7419116 HITS:    5099071 MISSES:    2320045
L2C RFO ACCESSES:     878793 HITS:     409991 MISSES:     468802
L2C PREFETCH ACCESSES:    4576003 HITS:    3627980 MISSES:     948023
L2C WRITEBACK ACCESSES:    2039238 HITS:    2021984 MISSES:      17254
L2C RQ ACCESS:    8297912
L2C RQ TO_CACHE:    8297608
L2C RQ MERGED:          0
L2C RQ FORWARD:          0
L2C WQ ACCESS:    2039238
L2C WQ TO_CACHE:    2039238
L2C WQ MERGED:          0
L2C WQ FORWARD:        447
LLC TOTAL     ACCESS:    4609823  HIT:    3984660  MISS:     625163
LLC LOAD      ACCESS:    2319224  HIT:    2094021  MISS:     225203
LLC RFO       ACCESS:     468792  HIT:     397815  MISS:      70977
LLC PREFETCH  ACCESS:     941514  HIT:     646687  MISS:     294827
LLC WRITEBACK ACCESS:     880293  HIT:     846137  MISS:      34156
LLC PREFETCH  REQUESTED:          0  ISSUED:          0  USEFUL:      16344  USELESS:     279226
LLC TOTAL MSHR MERGED:        103
LLC LOAD MSHR MERGED:         39
LLC RFO MSHR MERGED:          0
LLC PREFETCH MSHR MERGED:         64
LLC WRITEBACK MSHR MERGED:          0
LLC TOTAL ACCESSES:    4609958 HITS:    3984692 MISSES:     625266
LLC LOAD ACCESSES:    2319237 HITS:    2094034 MISSES:     225203
LLC RFO ACCESSES:     468802 HITS:     397825 MISSES:      70977
LLC PREFETCH ACCESSES:     941626 HITS:     646696 MISSES:     294930
LLC WRITEBACK ACCESSES:     880293 HITS:     846137 MISSES:      34156
LLC 0 RQ ACCESS:    2788039
LLC 0 RQ TO_CACHE:    2788016
LLC 0 RQ MERGED:          0
LLC 0 RQ FORWARD:          0
LLC WQ ACCESS:     880293
LLC WQ TO_CACHE:     880293
LLC WQ MERGED:          0
LLC WQ FORWARD:         32
Major fault: 0 Minor fault: 12862
CPU 0 L1D next line prefetcher final stats
CPU 0 L2C PC-based stride prefetcher final stats
All Misses: 738793
All Hits: 4688036
SD Algo Stats - Switches: 0 SRR-Repls: 264143 BRR-Repls: 0

DRAM Statistics
 CHANNEL 0
 RQ ROW_BUFFER_HIT:     114638  ROW_BUFFER_MISS:     474987
 DBUS_CONGESTED:     368144
 WQ ROW_BUFFER_HIT:      16416  ROW_BUFFER_MISS:     187051  FULL:          0

 AVG_CONGESTED_CYCLE: 13
LOADS RETIRED: 136549171
INSTR RETIRED: 500000000
