
*** ChampSim Multicore Out-of-Order Simulator ***

Warmup Instructions: 100000000
Simulation Instructions: 500000000
Number of CPUs: 1
LLC sets: 2048
LLC ways: 16
Clean RRIP Policies: 1213030112130301 Dirty RRIP Policies: 2213130122131301 PSEL Width: 10 Track Set: 4294967295 PSEL Mask: 1 Demote Mask: 3340231033402310DS Algo: 0Window size: 0
Off-chip DRAM Size: 4096 MB Channels: 1 Width: 64-bit Data Rate: 1600 MT/s

CPU 0 runs /mnt/beegfs/iconst01/spec2017/Xz.trace.gz
NOT SORTED
TRACE STRING: /mnt/beegfs/iconst01/spec2017/Xz.trace.gz
SORTED
TRACE STRING: /mnt/beegfs/iconst01/spec2017/Xz.trace.gz
INITIAL
TRACE STRING: /mnt/beegfs/iconst01/spec2017/Xz.trace.gz

champsim_seed used: 210

CPU 0 L1D next line prefetcher
CPU 0 L2C IP-based stride prefetcher
Initialize DRRIP state
Assign rand_sets[0]: 454  LLC: 2048
rand_sets[0]: 454
Assign rand_sets[1]: 1662  LLC: 2048
rand_sets[1]: 1662
Assign rand_sets[2]: 1921  LLC: 2048
rand_sets[2]: 1921
Assign rand_sets[3]: 1131  LLC: 2048
rand_sets[3]: 1131
Assign rand_sets[4]: 331  LLC: 2048
rand_sets[4]: 331
Assign rand_sets[5]: 1531  LLC: 2048
rand_sets[5]: 1531
Assign rand_sets[6]: 482  LLC: 2048
rand_sets[6]: 482
Assign rand_sets[7]: 1275  LLC: 2048
rand_sets[7]: 1275
Assign rand_sets[8]: 1876  LLC: 2048
rand_sets[8]: 1876
Assign rand_sets[9]: 2038  LLC: 2048
rand_sets[9]: 2038
Assign rand_sets[10]: 701  LLC: 2048
rand_sets[10]: 701
Assign rand_sets[11]: 479  LLC: 2048
rand_sets[11]: 479
Assign rand_sets[12]: 892  LLC: 2048
rand_sets[12]: 892
Assign rand_sets[13]: 1820  LLC: 2048
rand_sets[13]: 1820
Assign rand_sets[14]: 1505  LLC: 2048
rand_sets[14]: 1505
Assign rand_sets[15]: 1159  LLC: 2048
rand_sets[15]: 1159
Assign rand_sets[16]: 513  LLC: 2048
rand_sets[16]: 513
Assign rand_sets[17]: 703  LLC: 2048
rand_sets[17]: 703
Assign rand_sets[18]: 561  LLC: 2048
rand_sets[18]: 561
Assign rand_sets[19]: 990  LLC: 2048
rand_sets[19]: 990
Assign rand_sets[20]: 342  LLC: 2048
rand_sets[20]: 342
Assign rand_sets[21]: 882  LLC: 2048
rand_sets[21]: 882
Assign rand_sets[22]: 15  LLC: 2048
rand_sets[22]: 15
Assign rand_sets[23]: 71  LLC: 2048
rand_sets[23]: 71
Assign rand_sets[24]: 1127  LLC: 2048
rand_sets[24]: 1127
Assign rand_sets[25]: 1382  LLC: 2048
rand_sets[25]: 1382
Assign rand_sets[26]: 647  LLC: 2048
rand_sets[26]: 647
Assign rand_sets[27]: 857  LLC: 2048
rand_sets[27]: 857
Assign rand_sets[28]: 1450  LLC: 2048
rand_sets[28]: 1450
Assign rand_sets[29]: 1160  LLC: 2048
rand_sets[29]: 1160
Assign rand_sets[30]: 1852  LLC: 2048
rand_sets[30]: 1852
Assign rand_sets[31]: 1881  LLC: 2048
rand_sets[31]: 1881
Assign rand_sets[32]: 1770  LLC: 2048
rand_sets[32]: 1770
Assign rand_sets[33]: 1622  LLC: 2048
rand_sets[33]: 1622
Assign rand_sets[34]: 275  LLC: 2048
rand_sets[34]: 275
Assign rand_sets[35]: 635  LLC: 2048
rand_sets[35]: 635
Assign rand_sets[36]: 466  LLC: 2048
rand_sets[36]: 466
Assign rand_sets[37]: 1413  LLC: 2048
rand_sets[37]: 1413
Assign rand_sets[38]: 417  LLC: 2048
rand_sets[38]: 417
Assign rand_sets[39]: 472  LLC: 2048
rand_sets[39]: 472
Assign rand_sets[40]: 1340  LLC: 2048
rand_sets[40]: 1340
Assign rand_sets[41]: 852  LLC: 2048
rand_sets[41]: 852
Assign rand_sets[42]: 1365  LLC: 2048
rand_sets[42]: 1365
Assign rand_sets[43]: 47  LLC: 2048
rand_sets[43]: 47
Assign rand_sets[44]: 823  LLC: 2048
rand_sets[44]: 823
Assign rand_sets[45]: 686  LLC: 2048
rand_sets[45]: 686
Assign rand_sets[46]: 1637  LLC: 2048
rand_sets[46]: 1637
Assign rand_sets[47]: 1115  LLC: 2048
rand_sets[47]: 1115
Assign rand_sets[48]: 986  LLC: 2048
rand_sets[48]: 986
Assign rand_sets[49]: 258  LLC: 2048
rand_sets[49]: 258
Assign rand_sets[50]: 633  LLC: 2048
rand_sets[50]: 633
Assign rand_sets[51]: 920  LLC: 2048
rand_sets[51]: 920
Assign rand_sets[52]: 204  LLC: 2048
rand_sets[52]: 204
Assign rand_sets[53]: 227  LLC: 2048
rand_sets[53]: 227
Assign rand_sets[54]: 1818  LLC: 2048
rand_sets[54]: 1818
Assign rand_sets[55]: 886  LLC: 2048
rand_sets[55]: 886
Assign rand_sets[56]: 1422  LLC: 2048
rand_sets[56]: 1422
Assign rand_sets[57]: 607  LLC: 2048
rand_sets[57]: 607
Assign rand_sets[58]: 217  LLC: 2048
rand_sets[58]: 217
Assign rand_sets[59]: 1945  LLC: 2048
rand_sets[59]: 1945
Assign rand_sets[60]: 143  LLC: 2048
rand_sets[60]: 143
Assign rand_sets[61]: 1311  LLC: 2048
rand_sets[61]: 1311
Assign rand_sets[62]: 319  LLC: 2048
rand_sets[62]: 319
Assign rand_sets[63]: 1846  LLC: 2048
rand_sets[63]: 1846
 CLEAN-RRIP-POLICY-1: 1-2-1-3-0-3-0-1- CLEAN-RRIP-POLICY-2: 1-2-1-3-0-3-0-1-
 DIRTY-RRIP-POLICY-1: 2-2-1-3-1-3-0-1- DIRTY-RRIP-POLICY-2: 2-2-1-3-1-3-0-1-
 PSEL width: 10
Heartbeat CPU 0 instructions: 10000000 cycles: 4305270 heartbeat IPC: 2.32273 cumulative IPC: 2.32273 (Simulation time: 0 hr 0 min 12 sec) 
Heartbeat CPU 0 instructions: 20000000 cycles: 8617102 heartbeat IPC: 2.3192 cumulative IPC: 2.32097 (Simulation time: 0 hr 0 min 23 sec) 
Heartbeat CPU 0 instructions: 30000003 cycles: 13160983 heartbeat IPC: 2.20076 cumulative IPC: 2.27947 (Simulation time: 0 hr 0 min 36 sec) 
Heartbeat CPU 0 instructions: 40000000 cycles: 17515456 heartbeat IPC: 2.29649 cumulative IPC: 2.2837 (Simulation time: 0 hr 0 min 48 sec) 
Heartbeat CPU 0 instructions: 50000001 cycles: 21878296 heartbeat IPC: 2.29209 cumulative IPC: 2.28537 (Simulation time: 0 hr 1 min 0 sec) 
Heartbeat CPU 0 instructions: 60000000 cycles: 26178531 heartbeat IPC: 2.32545 cumulative IPC: 2.29195 (Simulation time: 0 hr 1 min 11 sec) 
Heartbeat CPU 0 instructions: 70000001 cycles: 30244437 heartbeat IPC: 2.45948 cumulative IPC: 2.31448 (Simulation time: 0 hr 1 min 22 sec) 
Heartbeat CPU 0 instructions: 80000000 cycles: 34523257 heartbeat IPC: 2.33709 cumulative IPC: 2.31728 (Simulation time: 0 hr 1 min 34 sec) 
Heartbeat CPU 0 instructions: 90000001 cycles: 38739901 heartbeat IPC: 2.37155 cumulative IPC: 2.32319 (Simulation time: 0 hr 1 min 45 sec) 
Heartbeat CPU 0 instructions: 100000000 cycles: 42980323 heartbeat IPC: 2.35826 cumulative IPC: 2.32665 (Simulation time: 0 hr 1 min 56 sec) 

Warmup complete CPU 0 instructions: 100000001 cycles: 42980324 (Simulation time: 0 hr 1 min 56 sec) 

Heartbeat CPU 0 instructions: 110000000 cycles: 53139071 heartbeat IPC: 0.984373 cumulative IPC: 0.984373 (Simulation time: 0 hr 2 min 13 sec) 
Heartbeat CPU 0 instructions: 120000000 cycles: 63799059 heartbeat IPC: 0.938087 cumulative IPC: 0.960673 (Simulation time: 0 hr 2 min 31 sec) 
Heartbeat CPU 0 instructions: 130000001 cycles: 74425941 heartbeat IPC: 0.94101 cumulative IPC: 0.954028 (Simulation time: 0 hr 2 min 48 sec) 
Heartbeat CPU 0 instructions: 140000000 cycles: 84135052 heartbeat IPC: 1.02996 cumulative IPC: 0.971942 (Simulation time: 0 hr 3 min 5 sec) 
Heartbeat CPU 0 instructions: 150000001 cycles: 94468018 heartbeat IPC: 0.967776 cumulative IPC: 0.971106 (Simulation time: 0 hr 3 min 22 sec) 
Heartbeat CPU 0 instructions: 160000000 cycles: 104541966 heartbeat IPC: 0.992659 cumulative IPC: 0.974633 (Simulation time: 0 hr 3 min 39 sec) 
Heartbeat CPU 0 instructions: 170000000 cycles: 114232113 heartbeat IPC: 1.03198 cumulative IPC: 0.982431 (Simulation time: 0 hr 3 min 56 sec) 
Heartbeat CPU 0 instructions: 180000000 cycles: 124809777 heartbeat IPC: 0.945388 cumulative IPC: 0.977643 (Simulation time: 0 hr 4 min 13 sec) 
Heartbeat CPU 0 instructions: 190000001 cycles: 135096734 heartbeat IPC: 0.972105 cumulative IPC: 0.977025 (Simulation time: 0 hr 4 min 30 sec) 
Heartbeat CPU 0 instructions: 200000000 cycles: 145694987 heartbeat IPC: 0.943552 cumulative IPC: 0.973571 (Simulation time: 0 hr 4 min 48 sec) 
Heartbeat CPU 0 instructions: 210000002 cycles: 158185099 heartbeat IPC: 0.800633 cumulative IPC: 0.954822 (Simulation time: 0 hr 5 min 6 sec) 
Heartbeat CPU 0 instructions: 220000000 cycles: 170759717 heartbeat IPC: 0.795253 cumulative IPC: 0.939119 (Simulation time: 0 hr 5 min 25 sec) 
Heartbeat CPU 0 instructions: 230000000 cycles: 182972430 heartbeat IPC: 0.818819 cumulative IPC: 0.928624 (Simulation time: 0 hr 5 min 43 sec) 
Heartbeat CPU 0 instructions: 240000000 cycles: 195145741 heartbeat IPC: 0.821469 cumulative IPC: 0.920051 (Simulation time: 0 hr 6 min 1 sec) 
Heartbeat CPU 0 instructions: 250000000 cycles: 207161817 heartbeat IPC: 0.832218 cumulative IPC: 0.913623 (Simulation time: 0 hr 6 min 20 sec) 
Heartbeat CPU 0 instructions: 260000000 cycles: 218766497 heartbeat IPC: 0.861721 cumulative IPC: 0.910197 (Simulation time: 0 hr 6 min 38 sec) 
Heartbeat CPU 0 instructions: 270000003 cycles: 230676050 heartbeat IPC: 0.839662 cumulative IPC: 0.905721 (Simulation time: 0 hr 6 min 56 sec) 
Heartbeat CPU 0 instructions: 280000000 cycles: 242253671 heartbeat IPC: 0.863735 cumulative IPC: 0.903282 (Simulation time: 0 hr 7 min 14 sec) 
Heartbeat CPU 0 instructions: 290000002 cycles: 253820014 heartbeat IPC: 0.864578 cumulative IPC: 0.901159 (Simulation time: 0 hr 7 min 32 sec) 
Heartbeat CPU 0 instructions: 300000000 cycles: 266318981 heartbeat IPC: 0.800066 cumulative IPC: 0.895501 (Simulation time: 0 hr 7 min 50 sec) 
Heartbeat CPU 0 instructions: 310000000 cycles: 278529586 heartbeat IPC: 0.81896 cumulative IPC: 0.891533 (Simulation time: 0 hr 8 min 9 sec) 
Heartbeat CPU 0 instructions: 320000000 cycles: 291241582 heartbeat IPC: 0.786659 cumulative IPC: 0.886163 (Simulation time: 0 hr 8 min 27 sec) 
Heartbeat CPU 0 instructions: 330000003 cycles: 303244827 heartbeat IPC: 0.833108 cumulative IPC: 0.883716 (Simulation time: 0 hr 8 min 45 sec) 
Heartbeat CPU 0 instructions: 340000000 cycles: 315415429 heartbeat IPC: 0.821652 cumulative IPC: 0.880944 (Simulation time: 0 hr 9 min 4 sec) 
Heartbeat CPU 0 instructions: 350000001 cycles: 326440320 heartbeat IPC: 0.907039 cumulative IPC: 0.881959 (Simulation time: 0 hr 9 min 21 sec) 
Heartbeat CPU 0 instructions: 360000000 cycles: 338277788 heartbeat IPC: 0.844775 cumulative IPC: 0.880468 (Simulation time: 0 hr 9 min 39 sec) 
Heartbeat CPU 0 instructions: 370000001 cycles: 349727213 heartbeat IPC: 0.873406 cumulative IPC: 0.880204 (Simulation time: 0 hr 9 min 57 sec) 
Heartbeat CPU 0 instructions: 380000000 cycles: 360757135 heartbeat IPC: 0.906625 cumulative IPC: 0.881122 (Simulation time: 0 hr 10 min 15 sec) 
Heartbeat CPU 0 instructions: 390000003 cycles: 371407450 heartbeat IPC: 0.93894 cumulative IPC: 0.882996 (Simulation time: 0 hr 10 min 33 sec) 
Heartbeat CPU 0 instructions: 400000000 cycles: 381654718 heartbeat IPC: 0.97587 cumulative IPC: 0.885807 (Simulation time: 0 hr 10 min 50 sec) 
Heartbeat CPU 0 instructions: 410000000 cycles: 392187369 heartbeat IPC: 0.949429 cumulative IPC: 0.887725 (Simulation time: 0 hr 11 min 8 sec) 
Heartbeat CPU 0 instructions: 420000000 cycles: 401583927 heartbeat IPC: 1.06422 cumulative IPC: 0.89235 (Simulation time: 0 hr 11 min 25 sec) 
Heartbeat CPU 0 instructions: 430000002 cycles: 410678589 heartbeat IPC: 1.09955 cumulative IPC: 0.897475 (Simulation time: 0 hr 11 min 42 sec) 
Heartbeat CPU 0 instructions: 440000000 cycles: 420971075 heartbeat IPC: 0.971582 cumulative IPC: 0.899493 (Simulation time: 0 hr 11 min 59 sec) 
Heartbeat CPU 0 instructions: 450000002 cycles: 432078675 heartbeat IPC: 0.900285 cumulative IPC: 0.899516 (Simulation time: 0 hr 12 min 17 sec) 
Heartbeat CPU 0 instructions: 460000000 cycles: 443659971 heartbeat IPC: 0.863461 cumulative IPC: 0.898473 (Simulation time: 0 hr 12 min 35 sec) 
Heartbeat CPU 0 instructions: 470000003 cycles: 453873408 heartbeat IPC: 0.979103 cumulative IPC: 0.900478 (Simulation time: 0 hr 12 min 52 sec) 
Heartbeat CPU 0 instructions: 480000000 cycles: 464430125 heartbeat IPC: 0.947264 cumulative IPC: 0.901649 (Simulation time: 0 hr 13 min 10 sec) 
Heartbeat CPU 0 instructions: 490000000 cycles: 474404886 heartbeat IPC: 1.00253 cumulative IPC: 0.903982 (Simulation time: 0 hr 13 min 27 sec) 
Heartbeat CPU 0 instructions: 500000000 cycles: 486217777 heartbeat IPC: 0.846533 cumulative IPC: 0.902451 (Simulation time: 0 hr 13 min 45 sec) 
Heartbeat CPU 0 instructions: 510000002 cycles: 498646764 heartbeat IPC: 0.804571 cumulative IPC: 0.899781 (Simulation time: 0 hr 14 min 3 sec) 
Heartbeat CPU 0 instructions: 520000000 cycles: 510517409 heartbeat IPC: 0.842414 cumulative IPC: 0.898324 (Simulation time: 0 hr 14 min 22 sec) 
Heartbeat CPU 0 instructions: 530000001 cycles: 522383457 heartbeat IPC: 0.842741 cumulative IPC: 0.896949 (Simulation time: 0 hr 14 min 40 sec) 
Heartbeat CPU 0 instructions: 540000000 cycles: 534013760 heartbeat IPC: 0.859823 cumulative IPC: 0.896069 (Simulation time: 0 hr 14 min 58 sec) 
Heartbeat CPU 0 instructions: 550000001 cycles: 545433834 heartbeat IPC: 0.875651 cumulative IPC: 0.895605 (Simulation time: 0 hr 15 min 16 sec) 
Heartbeat CPU 0 instructions: 560000000 cycles: 557028320 heartbeat IPC: 0.862479 cumulative IPC: 0.894858 (Simulation time: 0 hr 15 min 34 sec) 
Heartbeat CPU 0 instructions: 570000000 cycles: 568464391 heartbeat IPC: 0.874426 cumulative IPC: 0.894413 (Simulation time: 0 hr 15 min 52 sec) 
Heartbeat CPU 0 instructions: 580000000 cycles: 579240063 heartbeat IPC: 0.928016 cumulative IPC: 0.895089 (Simulation time: 0 hr 16 min 9 sec) 
Heartbeat CPU 0 instructions: 590000003 cycles: 590684875 heartbeat IPC: 0.873759 cumulative IPC: 0.894643 (Simulation time: 0 hr 16 min 27 sec) 
Heartbeat CPU 0 instructions: 600000000 cycles: 601292962 heartbeat IPC: 0.942677 cumulative IPC: 0.895556 (Simulation time: 0 hr 16 min 45 sec) 
Finished CPU 0 instructions: 500000001 cycles: 558312646 cumulative IPC: 0.895556 (Simulation time: 0 hr 16 min 45 sec) 

CPU 0 Branch Prediction Accuracy: 93.0095% MPKI: 10.0046
Number of Branches: 71558147 Number of Mispredictions: 5002285
Number of LOAD Instructions: 145708893
Number of LOAD Instructions (ROI): 145708893
Number of STORE Instructions: 40463820
Number of STORE Instructions (ROI): 40463820
Total Destination Memory Operands: 45240498
Total Destination Memory Operands (ROI): 45240498
Total Source Memory Operands: 145708893
Total Source Memory Operands (ROI): 145708893
Number of DEPENDED LOADS: 10668026
Number of DEPENDED LOADS (ROI): 10668026
Number of SQ_ADDED: 45240498
Number of SQ_ADDED (ROI): 45240498
Number of LQ_ADDED: 193325024
Number of LQ_ADDED (ROI): 193325024
Number of Instructions read from trace: 600000002

ChampSim completed all CPUs

Region of Interest Statistics

CPU 0 cumulative IPC: 0.895556 instructions: 500000001 cycles: 558312646
ITLB TOTAL     ACCESS:   77992825  HIT:   77992824  MISS:          1
ITLB LOAD      ACCESS:   77992825  HIT:   77992824  MISS:          1
ITLB RFO       ACCESS:          0  HIT:          0  MISS:          0
ITLB PREFETCH  ACCESS:          0  HIT:          0  MISS:          0
ITLB WRITEBACK ACCESS:          0  HIT:          0  MISS:          0
ITLB PREFETCH  REQUESTED:          0  ISSUED:          0  USEFUL:          0  USELESS:          0
ITLB TOTAL MSHR MERGED:          0
ITLB LOAD MSHR MERGED:          0
ITLB RFO MSHR MERGED:          0
ITLB PREFETCH MSHR MERGED:          0
ITLB WRITEBACK MSHR MERGED:          0
ITLB TOTAL ACCESSES:   77992825 HITS:   77992824 MISSES:          1
ITLB LOAD ACCESSES:   77992825 HITS:   77992824 MISSES:          1
ITLB RFO ACCESSES:          0 HITS:          0 MISSES:          0
ITLB PREFETCH ACCESSES:          0 HITS:          0 MISSES:          0
ITLB WRITEBACK ACCESSES:          0 HITS:          0 MISSES:          0
ITLB RQ ACCESS:  499999995
ITLB RQ TO_CACHE:   77992825
ITLB RQ MERGED:  422007170
ITLB RQ FORWARD:          0
ITLB WQ ACCESS:          0
ITLB WQ TO_CACHE:          0
ITLB WQ MERGED:          0
ITLB WQ FORWARD:          0
DTLB TOTAL     ACCESS:   98671984  HIT:   97790648  MISS:     881336
DTLB LOAD      ACCESS:   70892453  HIT:   70030920  MISS:     861533
DTLB RFO       ACCESS:   27779531  HIT:   27759728  MISS:      19803
DTLB PREFETCH  ACCESS:          0  HIT:          0  MISS:          0
DTLB WRITEBACK ACCESS:          0  HIT:          0  MISS:          0
DTLB PREFETCH  REQUESTED:          0  ISSUED:          0  USEFUL:          0  USELESS:          0
DTLB TOTAL MSHR MERGED:      87295
DTLB LOAD MSHR MERGED:      65549
DTLB RFO MSHR MERGED:      21746
DTLB PREFETCH MSHR MERGED:          0
DTLB WRITEBACK MSHR MERGED:          0
DTLB TOTAL ACCESSES:   98759279 HITS:   97790648 MISSES:     968631
DTLB LOAD ACCESSES:   70958002 HITS:   70030920 MISSES:     927082
DTLB RFO ACCESSES:   27801277 HITS:   27759728 MISSES:      41549
DTLB PREFETCH ACCESSES:          0 HITS:          0 MISSES:          0
DTLB WRITEBACK ACCESSES:          0 HITS:          0 MISSES:          0
DTLB RQ ACCESS:  150277030
DTLB RQ TO_CACHE:   98759279
DTLB RQ MERGED:   51517751
DTLB RQ FORWARD:          0
DTLB WQ ACCESS:          0
DTLB WQ TO_CACHE:          0
DTLB WQ MERGED:          0
DTLB WQ FORWARD:          0
L1D TOTAL     ACCESS:  173336119  HIT:  169167494  MISS:    4168625
L1D LOAD      ACCESS:   75285948  HIT:   73404583  MISS:    1881365
L1D RFO       ACCESS:   36778362  HIT:   36571736  MISS:     206626
L1D PREFETCH  ACCESS:   61271809  HIT:   59191175  MISS:    2080634
L1D WRITEBACK ACCESS:          0  HIT:          0  MISS:          0
L1D PREFETCH  REQUESTED:   75389149  ISSUED:   74824946  USEFUL:     415081  USELESS:    1665542
L1D TOTAL MSHR MERGED:     374926
L1D LOAD MSHR MERGED:     112012
L1D RFO MSHR MERGED:     133068
L1D PREFETCH MSHR MERGED:     129846
L1D WRITEBACK MSHR MERGED:          0
L1D TOTAL ACCESSES:  173862638 HITS:  169319087 MISSES:    4543551
L1D LOAD ACCESSES:   75392086 HITS:   73407520 MISSES:    1984566
L1D RFO ACCESSES:   36910013 HITS:   36571736 MISSES:     338277
L1D PREFETCH ACCESSES:   61560539 HITS:   59339831 MISSES:    2220708
L1D WRITEBACK ACCESSES:          0 HITS:          0 MISSES:          0
L1D RQ ACCESS:  112614627
L1D RQ TO_CACHE:   75389149
L1D RQ MERGED:   37222541
L1D RQ FORWARD:          0
L1D WQ ACCESS:   37662403
L1D WQ TO_CACHE:   36910013
L1D WQ MERGED:     752390
L1D WQ FORWARD:     151593
L1I TOTAL     ACCESS:  100700741  HIT:  100700716  MISS:         25
L1I LOAD      ACCESS:  100700741  HIT:  100700716  MISS:         25
L1I RFO       ACCESS:          0  HIT:          0  MISS:          0
L1I PREFETCH  ACCESS:          0  HIT:          0  MISS:          0
L1I WRITEBACK ACCESS:          0  HIT:          0  MISS:          0
L1I PREFETCH  REQUESTED:          0  ISSUED:          0  USEFUL:          0  USELESS:          0
L1I TOTAL MSHR MERGED:         10
L1I LOAD MSHR MERGED:         10
L1I RFO MSHR MERGED:          0
L1I PREFETCH MSHR MERGED:          0
L1I WRITEBACK MSHR MERGED:          0
L1I TOTAL ACCESSES:  100700751 HITS:  100700716 MISSES:         35
L1I LOAD ACCESSES:  100700751 HITS:  100700716 MISSES:         35
L1I RFO ACCESSES:          0 HITS:          0 MISSES:          0
L1I PREFETCH ACCESSES:          0 HITS:          0 MISSES:          0
L1I WRITEBACK ACCESSES:          0 HITS:          0 MISSES:          0
L1I RQ ACCESS:  499999995
L1I RQ TO_CACHE:  100700751
L1I RQ MERGED:  399299244
L1I RQ FORWARD:          0
L1I WQ ACCESS:          0
L1I WQ TO_CACHE:          0
L1I WQ MERGED:          0
L1I WQ FORWARD:          0
L2C TOTAL     ACCESS:    5852575  HIT:    4009395  MISS:    1843180
L2C LOAD      ACCESS:    1872453  HIT:    1061499  MISS:     810954
L2C RFO       ACCESS:     205201  HIT:     100563  MISS:     104638
L2C PREFETCH  ACCESS:    2169286  HIT:    1246118  MISS:     923168
L2C WRITEBACK ACCESS:    1605635  HIT:    1601215  MISS:       4420
L2C PREFETCH  REQUESTED:      91709  ISSUED:      91709  USEFUL:      86452  USELESS:     836739
L2C TOTAL MSHR MERGED:       1005
L2C LOAD MSHR MERGED:        251
L2C RFO MSHR MERGED:          0
L2C PREFETCH MSHR MERGED:        754
L2C WRITEBACK MSHR MERGED:          0
L2C TOTAL ACCESSES:    5853925 HITS:    4009566 MISSES:    1844359
L2C LOAD ACCESSES:    1872579 HITS:    1061625 MISSES:     810954
L2C RFO ACCESSES:     205209 HITS:     100571 MISSES:     104638
L2C PREFETCH ACCESSES:    2170502 HITS:    1246155 MISSES:     924347
L2C WRITEBACK ACCESSES:    1605635 HITS:    1601215 MISSES:       4420
L2C RQ ACCESS:    2077788
L2C RQ TO_CACHE:    2077654
L2C RQ MERGED:          0
L2C RQ FORWARD:          0
L2C WQ ACCESS:    1605635
L2C WQ TO_CACHE:    1605635
L2C WQ MERGED:          0
L2C WQ FORWARD:        171
LLC TOTAL     ACCESS:    2673582  HIT:    2146606  MISS:     526976
LLC LOAD      ACCESS:     810694  HIT:     627772  MISS:     182922
LLC RFO       ACCESS:     104637  HIT:      59382  MISS:      45255
LLC PREFETCH  ACCESS:     923576  HIT:     658199  MISS:     265377
LLC WRITEBACK ACCESS:     834675  HIT:     801253  MISS:      33422
LLC PREFETCH  REQUESTED:          0  ISSUED:          0  USEFUL:       9590  USELESS:     255768
LLC TOTAL MSHR MERGED:          5
LLC LOAD MSHR MERGED:          2
LLC RFO MSHR MERGED:          0
LLC PREFETCH MSHR MERGED:          3
LLC WRITEBACK MSHR MERGED:          0
LLC TOTAL ACCESSES:    2673599 HITS:    2146618 MISSES:     526981
LLC LOAD ACCESSES:     810703 HITS:     627781 MISSES:     182922
LLC RFO ACCESSES:     104638 HITS:      59383 MISSES:      45255
LLC PREFETCH ACCESSES:     923583 HITS:     658201 MISSES:     265382
LLC WRITEBACK ACCESSES:     834675 HITS:     801253 MISSES:      33422
LLC 0 RQ ACCESS:     915341
LLC 0 RQ TO_CACHE:     915331
LLC 0 RQ MERGED:          0
LLC 0 RQ FORWARD:          0
LLC WQ ACCESS:     834675
LLC WQ TO_CACHE:     834675
LLC WQ MERGED:          0
LLC WQ FORWARD:         12
Major fault: 0 Minor fault: 11278
CPU 0 L1D next line prefetcher final stats
CPU 0 L2C PC-based stride prefetcher final stats
All Misses: 643769
All Hits: 2410831
SD Algo Stats - Switches: 0 SRR-Repls: 216992 BRR-Repls: 0

DRAM Statistics
 CHANNEL 0
 RQ ROW_BUFFER_HIT:      29559  ROW_BUFFER_MISS:     463382
 DBUS_CONGESTED:     372971
 WQ ROW_BUFFER_HIT:      16322  ROW_BUFFER_MISS:     218966  FULL:          0

 AVG_CONGESTED_CYCLE: 13
LOADS RETIRED: 121769268
INSTR RETIRED: 500000000
