
*** ChampSim Multicore Out-of-Order Simulator ***

Warmup Instructions: 100000000
Simulation Instructions: 500000000
Number of CPUs: 1
LLC sets: 2048
LLC ways: 16
Clean RRIP Policies: 1213100012131000 Dirty RRIP Policies: 1203100012031000 PSEL Width: 10 Track Set: 4294967295 PSEL Mask: 1 Demote Mask: 4234244442342444DS Algo: 0Window size: 0
Off-chip DRAM Size: 4096 MB Channels: 1 Width: 64-bit Data Rate: 1600 MT/s

CPU 0 runs /mnt/beegfs/iconst01/spec2017/Gcc.trace.gz
NOT SORTED
TRACE STRING: /mnt/beegfs/iconst01/spec2017/Gcc.trace.gz
SORTED
TRACE STRING: /mnt/beegfs/iconst01/spec2017/Gcc.trace.gz
INITIAL
TRACE STRING: /mnt/beegfs/iconst01/spec2017/Gcc.trace.gz

champsim_seed used: 269

CPU 0 L1D next line prefetcher
CPU 0 L2C IP-based stride prefetcher
Initialize DRRIP state
Assign rand_sets[0]: 454  LLC: 2048
rand_sets[0]: 454
Assign rand_sets[1]: 1662  LLC: 2048
rand_sets[1]: 1662
Assign rand_sets[2]: 1921  LLC: 2048
rand_sets[2]: 1921
Assign rand_sets[3]: 1131  LLC: 2048
rand_sets[3]: 1131
Assign rand_sets[4]: 331  LLC: 2048
rand_sets[4]: 331
Assign rand_sets[5]: 1531  LLC: 2048
rand_sets[5]: 1531
Assign rand_sets[6]: 482  LLC: 2048
rand_sets[6]: 482
Assign rand_sets[7]: 1275  LLC: 2048
rand_sets[7]: 1275
Assign rand_sets[8]: 1876  LLC: 2048
rand_sets[8]: 1876
Assign rand_sets[9]: 2038  LLC: 2048
rand_sets[9]: 2038
Assign rand_sets[10]: 701  LLC: 2048
rand_sets[10]: 701
Assign rand_sets[11]: 479  LLC: 2048
rand_sets[11]: 479
Assign rand_sets[12]: 892  LLC: 2048
rand_sets[12]: 892
Assign rand_sets[13]: 1820  LLC: 2048
rand_sets[13]: 1820
Assign rand_sets[14]: 1505  LLC: 2048
rand_sets[14]: 1505
Assign rand_sets[15]: 1159  LLC: 2048
rand_sets[15]: 1159
Assign rand_sets[16]: 513  LLC: 2048
rand_sets[16]: 513
Assign rand_sets[17]: 703  LLC: 2048
rand_sets[17]: 703
Assign rand_sets[18]: 561  LLC: 2048
rand_sets[18]: 561
Assign rand_sets[19]: 990  LLC: 2048
rand_sets[19]: 990
Assign rand_sets[20]: 342  LLC: 2048
rand_sets[20]: 342
Assign rand_sets[21]: 882  LLC: 2048
rand_sets[21]: 882
Assign rand_sets[22]: 15  LLC: 2048
rand_sets[22]: 15
Assign rand_sets[23]: 71  LLC: 2048
rand_sets[23]: 71
Assign rand_sets[24]: 1127  LLC: 2048
rand_sets[24]: 1127
Assign rand_sets[25]: 1382  LLC: 2048
rand_sets[25]: 1382
Assign rand_sets[26]: 647  LLC: 2048
rand_sets[26]: 647
Assign rand_sets[27]: 857  LLC: 2048
rand_sets[27]: 857
Assign rand_sets[28]: 1450  LLC: 2048
rand_sets[28]: 1450
Assign rand_sets[29]: 1160  LLC: 2048
rand_sets[29]: 1160
Assign rand_sets[30]: 1852  LLC: 2048
rand_sets[30]: 1852
Assign rand_sets[31]: 1881  LLC: 2048
rand_sets[31]: 1881
Assign rand_sets[32]: 1770  LLC: 2048
rand_sets[32]: 1770
Assign rand_sets[33]: 1622  LLC: 2048
rand_sets[33]: 1622
Assign rand_sets[34]: 275  LLC: 2048
rand_sets[34]: 275
Assign rand_sets[35]: 635  LLC: 2048
rand_sets[35]: 635
Assign rand_sets[36]: 466  LLC: 2048
rand_sets[36]: 466
Assign rand_sets[37]: 1413  LLC: 2048
rand_sets[37]: 1413
Assign rand_sets[38]: 417  LLC: 2048
rand_sets[38]: 417
Assign rand_sets[39]: 472  LLC: 2048
rand_sets[39]: 472
Assign rand_sets[40]: 1340  LLC: 2048
rand_sets[40]: 1340
Assign rand_sets[41]: 852  LLC: 2048
rand_sets[41]: 852
Assign rand_sets[42]: 1365  LLC: 2048
rand_sets[42]: 1365
Assign rand_sets[43]: 47  LLC: 2048
rand_sets[43]: 47
Assign rand_sets[44]: 823  LLC: 2048
rand_sets[44]: 823
Assign rand_sets[45]: 686  LLC: 2048
rand_sets[45]: 686
Assign rand_sets[46]: 1637  LLC: 2048
rand_sets[46]: 1637
Assign rand_sets[47]: 1115  LLC: 2048
rand_sets[47]: 1115
Assign rand_sets[48]: 986  LLC: 2048
rand_sets[48]: 986
Assign rand_sets[49]: 258  LLC: 2048
rand_sets[49]: 258
Assign rand_sets[50]: 633  LLC: 2048
rand_sets[50]: 633
Assign rand_sets[51]: 920  LLC: 2048
rand_sets[51]: 920
Assign rand_sets[52]: 204  LLC: 2048
rand_sets[52]: 204
Assign rand_sets[53]: 227  LLC: 2048
rand_sets[53]: 227
Assign rand_sets[54]: 1818  LLC: 2048
rand_sets[54]: 1818
Assign rand_sets[55]: 886  LLC: 2048
rand_sets[55]: 886
Assign rand_sets[56]: 1422  LLC: 2048
rand_sets[56]: 1422
Assign rand_sets[57]: 607  LLC: 2048
rand_sets[57]: 607
Assign rand_sets[58]: 217  LLC: 2048
rand_sets[58]: 217
Assign rand_sets[59]: 1945  LLC: 2048
rand_sets[59]: 1945
Assign rand_sets[60]: 143  LLC: 2048
rand_sets[60]: 143
Assign rand_sets[61]: 1311  LLC: 2048
rand_sets[61]: 1311
Assign rand_sets[62]: 319  LLC: 2048
rand_sets[62]: 319
Assign rand_sets[63]: 1846  LLC: 2048
rand_sets[63]: 1846
 CLEAN-RRIP-POLICY-1: 1-2-1-3-1-0-0-0- CLEAN-RRIP-POLICY-2: 1-2-1-3-1-0-0-0-
 DIRTY-RRIP-POLICY-1: 1-2-0-3-1-0-0-0- DIRTY-RRIP-POLICY-2: 1-2-0-3-1-0-0-0-
 PSEL width: 10
Heartbeat CPU 0 instructions: 10000001 cycles: 7315980 heartbeat IPC: 1.36687 cumulative IPC: 1.36687 (Simulation time: 0 hr 0 min 16 sec) 
Heartbeat CPU 0 instructions: 20000000 cycles: 14307465 heartbeat IPC: 1.43031 cumulative IPC: 1.39787 (Simulation time: 0 hr 0 min 32 sec) 
Heartbeat CPU 0 instructions: 30000001 cycles: 21020356 heartbeat IPC: 1.48967 cumulative IPC: 1.42719 (Simulation time: 0 hr 0 min 49 sec) 
Heartbeat CPU 0 instructions: 40000000 cycles: 27481162 heartbeat IPC: 1.54779 cumulative IPC: 1.45554 (Simulation time: 0 hr 1 min 6 sec) 
Heartbeat CPU 0 instructions: 50000001 cycles: 33582897 heartbeat IPC: 1.63888 cumulative IPC: 1.48885 (Simulation time: 0 hr 1 min 23 sec) 
Heartbeat CPU 0 instructions: 60000000 cycles: 40064036 heartbeat IPC: 1.54294 cumulative IPC: 1.4976 (Simulation time: 0 hr 1 min 40 sec) 
Heartbeat CPU 0 instructions: 70000000 cycles: 47102138 heartbeat IPC: 1.42084 cumulative IPC: 1.48613 (Simulation time: 0 hr 1 min 56 sec) 
Heartbeat CPU 0 instructions: 80000000 cycles: 54191607 heartbeat IPC: 1.41054 cumulative IPC: 1.47624 (Simulation time: 0 hr 2 min 11 sec) 
Heartbeat CPU 0 instructions: 90000003 cycles: 61195902 heartbeat IPC: 1.4277 cumulative IPC: 1.47069 (Simulation time: 0 hr 2 min 27 sec) 
Heartbeat CPU 0 instructions: 100000000 cycles: 68363021 heartbeat IPC: 1.39526 cumulative IPC: 1.46278 (Simulation time: 0 hr 2 min 43 sec) 

Warmup complete CPU 0 instructions: 100000004 cycles: 68363022 (Simulation time: 0 hr 2 min 43 sec) 

Heartbeat CPU 0 instructions: 110000003 cycles: 96021116 heartbeat IPC: 0.361558 cumulative IPC: 0.361558 (Simulation time: 0 hr 3 min 14 sec) 
Heartbeat CPU 0 instructions: 120000000 cycles: 123476200 heartbeat IPC: 0.364231 cumulative IPC: 0.36289 (Simulation time: 0 hr 3 min 45 sec) 
Heartbeat CPU 0 instructions: 130000000 cycles: 148461948 heartbeat IPC: 0.400228 cumulative IPC: 0.374537 (Simulation time: 0 hr 4 min 16 sec) 
Heartbeat CPU 0 instructions: 140000000 cycles: 177896072 heartbeat IPC: 0.339742 cumulative IPC: 0.365187 (Simulation time: 0 hr 4 min 46 sec) 
Heartbeat CPU 0 instructions: 150000000 cycles: 207727925 heartbeat IPC: 0.335212 cumulative IPC: 0.35877 (Simulation time: 0 hr 5 min 17 sec) 
Heartbeat CPU 0 instructions: 160000000 cycles: 235123852 heartbeat IPC: 0.365018 cumulative IPC: 0.359797 (Simulation time: 0 hr 5 min 47 sec) 
Heartbeat CPU 0 instructions: 170000001 cycles: 263165362 heartbeat IPC: 0.356614 cumulative IPC: 0.359339 (Simulation time: 0 hr 6 min 19 sec) 
Heartbeat CPU 0 instructions: 180000000 cycles: 291623479 heartbeat IPC: 0.351394 cumulative IPC: 0.358326 (Simulation time: 0 hr 6 min 51 sec) 
Heartbeat CPU 0 instructions: 190000002 cycles: 319638315 heartbeat IPC: 0.356954 cumulative IPC: 0.358173 (Simulation time: 0 hr 7 min 22 sec) 
Heartbeat CPU 0 instructions: 200000000 cycles: 347958719 heartbeat IPC: 0.353102 cumulative IPC: 0.357659 (Simulation time: 0 hr 7 min 53 sec) 
Heartbeat CPU 0 instructions: 210000002 cycles: 375760489 heartbeat IPC: 0.359689 cumulative IPC: 0.357843 (Simulation time: 0 hr 8 min 24 sec) 
Heartbeat CPU 0 instructions: 220000000 cycles: 404812612 heartbeat IPC: 0.344209 cumulative IPC: 0.356666 (Simulation time: 0 hr 8 min 54 sec) 
Heartbeat CPU 0 instructions: 230000000 cycles: 432334809 heartbeat IPC: 0.363343 cumulative IPC: 0.357171 (Simulation time: 0 hr 9 min 24 sec) 
Heartbeat CPU 0 instructions: 240000000 cycles: 458250608 heartbeat IPC: 0.385865 cumulative IPC: 0.359078 (Simulation time: 0 hr 9 min 54 sec) 
Heartbeat CPU 0 instructions: 250000000 cycles: 488383446 heartbeat IPC: 0.331864 cumulative IPC: 0.357125 (Simulation time: 0 hr 10 min 26 sec) 
Heartbeat CPU 0 instructions: 260000000 cycles: 515482612 heartbeat IPC: 0.369015 cumulative IPC: 0.357846 (Simulation time: 0 hr 10 min 56 sec) 
Heartbeat CPU 0 instructions: 270000003 cycles: 543954536 heartbeat IPC: 0.351223 cumulative IPC: 0.35745 (Simulation time: 0 hr 11 min 28 sec) 
Heartbeat CPU 0 instructions: 280000000 cycles: 572150279 heartbeat IPC: 0.354663 cumulative IPC: 0.357294 (Simulation time: 0 hr 12 min 0 sec) 
Heartbeat CPU 0 instructions: 290000000 cycles: 600982309 heartbeat IPC: 0.346836 cumulative IPC: 0.356728 (Simulation time: 0 hr 12 min 33 sec) 
Heartbeat CPU 0 instructions: 300000000 cycles: 630804328 heartbeat IPC: 0.335323 cumulative IPC: 0.355593 (Simulation time: 0 hr 13 min 3 sec) 
Heartbeat CPU 0 instructions: 310000001 cycles: 660135796 heartbeat IPC: 0.340931 cumulative IPC: 0.354866 (Simulation time: 0 hr 13 min 34 sec) 
Heartbeat CPU 0 instructions: 320000000 cycles: 688328931 heartbeat IPC: 0.354696 cumulative IPC: 0.354858 (Simulation time: 0 hr 14 min 4 sec) 
Heartbeat CPU 0 instructions: 330000000 cycles: 716954319 heartbeat IPC: 0.34934 cumulative IPC: 0.354615 (Simulation time: 0 hr 14 min 35 sec) 
Heartbeat CPU 0 instructions: 340000000 cycles: 746212839 heartbeat IPC: 0.341781 cumulative IPC: 0.354061 (Simulation time: 0 hr 15 min 6 sec) 
Heartbeat CPU 0 instructions: 350000003 cycles: 773203161 heartbeat IPC: 0.370503 cumulative IPC: 0.35469 (Simulation time: 0 hr 15 min 36 sec) 
Heartbeat CPU 0 instructions: 360000000 cycles: 801283137 heartbeat IPC: 0.356126 cumulative IPC: 0.354745 (Simulation time: 0 hr 16 min 6 sec) 
Heartbeat CPU 0 instructions: 370000000 cycles: 829453428 heartbeat IPC: 0.354984 cumulative IPC: 0.354754 (Simulation time: 0 hr 16 min 35 sec) 
Heartbeat CPU 0 instructions: 380000000 cycles: 857954282 heartbeat IPC: 0.350867 cumulative IPC: 0.354614 (Simulation time: 0 hr 17 min 5 sec) 
Heartbeat CPU 0 instructions: 390000001 cycles: 885556942 heartbeat IPC: 0.362284 cumulative IPC: 0.354873 (Simulation time: 0 hr 17 min 35 sec) 
Heartbeat CPU 0 instructions: 400000000 cycles: 914184786 heartbeat IPC: 0.34931 cumulative IPC: 0.354685 (Simulation time: 0 hr 18 min 4 sec) 
Heartbeat CPU 0 instructions: 410000001 cycles: 941482857 heartbeat IPC: 0.366326 cumulative IPC: 0.355049 (Simulation time: 0 hr 18 min 33 sec) 
Heartbeat CPU 0 instructions: 420000000 cycles: 968794028 heartbeat IPC: 0.36615 cumulative IPC: 0.355385 (Simulation time: 0 hr 19 min 1 sec) 
Heartbeat CPU 0 instructions: 430000002 cycles: 996478446 heartbeat IPC: 0.361214 cumulative IPC: 0.355559 (Simulation time: 0 hr 19 min 29 sec) 
Heartbeat CPU 0 instructions: 440000000 cycles: 1025961710 heartbeat IPC: 0.339175 cumulative IPC: 0.355055 (Simulation time: 0 hr 19 min 57 sec) 
Heartbeat CPU 0 instructions: 450000002 cycles: 1055184516 heartbeat IPC: 0.342199 cumulative IPC: 0.354674 (Simulation time: 0 hr 20 min 25 sec) 
Heartbeat CPU 0 instructions: 460000000 cycles: 1082867808 heartbeat IPC: 0.361229 cumulative IPC: 0.354853 (Simulation time: 0 hr 20 min 53 sec) 
Heartbeat CPU 0 instructions: 470000000 cycles: 1110496227 heartbeat IPC: 0.361946 cumulative IPC: 0.355041 (Simulation time: 0 hr 21 min 21 sec) 
Heartbeat CPU 0 instructions: 480000000 cycles: 1138372503 heartbeat IPC: 0.358728 cumulative IPC: 0.355137 (Simulation time: 0 hr 21 min 49 sec) 
Heartbeat CPU 0 instructions: 490000000 cycles: 1165961109 heartbeat IPC: 0.362468 cumulative IPC: 0.355321 (Simulation time: 0 hr 22 min 17 sec) 
Heartbeat CPU 0 instructions: 500000000 cycles: 1194237649 heartbeat IPC: 0.35365 cumulative IPC: 0.355279 (Simulation time: 0 hr 22 min 45 sec) 
Heartbeat CPU 0 instructions: 510000000 cycles: 1229288174 heartbeat IPC: 0.285302 cumulative IPC: 0.353167 (Simulation time: 0 hr 23 min 16 sec) 
Heartbeat CPU 0 instructions: 520000000 cycles: 1257245514 heartbeat IPC: 0.357688 cumulative IPC: 0.353273 (Simulation time: 0 hr 23 min 45 sec) 
Heartbeat CPU 0 instructions: 530000001 cycles: 1286481979 heartbeat IPC: 0.342039 cumulative IPC: 0.353003 (Simulation time: 0 hr 24 min 14 sec) 
Heartbeat CPU 0 instructions: 540000000 cycles: 1314475370 heartbeat IPC: 0.357227 cumulative IPC: 0.353098 (Simulation time: 0 hr 24 min 43 sec) 
Heartbeat CPU 0 instructions: 550000001 cycles: 1343665283 heartbeat IPC: 0.342584 cumulative IPC: 0.352858 (Simulation time: 0 hr 25 min 14 sec) 
Heartbeat CPU 0 instructions: 560000000 cycles: 1369017286 heartbeat IPC: 0.394446 cumulative IPC: 0.353668 (Simulation time: 0 hr 25 min 42 sec) 
Heartbeat CPU 0 instructions: 570000000 cycles: 1398479368 heartbeat IPC: 0.339419 cumulative IPC: 0.353353 (Simulation time: 0 hr 26 min 11 sec) 
Heartbeat CPU 0 instructions: 580000000 cycles: 1426431233 heartbeat IPC: 0.357758 cumulative IPC: 0.353443 (Simulation time: 0 hr 26 min 40 sec) 
Heartbeat CPU 0 instructions: 590000001 cycles: 1451196351 heartbeat IPC: 0.403794 cumulative IPC: 0.354345 (Simulation time: 0 hr 27 min 7 sec) 
Heartbeat CPU 0 instructions: 600000000 cycles: 1477289166 heartbeat IPC: 0.383247 cumulative IPC: 0.35488 (Simulation time: 0 hr 27 min 36 sec) 
Finished CPU 0 instructions: 500000000 cycles: 1408926166 cumulative IPC: 0.35488 (Simulation time: 0 hr 27 min 36 sec) 

CPU 0 Branch Prediction Accuracy: 86.4311% MPKI: 26.2662
Number of Branches: 96788573 Number of Mispredictions: 13133102
Number of LOAD Instructions: 164682285
Number of LOAD Instructions (ROI): 164682285
Number of STORE Instructions: 78194750
Number of STORE Instructions (ROI): 78194750
Total Destination Memory Operands: 83268534
Total Destination Memory Operands (ROI): 83268534
Total Source Memory Operands: 164712438
Total Source Memory Operands (ROI): 164712438
Number of DEPENDED LOADS: 7060019
Number of DEPENDED LOADS (ROI): 7060019
Number of SQ_ADDED: 83268522
Number of SQ_ADDED (ROI): 83268522
Number of LQ_ADDED: 236724664
Number of LQ_ADDED (ROI): 236724664
Number of Instructions read from trace: 600000066

ChampSim completed all CPUs

Region of Interest Statistics

CPU 0 cumulative IPC: 0.35488 instructions: 500000000 cycles: 1408926166
ITLB TOTAL     ACCESS:  100512821  HIT:  100308375  MISS:     204446
ITLB LOAD      ACCESS:  100512821  HIT:  100308375  MISS:     204446
ITLB RFO       ACCESS:          0  HIT:          0  MISS:          0
ITLB PREFETCH  ACCESS:          0  HIT:          0  MISS:          0
ITLB WRITEBACK ACCESS:          0  HIT:          0  MISS:          0
ITLB PREFETCH  REQUESTED:          0  ISSUED:          0  USEFUL:          0  USELESS:          0
ITLB TOTAL MSHR MERGED:     172424
ITLB LOAD MSHR MERGED:     172424
ITLB RFO MSHR MERGED:          0
ITLB PREFETCH MSHR MERGED:          0
ITLB WRITEBACK MSHR MERGED:          0
ITLB TOTAL ACCESSES:  100685245 HITS:  100308375 MISSES:     376870
ITLB LOAD ACCESSES:  100685245 HITS:  100308375 MISSES:     376870
ITLB RFO ACCESSES:          0 HITS:          0 MISSES:          0
ITLB PREFETCH ACCESSES:          0 HITS:          0 MISSES:          0
ITLB WRITEBACK ACCESSES:          0 HITS:          0 MISSES:          0
ITLB RQ ACCESS:  500000057
ITLB RQ TO_CACHE:  100685245
ITLB RQ MERGED:  399314812
ITLB RQ FORWARD:          0
ITLB WQ ACCESS:          0
ITLB WQ TO_CACHE:          0
ITLB WQ MERGED:          0
ITLB WQ FORWARD:          0
DTLB TOTAL     ACCESS:  165335952  HIT:  164701603  MISS:     634349
DTLB LOAD      ACCESS:  106291904  HIT:  105721927  MISS:     569977
DTLB RFO       ACCESS:   59044048  HIT:   58979676  MISS:      64372
DTLB PREFETCH  ACCESS:          0  HIT:          0  MISS:          0
DTLB WRITEBACK ACCESS:          0  HIT:          0  MISS:          0
DTLB PREFETCH  REQUESTED:          0  ISSUED:          0  USEFUL:          0  USELESS:          0
DTLB TOTAL MSHR MERGED:     100010
DTLB LOAD MSHR MERGED:      59471
DTLB RFO MSHR MERGED:      40539
DTLB PREFETCH MSHR MERGED:          0
DTLB WRITEBACK MSHR MERGED:          0
DTLB TOTAL ACCESSES:  165435962 HITS:  164701603 MISSES:     734359
DTLB LOAD ACCESSES:  106351375 HITS:  105721927 MISSES:     629448
DTLB RFO ACCESSES:   59084587 HITS:   58979676 MISSES:     104911
DTLB PREFETCH ACCESSES:          0 HITS:          0 MISSES:          0
DTLB WRITEBACK ACCESSES:          0 HITS:          0 MISSES:          0
DTLB RQ ACCESS:  200310881
DTLB RQ TO_CACHE:  165435962
DTLB RQ MERGED:   34874919
DTLB RQ FORWARD:          0
DTLB WQ ACCESS:          0
DTLB WQ TO_CACHE:          0
DTLB WQ MERGED:          0
DTLB WQ FORWARD:          0
L1D TOTAL     ACCESS:  281817070  HIT:  273907782  MISS:    7909288
L1D LOAD      ACCESS:  110415151  HIT:  107136584  MISS:    3278567
L1D RFO       ACCESS:   67110583  HIT:   66219644  MISS:     890939
L1D PREFETCH  ACCESS:  104291336  HIT:  100551554  MISS:    3739782
L1D WRITEBACK ACCESS:          0  HIT:          0  MISS:          0
L1D PREFETCH  REQUESTED:  110816530  ISSUED:  109117245  USEFUL:    1660547  USELESS:    2079199
L1D TOTAL MSHR MERGED:    2885879
L1D LOAD MSHR MERGED:     499393
L1D RFO MSHR MERGED:    1875726
L1D PREFETCH MSHR MERGED:     510760
L1D WRITEBACK MSHR MERGED:          0
L1D TOTAL ACCESSES:  284730459 HITS:  273935292 MISSES:   10795167
L1D LOAD ACCESSES:  110818047 HITS:  107138101 MISSES:    3679946
L1D RFO ACCESSES:   68974167 HITS:   66219644 MISSES:    2754523
L1D PREFETCH ACCESSES:  104938245 HITS:  100577547 MISSES:    4360698
L1D WRITEBACK ACCESSES:          0 HITS:          0 MISSES:          0
L1D RQ ACCESS:  130758278
L1D RQ TO_CACHE:  110816533
L1D RQ MERGED:   19940228
L1D RQ FORWARD:          0
L1D WQ ACCESS:   69552603
L1D WQ TO_CACHE:   68974168
L1D WQ MERGED:     578435
L1D WQ FORWARD:      27510
L1I TOTAL     ACCESS:  126560574  HIT:  122322021  MISS:    4238553
L1I LOAD      ACCESS:  126560574  HIT:  122322021  MISS:    4238553
L1I RFO       ACCESS:          0  HIT:          0  MISS:          0
L1I PREFETCH  ACCESS:          0  HIT:          0  MISS:          0
L1I WRITEBACK ACCESS:          0  HIT:          0  MISS:          0
L1I PREFETCH  REQUESTED:          0  ISSUED:          0  USEFUL:          0  USELESS:          0
L1I TOTAL MSHR MERGED:    1834454
L1I LOAD MSHR MERGED:    1834454
L1I RFO MSHR MERGED:          0
L1I PREFETCH MSHR MERGED:          0
L1I WRITEBACK MSHR MERGED:          0
L1I TOTAL ACCESSES:  128395031 HITS:  122322021 MISSES:    6073010
L1I LOAD ACCESSES:  128395031 HITS:  122322021 MISSES:    6073010
L1I RFO ACCESSES:          0 HITS:          0 MISSES:          0
L1I PREFETCH ACCESSES:          0 HITS:          0 MISSES:          0
L1I WRITEBACK ACCESSES:          0 HITS:          0 MISSES:          0
L1I RQ ACCESS:  500000057
L1I RQ TO_CACHE:  128395031
L1I RQ MERGED:  371605026
L1I RQ FORWARD:          0
L1I WQ ACCESS:          0
L1I WQ TO_CACHE:          0
L1I WQ MERGED:          0
L1I WQ FORWARD:          0
L2C TOTAL     ACCESS:   14904840  HIT:   11158298  MISS:    3746542
L2C LOAD      ACCESS:    7418899  HIT:    5098786  MISS:    2320113
L2C RFO       ACCESS:     878700  HIT:     409902  MISS:     468798
L2C PREFETCH  ACCESS:    4568011  HIT:    3627635  MISS:     940376
L2C WRITEBACK ACCESS:    2039230  HIT:    2021975  MISS:      17255
L2C PREFETCH  REQUESTED:     842749  ISSUED:     842749  USEFUL:     203296  USELESS:     736786
L2C TOTAL MSHR MERGED:       7363
L2C LOAD MSHR MERGED:        849
L2C RFO MSHR MERGED:          0
L2C PREFETCH MSHR MERGED:       6514
L2C WRITEBACK MSHR MERGED:          0
L2C TOTAL ACCESSES:   14913100 HITS:   11158745 MISSES:    3754355
L2C LOAD ACCESSES:    7419106 HITS:    5098993 MISSES:    2320113
L2C RFO ACCESSES:     878797 HITS:     409999 MISSES:     468798
L2C PREFETCH ACCESSES:    4575967 HITS:    3627778 MISSES:     948189
L2C WRITEBACK ACCESSES:    2039230 HITS:    2021975 MISSES:      17255
L2C RQ ACCESS:    8297906
L2C RQ TO_CACHE:    8297602
L2C RQ MERGED:          0
L2C RQ FORWARD:          0
L2C WQ ACCESS:    2039230
L2C WQ TO_CACHE:    2039230
L2C WQ MERGED:          0
L2C WQ FORWARD:        447
LLC TOTAL     ACCESS:    4609894  HIT:    3962093  MISS:     647801
LLC LOAD      ACCESS:    2319250  HIT:    2085707  MISS:     233543
LLC RFO       ACCESS:     468788  HIT:     391958  MISS:      76830
LLC PREFETCH  ACCESS:     941545  HIT:     638054  MISS:     303491
LLC WRITEBACK ACCESS:     880311  HIT:     846374  MISS:      33937
LLC PREFETCH  REQUESTED:          0  ISSUED:          0  USEFUL:      16000  USELESS:     288008
LLC TOTAL MSHR MERGED:        111
LLC LOAD MSHR MERGED:         37
LLC RFO MSHR MERGED:          0
LLC PREFETCH MSHR MERGED:         74
LLC WRITEBACK MSHR MERGED:          0
LLC TOTAL ACCESSES:    4610040 HITS:    3962128 MISSES:     647912
LLC LOAD ACCESSES:    2319264 HITS:    2085721 MISSES:     233543
LLC RFO ACCESSES:     468798 HITS:     391968 MISSES:      76830
LLC PREFETCH ACCESSES:     941667 HITS:     638065 MISSES:     303602
LLC WRITEBACK ACCESSES:     880311 HITS:     846374 MISSES:      33937
LLC 0 RQ ACCESS:    2788062
LLC 0 RQ TO_CACHE:    2788038
LLC 0 RQ MERGED:          0
LLC 0 RQ FORWARD:          0
LLC WQ ACCESS:     880311
LLC WQ TO_CACHE:     880311
LLC WQ MERGED:          0
LLC WQ FORWARD:         35
Major fault: 0 Minor fault: 12862
CPU 0 L1D next line prefetcher final stats
CPU 0 L2C PC-based stride prefetcher final stats
All Misses: 764856
All Hits: 4662044
SD Algo Stats - Switches: 0 SRR-Repls: 273521 BRR-Repls: 0

DRAM Statistics
 CHANNEL 0
 RQ ROW_BUFFER_HIT:     121906  ROW_BUFFER_MISS:     490704
 DBUS_CONGESTED:     374859
 WQ ROW_BUFFER_HIT:      17149  ROW_BUFFER_MISS:     191869  FULL:          0

 AVG_CONGESTED_CYCLE: 13
LOADS RETIRED: 136549171
INSTR RETIRED: 500000000
