
*** ChampSim Multicore Out-of-Order Simulator ***

Warmup Instructions: 100000000
Simulation Instructions: 500000000
Number of CPUs: 1
LLC sets: 2048
LLC ways: 16
Clean RRIP Policies: 2213230222132302 Dirty RRIP Policies: 1203030212030302 PSEL Width: 10 Track Set: 4294967295 PSEL Mask: 1 Demote Mask: 1040100010401000DS Algo: 0Window size: 0
Off-chip DRAM Size: 4096 MB Channels: 1 Width: 64-bit Data Rate: 1600 MT/s

CPU 0 runs /mnt/beegfs/iconst01/spec2017/Omnetpp.trace.gz
NOT SORTED
TRACE STRING: /mnt/beegfs/iconst01/spec2017/Omnetpp.trace.gz
SORTED
TRACE STRING: /mnt/beegfs/iconst01/spec2017/Omnetpp.trace.gz
INITIAL
TRACE STRING: /mnt/beegfs/iconst01/spec2017/Omnetpp.trace.gz

champsim_seed used: 739

CPU 0 L1D next line prefetcher
CPU 0 L2C IP-based stride prefetcher
Initialize DRRIP state
Assign rand_sets[0]: 454  LLC: 2048
rand_sets[0]: 454
Assign rand_sets[1]: 1662  LLC: 2048
rand_sets[1]: 1662
Assign rand_sets[2]: 1921  LLC: 2048
rand_sets[2]: 1921
Assign rand_sets[3]: 1131  LLC: 2048
rand_sets[3]: 1131
Assign rand_sets[4]: 331  LLC: 2048
rand_sets[4]: 331
Assign rand_sets[5]: 1531  LLC: 2048
rand_sets[5]: 1531
Assign rand_sets[6]: 482  LLC: 2048
rand_sets[6]: 482
Assign rand_sets[7]: 1275  LLC: 2048
rand_sets[7]: 1275
Assign rand_sets[8]: 1876  LLC: 2048
rand_sets[8]: 1876
Assign rand_sets[9]: 2038  LLC: 2048
rand_sets[9]: 2038
Assign rand_sets[10]: 701  LLC: 2048
rand_sets[10]: 701
Assign rand_sets[11]: 479  LLC: 2048
rand_sets[11]: 479
Assign rand_sets[12]: 892  LLC: 2048
rand_sets[12]: 892
Assign rand_sets[13]: 1820  LLC: 2048
rand_sets[13]: 1820
Assign rand_sets[14]: 1505  LLC: 2048
rand_sets[14]: 1505
Assign rand_sets[15]: 1159  LLC: 2048
rand_sets[15]: 1159
Assign rand_sets[16]: 513  LLC: 2048
rand_sets[16]: 513
Assign rand_sets[17]: 703  LLC: 2048
rand_sets[17]: 703
Assign rand_sets[18]: 561  LLC: 2048
rand_sets[18]: 561
Assign rand_sets[19]: 990  LLC: 2048
rand_sets[19]: 990
Assign rand_sets[20]: 342  LLC: 2048
rand_sets[20]: 342
Assign rand_sets[21]: 882  LLC: 2048
rand_sets[21]: 882
Assign rand_sets[22]: 15  LLC: 2048
rand_sets[22]: 15
Assign rand_sets[23]: 71  LLC: 2048
rand_sets[23]: 71
Assign rand_sets[24]: 1127  LLC: 2048
rand_sets[24]: 1127
Assign rand_sets[25]: 1382  LLC: 2048
rand_sets[25]: 1382
Assign rand_sets[26]: 647  LLC: 2048
rand_sets[26]: 647
Assign rand_sets[27]: 857  LLC: 2048
rand_sets[27]: 857
Assign rand_sets[28]: 1450  LLC: 2048
rand_sets[28]: 1450
Assign rand_sets[29]: 1160  LLC: 2048
rand_sets[29]: 1160
Assign rand_sets[30]: 1852  LLC: 2048
rand_sets[30]: 1852
Assign rand_sets[31]: 1881  LLC: 2048
rand_sets[31]: 1881
Assign rand_sets[32]: 1770  LLC: 2048
rand_sets[32]: 1770
Assign rand_sets[33]: 1622  LLC: 2048
rand_sets[33]: 1622
Assign rand_sets[34]: 275  LLC: 2048
rand_sets[34]: 275
Assign rand_sets[35]: 635  LLC: 2048
rand_sets[35]: 635
Assign rand_sets[36]: 466  LLC: 2048
rand_sets[36]: 466
Assign rand_sets[37]: 1413  LLC: 2048
rand_sets[37]: 1413
Assign rand_sets[38]: 417  LLC: 2048
rand_sets[38]: 417
Assign rand_sets[39]: 472  LLC: 2048
rand_sets[39]: 472
Assign rand_sets[40]: 1340  LLC: 2048
rand_sets[40]: 1340
Assign rand_sets[41]: 852  LLC: 2048
rand_sets[41]: 852
Assign rand_sets[42]: 1365  LLC: 2048
rand_sets[42]: 1365
Assign rand_sets[43]: 47  LLC: 2048
rand_sets[43]: 47
Assign rand_sets[44]: 823  LLC: 2048
rand_sets[44]: 823
Assign rand_sets[45]: 686  LLC: 2048
rand_sets[45]: 686
Assign rand_sets[46]: 1637  LLC: 2048
rand_sets[46]: 1637
Assign rand_sets[47]: 1115  LLC: 2048
rand_sets[47]: 1115
Assign rand_sets[48]: 986  LLC: 2048
rand_sets[48]: 986
Assign rand_sets[49]: 258  LLC: 2048
rand_sets[49]: 258
Assign rand_sets[50]: 633  LLC: 2048
rand_sets[50]: 633
Assign rand_sets[51]: 920  LLC: 2048
rand_sets[51]: 920
Assign rand_sets[52]: 204  LLC: 2048
rand_sets[52]: 204
Assign rand_sets[53]: 227  LLC: 2048
rand_sets[53]: 227
Assign rand_sets[54]: 1818  LLC: 2048
rand_sets[54]: 1818
Assign rand_sets[55]: 886  LLC: 2048
rand_sets[55]: 886
Assign rand_sets[56]: 1422  LLC: 2048
rand_sets[56]: 1422
Assign rand_sets[57]: 607  LLC: 2048
rand_sets[57]: 607
Assign rand_sets[58]: 217  LLC: 2048
rand_sets[58]: 217
Assign rand_sets[59]: 1945  LLC: 2048
rand_sets[59]: 1945
Assign rand_sets[60]: 143  LLC: 2048
rand_sets[60]: 143
Assign rand_sets[61]: 1311  LLC: 2048
rand_sets[61]: 1311
Assign rand_sets[62]: 319  LLC: 2048
rand_sets[62]: 319
Assign rand_sets[63]: 1846  LLC: 2048
rand_sets[63]: 1846
 CLEAN-RRIP-POLICY-1: 2-2-1-3-2-3-0-2- CLEAN-RRIP-POLICY-2: 2-2-1-3-2-3-0-2-
 DIRTY-RRIP-POLICY-1: 1-2-0-3-0-3-0-2- DIRTY-RRIP-POLICY-2: 1-2-0-3-0-3-0-2-
 PSEL width: 10
Heartbeat CPU 0 instructions: 10000000 cycles: 7319778 heartbeat IPC: 1.36616 cumulative IPC: 1.36616 (Simulation time: 0 hr 0 min 20 sec) 
Heartbeat CPU 0 instructions: 20000000 cycles: 14623430 heartbeat IPC: 1.36918 cumulative IPC: 1.36767 (Simulation time: 0 hr 0 min 40 sec) 
Heartbeat CPU 0 instructions: 30000003 cycles: 21924765 heartbeat IPC: 1.36961 cumulative IPC: 1.36832 (Simulation time: 0 hr 0 min 59 sec) 
Heartbeat CPU 0 instructions: 40000000 cycles: 29212955 heartbeat IPC: 1.37208 cumulative IPC: 1.36926 (Simulation time: 0 hr 1 min 19 sec) 
Heartbeat CPU 0 instructions: 50000000 cycles: 36489325 heartbeat IPC: 1.37431 cumulative IPC: 1.37026 (Simulation time: 0 hr 1 min 39 sec) 
Heartbeat CPU 0 instructions: 60000000 cycles: 43769186 heartbeat IPC: 1.37365 cumulative IPC: 1.37083 (Simulation time: 0 hr 1 min 59 sec) 
Heartbeat CPU 0 instructions: 70000001 cycles: 51054358 heartbeat IPC: 1.37265 cumulative IPC: 1.37109 (Simulation time: 0 hr 2 min 19 sec) 
Heartbeat CPU 0 instructions: 80000000 cycles: 58329184 heartbeat IPC: 1.3746 cumulative IPC: 1.37153 (Simulation time: 0 hr 2 min 39 sec) 
Heartbeat CPU 0 instructions: 90000000 cycles: 65635326 heartbeat IPC: 1.36871 cumulative IPC: 1.37121 (Simulation time: 0 hr 2 min 58 sec) 
Heartbeat CPU 0 instructions: 100000000 cycles: 72927244 heartbeat IPC: 1.37138 cumulative IPC: 1.37123 (Simulation time: 0 hr 3 min 18 sec) 

Warmup complete CPU 0 instructions: 100000002 cycles: 72927245 (Simulation time: 0 hr 3 min 18 sec) 

Heartbeat CPU 0 instructions: 110000002 cycles: 113319475 heartbeat IPC: 0.247572 cumulative IPC: 0.247572 (Simulation time: 0 hr 3 min 57 sec) 
Heartbeat CPU 0 instructions: 120000000 cycles: 153421037 heartbeat IPC: 0.249367 cumulative IPC: 0.248466 (Simulation time: 0 hr 4 min 37 sec) 
Heartbeat CPU 0 instructions: 130000002 cycles: 193758283 heartbeat IPC: 0.24791 cumulative IPC: 0.248281 (Simulation time: 0 hr 5 min 16 sec) 
Heartbeat CPU 0 instructions: 140000000 cycles: 234212788 heartbeat IPC: 0.247191 cumulative IPC: 0.248007 (Simulation time: 0 hr 5 min 55 sec) 
Heartbeat CPU 0 instructions: 150000002 cycles: 274226378 heartbeat IPC: 0.249915 cumulative IPC: 0.248387 (Simulation time: 0 hr 6 min 35 sec) 
Heartbeat CPU 0 instructions: 160000000 cycles: 314289447 heartbeat IPC: 0.249606 cumulative IPC: 0.248589 (Simulation time: 0 hr 7 min 14 sec) 
Heartbeat CPU 0 instructions: 170000001 cycles: 353594078 heartbeat IPC: 0.254423 cumulative IPC: 0.249406 (Simulation time: 0 hr 7 min 53 sec) 
Heartbeat CPU 0 instructions: 180000000 cycles: 393611662 heartbeat IPC: 0.24989 cumulative IPC: 0.249466 (Simulation time: 0 hr 8 min 32 sec) 
Heartbeat CPU 0 instructions: 190000002 cycles: 433585157 heartbeat IPC: 0.250166 cumulative IPC: 0.249544 (Simulation time: 0 hr 9 min 11 sec) 
Heartbeat CPU 0 instructions: 200000000 cycles: 474807427 heartbeat IPC: 0.242587 cumulative IPC: 0.24883 (Simulation time: 0 hr 9 min 50 sec) 
Heartbeat CPU 0 instructions: 210000003 cycles: 514863188 heartbeat IPC: 0.249652 cumulative IPC: 0.248905 (Simulation time: 0 hr 10 min 30 sec) 
Heartbeat CPU 0 instructions: 220000000 cycles: 555158873 heartbeat IPC: 0.248165 cumulative IPC: 0.248843 (Simulation time: 0 hr 11 min 9 sec) 
Heartbeat CPU 0 instructions: 230000000 cycles: 595417924 heartbeat IPC: 0.248391 cumulative IPC: 0.248808 (Simulation time: 0 hr 11 min 48 sec) 
Heartbeat CPU 0 instructions: 240000000 cycles: 635386667 heartbeat IPC: 0.250196 cumulative IPC: 0.248907 (Simulation time: 0 hr 12 min 27 sec) 
Heartbeat CPU 0 instructions: 250000000 cycles: 675388514 heartbeat IPC: 0.249988 cumulative IPC: 0.248979 (Simulation time: 0 hr 13 min 7 sec) 
Heartbeat CPU 0 instructions: 260000000 cycles: 715528483 heartbeat IPC: 0.249128 cumulative IPC: 0.248988 (Simulation time: 0 hr 13 min 46 sec) 
Heartbeat CPU 0 instructions: 270000000 cycles: 755709289 heartbeat IPC: 0.248875 cumulative IPC: 0.248981 (Simulation time: 0 hr 14 min 25 sec) 
Heartbeat CPU 0 instructions: 280000000 cycles: 796256960 heartbeat IPC: 0.246623 cumulative IPC: 0.248849 (Simulation time: 0 hr 15 min 5 sec) 
Heartbeat CPU 0 instructions: 290000001 cycles: 836020824 heartbeat IPC: 0.251485 cumulative IPC: 0.248986 (Simulation time: 0 hr 15 min 44 sec) 
Heartbeat CPU 0 instructions: 300000000 cycles: 876430128 heartbeat IPC: 0.247468 cumulative IPC: 0.24891 (Simulation time: 0 hr 16 min 23 sec) 
Heartbeat CPU 0 instructions: 310000000 cycles: 916813874 heartbeat IPC: 0.247624 cumulative IPC: 0.248849 (Simulation time: 0 hr 17 min 3 sec) 
Heartbeat CPU 0 instructions: 320000000 cycles: 956947977 heartbeat IPC: 0.249165 cumulative IPC: 0.248863 (Simulation time: 0 hr 17 min 42 sec) 
Heartbeat CPU 0 instructions: 330000000 cycles: 997040136 heartbeat IPC: 0.249425 cumulative IPC: 0.248887 (Simulation time: 0 hr 18 min 22 sec) 
Heartbeat CPU 0 instructions: 340000000 cycles: 1037701302 heartbeat IPC: 0.245935 cumulative IPC: 0.248763 (Simulation time: 0 hr 19 min 1 sec) 
Heartbeat CPU 0 instructions: 350000001 cycles: 1077892624 heartbeat IPC: 0.24881 cumulative IPC: 0.248765 (Simulation time: 0 hr 19 min 41 sec) 
Heartbeat CPU 0 instructions: 360000000 cycles: 1118342142 heartbeat IPC: 0.247222 cumulative IPC: 0.248705 (Simulation time: 0 hr 20 min 20 sec) 
Heartbeat CPU 0 instructions: 370000000 cycles: 1157874913 heartbeat IPC: 0.252955 cumulative IPC: 0.24886 (Simulation time: 0 hr 20 min 59 sec) 
Heartbeat CPU 0 instructions: 380000000 cycles: 1198326805 heartbeat IPC: 0.247207 cumulative IPC: 0.248801 (Simulation time: 0 hr 21 min 38 sec) 
Heartbeat CPU 0 instructions: 390000001 cycles: 1238309166 heartbeat IPC: 0.25011 cumulative IPC: 0.248845 (Simulation time: 0 hr 22 min 17 sec) 
Heartbeat CPU 0 instructions: 400000000 cycles: 1278387089 heartbeat IPC: 0.249514 cumulative IPC: 0.248868 (Simulation time: 0 hr 22 min 57 sec) 
Heartbeat CPU 0 instructions: 410000000 cycles: 1318290226 heartbeat IPC: 0.250607 cumulative IPC: 0.248923 (Simulation time: 0 hr 23 min 37 sec) 
Heartbeat CPU 0 instructions: 420000000 cycles: 1358245060 heartbeat IPC: 0.250283 cumulative IPC: 0.248966 (Simulation time: 0 hr 24 min 16 sec) 
Heartbeat CPU 0 instructions: 430000000 cycles: 1398262938 heartbeat IPC: 0.249888 cumulative IPC: 0.248994 (Simulation time: 0 hr 24 min 56 sec) 
Heartbeat CPU 0 instructions: 440000000 cycles: 1438292297 heartbeat IPC: 0.249817 cumulative IPC: 0.249018 (Simulation time: 0 hr 25 min 35 sec) 
Heartbeat CPU 0 instructions: 450000002 cycles: 1478205810 heartbeat IPC: 0.250542 cumulative IPC: 0.249061 (Simulation time: 0 hr 26 min 14 sec) 
Heartbeat CPU 0 instructions: 460000000 cycles: 1517561321 heartbeat IPC: 0.254094 cumulative IPC: 0.249198 (Simulation time: 0 hr 26 min 52 sec) 
Heartbeat CPU 0 instructions: 470000000 cycles: 1557755982 heartbeat IPC: 0.248789 cumulative IPC: 0.249187 (Simulation time: 0 hr 27 min 31 sec) 
Heartbeat CPU 0 instructions: 480000000 cycles: 1597616032 heartbeat IPC: 0.250878 cumulative IPC: 0.249231 (Simulation time: 0 hr 28 min 10 sec) 
Heartbeat CPU 0 instructions: 490000001 cycles: 1637610555 heartbeat IPC: 0.250034 cumulative IPC: 0.249252 (Simulation time: 0 hr 28 min 49 sec) 
Heartbeat CPU 0 instructions: 500000000 cycles: 1677821164 heartbeat IPC: 0.248691 cumulative IPC: 0.249238 (Simulation time: 0 hr 29 min 28 sec) 
Heartbeat CPU 0 instructions: 510000000 cycles: 1717489415 heartbeat IPC: 0.252091 cumulative IPC: 0.249306 (Simulation time: 0 hr 30 min 7 sec) 
Heartbeat CPU 0 instructions: 520000000 cycles: 1757911549 heartbeat IPC: 0.247389 cumulative IPC: 0.24926 (Simulation time: 0 hr 30 min 46 sec) 
Heartbeat CPU 0 instructions: 530000000 cycles: 1797794158 heartbeat IPC: 0.250736 cumulative IPC: 0.249295 (Simulation time: 0 hr 31 min 25 sec) 
Heartbeat CPU 0 instructions: 540000000 cycles: 1837437606 heartbeat IPC: 0.252248 cumulative IPC: 0.249361 (Simulation time: 0 hr 32 min 3 sec) 
Heartbeat CPU 0 instructions: 550000001 cycles: 1877809417 heartbeat IPC: 0.247698 cumulative IPC: 0.249324 (Simulation time: 0 hr 32 min 43 sec) 
Heartbeat CPU 0 instructions: 560000000 cycles: 1918239939 heartbeat IPC: 0.247338 cumulative IPC: 0.24928 (Simulation time: 0 hr 33 min 22 sec) 
Heartbeat CPU 0 instructions: 570000003 cycles: 1958668375 heartbeat IPC: 0.247351 cumulative IPC: 0.249239 (Simulation time: 0 hr 34 min 1 sec) 
Heartbeat CPU 0 instructions: 580000000 cycles: 1998943004 heartbeat IPC: 0.248295 cumulative IPC: 0.249219 (Simulation time: 0 hr 34 min 40 sec) 
Heartbeat CPU 0 instructions: 590000001 cycles: 2039662219 heartbeat IPC: 0.245584 cumulative IPC: 0.249144 (Simulation time: 0 hr 35 min 20 sec) 
Heartbeat CPU 0 instructions: 600000000 cycles: 2080101081 heartbeat IPC: 0.247287 cumulative IPC: 0.249106 (Simulation time: 0 hr 35 min 59 sec) 
Finished CPU 0 instructions: 500000000 cycles: 2007173844 cumulative IPC: 0.249106 (Simulation time: 0 hr 35 min 59 sec) 

CPU 0 Branch Prediction Accuracy: 96.2429% MPKI: 5.85335
Number of Branches: 77897976 Number of Mispredictions: 2926674
Number of LOAD Instructions: 193081861
Number of LOAD Instructions (ROI): 193081861
Number of STORE Instructions: 97310749
Number of STORE Instructions (ROI): 97310749
Total Destination Memory Operands: 106368027
Total Destination Memory Operands (ROI): 106368027
Total Source Memory Operands: 193081861
Total Source Memory Operands (ROI): 193081861
Number of DEPENDED LOADS: 6426465
Number of DEPENDED LOADS (ROI): 6426465
Number of SQ_ADDED: 106367982
Number of SQ_ADDED (ROI): 106367982
Number of LQ_ADDED: 426987644
Number of LQ_ADDED (ROI): 426987644
Number of Instructions read from trace: 600000256

ChampSim completed all CPUs

Region of Interest Statistics

CPU 0 cumulative IPC: 0.249106 instructions: 500000000 cycles: 2007173844
ITLB TOTAL     ACCESS:  151308785  HIT:  151292954  MISS:      15831
ITLB LOAD      ACCESS:  151308785  HIT:  151292954  MISS:      15831
ITLB RFO       ACCESS:          0  HIT:          0  MISS:          0
ITLB PREFETCH  ACCESS:          0  HIT:          0  MISS:          0
ITLB WRITEBACK ACCESS:          0  HIT:          0  MISS:          0
ITLB PREFETCH  REQUESTED:          0  ISSUED:          0  USEFUL:          0  USELESS:          0
ITLB TOTAL MSHR MERGED:      17421
ITLB LOAD MSHR MERGED:      17421
ITLB RFO MSHR MERGED:          0
ITLB PREFETCH MSHR MERGED:          0
ITLB WRITEBACK MSHR MERGED:          0
ITLB TOTAL ACCESSES:  151326206 HITS:  151292954 MISSES:      33252
ITLB LOAD ACCESSES:  151326206 HITS:  151292954 MISSES:      33252
ITLB RFO ACCESSES:          0 HITS:          0 MISSES:          0
ITLB PREFETCH ACCESSES:          0 HITS:          0 MISSES:          0
ITLB WRITEBACK ACCESSES:          0 HITS:          0 MISSES:          0
ITLB RQ ACCESS:  500000242
ITLB RQ TO_CACHE:  151326206
ITLB RQ MERGED:  348674036
ITLB RQ FORWARD:          0
ITLB WQ ACCESS:          0
ITLB WQ TO_CACHE:          0
ITLB WQ MERGED:          0
ITLB WQ FORWARD:          0
DTLB TOTAL     ACCESS:  199574476  HIT:  194195402  MISS:    5379074
DTLB LOAD      ACCESS:  123148297  HIT:  118129705  MISS:    5018592
DTLB RFO       ACCESS:   76426179  HIT:   76065697  MISS:     360482
DTLB PREFETCH  ACCESS:          0  HIT:          0  MISS:          0
DTLB WRITEBACK ACCESS:          0  HIT:          0  MISS:          0
DTLB PREFETCH  REQUESTED:          0  ISSUED:          0  USEFUL:          0  USELESS:          0
DTLB TOTAL MSHR MERGED:     917705
DTLB LOAD MSHR MERGED:     807572
DTLB RFO MSHR MERGED:     110133
DTLB PREFETCH MSHR MERGED:          0
DTLB WRITEBACK MSHR MERGED:          0
DTLB TOTAL ACCESSES:  200492181 HITS:  194195402 MISSES:    6296779
DTLB LOAD ACCESSES:  123955869 HITS:  118129705 MISSES:    5826164
DTLB RFO ACCESSES:   76536312 HITS:   76065697 MISSES:     470615
DTLB PREFETCH ACCESSES:          0 HITS:          0 MISSES:          0
DTLB WRITEBACK ACCESSES:          0 HITS:          0 MISSES:          0
DTLB RQ ACCESS:  243898998
DTLB RQ TO_CACHE:  200492181
DTLB RQ MERGED:   43406817
DTLB RQ FORWARD:          0
DTLB WQ ACCESS:          0
DTLB WQ TO_CACHE:          0
DTLB WQ MERGED:          0
DTLB WQ FORWARD:          0
L1D TOTAL     ACCESS:  335671934  HIT:  317575701  MISS:   18096233
L1D LOAD      ACCESS:  127713788  HIT:  118771575  MISS:    8942213
L1D RFO       ACCESS:   87096048  HIT:   86317741  MISS:     778307
L1D PREFETCH  ACCESS:  120862098  HIT:  112486385  MISS:    8375713
L1D WRITEBACK ACCESS:          0  HIT:          0  MISS:          0
L1D PREFETCH  REQUESTED:  128489740  ISSUED:  126891785  USEFUL:    1744172  USELESS:    6631553
L1D TOTAL MSHR MERGED:    3810974
L1D LOAD MSHR MERGED:     938855
L1D RFO MSHR MERGED:    1048090
L1D PREFETCH MSHR MERGED:    1824029
L1D WRITEBACK MSHR MERGED:          0
L1D TOTAL ACCESSES:  339569153 HITS:  317661946 MISSES:   21907207
L1D LOAD ACCESSES:  128490172 HITS:  118772007 MISSES:    9718165
L1D RFO ACCESSES:   88086192 HITS:   86317741 MISSES:    1768451
L1D PREFETCH ACCESSES:  122992789 HITS:  112572198 MISSES:   10420591
L1D WRITEBACK ACCESSES:          0 HITS:          0 MISSES:          0
L1D RQ ACCESS:  155267613
L1D RQ TO_CACHE:  128489740
L1D RQ MERGED:   26777441
L1D RQ FORWARD:          0
L1D WQ ACCESS:   88631385
L1D WQ TO_CACHE:   88086191
L1D WQ MERGED:     545194
L1D WQ FORWARD:      86245
L1I TOTAL     ACCESS:  175609389  HIT:  175342925  MISS:     266464
L1I LOAD      ACCESS:  175609389  HIT:  175342925  MISS:     266464
L1I RFO       ACCESS:          0  HIT:          0  MISS:          0
L1I PREFETCH  ACCESS:          0  HIT:          0  MISS:          0
L1I WRITEBACK ACCESS:          0  HIT:          0  MISS:          0
L1I PREFETCH  REQUESTED:          0  ISSUED:          0  USEFUL:          0  USELESS:          0
L1I TOTAL MSHR MERGED:     212970
L1I LOAD MSHR MERGED:     212970
L1I RFO MSHR MERGED:          0
L1I PREFETCH MSHR MERGED:          0
L1I WRITEBACK MSHR MERGED:          0
L1I TOTAL ACCESSES:  175822359 HITS:  175342925 MISSES:     479434
L1I LOAD ACCESSES:  175822359 HITS:  175342925 MISSES:     479434
L1I RFO ACCESSES:          0 HITS:          0 MISSES:          0
L1I PREFETCH ACCESSES:          0 HITS:          0 MISSES:          0
L1I WRITEBACK ACCESSES:          0 HITS:          0 MISSES:          0
L1I RQ ACCESS:  500000242
L1I RQ TO_CACHE:  175822359
L1I RQ MERGED:  324177883
L1I RQ FORWARD:          0
L1I WQ ACCESS:          0
L1I WQ TO_CACHE:          0
L1I WQ MERGED:          0
L1I WQ FORWARD:          0
L2C TOTAL     ACCESS:   23738791  HIT:   12113027  MISS:   11625764
L2C LOAD      ACCESS:    9044592  HIT:    3564995  MISS:    5479597
L2C RFO       ACCESS:     720305  HIT:     130127  MISS:     590178
L2C PREFETCH  ACCESS:    8613556  HIT:    3086270  MISS:    5527286
L2C WRITEBACK ACCESS:    5360338  HIT:    5331635  MISS:      28703
L2C PREFETCH  REQUESTED:      18042  ISSUED:      18042  USEFUL:     322970  USELESS:    5204491
L2C TOTAL MSHR MERGED:         25
L2C LOAD MSHR MERGED:          4
L2C RFO MSHR MERGED:          0
L2C PREFETCH MSHR MERGED:         21
L2C WRITEBACK MSHR MERGED:          0
L2C TOTAL ACCESSES:   23740617 HITS:   12114820 MISSES:   11625797
L2C LOAD ACCESSES:    9045774 HITS:    3566177 MISSES:    5479597
L2C RFO ACCESSES:     720361 HITS:     130183 MISSES:     590178
L2C PREFETCH ACCESSES:    8614144 HITS:    3086825 MISSES:    5527319
L2C WRITEBACK ACCESSES:    5360338 HITS:    5331635 MISSES:      28703
L2C RQ ACCESS:    9766135
L2C RQ TO_CACHE:    9764897
L2C RQ MERGED:          0
L2C RQ FORWARD:          0
L2C WQ ACCESS:    5360338
L2C WQ TO_CACHE:    5360338
L2C WQ MERGED:          0
L2C WQ FORWARD:       1793
LLC TOTAL     ACCESS:   15448687  HIT:    6593137  MISS:    8855550
LLC LOAD      ACCESS:    5479565  HIT:    2071966  MISS:    3407599
LLC RFO       ACCESS:     590176  HIT:     287771  MISS:     302405
LLC PREFETCH  ACCESS:    5527281  HIT:    1124537  MISS:    4402744
LLC WRITEBACK ACCESS:    3851665  HIT:    3108863  MISS:     742802
LLC PREFETCH  REQUESTED:          0  ISSUED:          0  USEFUL:      23949  USELESS:    4379369
LLC TOTAL MSHR MERGED:          0
LLC LOAD MSHR MERGED:          0
LLC RFO MSHR MERGED:          0
LLC PREFETCH MSHR MERGED:          0
LLC WRITEBACK MSHR MERGED:          0
LLC TOTAL ACCESSES:   15448734 HITS:    6593184 MISSES:    8855550
LLC LOAD ACCESSES:    5479593 HITS:    2071994 MISSES:    3407599
LLC RFO ACCESSES:     590178 HITS:     287773 MISSES:     302405
LLC PREFETCH ACCESSES:    5527298 HITS:    1124554 MISSES:    4402744
LLC WRITEBACK ACCESSES:    3851665 HITS:    3108863 MISSES:     742802
LLC 0 RQ ACCESS:    6069771
LLC 0 RQ TO_CACHE:    6069741
LLC 0 RQ MERGED:          0
LLC 0 RQ FORWARD:          0
LLC WQ ACCESS:    3851665
LLC WQ TO_CACHE:    3851665
LLC WQ MERGED:          0
LLC WQ FORWARD:         47
Major fault: 0 Minor fault: 44814
CPU 0 L1D next line prefetcher final stats
CPU 0 L2C PC-based stride prefetcher final stats
All Misses: 10722786
All Hits: 7898406
SD Algo Stats - Switches: 0 SRR-Repls: 3889475 BRR-Repls: 0

DRAM Statistics
 CHANNEL 0
 RQ ROW_BUFFER_HIT:    1446683  ROW_BUFFER_MISS:    6664675
 DBUS_CONGESTED:    5406969
 WQ ROW_BUFFER_HIT:     167810  ROW_BUFFER_MISS:    2036827  FULL:          0

 AVG_CONGESTED_CYCLE: 13
LOADS RETIRED: 160808997
INSTR RETIRED: 500000000
