
*** ChampSim Multicore Out-of-Order Simulator ***

Warmup Instructions: 100000000
Simulation Instructions: 500000000
Number of CPUs: 1
LLC sets: 2048
LLC ways: 16
Clean RRIP Policies: 2013230220132302 Dirty RRIP Policies: 2003130220031302 PSEL Width: 10 Track Set: 4294967295 PSEL Mask: 1 Demote Mask: 1040100010401000DS Algo: 0Window size: 0
Off-chip DRAM Size: 4096 MB Channels: 1 Width: 64-bit Data Rate: 1600 MT/s

CPU 0 runs /mnt/beegfs/iconst01/spec2017/cactuBSSN.trace.gz
NOT SORTED
TRACE STRING: /mnt/beegfs/iconst01/spec2017/cactuBSSN.trace.gz
SORTED
TRACE STRING: /mnt/beegfs/iconst01/spec2017/cactuBSSN.trace.gz
INITIAL
TRACE STRING: /mnt/beegfs/iconst01/spec2017/cactuBSSN.trace.gz

champsim_seed used: 838

CPU 0 L1D next line prefetcher
CPU 0 L2C IP-based stride prefetcher
Initialize DRRIP state
Assign rand_sets[0]: 454  LLC: 2048
rand_sets[0]: 454
Assign rand_sets[1]: 1662  LLC: 2048
rand_sets[1]: 1662
Assign rand_sets[2]: 1921  LLC: 2048
rand_sets[2]: 1921
Assign rand_sets[3]: 1131  LLC: 2048
rand_sets[3]: 1131
Assign rand_sets[4]: 331  LLC: 2048
rand_sets[4]: 331
Assign rand_sets[5]: 1531  LLC: 2048
rand_sets[5]: 1531
Assign rand_sets[6]: 482  LLC: 2048
rand_sets[6]: 482
Assign rand_sets[7]: 1275  LLC: 2048
rand_sets[7]: 1275
Assign rand_sets[8]: 1876  LLC: 2048
rand_sets[8]: 1876
Assign rand_sets[9]: 2038  LLC: 2048
rand_sets[9]: 2038
Assign rand_sets[10]: 701  LLC: 2048
rand_sets[10]: 701
Assign rand_sets[11]: 479  LLC: 2048
rand_sets[11]: 479
Assign rand_sets[12]: 892  LLC: 2048
rand_sets[12]: 892
Assign rand_sets[13]: 1820  LLC: 2048
rand_sets[13]: 1820
Assign rand_sets[14]: 1505  LLC: 2048
rand_sets[14]: 1505
Assign rand_sets[15]: 1159  LLC: 2048
rand_sets[15]: 1159
Assign rand_sets[16]: 513  LLC: 2048
rand_sets[16]: 513
Assign rand_sets[17]: 703  LLC: 2048
rand_sets[17]: 703
Assign rand_sets[18]: 561  LLC: 2048
rand_sets[18]: 561
Assign rand_sets[19]: 990  LLC: 2048
rand_sets[19]: 990
Assign rand_sets[20]: 342  LLC: 2048
rand_sets[20]: 342
Assign rand_sets[21]: 882  LLC: 2048
rand_sets[21]: 882
Assign rand_sets[22]: 15  LLC: 2048
rand_sets[22]: 15
Assign rand_sets[23]: 71  LLC: 2048
rand_sets[23]: 71
Assign rand_sets[24]: 1127  LLC: 2048
rand_sets[24]: 1127
Assign rand_sets[25]: 1382  LLC: 2048
rand_sets[25]: 1382
Assign rand_sets[26]: 647  LLC: 2048
rand_sets[26]: 647
Assign rand_sets[27]: 857  LLC: 2048
rand_sets[27]: 857
Assign rand_sets[28]: 1450  LLC: 2048
rand_sets[28]: 1450
Assign rand_sets[29]: 1160  LLC: 2048
rand_sets[29]: 1160
Assign rand_sets[30]: 1852  LLC: 2048
rand_sets[30]: 1852
Assign rand_sets[31]: 1881  LLC: 2048
rand_sets[31]: 1881
Assign rand_sets[32]: 1770  LLC: 2048
rand_sets[32]: 1770
Assign rand_sets[33]: 1622  LLC: 2048
rand_sets[33]: 1622
Assign rand_sets[34]: 275  LLC: 2048
rand_sets[34]: 275
Assign rand_sets[35]: 635  LLC: 2048
rand_sets[35]: 635
Assign rand_sets[36]: 466  LLC: 2048
rand_sets[36]: 466
Assign rand_sets[37]: 1413  LLC: 2048
rand_sets[37]: 1413
Assign rand_sets[38]: 417  LLC: 2048
rand_sets[38]: 417
Assign rand_sets[39]: 472  LLC: 2048
rand_sets[39]: 472
Assign rand_sets[40]: 1340  LLC: 2048
rand_sets[40]: 1340
Assign rand_sets[41]: 852  LLC: 2048
rand_sets[41]: 852
Assign rand_sets[42]: 1365  LLC: 2048
rand_sets[42]: 1365
Assign rand_sets[43]: 47  LLC: 2048
rand_sets[43]: 47
Assign rand_sets[44]: 823  LLC: 2048
rand_sets[44]: 823
Assign rand_sets[45]: 686  LLC: 2048
rand_sets[45]: 686
Assign rand_sets[46]: 1637  LLC: 2048
rand_sets[46]: 1637
Assign rand_sets[47]: 1115  LLC: 2048
rand_sets[47]: 1115
Assign rand_sets[48]: 986  LLC: 2048
rand_sets[48]: 986
Assign rand_sets[49]: 258  LLC: 2048
rand_sets[49]: 258
Assign rand_sets[50]: 633  LLC: 2048
rand_sets[50]: 633
Assign rand_sets[51]: 920  LLC: 2048
rand_sets[51]: 920
Assign rand_sets[52]: 204  LLC: 2048
rand_sets[52]: 204
Assign rand_sets[53]: 227  LLC: 2048
rand_sets[53]: 227
Assign rand_sets[54]: 1818  LLC: 2048
rand_sets[54]: 1818
Assign rand_sets[55]: 886  LLC: 2048
rand_sets[55]: 886
Assign rand_sets[56]: 1422  LLC: 2048
rand_sets[56]: 1422
Assign rand_sets[57]: 607  LLC: 2048
rand_sets[57]: 607
Assign rand_sets[58]: 217  LLC: 2048
rand_sets[58]: 217
Assign rand_sets[59]: 1945  LLC: 2048
rand_sets[59]: 1945
Assign rand_sets[60]: 143  LLC: 2048
rand_sets[60]: 143
Assign rand_sets[61]: 1311  LLC: 2048
rand_sets[61]: 1311
Assign rand_sets[62]: 319  LLC: 2048
rand_sets[62]: 319
Assign rand_sets[63]: 1846  LLC: 2048
rand_sets[63]: 1846
 CLEAN-RRIP-POLICY-1: 2-0-1-3-2-3-0-2- CLEAN-RRIP-POLICY-2: 2-0-1-3-2-3-0-2-
 DIRTY-RRIP-POLICY-1: 2-0-0-3-1-3-0-2- DIRTY-RRIP-POLICY-2: 2-0-0-3-1-3-0-2-
 PSEL width: 10
Heartbeat CPU 0 instructions: 10000000 cycles: 6588002 heartbeat IPC: 1.51791 cumulative IPC: 1.51791 (Simulation time: 0 hr 0 min 24 sec) 
Heartbeat CPU 0 instructions: 20000000 cycles: 13179595 heartbeat IPC: 1.51708 cumulative IPC: 1.5175 (Simulation time: 0 hr 0 min 49 sec) 
Heartbeat CPU 0 instructions: 30000003 cycles: 19772915 heartbeat IPC: 1.51669 cumulative IPC: 1.51723 (Simulation time: 0 hr 1 min 13 sec) 
Heartbeat CPU 0 instructions: 40000000 cycles: 26364661 heartbeat IPC: 1.51705 cumulative IPC: 1.51718 (Simulation time: 0 hr 1 min 37 sec) 
Heartbeat CPU 0 instructions: 50000001 cycles: 32957341 heartbeat IPC: 1.51683 cumulative IPC: 1.51711 (Simulation time: 0 hr 2 min 2 sec) 
Heartbeat CPU 0 instructions: 60000000 cycles: 39556157 heartbeat IPC: 1.51542 cumulative IPC: 1.51683 (Simulation time: 0 hr 2 min 26 sec) 
Heartbeat CPU 0 instructions: 70000003 cycles: 46154529 heartbeat IPC: 1.51553 cumulative IPC: 1.51664 (Simulation time: 0 hr 2 min 50 sec) 
Heartbeat CPU 0 instructions: 80000000 cycles: 52752590 heartbeat IPC: 1.5156 cumulative IPC: 1.51651 (Simulation time: 0 hr 3 min 15 sec) 
Heartbeat CPU 0 instructions: 90000002 cycles: 59348267 heartbeat IPC: 1.51614 cumulative IPC: 1.51647 (Simulation time: 0 hr 3 min 39 sec) 
Heartbeat CPU 0 instructions: 100000000 cycles: 65943349 heartbeat IPC: 1.51628 cumulative IPC: 1.51645 (Simulation time: 0 hr 4 min 4 sec) 

Warmup complete CPU 0 instructions: 100000002 cycles: 65943350 (Simulation time: 0 hr 4 min 4 sec) 

Heartbeat CPU 0 instructions: 110000000 cycles: 79175565 heartbeat IPC: 0.755731 cumulative IPC: 0.755731 (Simulation time: 0 hr 4 min 33 sec) 
Heartbeat CPU 0 instructions: 120000000 cycles: 92376254 heartbeat IPC: 0.757536 cumulative IPC: 0.756633 (Simulation time: 0 hr 5 min 3 sec) 
Heartbeat CPU 0 instructions: 130000001 cycles: 105641655 heartbeat IPC: 0.753841 cumulative IPC: 0.7557 (Simulation time: 0 hr 5 min 33 sec) 
Heartbeat CPU 0 instructions: 140000000 cycles: 118817707 heartbeat IPC: 0.758953 cumulative IPC: 0.75651 (Simulation time: 0 hr 6 min 3 sec) 
Heartbeat CPU 0 instructions: 150000001 cycles: 132004181 heartbeat IPC: 0.758353 cumulative IPC: 0.756878 (Simulation time: 0 hr 6 min 33 sec) 
Heartbeat CPU 0 instructions: 160000000 cycles: 145238989 heartbeat IPC: 0.755583 cumulative IPC: 0.756662 (Simulation time: 0 hr 7 min 3 sec) 
Heartbeat CPU 0 instructions: 170000000 cycles: 158454004 heartbeat IPC: 0.756715 cumulative IPC: 0.75667 (Simulation time: 0 hr 7 min 33 sec) 
Heartbeat CPU 0 instructions: 180000000 cycles: 171652213 heartbeat IPC: 0.757679 cumulative IPC: 0.756796 (Simulation time: 0 hr 8 min 3 sec) 
Heartbeat CPU 0 instructions: 190000000 cycles: 184811019 heartbeat IPC: 0.759947 cumulative IPC: 0.757144 (Simulation time: 0 hr 8 min 32 sec) 
Heartbeat CPU 0 instructions: 200000000 cycles: 198067851 heartbeat IPC: 0.754328 cumulative IPC: 0.756862 (Simulation time: 0 hr 9 min 2 sec) 
Heartbeat CPU 0 instructions: 210000002 cycles: 211276665 heartbeat IPC: 0.75707 cumulative IPC: 0.756881 (Simulation time: 0 hr 9 min 32 sec) 
Heartbeat CPU 0 instructions: 220000000 cycles: 224452489 heartbeat IPC: 0.758966 cumulative IPC: 0.757054 (Simulation time: 0 hr 10 min 2 sec) 
Heartbeat CPU 0 instructions: 230000003 cycles: 237701774 heartbeat IPC: 0.754758 cumulative IPC: 0.756877 (Simulation time: 0 hr 10 min 32 sec) 
Heartbeat CPU 0 instructions: 240000000 cycles: 250892703 heartbeat IPC: 0.758097 cumulative IPC: 0.756964 (Simulation time: 0 hr 11 min 2 sec) 
Heartbeat CPU 0 instructions: 250000001 cycles: 264109667 heartbeat IPC: 0.756603 cumulative IPC: 0.75694 (Simulation time: 0 hr 11 min 31 sec) 
Heartbeat CPU 0 instructions: 260000000 cycles: 277324524 heartbeat IPC: 0.756724 cumulative IPC: 0.756926 (Simulation time: 0 hr 12 min 1 sec) 
Heartbeat CPU 0 instructions: 270000003 cycles: 290576690 heartbeat IPC: 0.754594 cumulative IPC: 0.756789 (Simulation time: 0 hr 12 min 31 sec) 
Heartbeat CPU 0 instructions: 280000000 cycles: 303780245 heartbeat IPC: 0.757372 cumulative IPC: 0.756821 (Simulation time: 0 hr 13 min 1 sec) 
Heartbeat CPU 0 instructions: 290000000 cycles: 316954198 heartbeat IPC: 0.759074 cumulative IPC: 0.756939 (Simulation time: 0 hr 13 min 30 sec) 
Heartbeat CPU 0 instructions: 300000000 cycles: 330211316 heartbeat IPC: 0.754312 cumulative IPC: 0.756808 (Simulation time: 0 hr 14 min 0 sec) 
Heartbeat CPU 0 instructions: 310000001 cycles: 343387993 heartbeat IPC: 0.758917 cumulative IPC: 0.756908 (Simulation time: 0 hr 14 min 30 sec) 
Heartbeat CPU 0 instructions: 320000000 cycles: 356582323 heartbeat IPC: 0.757901 cumulative IPC: 0.756953 (Simulation time: 0 hr 15 min 0 sec) 
Heartbeat CPU 0 instructions: 330000002 cycles: 369778204 heartbeat IPC: 0.757812 cumulative IPC: 0.75699 (Simulation time: 0 hr 15 min 29 sec) 
Heartbeat CPU 0 instructions: 340000000 cycles: 383021521 heartbeat IPC: 0.755098 cumulative IPC: 0.756911 (Simulation time: 0 hr 15 min 59 sec) 
Heartbeat CPU 0 instructions: 350000000 cycles: 396275005 heartbeat IPC: 0.754519 cumulative IPC: 0.756815 (Simulation time: 0 hr 16 min 29 sec) 
Heartbeat CPU 0 instructions: 360000000 cycles: 409486981 heartbeat IPC: 0.756889 cumulative IPC: 0.756818 (Simulation time: 0 hr 16 min 58 sec) 
Heartbeat CPU 0 instructions: 370000002 cycles: 422758126 heartbeat IPC: 0.753515 cumulative IPC: 0.756695 (Simulation time: 0 hr 17 min 28 sec) 
Heartbeat CPU 0 instructions: 380000000 cycles: 435963340 heartbeat IPC: 0.757276 cumulative IPC: 0.756716 (Simulation time: 0 hr 17 min 57 sec) 
Heartbeat CPU 0 instructions: 390000000 cycles: 449146864 heartbeat IPC: 0.758523 cumulative IPC: 0.756778 (Simulation time: 0 hr 18 min 27 sec) 
Heartbeat CPU 0 instructions: 400000000 cycles: 462345525 heartbeat IPC: 0.757653 cumulative IPC: 0.756807 (Simulation time: 0 hr 18 min 56 sec) 
Heartbeat CPU 0 instructions: 410000001 cycles: 475603130 heartbeat IPC: 0.754284 cumulative IPC: 0.756725 (Simulation time: 0 hr 19 min 26 sec) 
Heartbeat CPU 0 instructions: 420000000 cycles: 488778996 heartbeat IPC: 0.758963 cumulative IPC: 0.756795 (Simulation time: 0 hr 19 min 56 sec) 
Heartbeat CPU 0 instructions: 430000001 cycles: 501965615 heartbeat IPC: 0.758345 cumulative IPC: 0.756842 (Simulation time: 0 hr 20 min 25 sec) 
Heartbeat CPU 0 instructions: 440000000 cycles: 515138013 heartbeat IPC: 0.759163 cumulative IPC: 0.75691 (Simulation time: 0 hr 20 min 55 sec) 
Heartbeat CPU 0 instructions: 450000002 cycles: 528448869 heartbeat IPC: 0.751267 cumulative IPC: 0.756748 (Simulation time: 0 hr 21 min 24 sec) 
Heartbeat CPU 0 instructions: 460000000 cycles: 541666263 heartbeat IPC: 0.756579 cumulative IPC: 0.756743 (Simulation time: 0 hr 21 min 54 sec) 
Heartbeat CPU 0 instructions: 470000003 cycles: 554860147 heartbeat IPC: 0.757927 cumulative IPC: 0.756775 (Simulation time: 0 hr 22 min 23 sec) 
Heartbeat CPU 0 instructions: 480000000 cycles: 568111833 heartbeat IPC: 0.754621 cumulative IPC: 0.756718 (Simulation time: 0 hr 22 min 53 sec) 
Heartbeat CPU 0 instructions: 490000000 cycles: 581320148 heartbeat IPC: 0.757099 cumulative IPC: 0.756728 (Simulation time: 0 hr 23 min 23 sec) 
Heartbeat CPU 0 instructions: 500000000 cycles: 594516246 heartbeat IPC: 0.7578 cumulative IPC: 0.756755 (Simulation time: 0 hr 23 min 52 sec) 
Heartbeat CPU 0 instructions: 510000001 cycles: 607687188 heartbeat IPC: 0.759247 cumulative IPC: 0.756815 (Simulation time: 0 hr 24 min 22 sec) 
Heartbeat CPU 0 instructions: 520000000 cycles: 620980305 heartbeat IPC: 0.752269 cumulative IPC: 0.756706 (Simulation time: 0 hr 24 min 51 sec) 
Heartbeat CPU 0 instructions: 530000000 cycles: 634226005 heartbeat IPC: 0.754962 cumulative IPC: 0.756666 (Simulation time: 0 hr 25 min 21 sec) 
Heartbeat CPU 0 instructions: 540000000 cycles: 647453836 heartbeat IPC: 0.755982 cumulative IPC: 0.75665 (Simulation time: 0 hr 25 min 50 sec) 
Heartbeat CPU 0 instructions: 550000002 cycles: 660714147 heartbeat IPC: 0.75413 cumulative IPC: 0.756594 (Simulation time: 0 hr 26 min 20 sec) 
Heartbeat CPU 0 instructions: 560000000 cycles: 673905503 heartbeat IPC: 0.758072 cumulative IPC: 0.756626 (Simulation time: 0 hr 26 min 49 sec) 
Heartbeat CPU 0 instructions: 570000001 cycles: 687110025 heartbeat IPC: 0.757316 cumulative IPC: 0.756641 (Simulation time: 0 hr 27 min 19 sec) 
Heartbeat CPU 0 instructions: 580000000 cycles: 700311305 heartbeat IPC: 0.757502 cumulative IPC: 0.756659 (Simulation time: 0 hr 27 min 48 sec) 
Heartbeat CPU 0 instructions: 590000003 cycles: 713551917 heartbeat IPC: 0.755252 cumulative IPC: 0.75663 (Simulation time: 0 hr 28 min 18 sec) 
Heartbeat CPU 0 instructions: 600000000 cycles: 726804987 heartbeat IPC: 0.754542 cumulative IPC: 0.756588 (Simulation time: 0 hr 28 min 48 sec) 
Finished CPU 0 instructions: 500000000 cycles: 660861647 cumulative IPC: 0.756588 (Simulation time: 0 hr 28 min 48 sec) 

CPU 0 Branch Prediction Accuracy: 99.968% MPKI: 0.002246
Number of Branches: 3513331 Number of Mispredictions: 1123
Number of LOAD Instructions: 287251172
Number of LOAD Instructions (ROI): 287251172
Number of STORE Instructions: 51060820
Number of STORE Instructions (ROI): 51060820
Total Destination Memory Operands: 51166221
Total Destination Memory Operands (ROI): 51166221
Total Source Memory Operands: 287251172
Total Source Memory Operands (ROI): 287251172
Number of DEPENDED LOADS: 9555448
Number of DEPENDED LOADS (ROI): 9555448
Number of SQ_ADDED: 51166208
Number of SQ_ADDED (ROI): 51166208
Number of LQ_ADDED: 290419922
Number of LQ_ADDED (ROI): 290419922
Number of Instructions read from trace: 600000257

ChampSim completed all CPUs

Region of Interest Statistics

CPU 0 cumulative IPC: 0.756588 instructions: 500000000 cycles: 660861647
ITLB TOTAL     ACCESS:  108949467  HIT:  108949467  MISS:          0
ITLB LOAD      ACCESS:  108949467  HIT:  108949467  MISS:          0
ITLB RFO       ACCESS:          0  HIT:          0  MISS:          0
ITLB PREFETCH  ACCESS:          0  HIT:          0  MISS:          0
ITLB WRITEBACK ACCESS:          0  HIT:          0  MISS:          0
ITLB PREFETCH  REQUESTED:          0  ISSUED:          0  USEFUL:          0  USELESS:          0
ITLB TOTAL MSHR MERGED:          0
ITLB LOAD MSHR MERGED:          0
ITLB RFO MSHR MERGED:          0
ITLB PREFETCH MSHR MERGED:          0
ITLB WRITEBACK MSHR MERGED:          0
ITLB TOTAL ACCESSES:  108949467 HITS:  108949467 MISSES:          0
ITLB LOAD ACCESSES:  108949467 HITS:  108949467 MISSES:          0
ITLB RFO ACCESSES:          0 HITS:          0 MISSES:          0
ITLB PREFETCH ACCESSES:          0 HITS:          0 MISSES:          0
ITLB WRITEBACK ACCESSES:          0 HITS:          0 MISSES:          0
ITLB RQ ACCESS:  500000001
ITLB RQ TO_CACHE:  108949467
ITLB RQ MERGED:  391050534
ITLB RQ FORWARD:          0
ITLB WQ ACCESS:          0
ITLB WQ TO_CACHE:          0
ITLB WQ MERGED:          0
ITLB WQ FORWARD:          0
DTLB TOTAL     ACCESS:  171131331  HIT:  161115024  MISS:   10016307
DTLB LOAD      ACCESS:  143472094  HIT:  135596037  MISS:    7876057
DTLB RFO       ACCESS:   27659237  HIT:   25518987  MISS:    2140250
DTLB PREFETCH  ACCESS:          0  HIT:          0  MISS:          0
DTLB WRITEBACK ACCESS:          0  HIT:          0  MISS:          0
DTLB PREFETCH  REQUESTED:          0  ISSUED:          0  USEFUL:          0  USELESS:          0
DTLB TOTAL MSHR MERGED:     360463
DTLB LOAD MSHR MERGED:     360463
DTLB RFO MSHR MERGED:          0
DTLB PREFETCH MSHR MERGED:          0
DTLB WRITEBACK MSHR MERGED:          0
DTLB TOTAL ACCESSES:  171491794 HITS:  161115024 MISSES:   10376770
DTLB LOAD ACCESSES:  143832557 HITS:  135596037 MISSES:    8236520
DTLB RFO ACCESSES:   27659237 HITS:   25518987 MISSES:    2140250
DTLB PREFETCH ACCESSES:          0 HITS:          0 MISSES:          0
DTLB WRITEBACK ACCESSES:          0 HITS:          0 MISSES:          0
DTLB RQ ACCESS:  274072369
DTLB RQ TO_CACHE:  171491794
DTLB RQ MERGED:  102580575
DTLB RQ FORWARD:          0
DTLB WQ ACCESS:          0
DTLB WQ TO_CACHE:          0
DTLB WQ MERGED:          0
DTLB WQ FORWARD:          0
L1D TOTAL     ACCESS:  350925247  HIT:  283726039  MISS:   67199208
L1D LOAD      ACCESS:  175625464  HIT:  142586212  MISS:   33039252
L1D RFO       ACCESS:   42019003  HIT:   39213217  MISS:    2805786
L1D PREFETCH  ACCESS:  133280780  HIT:  101926610  MISS:   31354170
L1D WRITEBACK ACCESS:          0  HIT:          0  MISS:          0
L1D PREFETCH  REQUESTED:  176229454  ISSUED:  175291147  USEFUL:    2180368  USELESS:   29173804
L1D TOTAL MSHR MERGED:    1483412
L1D LOAD MSHR MERGED:     703909
L1D RFO MSHR MERGED:     349983
L1D PREFETCH MSHR MERGED:     429520
L1D WRITEBACK MSHR MERGED:          0
L1D TOTAL ACCESSES:  352522979 HITS:  283840359 MISSES:   68682620
L1D LOAD ACCESSES:  176237614 HITS:  142594372 MISSES:   33643242
L1D RFO ACCESSES:   42368286 HITS:   39213217 MISSES:    3155069
L1D PREFETCH ACCESSES:  133917079 HITS:  102032770 MISSES:   31884309
L1D WRITEBACK ACCESSES:          0 HITS:          0 MISSES:          0
L1D RQ ACCESS:  231433896
L1D RQ TO_CACHE:  176229454
L1D RQ MERGED:   55196282
L1D RQ FORWARD:          0
L1D WQ ACCESS:   42638475
L1D WQ TO_CACHE:   42368286
L1D WQ MERGED:     270189
L1D WQ FORWARD:     114320
L1I TOTAL     ACCESS:  109343818  HIT:   77828114  MISS:   31515704
L1I LOAD      ACCESS:  109343818  HIT:   77828114  MISS:   31515704
L1I RFO       ACCESS:          0  HIT:          0  MISS:          0
L1I PREFETCH  ACCESS:          0  HIT:          0  MISS:          0
L1I WRITEBACK ACCESS:          0  HIT:          0  MISS:          0
L1I PREFETCH  REQUESTED:          0  ISSUED:          0  USEFUL:          0  USELESS:          0
L1I TOTAL MSHR MERGED:   30749632
L1I LOAD MSHR MERGED:   30749632
L1I RFO MSHR MERGED:          0
L1I PREFETCH MSHR MERGED:          0
L1I WRITEBACK MSHR MERGED:          0
L1I TOTAL ACCESSES:  140093452 HITS:   77828114 MISSES:   62265338
L1I LOAD ACCESSES:  140093452 HITS:   77828114 MISSES:   62265338
L1I RFO ACCESSES:          0 HITS:          0 MISSES:          0
L1I PREFETCH ACCESSES:          0 HITS:          0 MISSES:          0
L1I WRITEBACK ACCESSES:          0 HITS:          0 MISSES:          0
L1I RQ ACCESS:  500000003
L1I RQ TO_CACHE:  140093452
L1I RQ MERGED:  359906551
L1I RQ FORWARD:          0
L1I WQ ACCESS:          0
L1I WQ TO_CACHE:          0
L1I WQ MERGED:          0
L1I WQ FORWARD:          0
L2C TOTAL     ACCESS:  113690894  HIT:  110691025  MISS:    2999869
L2C LOAD      ACCESS:   64453175  HIT:   63893067  MISS:     560108
L2C RFO       ACCESS:    2803183  HIT:    2193757  MISS:     609426
L2C PREFETCH  ACCESS:   43273606  HIT:   41449535  MISS:    1824071
L2C WRITEBACK ACCESS:    3160930  HIT:    3154666  MISS:       6264
L2C PREFETCH  REQUESTED:   15134590  ISSUED:   14620564  USEFUL:    1699440  USELESS:     124640
L2C TOTAL MSHR MERGED:      12836
L2C LOAD MSHR MERGED:          0
L2C RFO MSHR MERGED:          0
L2C PREFETCH MSHR MERGED:      12836
L2C WRITEBACK MSHR MERGED:          0
L2C TOTAL ACCESSES:  113906349 HITS:  110696890 MISSES:    3209459
L2C LOAD ACCESSES:   64455038 HITS:   63894929 MISSES:     560109
L2C RFO ACCESSES:    2805086 HITS:    2195660 MISSES:     609426
L2C PREFETCH ACCESSES:   43485295 HITS:   41451635 MISSES:    2033660
L2C WRITEBACK ACCESSES:    3160930 HITS:    3154666 MISSES:       6264
L2C RQ ACCESS:   67260125
L2C RQ TO_CACHE:   67256360
L2C RQ MERGED:          0
L2C RQ FORWARD:          0
L2C WQ ACCESS:    3160930
L2C WQ TO_CACHE:    3160930
L2C WQ MERGED:          0
L2C WQ FORWARD:       5865
LLC TOTAL     ACCESS:    3720974  HIT:    1794043  MISS:    1926931
LLC LOAD      ACCESS:     560080  HIT:     495776  MISS:      64304
LLC RFO       ACCESS:     527281  HIT:     239156  MISS:     288125
LLC PREFETCH  ACCESS:    2015164  HIT:     595377  MISS:    1419787
LLC WRITEBACK ACCESS:     618449  HIT:     463734  MISS:     154715
LLC PREFETCH  REQUESTED:          0  ISSUED:          0  USEFUL:      43655  USELESS:    1371364
LLC TOTAL MSHR MERGED:       5009
LLC LOAD MSHR MERGED:          0
LLC RFO MSHR MERGED:          0
LLC PREFETCH MSHR MERGED:       5009
LLC WRITEBACK MSHR MERGED:          0
LLC TOTAL ACCESSES:    3808240 HITS:    1876300 MISSES:    1931940
LLC LOAD ACCESSES:     560108 HITS:     495804 MISSES:      64304
LLC RFO ACCESSES:     609426 HITS:     321301 MISSES:     288125
LLC PREFETCH ACCESSES:    2020257 HITS:     595461 MISSES:    1424796
LLC WRITEBACK ACCESSES:     618449 HITS:     463734 MISSES:     154715
LLC 0 RQ ACCESS:    1169535
LLC 0 RQ TO_CACHE:    1087362
LLC 0 RQ MERGED:          0
LLC 0 RQ FORWARD:          0
LLC WQ ACCESS:     618449
LLC WQ TO_CACHE:     618449
LLC WQ MERGED:          0
LLC WQ FORWARD:      82257
Major fault: 0 Minor fault: 12800
CPU 0 L1D next line prefetcher final stats
CPU 0 L2C PC-based stride prefetcher final stats
All Misses: 2329189
All Hits: 2242716
SD Algo Stats - Switches: 0 SRR-Repls: 81934 BRR-Repls: 0

DRAM Statistics
 CHANNEL 0
 RQ ROW_BUFFER_HIT:     881256  ROW_BUFFER_MISS:     890935
 DBUS_CONGESTED:     949121
 WQ ROW_BUFFER_HIT:      28961  ROW_BUFFER_MISS:     261278  FULL:          0

 AVG_CONGESTED_CYCLE: 13
LOADS RETIRED: 239375970
INSTR RETIRED: 500000000
