
*** ChampSim Multicore Out-of-Order Simulator ***

Warmup Instructions: 100000000
Simulation Instructions: 500000000
Number of CPUs: 1
LLC sets: 2048
LLC ways: 16
Clean RRIP Policies: 2013230220132302 Dirty RRIP Policies: 2003130220031302 PSEL Width: 10 Track Set: 4294967295 PSEL Mask: 1 Demote Mask: 1040100010401000DS Algo: 0Window size: 0
Off-chip DRAM Size: 4096 MB Channels: 1 Width: 64-bit Data Rate: 1600 MT/s

CPU 0 runs /mnt/beegfs/iconst01/spec2017/Fotonik3d.trace.gz
NOT SORTED
TRACE STRING: /mnt/beegfs/iconst01/spec2017/Fotonik3d.trace.gz
SORTED
TRACE STRING: /mnt/beegfs/iconst01/spec2017/Fotonik3d.trace.gz
INITIAL
TRACE STRING: /mnt/beegfs/iconst01/spec2017/Fotonik3d.trace.gz

champsim_seed used: 881

CPU 0 L1D next line prefetcher
CPU 0 L2C IP-based stride prefetcher
Initialize DRRIP state
Assign rand_sets[0]: 454  LLC: 2048
rand_sets[0]: 454
Assign rand_sets[1]: 1662  LLC: 2048
rand_sets[1]: 1662
Assign rand_sets[2]: 1921  LLC: 2048
rand_sets[2]: 1921
Assign rand_sets[3]: 1131  LLC: 2048
rand_sets[3]: 1131
Assign rand_sets[4]: 331  LLC: 2048
rand_sets[4]: 331
Assign rand_sets[5]: 1531  LLC: 2048
rand_sets[5]: 1531
Assign rand_sets[6]: 482  LLC: 2048
rand_sets[6]: 482
Assign rand_sets[7]: 1275  LLC: 2048
rand_sets[7]: 1275
Assign rand_sets[8]: 1876  LLC: 2048
rand_sets[8]: 1876
Assign rand_sets[9]: 2038  LLC: 2048
rand_sets[9]: 2038
Assign rand_sets[10]: 701  LLC: 2048
rand_sets[10]: 701
Assign rand_sets[11]: 479  LLC: 2048
rand_sets[11]: 479
Assign rand_sets[12]: 892  LLC: 2048
rand_sets[12]: 892
Assign rand_sets[13]: 1820  LLC: 2048
rand_sets[13]: 1820
Assign rand_sets[14]: 1505  LLC: 2048
rand_sets[14]: 1505
Assign rand_sets[15]: 1159  LLC: 2048
rand_sets[15]: 1159
Assign rand_sets[16]: 513  LLC: 2048
rand_sets[16]: 513
Assign rand_sets[17]: 703  LLC: 2048
rand_sets[17]: 703
Assign rand_sets[18]: 561  LLC: 2048
rand_sets[18]: 561
Assign rand_sets[19]: 990  LLC: 2048
rand_sets[19]: 990
Assign rand_sets[20]: 342  LLC: 2048
rand_sets[20]: 342
Assign rand_sets[21]: 882  LLC: 2048
rand_sets[21]: 882
Assign rand_sets[22]: 15  LLC: 2048
rand_sets[22]: 15
Assign rand_sets[23]: 71  LLC: 2048
rand_sets[23]: 71
Assign rand_sets[24]: 1127  LLC: 2048
rand_sets[24]: 1127
Assign rand_sets[25]: 1382  LLC: 2048
rand_sets[25]: 1382
Assign rand_sets[26]: 647  LLC: 2048
rand_sets[26]: 647
Assign rand_sets[27]: 857  LLC: 2048
rand_sets[27]: 857
Assign rand_sets[28]: 1450  LLC: 2048
rand_sets[28]: 1450
Assign rand_sets[29]: 1160  LLC: 2048
rand_sets[29]: 1160
Assign rand_sets[30]: 1852  LLC: 2048
rand_sets[30]: 1852
Assign rand_sets[31]: 1881  LLC: 2048
rand_sets[31]: 1881
Assign rand_sets[32]: 1770  LLC: 2048
rand_sets[32]: 1770
Assign rand_sets[33]: 1622  LLC: 2048
rand_sets[33]: 1622
Assign rand_sets[34]: 275  LLC: 2048
rand_sets[34]: 275
Assign rand_sets[35]: 635  LLC: 2048
rand_sets[35]: 635
Assign rand_sets[36]: 466  LLC: 2048
rand_sets[36]: 466
Assign rand_sets[37]: 1413  LLC: 2048
rand_sets[37]: 1413
Assign rand_sets[38]: 417  LLC: 2048
rand_sets[38]: 417
Assign rand_sets[39]: 472  LLC: 2048
rand_sets[39]: 472
Assign rand_sets[40]: 1340  LLC: 2048
rand_sets[40]: 1340
Assign rand_sets[41]: 852  LLC: 2048
rand_sets[41]: 852
Assign rand_sets[42]: 1365  LLC: 2048
rand_sets[42]: 1365
Assign rand_sets[43]: 47  LLC: 2048
rand_sets[43]: 47
Assign rand_sets[44]: 823  LLC: 2048
rand_sets[44]: 823
Assign rand_sets[45]: 686  LLC: 2048
rand_sets[45]: 686
Assign rand_sets[46]: 1637  LLC: 2048
rand_sets[46]: 1637
Assign rand_sets[47]: 1115  LLC: 2048
rand_sets[47]: 1115
Assign rand_sets[48]: 986  LLC: 2048
rand_sets[48]: 986
Assign rand_sets[49]: 258  LLC: 2048
rand_sets[49]: 258
Assign rand_sets[50]: 633  LLC: 2048
rand_sets[50]: 633
Assign rand_sets[51]: 920  LLC: 2048
rand_sets[51]: 920
Assign rand_sets[52]: 204  LLC: 2048
rand_sets[52]: 204
Assign rand_sets[53]: 227  LLC: 2048
rand_sets[53]: 227
Assign rand_sets[54]: 1818  LLC: 2048
rand_sets[54]: 1818
Assign rand_sets[55]: 886  LLC: 2048
rand_sets[55]: 886
Assign rand_sets[56]: 1422  LLC: 2048
rand_sets[56]: 1422
Assign rand_sets[57]: 607  LLC: 2048
rand_sets[57]: 607
Assign rand_sets[58]: 217  LLC: 2048
rand_sets[58]: 217
Assign rand_sets[59]: 1945  LLC: 2048
rand_sets[59]: 1945
Assign rand_sets[60]: 143  LLC: 2048
rand_sets[60]: 143
Assign rand_sets[61]: 1311  LLC: 2048
rand_sets[61]: 1311
Assign rand_sets[62]: 319  LLC: 2048
rand_sets[62]: 319
Assign rand_sets[63]: 1846  LLC: 2048
rand_sets[63]: 1846
 CLEAN-RRIP-POLICY-1: 2-0-1-3-2-3-0-2- CLEAN-RRIP-POLICY-2: 2-0-1-3-2-3-0-2-
 DIRTY-RRIP-POLICY-1: 2-0-0-3-1-3-0-2- DIRTY-RRIP-POLICY-2: 2-0-0-3-1-3-0-2-
 PSEL width: 10
Heartbeat CPU 0 instructions: 10000002 cycles: 7306840 heartbeat IPC: 1.36858 cumulative IPC: 1.36858 (Simulation time: 0 hr 0 min 25 sec) 
Heartbeat CPU 0 instructions: 20000000 cycles: 14613894 heartbeat IPC: 1.36854 cumulative IPC: 1.36856 (Simulation time: 0 hr 0 min 49 sec) 
Heartbeat CPU 0 instructions: 30000001 cycles: 21920856 heartbeat IPC: 1.36856 cumulative IPC: 1.36856 (Simulation time: 0 hr 1 min 13 sec) 
Heartbeat CPU 0 instructions: 40000000 cycles: 29227692 heartbeat IPC: 1.36858 cumulative IPC: 1.36857 (Simulation time: 0 hr 1 min 38 sec) 
Heartbeat CPU 0 instructions: 50000001 cycles: 36534487 heartbeat IPC: 1.36859 cumulative IPC: 1.36857 (Simulation time: 0 hr 2 min 2 sec) 
Heartbeat CPU 0 instructions: 60000000 cycles: 43841553 heartbeat IPC: 1.36854 cumulative IPC: 1.36856 (Simulation time: 0 hr 2 min 26 sec) 
Heartbeat CPU 0 instructions: 70000002 cycles: 51148400 heartbeat IPC: 1.36858 cumulative IPC: 1.36857 (Simulation time: 0 hr 2 min 51 sec) 
Heartbeat CPU 0 instructions: 80000000 cycles: 58455208 heartbeat IPC: 1.36859 cumulative IPC: 1.36857 (Simulation time: 0 hr 3 min 15 sec) 
Heartbeat CPU 0 instructions: 90000003 cycles: 65765865 heartbeat IPC: 1.36787 cumulative IPC: 1.36849 (Simulation time: 0 hr 3 min 39 sec) 
Heartbeat CPU 0 instructions: 100000000 cycles: 73076544 heartbeat IPC: 1.36786 cumulative IPC: 1.36843 (Simulation time: 0 hr 4 min 4 sec) 

Warmup complete CPU 0 instructions: 100000002 cycles: 73076556 (Simulation time: 0 hr 4 min 4 sec) 

Heartbeat CPU 0 instructions: 110000001 cycles: 85613520 heartbeat IPC: 0.797641 cumulative IPC: 0.797641 (Simulation time: 0 hr 4 min 33 sec) 
Heartbeat CPU 0 instructions: 120000000 cycles: 98088307 heartbeat IPC: 0.801617 cumulative IPC: 0.799624 (Simulation time: 0 hr 5 min 3 sec) 
Heartbeat CPU 0 instructions: 130000000 cycles: 110628546 heartbeat IPC: 0.797433 cumulative IPC: 0.798892 (Simulation time: 0 hr 5 min 32 sec) 
Heartbeat CPU 0 instructions: 140000000 cycles: 123143102 heartbeat IPC: 0.79907 cumulative IPC: 0.798937 (Simulation time: 0 hr 6 min 1 sec) 
Heartbeat CPU 0 instructions: 150000000 cycles: 135615906 heartbeat IPC: 0.801744 cumulative IPC: 0.799497 (Simulation time: 0 hr 6 min 30 sec) 
Heartbeat CPU 0 instructions: 160000000 cycles: 148116888 heartbeat IPC: 0.799937 cumulative IPC: 0.79957 (Simulation time: 0 hr 7 min 0 sec) 
Heartbeat CPU 0 instructions: 170000001 cycles: 160648347 heartbeat IPC: 0.797992 cumulative IPC: 0.799344 (Simulation time: 0 hr 7 min 29 sec) 
Heartbeat CPU 0 instructions: 180000000 cycles: 173160642 heartbeat IPC: 0.799214 cumulative IPC: 0.799328 (Simulation time: 0 hr 7 min 58 sec) 
Heartbeat CPU 0 instructions: 190000002 cycles: 185698594 heartbeat IPC: 0.797579 cumulative IPC: 0.799133 (Simulation time: 0 hr 8 min 28 sec) 
Heartbeat CPU 0 instructions: 200000000 cycles: 198195273 heartbeat IPC: 0.800212 cumulative IPC: 0.799241 (Simulation time: 0 hr 8 min 57 sec) 
Heartbeat CPU 0 instructions: 210000002 cycles: 210745323 heartbeat IPC: 0.79681 cumulative IPC: 0.799019 (Simulation time: 0 hr 9 min 26 sec) 
Heartbeat CPU 0 instructions: 220000000 cycles: 223287576 heartbeat IPC: 0.797305 cumulative IPC: 0.798876 (Simulation time: 0 hr 9 min 56 sec) 
Heartbeat CPU 0 instructions: 230000002 cycles: 235788022 heartbeat IPC: 0.799972 cumulative IPC: 0.79896 (Simulation time: 0 hr 10 min 25 sec) 
Heartbeat CPU 0 instructions: 240000000 cycles: 249019496 heartbeat IPC: 0.755774 cumulative IPC: 0.795713 (Simulation time: 0 hr 10 min 55 sec) 
Heartbeat CPU 0 instructions: 250000001 cycles: 266322232 heartbeat IPC: 0.577943 cumulative IPC: 0.776214 (Simulation time: 0 hr 11 min 27 sec) 
Heartbeat CPU 0 instructions: 260000000 cycles: 283538524 heartbeat IPC: 0.580845 cumulative IPC: 0.760232 (Simulation time: 0 hr 11 min 58 sec) 
Heartbeat CPU 0 instructions: 270000000 cycles: 300810248 heartbeat IPC: 0.578981 cumulative IPC: 0.746486 (Simulation time: 0 hr 12 min 30 sec) 
Heartbeat CPU 0 instructions: 280000000 cycles: 318041728 heartbeat IPC: 0.580333 cumulative IPC: 0.734798 (Simulation time: 0 hr 13 min 2 sec) 
Heartbeat CPU 0 instructions: 290000000 cycles: 346546619 heartbeat IPC: 0.350817 cumulative IPC: 0.694774 (Simulation time: 0 hr 13 min 42 sec) 
Heartbeat CPU 0 instructions: 300000000 cycles: 383456843 heartbeat IPC: 0.270928 cumulative IPC: 0.644371 (Simulation time: 0 hr 14 min 27 sec) 
Heartbeat CPU 0 instructions: 310000000 cycles: 400064770 heartbeat IPC: 0.602122 cumulative IPC: 0.642225 (Simulation time: 0 hr 14 min 58 sec) 
Heartbeat CPU 0 instructions: 320000000 cycles: 416669640 heartbeat IPC: 0.602233 cumulative IPC: 0.640292 (Simulation time: 0 hr 15 min 29 sec) 
Heartbeat CPU 0 instructions: 330000003 cycles: 433331764 heartbeat IPC: 0.600164 cumulative IPC: 0.638436 (Simulation time: 0 hr 16 min 0 sec) 
Heartbeat CPU 0 instructions: 340000000 cycles: 449935674 heartbeat IPC: 0.602268 cumulative IPC: 0.636843 (Simulation time: 0 hr 16 min 31 sec) 
Heartbeat CPU 0 instructions: 350000001 cycles: 464736528 heartbeat IPC: 0.675637 cumulative IPC: 0.638309 (Simulation time: 0 hr 17 min 1 sec) 
Heartbeat CPU 0 instructions: 360000000 cycles: 476676072 heartbeat IPC: 0.837553 cumulative IPC: 0.644203 (Simulation time: 0 hr 17 min 28 sec) 
Heartbeat CPU 0 instructions: 370000002 cycles: 488379748 heartbeat IPC: 0.854433 cumulative IPC: 0.650127 (Simulation time: 0 hr 17 min 55 sec) 
Heartbeat CPU 0 instructions: 380000000 cycles: 500289811 heartbeat IPC: 0.839626 cumulative IPC: 0.65541 (Simulation time: 0 hr 18 min 22 sec) 
Heartbeat CPU 0 instructions: 390000003 cycles: 513664580 heartbeat IPC: 0.747677 cumulative IPC: 0.658211 (Simulation time: 0 hr 18 min 50 sec) 
Heartbeat CPU 0 instructions: 400000000 cycles: 525947093 heartbeat IPC: 0.814165 cumulative IPC: 0.662441 (Simulation time: 0 hr 19 min 18 sec) 
Heartbeat CPU 0 instructions: 410000002 cycles: 537955549 heartbeat IPC: 0.832747 cumulative IPC: 0.66684 (Simulation time: 0 hr 19 min 46 sec) 
Heartbeat CPU 0 instructions: 420000000 cycles: 550816894 heartbeat IPC: 0.777524 cumulative IPC: 0.66982 (Simulation time: 0 hr 20 min 13 sec) 
Heartbeat CPU 0 instructions: 430000003 cycles: 569391985 heartbeat IPC: 0.538356 cumulative IPC: 0.6649 (Simulation time: 0 hr 20 min 38 sec) 
Heartbeat CPU 0 instructions: 440000000 cycles: 587982668 heartbeat IPC: 0.537904 cumulative IPC: 0.660315 (Simulation time: 0 hr 21 min 4 sec) 
Heartbeat CPU 0 instructions: 450000003 cycles: 606581634 heartbeat IPC: 0.537664 cumulative IPC: 0.656039 (Simulation time: 0 hr 21 min 29 sec) 
Heartbeat CPU 0 instructions: 460000000 cycles: 625147723 heartbeat IPC: 0.538616 cumulative IPC: 0.65209 (Simulation time: 0 hr 21 min 54 sec) 
Heartbeat CPU 0 instructions: 470000003 cycles: 643729629 heartbeat IPC: 0.538158 cumulative IPC: 0.64838 (Simulation time: 0 hr 22 min 19 sec) 
Heartbeat CPU 0 instructions: 480000000 cycles: 662314075 heartbeat IPC: 0.538084 cumulative IPC: 0.644901 (Simulation time: 0 hr 22 min 44 sec) 
Heartbeat CPU 0 instructions: 490000003 cycles: 680916925 heartbeat IPC: 0.537552 cumulative IPC: 0.641616 (Simulation time: 0 hr 23 min 9 sec) 
Heartbeat CPU 0 instructions: 500000000 cycles: 699457204 heartbeat IPC: 0.539366 cumulative IPC: 0.638589 (Simulation time: 0 hr 23 min 34 sec) 
Heartbeat CPU 0 instructions: 510000003 cycles: 718049731 heartbeat IPC: 0.537851 cumulative IPC: 0.635685 (Simulation time: 0 hr 24 min 0 sec) 
Heartbeat CPU 0 instructions: 520000000 cycles: 736627014 heartbeat IPC: 0.538292 cumulative IPC: 0.632959 (Simulation time: 0 hr 24 min 25 sec) 
Heartbeat CPU 0 instructions: 530000001 cycles: 755227000 heartbeat IPC: 0.537635 cumulative IPC: 0.630359 (Simulation time: 0 hr 24 min 50 sec) 
Heartbeat CPU 0 instructions: 540000000 cycles: 773744338 heartbeat IPC: 0.540034 cumulative IPC: 0.627972 (Simulation time: 0 hr 25 min 15 sec) 
Heartbeat CPU 0 instructions: 550000001 cycles: 792253977 heartbeat IPC: 0.540259 cumulative IPC: 0.625715 (Simulation time: 0 hr 25 min 40 sec) 
Heartbeat CPU 0 instructions: 560000000 cycles: 810778645 heartbeat IPC: 0.539821 cumulative IPC: 0.623558 (Simulation time: 0 hr 26 min 6 sec) 
Heartbeat CPU 0 instructions: 570000001 cycles: 829300426 heartbeat IPC: 0.539905 cumulative IPC: 0.621509 (Simulation time: 0 hr 26 min 31 sec) 
Heartbeat CPU 0 instructions: 580000000 cycles: 847757217 heartbeat IPC: 0.541806 cumulative IPC: 0.61961 (Simulation time: 0 hr 26 min 56 sec) 
Heartbeat CPU 0 instructions: 590000001 cycles: 866279928 heartbeat IPC: 0.539878 cumulative IPC: 0.617748 (Simulation time: 0 hr 27 min 21 sec) 
Heartbeat CPU 0 instructions: 600000000 cycles: 884805806 heartbeat IPC: 0.539785 cumulative IPC: 0.615969 (Simulation time: 0 hr 27 min 46 sec) 
Finished CPU 0 instructions: 500000002 cycles: 811729264 cumulative IPC: 0.615969 (Simulation time: 0 hr 27 min 46 sec) 

CPU 0 Branch Prediction Accuracy: 99.5931% MPKI: 0.08288
Number of Branches: 10184133 Number of Mispredictions: 41440
Number of LOAD Instructions: 261155957
Number of LOAD Instructions (ROI): 261155957
Number of STORE Instructions: 57884062
Number of STORE Instructions (ROI): 57884062
Total Destination Memory Operands: 83293336
Total Destination Memory Operands (ROI): 83293336
Total Source Memory Operands: 261155957
Total Source Memory Operands (ROI): 261155957
Number of DEPENDED LOADS: 22257019
Number of DEPENDED LOADS (ROI): 22257019
Number of SQ_ADDED: 83293300
Number of SQ_ADDED (ROI): 83293300
Number of LQ_ADDED: 1778493875
Number of LQ_ADDED (ROI): 1778493875
Number of Instructions read from trace: 600000257

ChampSim completed all CPUs

Region of Interest Statistics

CPU 0 cumulative IPC: 0.615969 instructions: 500000002 cycles: 811729264
ITLB TOTAL     ACCESS:   94679858  HIT:   94679820  MISS:         38
ITLB LOAD      ACCESS:   94679858  HIT:   94679820  MISS:         38
ITLB RFO       ACCESS:          0  HIT:          0  MISS:          0
ITLB PREFETCH  ACCESS:          0  HIT:          0  MISS:          0
ITLB WRITEBACK ACCESS:          0  HIT:          0  MISS:          0
ITLB PREFETCH  REQUESTED:          0  ISSUED:          0  USEFUL:          0  USELESS:          0
ITLB TOTAL MSHR MERGED:         93
ITLB LOAD MSHR MERGED:         93
ITLB RFO MSHR MERGED:          0
ITLB PREFETCH MSHR MERGED:          0
ITLB WRITEBACK MSHR MERGED:          0
ITLB TOTAL ACCESSES:   94679951 HITS:   94679820 MISSES:        131
ITLB LOAD ACCESSES:   94679951 HITS:   94679820 MISSES:        131
ITLB RFO ACCESSES:          0 HITS:          0 MISSES:          0
ITLB PREFETCH ACCESSES:          0 HITS:          0 MISSES:          0
ITLB WRITEBACK ACCESSES:          0 HITS:          0 MISSES:          0
ITLB RQ ACCESS:  500000001
ITLB RQ TO_CACHE:   94679952
ITLB RQ MERGED:  405320049
ITLB RQ FORWARD:          0
ITLB WQ ACCESS:          0
ITLB WQ TO_CACHE:          0
ITLB WQ MERGED:          0
ITLB WQ FORWARD:          0
DTLB TOTAL     ACCESS:  149175727  HIT:  148578767  MISS:     596960
DTLB LOAD      ACCESS:  107301560  HIT:  106704611  MISS:     596949
DTLB RFO       ACCESS:   41874167  HIT:   41874156  MISS:         11
DTLB PREFETCH  ACCESS:          0  HIT:          0  MISS:          0
DTLB WRITEBACK ACCESS:          0  HIT:          0  MISS:          0
DTLB PREFETCH  REQUESTED:          0  ISSUED:          0  USEFUL:          0  USELESS:          0
DTLB TOTAL MSHR MERGED:     134159
DTLB LOAD MSHR MERGED:     134159
DTLB RFO MSHR MERGED:          0
DTLB PREFETCH MSHR MERGED:          0
DTLB WRITEBACK MSHR MERGED:          0
DTLB TOTAL ACCESSES:  149309886 HITS:  148578767 MISSES:     731119
DTLB LOAD ACCESSES:  107435719 HITS:  106704611 MISSES:     731108
DTLB RFO ACCESSES:   41874167 HITS:   41874156 MISSES:         11
DTLB PREFETCH ACCESSES:          0 HITS:          0 MISSES:          0
DTLB WRITEBACK ACCESSES:          0 HITS:          0 MISSES:          0
DTLB RQ ACCESS:  259758875
DTLB RQ TO_CACHE:  149309886
DTLB RQ MERGED:  110448989
DTLB RQ FORWARD:          0
DTLB WQ ACCESS:          0
DTLB WQ TO_CACHE:          0
DTLB WQ MERGED:          0
DTLB WQ FORWARD:          0
L1D TOTAL     ACCESS:  261041281  HIT:  245644124  MISS:   15397157
L1D LOAD      ACCESS:  118067063  HIT:  112564855  MISS:    5502208
L1D RFO       ACCESS:   68946711  HIT:   68932303  MISS:      14408
L1D PREFETCH  ACCESS:   74027507  HIT:   64146966  MISS:    9880541
L1D WRITEBACK ACCESS:          0  HIT:          0  MISS:          0
L1D PREFETCH  REQUESTED:  120654404  ISSUED:  119078520  USEFUL:    8010430  USELESS:    1870133
L1D TOTAL MSHR MERGED:   16516958
L1D LOAD MSHR MERGED:    4999133
L1D RFO MSHR MERGED:      21861
L1D PREFETCH MSHR MERGED:   11495964
L1D WRITEBACK MSHR MERGED:          0
L1D TOTAL ACCESSES:  277668241 HITS:  245754126 MISSES:   31914115
L1D LOAD ACCESSES:  120661925 HITS:  112572376 MISSES:    8089549
L1D RFO ACCESSES:   68968571 HITS:   68932303 MISSES:      36268
L1D PREFETCH ACCESSES:   88037745 HITS:   64249447 MISSES:   23788298
L1D WRITEBACK ACCESSES:          0 HITS:          0 MISSES:          0
L1D RQ ACCESS:  190684559
L1D RQ TO_CACHE:  120654404
L1D RQ MERGED:   70022634
L1D RQ FORWARD:          0
L1D WQ ACCESS:   69074336
L1D WQ TO_CACHE:   68968573
L1D WQ MERGED:     105763
L1D WQ FORWARD:     110002
L1I TOTAL     ACCESS:  121592790  HIT:  121591717  MISS:       1073
L1I LOAD      ACCESS:  121592790  HIT:  121591717  MISS:       1073
L1I RFO       ACCESS:          0  HIT:          0  MISS:          0
L1I PREFETCH  ACCESS:          0  HIT:          0  MISS:          0
L1I WRITEBACK ACCESS:          0  HIT:          0  MISS:          0
L1I PREFETCH  REQUESTED:          0  ISSUED:          0  USEFUL:          0  USELESS:          0
L1I TOTAL MSHR MERGED:       1103
L1I LOAD MSHR MERGED:       1103
L1I RFO MSHR MERGED:          0
L1I PREFETCH MSHR MERGED:          0
L1I WRITEBACK MSHR MERGED:          0
L1I TOTAL ACCESSES:  121593893 HITS:  121591717 MISSES:       2176
L1I LOAD ACCESSES:  121593893 HITS:  121591717 MISSES:       2176
L1I RFO ACCESSES:          0 HITS:          0 MISSES:          0
L1I PREFETCH ACCESSES:          0 HITS:          0 MISSES:          0
L1I WRITEBACK ACCESSES:          0 HITS:          0 MISSES:          0
L1I RQ ACCESS:  500000000
L1I RQ TO_CACHE:  121593893
L1I RQ MERGED:  378406107
L1I RQ FORWARD:          0
L1I WQ ACCESS:          0
L1I WQ TO_CACHE:          0
L1I WQ MERGED:          0
L1I WQ FORWARD:          0
L2C TOTAL     ACCESS:   22468894  HIT:    9150574  MISS:   13318320
L2C LOAD      ACCESS:    3091465  HIT:     416225  MISS:    2675240
L2C RFO       ACCESS:      14407  HIT:      13992  MISS:        415
L2C PREFETCH  ACCESS:   12733075  HIT:    2092205  MISS:   10640870
L2C WRITEBACK ACCESS:    6629947  HIT:    6628152  MISS:       1795
L2C PREFETCH  REQUESTED:     694631  ISSUED:     694631  USEFUL:     185646  USELESS:   10456025
L2C TOTAL MSHR MERGED:      71802
L2C LOAD MSHR MERGED:      22538
L2C RFO MSHR MERGED:          0
L2C PREFETCH MSHR MERGED:      49264
L2C WRITEBACK MSHR MERGED:          0
L2C TOTAL ACCESSES:   22682989 HITS:    9150610 MISSES:   13532379
L2C LOAD ACCESSES:    3091489 HITS:     416249 MISSES:    2675240
L2C RFO ACCESSES:      14407 HITS:      13992 MISSES:        415
L2C PREFETCH ACCESSES:   12947146 HITS:    2092217 MISSES:   10854929
L2C WRITEBACK ACCESSES:    6629947 HITS:    6628152 MISSES:       1795
L2C RQ ACCESS:    3105896
L2C RQ TO_CACHE:    3105872
L2C RQ MERGED:          0
L2C RQ FORWARD:          0
L2C WQ ACCESS:    6629947
L2C WQ TO_CACHE:    6629947
L2C WQ MERGED:          0
L2C WQ FORWARD:         36
LLC TOTAL     ACCESS:   20027253  HIT:    1923186  MISS:   18104067
LLC LOAD      ACCESS:    2652701  HIT:     387342  MISS:    2265359
LLC RFO       ACCESS:        415  HIT:         19  MISS:        396
LLC PREFETCH  ACCESS:   10782914  HIT:     113554  MISS:   10669360
LLC WRITEBACK ACCESS:    6591223  HIT:    1422271  MISS:    5168952
LLC PREFETCH  REQUESTED:          0  ISSUED:          0  USEFUL:      47235  USELESS:   10623095
LLC TOTAL MSHR MERGED:      21403
LLC LOAD MSHR MERGED:       9837
LLC RFO MSHR MERGED:          0
LLC PREFETCH MSHR MERGED:      11566
LLC WRITEBACK MSHR MERGED:          0
LLC TOTAL ACCESSES:   20048659 HITS:    1923188 MISSES:   18125471
LLC LOAD ACCESSES:    2652702 HITS:     387343 MISSES:    2265359
LLC RFO ACCESSES:        415 HITS:         19 MISSES:        396
LLC PREFETCH ACCESSES:   10804319 HITS:     113555 MISSES:   10690764
LLC WRITEBACK ACCESSES:    6591223 HITS:    1422271 MISSES:    5168952
LLC 0 RQ ACCESS:    2653117
LLC 0 RQ TO_CACHE:    2653116
LLC 0 RQ MERGED:          0
LLC 0 RQ FORWARD:          0
LLC WQ ACCESS:    6591224
LLC WQ TO_CACHE:    6591224
LLC WQ MERGED:          0
LLC WQ FORWARD:          2
Major fault: 0 Minor fault: 183991
CPU 0 L1D next line prefetcher final stats
CPU 0 L2C PC-based stride prefetcher final stats
All Misses: 20979682
All Hits: 1978617
SD Algo Stats - Switches: 0 SRR-Repls: 2331757 BRR-Repls: 0

DRAM Statistics
 CHANNEL 0
 RQ ROW_BUFFER_HIT:    7182448  ROW_BUFFER_MISS:    5752667
 DBUS_CONGESTED:   11389195
 WQ ROW_BUFFER_HIT:    1047051  ROW_BUFFER_MISS:    5540833  FULL:          0

 AVG_CONGESTED_CYCLE: 13
LOADS RETIRED: 204440772
INSTR RETIRED: 500000000
