
*** ChampSim Multicore Out-of-Order Simulator ***

Warmup Instructions: 100000000
Simulation Instructions: 500000000
Number of CPUs: 1
LLC sets: 2048
LLC ways: 16
Clean RRIP Policies: 2013230220132302 Dirty RRIP Policies: 2003130220031302 PSEL Width: 10 Track Set: 4294967295 PSEL Mask: 1 Demote Mask: 1040100010401000DS Algo: 0Window size: 0
Off-chip DRAM Size: 4096 MB Channels: 1 Width: 64-bit Data Rate: 1600 MT/s

CPU 0 runs /mnt/beegfs/iconst01/spec2017/Wrf.trace.gz
NOT SORTED
TRACE STRING: /mnt/beegfs/iconst01/spec2017/Wrf.trace.gz
SORTED
TRACE STRING: /mnt/beegfs/iconst01/spec2017/Wrf.trace.gz
INITIAL
TRACE STRING: /mnt/beegfs/iconst01/spec2017/Wrf.trace.gz

champsim_seed used: 303

CPU 0 L1D next line prefetcher
CPU 0 L2C IP-based stride prefetcher
Initialize DRRIP state
Assign rand_sets[0]: 454  LLC: 2048
rand_sets[0]: 454
Assign rand_sets[1]: 1662  LLC: 2048
rand_sets[1]: 1662
Assign rand_sets[2]: 1921  LLC: 2048
rand_sets[2]: 1921
Assign rand_sets[3]: 1131  LLC: 2048
rand_sets[3]: 1131
Assign rand_sets[4]: 331  LLC: 2048
rand_sets[4]: 331
Assign rand_sets[5]: 1531  LLC: 2048
rand_sets[5]: 1531
Assign rand_sets[6]: 482  LLC: 2048
rand_sets[6]: 482
Assign rand_sets[7]: 1275  LLC: 2048
rand_sets[7]: 1275
Assign rand_sets[8]: 1876  LLC: 2048
rand_sets[8]: 1876
Assign rand_sets[9]: 2038  LLC: 2048
rand_sets[9]: 2038
Assign rand_sets[10]: 701  LLC: 2048
rand_sets[10]: 701
Assign rand_sets[11]: 479  LLC: 2048
rand_sets[11]: 479
Assign rand_sets[12]: 892  LLC: 2048
rand_sets[12]: 892
Assign rand_sets[13]: 1820  LLC: 2048
rand_sets[13]: 1820
Assign rand_sets[14]: 1505  LLC: 2048
rand_sets[14]: 1505
Assign rand_sets[15]: 1159  LLC: 2048
rand_sets[15]: 1159
Assign rand_sets[16]: 513  LLC: 2048
rand_sets[16]: 513
Assign rand_sets[17]: 703  LLC: 2048
rand_sets[17]: 703
Assign rand_sets[18]: 561  LLC: 2048
rand_sets[18]: 561
Assign rand_sets[19]: 990  LLC: 2048
rand_sets[19]: 990
Assign rand_sets[20]: 342  LLC: 2048
rand_sets[20]: 342
Assign rand_sets[21]: 882  LLC: 2048
rand_sets[21]: 882
Assign rand_sets[22]: 15  LLC: 2048
rand_sets[22]: 15
Assign rand_sets[23]: 71  LLC: 2048
rand_sets[23]: 71
Assign rand_sets[24]: 1127  LLC: 2048
rand_sets[24]: 1127
Assign rand_sets[25]: 1382  LLC: 2048
rand_sets[25]: 1382
Assign rand_sets[26]: 647  LLC: 2048
rand_sets[26]: 647
Assign rand_sets[27]: 857  LLC: 2048
rand_sets[27]: 857
Assign rand_sets[28]: 1450  LLC: 2048
rand_sets[28]: 1450
Assign rand_sets[29]: 1160  LLC: 2048
rand_sets[29]: 1160
Assign rand_sets[30]: 1852  LLC: 2048
rand_sets[30]: 1852
Assign rand_sets[31]: 1881  LLC: 2048
rand_sets[31]: 1881
Assign rand_sets[32]: 1770  LLC: 2048
rand_sets[32]: 1770
Assign rand_sets[33]: 1622  LLC: 2048
rand_sets[33]: 1622
Assign rand_sets[34]: 275  LLC: 2048
rand_sets[34]: 275
Assign rand_sets[35]: 635  LLC: 2048
rand_sets[35]: 635
Assign rand_sets[36]: 466  LLC: 2048
rand_sets[36]: 466
Assign rand_sets[37]: 1413  LLC: 2048
rand_sets[37]: 1413
Assign rand_sets[38]: 417  LLC: 2048
rand_sets[38]: 417
Assign rand_sets[39]: 472  LLC: 2048
rand_sets[39]: 472
Assign rand_sets[40]: 1340  LLC: 2048
rand_sets[40]: 1340
Assign rand_sets[41]: 852  LLC: 2048
rand_sets[41]: 852
Assign rand_sets[42]: 1365  LLC: 2048
rand_sets[42]: 1365
Assign rand_sets[43]: 47  LLC: 2048
rand_sets[43]: 47
Assign rand_sets[44]: 823  LLC: 2048
rand_sets[44]: 823
Assign rand_sets[45]: 686  LLC: 2048
rand_sets[45]: 686
Assign rand_sets[46]: 1637  LLC: 2048
rand_sets[46]: 1637
Assign rand_sets[47]: 1115  LLC: 2048
rand_sets[47]: 1115
Assign rand_sets[48]: 986  LLC: 2048
rand_sets[48]: 986
Assign rand_sets[49]: 258  LLC: 2048
rand_sets[49]: 258
Assign rand_sets[50]: 633  LLC: 2048
rand_sets[50]: 633
Assign rand_sets[51]: 920  LLC: 2048
rand_sets[51]: 920
Assign rand_sets[52]: 204  LLC: 2048
rand_sets[52]: 204
Assign rand_sets[53]: 227  LLC: 2048
rand_sets[53]: 227
Assign rand_sets[54]: 1818  LLC: 2048
rand_sets[54]: 1818
Assign rand_sets[55]: 886  LLC: 2048
rand_sets[55]: 886
Assign rand_sets[56]: 1422  LLC: 2048
rand_sets[56]: 1422
Assign rand_sets[57]: 607  LLC: 2048
rand_sets[57]: 607
Assign rand_sets[58]: 217  LLC: 2048
rand_sets[58]: 217
Assign rand_sets[59]: 1945  LLC: 2048
rand_sets[59]: 1945
Assign rand_sets[60]: 143  LLC: 2048
rand_sets[60]: 143
Assign rand_sets[61]: 1311  LLC: 2048
rand_sets[61]: 1311
Assign rand_sets[62]: 319  LLC: 2048
rand_sets[62]: 319
Assign rand_sets[63]: 1846  LLC: 2048
rand_sets[63]: 1846
 CLEAN-RRIP-POLICY-1: 2-0-1-3-2-3-0-2- CLEAN-RRIP-POLICY-2: 2-0-1-3-2-3-0-2-
 DIRTY-RRIP-POLICY-1: 2-0-0-3-1-3-0-2- DIRTY-RRIP-POLICY-2: 2-0-0-3-1-3-0-2-
 PSEL width: 10
Heartbeat CPU 0 instructions: 10000002 cycles: 6559548 heartbeat IPC: 1.5245 cumulative IPC: 1.5245 (Simulation time: 0 hr 0 min 22 sec) 
Heartbeat CPU 0 instructions: 20000000 cycles: 12222174 heartbeat IPC: 1.76596 cumulative IPC: 1.63637 (Simulation time: 0 hr 0 min 41 sec) 
Heartbeat CPU 0 instructions: 30000003 cycles: 18203997 heartbeat IPC: 1.67173 cumulative IPC: 1.64799 (Simulation time: 0 hr 1 min 2 sec) 
Heartbeat CPU 0 instructions: 40000000 cycles: 24059337 heartbeat IPC: 1.70784 cumulative IPC: 1.66256 (Simulation time: 0 hr 1 min 22 sec) 
Heartbeat CPU 0 instructions: 50000000 cycles: 29527762 heartbeat IPC: 1.82868 cumulative IPC: 1.69332 (Simulation time: 0 hr 1 min 42 sec) 
Heartbeat CPU 0 instructions: 60000000 cycles: 35640574 heartbeat IPC: 1.63591 cumulative IPC: 1.68347 (Simulation time: 0 hr 2 min 3 sec) 
Heartbeat CPU 0 instructions: 70000000 cycles: 41360311 heartbeat IPC: 1.74833 cumulative IPC: 1.69244 (Simulation time: 0 hr 2 min 23 sec) 
Heartbeat CPU 0 instructions: 80000000 cycles: 47231223 heartbeat IPC: 1.70331 cumulative IPC: 1.69379 (Simulation time: 0 hr 2 min 43 sec) 
Heartbeat CPU 0 instructions: 90000000 cycles: 52984698 heartbeat IPC: 1.73808 cumulative IPC: 1.6986 (Simulation time: 0 hr 3 min 3 sec) 
Heartbeat CPU 0 instructions: 100000000 cycles: 58537459 heartbeat IPC: 1.80091 cumulative IPC: 1.70831 (Simulation time: 0 hr 3 min 23 sec) 

Warmup complete CPU 0 instructions: 100000004 cycles: 58537461 (Simulation time: 0 hr 3 min 23 sec) 

Heartbeat CPU 0 instructions: 110000001 cycles: 72321296 heartbeat IPC: 0.725487 cumulative IPC: 0.725487 (Simulation time: 0 hr 3 min 48 sec) 
Heartbeat CPU 0 instructions: 120000000 cycles: 83020393 heartbeat IPC: 0.934658 cumulative IPC: 0.816895 (Simulation time: 0 hr 4 min 12 sec) 
Heartbeat CPU 0 instructions: 130000000 cycles: 93163967 heartbeat IPC: 0.985846 cumulative IPC: 0.866388 (Simulation time: 0 hr 4 min 34 sec) 
Heartbeat CPU 0 instructions: 140000000 cycles: 104213608 heartbeat IPC: 0.905007 cumulative IPC: 0.875731 (Simulation time: 0 hr 4 min 57 sec) 
Heartbeat CPU 0 instructions: 150000002 cycles: 115494686 heartbeat IPC: 0.88644 cumulative IPC: 0.877852 (Simulation time: 0 hr 5 min 21 sec) 
Heartbeat CPU 0 instructions: 160000000 cycles: 124518355 heartbeat IPC: 1.1082 cumulative IPC: 0.909354 (Simulation time: 0 hr 5 min 42 sec) 
Heartbeat CPU 0 instructions: 170000003 cycles: 135366181 heartbeat IPC: 0.921844 cumulative IPC: 0.911118 (Simulation time: 0 hr 6 min 5 sec) 
Heartbeat CPU 0 instructions: 180000000 cycles: 148106612 heartbeat IPC: 0.784903 cumulative IPC: 0.893165 (Simulation time: 0 hr 6 min 29 sec) 
Heartbeat CPU 0 instructions: 190000000 cycles: 163174444 heartbeat IPC: 0.663665 cumulative IPC: 0.860116 (Simulation time: 0 hr 6 min 53 sec) 
Heartbeat CPU 0 instructions: 200000000 cycles: 178212932 heartbeat IPC: 0.66496 cumulative IPC: 0.835593 (Simulation time: 0 hr 7 min 16 sec) 
Heartbeat CPU 0 instructions: 210000000 cycles: 193225969 heartbeat IPC: 0.666088 cumulative IPC: 0.816699 (Simulation time: 0 hr 7 min 40 sec) 
Heartbeat CPU 0 instructions: 220000000 cycles: 209112718 heartbeat IPC: 0.629455 cumulative IPC: 0.796944 (Simulation time: 0 hr 8 min 6 sec) 
Heartbeat CPU 0 instructions: 230000003 cycles: 228121944 heartbeat IPC: 0.526061 cumulative IPC: 0.76658 (Simulation time: 0 hr 8 min 34 sec) 
Heartbeat CPU 0 instructions: 240000000 cycles: 237578132 heartbeat IPC: 1.05751 cumulative IPC: 0.781945 (Simulation time: 0 hr 8 min 56 sec) 
Heartbeat CPU 0 instructions: 250000000 cycles: 246303749 heartbeat IPC: 1.14605 cumulative IPC: 0.798865 (Simulation time: 0 hr 9 min 17 sec) 
Heartbeat CPU 0 instructions: 260000000 cycles: 255334780 heartbeat IPC: 1.10729 cumulative IPC: 0.813019 (Simulation time: 0 hr 9 min 38 sec) 
Heartbeat CPU 0 instructions: 270000000 cycles: 264931667 heartbeat IPC: 1.042 cumulative IPC: 0.823667 (Simulation time: 0 hr 10 min 1 sec) 
Heartbeat CPU 0 instructions: 280000000 cycles: 274689559 heartbeat IPC: 1.02481 cumulative IPC: 0.832747 (Simulation time: 0 hr 10 min 24 sec) 
Heartbeat CPU 0 instructions: 290000000 cycles: 284658251 heartbeat IPC: 1.00314 cumulative IPC: 0.840259 (Simulation time: 0 hr 10 min 48 sec) 
Heartbeat CPU 0 instructions: 300000000 cycles: 293260468 heartbeat IPC: 1.16249 cumulative IPC: 0.852068 (Simulation time: 0 hr 11 min 10 sec) 
Heartbeat CPU 0 instructions: 310000002 cycles: 307196852 heartbeat IPC: 0.717546 cumulative IPC: 0.844529 (Simulation time: 0 hr 11 min 36 sec) 
Heartbeat CPU 0 instructions: 320000000 cycles: 323442335 heartbeat IPC: 0.615556 cumulative IPC: 0.830487 (Simulation time: 0 hr 12 min 4 sec) 
Heartbeat CPU 0 instructions: 330000002 cycles: 334045023 heartbeat IPC: 0.943157 cumulative IPC: 0.834823 (Simulation time: 0 hr 12 min 27 sec) 
Heartbeat CPU 0 instructions: 340000000 cycles: 344262607 heartbeat IPC: 0.978705 cumulative IPC: 0.839968 (Simulation time: 0 hr 12 min 50 sec) 
Heartbeat CPU 0 instructions: 350000002 cycles: 356908231 heartbeat IPC: 0.790788 cumulative IPC: 0.837884 (Simulation time: 0 hr 13 min 15 sec) 
Heartbeat CPU 0 instructions: 360000000 cycles: 367830492 heartbeat IPC: 0.915561 cumulative IPC: 0.840627 (Simulation time: 0 hr 13 min 38 sec) 
Heartbeat CPU 0 instructions: 370000002 cycles: 378373054 heartbeat IPC: 0.948536 cumulative IPC: 0.844184 (Simulation time: 0 hr 14 min 2 sec) 
Heartbeat CPU 0 instructions: 380000000 cycles: 388770065 heartbeat IPC: 0.961815 cumulative IPC: 0.847887 (Simulation time: 0 hr 14 min 25 sec) 
Heartbeat CPU 0 instructions: 390000003 cycles: 405422392 heartbeat IPC: 0.600517 cumulative IPC: 0.836012 (Simulation time: 0 hr 14 min 53 sec) 
Heartbeat CPU 0 instructions: 400000000 cycles: 416320421 heartbeat IPC: 0.917597 cumulative IPC: 0.838497 (Simulation time: 0 hr 15 min 15 sec) 
Heartbeat CPU 0 instructions: 410000002 cycles: 426852609 heartbeat IPC: 0.949471 cumulative IPC: 0.841671 (Simulation time: 0 hr 15 min 37 sec) 
Heartbeat CPU 0 instructions: 420000000 cycles: 437234523 heartbeat IPC: 0.963213 cumulative IPC: 0.845003 (Simulation time: 0 hr 15 min 59 sec) 
Heartbeat CPU 0 instructions: 430000003 cycles: 447712745 heartbeat IPC: 0.954361 cumulative IPC: 0.847947 (Simulation time: 0 hr 16 min 20 sec) 
Heartbeat CPU 0 instructions: 440000000 cycles: 459458064 heartbeat IPC: 0.851403 cumulative IPC: 0.848048 (Simulation time: 0 hr 16 min 43 sec) 
Heartbeat CPU 0 instructions: 450000002 cycles: 474526494 heartbeat IPC: 0.663639 cumulative IPC: 0.841368 (Simulation time: 0 hr 17 min 6 sec) 
Heartbeat CPU 0 instructions: 460000000 cycles: 489565054 heartbeat IPC: 0.664957 cumulative IPC: 0.835213 (Simulation time: 0 hr 17 min 30 sec) 
Heartbeat CPU 0 instructions: 470000003 cycles: 504582703 heartbeat IPC: 0.665883 cumulative IPC: 0.829512 (Simulation time: 0 hr 17 min 53 sec) 
Heartbeat CPU 0 instructions: 480000000 cycles: 520520650 heartbeat IPC: 0.627433 cumulative IPC: 0.822541 (Simulation time: 0 hr 18 min 18 sec) 
Heartbeat CPU 0 instructions: 490000002 cycles: 539641304 heartbeat IPC: 0.522995 cumulative IPC: 0.810636 (Simulation time: 0 hr 18 min 46 sec) 
Heartbeat CPU 0 instructions: 500000000 cycles: 549054484 heartbeat IPC: 1.06234 cumulative IPC: 0.815466 (Simulation time: 0 hr 19 min 8 sec) 
Heartbeat CPU 0 instructions: 510000002 cycles: 557850208 heartbeat IPC: 1.13692 cumulative IPC: 0.821129 (Simulation time: 0 hr 19 min 28 sec) 
Heartbeat CPU 0 instructions: 520000000 cycles: 566864544 heartbeat IPC: 1.10934 cumulative IPC: 0.82624 (Simulation time: 0 hr 19 min 49 sec) 
Heartbeat CPU 0 instructions: 530000002 cycles: 576460167 heartbeat IPC: 1.04214 cumulative IPC: 0.83024 (Simulation time: 0 hr 20 min 11 sec) 
Heartbeat CPU 0 instructions: 540000000 cycles: 586163621 heartbeat IPC: 1.03056 cumulative IPC: 0.833924 (Simulation time: 0 hr 20 min 34 sec) 
Heartbeat CPU 0 instructions: 550000002 cycles: 596170015 heartbeat IPC: 0.999361 cumulative IPC: 0.837003 (Simulation time: 0 hr 20 min 58 sec) 
Heartbeat CPU 0 instructions: 560000000 cycles: 604783048 heartbeat IPC: 1.16103 cumulative IPC: 0.842112 (Simulation time: 0 hr 21 min 20 sec) 
Heartbeat CPU 0 instructions: 570000001 cycles: 618531368 heartbeat IPC: 0.727362 cumulative IPC: 0.839295 (Simulation time: 0 hr 21 min 45 sec) 
Heartbeat CPU 0 instructions: 580000000 cycles: 634921972 heartbeat IPC: 0.610106 cumulative IPC: 0.832777 (Simulation time: 0 hr 22 min 13 sec) 
Heartbeat CPU 0 instructions: 590000002 cycles: 645183501 heartbeat IPC: 0.974514 cumulative IPC: 0.835257 (Simulation time: 0 hr 22 min 35 sec) 
Heartbeat CPU 0 instructions: 600000000 cycles: 655748469 heartbeat IPC: 0.946524 cumulative IPC: 0.837225 (Simulation time: 0 hr 22 min 58 sec) 
Finished CPU 0 instructions: 500000000 cycles: 597211027 cumulative IPC: 0.837225 (Simulation time: 0 hr 22 min 58 sec) 

CPU 0 Branch Prediction Accuracy: 99.5219% MPKI: 0.251582
Number of Branches: 26312578 Number of Mispredictions: 125791
Number of LOAD Instructions: 235643083
Number of LOAD Instructions (ROI): 235643083
Number of STORE Instructions: 37593550
Number of STORE Instructions (ROI): 37593550
Total Destination Memory Operands: 40480968
Total Destination Memory Operands (ROI): 40480968
Total Source Memory Operands: 235643083
Total Source Memory Operands (ROI): 235643083
Number of DEPENDED LOADS: 6701091
Number of DEPENDED LOADS (ROI): 6701091
Number of SQ_ADDED: 40480950
Number of SQ_ADDED (ROI): 40480950
Number of LQ_ADDED: 388044422
Number of LQ_ADDED (ROI): 388044422
Number of Instructions read from trace: 600000259

ChampSim completed all CPUs

Region of Interest Statistics

CPU 0 cumulative IPC: 0.837225 instructions: 500000000 cycles: 597211027
ITLB TOTAL     ACCESS:  109364919  HIT:  109364406  MISS:        513
ITLB LOAD      ACCESS:  109364919  HIT:  109364406  MISS:        513
ITLB RFO       ACCESS:          0  HIT:          0  MISS:          0
ITLB PREFETCH  ACCESS:          0  HIT:          0  MISS:          0
ITLB WRITEBACK ACCESS:          0  HIT:          0  MISS:          0
ITLB PREFETCH  REQUESTED:          0  ISSUED:          0  USEFUL:          0  USELESS:          0
ITLB TOTAL MSHR MERGED:        971
ITLB LOAD MSHR MERGED:        971
ITLB RFO MSHR MERGED:          0
ITLB PREFETCH MSHR MERGED:          0
ITLB WRITEBACK MSHR MERGED:          0
ITLB TOTAL ACCESSES:  109365890 HITS:  109364406 MISSES:       1484
ITLB LOAD ACCESSES:  109365890 HITS:  109364406 MISSES:       1484
ITLB RFO ACCESSES:          0 HITS:          0 MISSES:          0
ITLB PREFETCH ACCESSES:          0 HITS:          0 MISSES:          0
ITLB WRITEBACK ACCESSES:          0 HITS:          0 MISSES:          0
ITLB RQ ACCESS:  500000003
ITLB RQ TO_CACHE:  109365890
ITLB RQ MERGED:  390634113
ITLB RQ FORWARD:          0
ITLB WQ ACCESS:          0
ITLB WQ TO_CACHE:          0
ITLB WQ MERGED:          0
ITLB WQ FORWARD:          0
DTLB TOTAL     ACCESS:  130420002  HIT:  130162305  MISS:     257697
DTLB LOAD      ACCESS:  109035198  HIT:  108814360  MISS:     220838
DTLB RFO       ACCESS:   21384804  HIT:   21347945  MISS:      36859
DTLB PREFETCH  ACCESS:          0  HIT:          0  MISS:          0
DTLB WRITEBACK ACCESS:          0  HIT:          0  MISS:          0
DTLB PREFETCH  REQUESTED:          0  ISSUED:          0  USEFUL:          0  USELESS:          0
DTLB TOTAL MSHR MERGED:     121953
DTLB LOAD MSHR MERGED:      84066
DTLB RFO MSHR MERGED:      37887
DTLB PREFETCH MSHR MERGED:          0
DTLB WRITEBACK MSHR MERGED:          0
DTLB TOTAL ACCESSES:  130541955 HITS:  130162305 MISSES:     379650
DTLB LOAD ACCESSES:  109119264 HITS:  108814360 MISSES:     304904
DTLB RFO ACCESSES:   21422691 HITS:   21347945 MISSES:      74746
DTLB PREFETCH ACCESSES:          0 HITS:          0 MISSES:          0
DTLB WRITEBACK ACCESSES:          0 HITS:          0 MISSES:          0
DTLB RQ ACCESS:  218633315
DTLB RQ TO_CACHE:  130541956
DTLB RQ MERGED:   88091359
DTLB RQ FORWARD:          0
DTLB WQ ACCESS:          0
DTLB WQ TO_CACHE:          0
DTLB WQ MERGED:          0
DTLB WQ FORWARD:          0
L1D TOTAL     ACCESS:  204726897  HIT:  193653431  MISS:   11073466
L1D LOAD      ACCESS:  106302355  HIT:  103150504  MISS:    3151851
L1D RFO       ACCESS:   26963970  HIT:   25213483  MISS:    1750487
L1D PREFETCH  ACCESS:   71460572  HIT:   65289444  MISS:    6171128
L1D WRITEBACK ACCESS:          0  HIT:          0  MISS:          0
L1D PREFETCH  REQUESTED:  108936409  ISSUED:  107275008  USEFUL:    5715512  USELESS:     455610
L1D TOTAL MSHR MERGED:   18254556
L1D LOAD MSHR MERGED:    4624238
L1D RFO MSHR MERGED:    6469644
L1D PREFETCH MSHR MERGED:    7160674
L1D WRITEBACK MSHR MERGED:          0
L1D TOTAL ACCESSES:  223044003 HITS:  193715981 MISSES:   29328022
L1D LOAD ACCESSES:  108963230 HITS:  103177325 MISSES:    5785905
L1D RFO ACCESSES:   33431304 HITS:   25213483 MISSES:    8217821
L1D PREFETCH ACCESSES:   80649469 HITS:   65325173 MISSES:   15324296
L1D WRITEBACK ACCESSES:          0 HITS:          0 MISSES:          0
L1D RQ ACCESS:  184989877
L1D RQ TO_CACHE:  108936409
L1D RQ MERGED:   76026647
L1D RQ FORWARD:          0
L1D WQ ACCESS:   33643426
L1D WQ TO_CACHE:   33431303
L1D WQ MERGED:     212123
L1D WQ FORWARD:      62550
L1I TOTAL     ACCESS:  134046872  HIT:  134022295  MISS:      24577
L1I LOAD      ACCESS:  134046872  HIT:  134022295  MISS:      24577
L1I RFO       ACCESS:          0  HIT:          0  MISS:          0
L1I PREFETCH  ACCESS:          0  HIT:          0  MISS:          0
L1I WRITEBACK ACCESS:          0  HIT:          0  MISS:          0
L1I PREFETCH  REQUESTED:          0  ISSUED:          0  USEFUL:          0  USELESS:          0
L1I TOTAL MSHR MERGED:      30529
L1I LOAD MSHR MERGED:      30529
L1I RFO MSHR MERGED:          0
L1I PREFETCH MSHR MERGED:          0
L1I WRITEBACK MSHR MERGED:          0
L1I TOTAL ACCESSES:  134077401 HITS:  134022295 MISSES:      55106
L1I LOAD ACCESSES:  134077401 HITS:  134022295 MISSES:      55106
L1I RFO ACCESSES:          0 HITS:          0 MISSES:          0
L1I PREFETCH ACCESSES:          0 HITS:          0 MISSES:          0
L1I WRITEBACK ACCESSES:          0 HITS:          0 MISSES:          0
L1I RQ ACCESS:  500000005
L1I RQ TO_CACHE:  134077401
L1I RQ MERGED:  365922604
L1I RQ FORWARD:          0
L1I WQ ACCESS:          0
L1I WQ TO_CACHE:          0
L1I WQ MERGED:          0
L1I WQ FORWARD:          0
L2C TOTAL     ACCESS:   14944102  HIT:    6945076  MISS:    7999026
L2C LOAD      ACCESS:    1186057  HIT:     298649  MISS:     887408
L2C RFO       ACCESS:    1747965  HIT:     369431  MISS:    1378534
L2C PREFETCH  ACCESS:    8328124  HIT:    2603737  MISS:    5724387
L2C WRITEBACK ACCESS:    3681956  HIT:    3673259  MISS:       8697
L2C PREFETCH  REQUESTED:     390021  ISSUED:     390013  USEFUL:     114798  USELESS:    5610424
L2C TOTAL MSHR MERGED:      42076
L2C LOAD MSHR MERGED:       2344
L2C RFO MSHR MERGED:       1450
L2C PREFETCH MSHR MERGED:      38282
L2C WRITEBACK MSHR MERGED:          0
L2C TOTAL ACCESSES:   15105602 HITS:    6945758 MISSES:    8159844
L2C LOAD ACCESSES:    1186244 HITS:     298836 MISSES:     887408
L2C RFO ACCESSES:    1748177 HITS:     369643 MISSES:    1378534
L2C PREFETCH ACCESSES:    8489225 HITS:    2604020 MISSES:    5885205
L2C WRITEBACK ACCESSES:    3681956 HITS:    3673259 MISSES:       8697
L2C RQ ACCESS:    2934421
L2C RQ TO_CACHE:    2934022
L2C RQ MERGED:          0
L2C RQ FORWARD:          0
L2C WQ ACCESS:    3681956
L2C WQ TO_CACHE:    3681956
L2C WQ MERGED:          0
L2C WQ FORWARD:        682
LLC TOTAL     ACCESS:   11184230  HIT:    2936967  MISS:    8247263
LLC LOAD      ACCESS:     885057  HIT:     289622  MISS:     595435
LLC RFO       ACCESS:    1377081  HIT:     208082  MISS:    1168999
LLC PREFETCH  ACCESS:    5817629  HIT:    1139734  MISS:    4677895
LLC WRITEBACK ACCESS:    3104463  HIT:    1299529  MISS:    1804934
LLC PREFETCH  REQUESTED:          0  ISSUED:          0  USEFUL:      33668  USELESS:    4644121
LLC TOTAL MSHR MERGED:      22363
LLC LOAD MSHR MERGED:       6835
LLC RFO MSHR MERGED:        557
LLC PREFETCH MSHR MERGED:      14971
LLC WRITEBACK MSHR MERGED:          0
LLC TOTAL ACCESSES:   11206613 HITS:    2936987 MISSES:    8269626
LLC LOAD ACCESSES:     885064 HITS:     289629 MISSES:     595435
LLC RFO ACCESSES:    1377084 HITS:     208085 MISSES:    1168999
LLC PREFETCH ACCESSES:    5840002 HITS:    1139744 MISSES:    4700258
LLC WRITEBACK ACCESSES:    3104463 HITS:    1299529 MISSES:    1804934
LLC 0 RQ ACCESS:    2262148
LLC 0 RQ TO_CACHE:    2262138
LLC 0 RQ MERGED:          0
LLC 0 RQ FORWARD:          0
LLC WQ ACCESS:    3104463
LLC WQ TO_CACHE:    3104463
LLC WQ MERGED:          0
LLC WQ FORWARD:         20
Major fault: 0 Minor fault: 11519
CPU 0 L1D next line prefetcher final stats
CPU 0 L2C PC-based stride prefetcher final stats
All Misses: 10331583
All Hits: 3463807
SD Algo Stats - Switches: 0 SRR-Repls: 668438 BRR-Repls: 0

DRAM Statistics
 CHANNEL 0
 RQ ROW_BUFFER_HIT:    3981199  ROW_BUFFER_MISS:    2460075
 DBUS_CONGESTED:    4363087
 WQ ROW_BUFFER_HIT:     332514  ROW_BUFFER_MISS:    1814111  FULL:        106

 AVG_CONGESTED_CYCLE: 13
LOADS RETIRED: 190375692
INSTR RETIRED: 500000000
