
*** ChampSim Multicore Out-of-Order Simulator ***

Warmup Instructions: 100000000
Simulation Instructions: 500000000
Number of CPUs: 1
LLC sets: 2048
LLC ways: 16
Clean RRIP Policies: 2013230220132302 Dirty RRIP Policies: 2003130220031302 PSEL Width: 10 Track Set: 4294967295 PSEL Mask: 1 Demote Mask: 1040100010401000DS Algo: 0Window size: 0
Off-chip DRAM Size: 4096 MB Channels: 1 Width: 64-bit Data Rate: 1600 MT/s

CPU 0 runs /mnt/beegfs/iconst01/spec2017/Xz.trace.gz
NOT SORTED
TRACE STRING: /mnt/beegfs/iconst01/spec2017/Xz.trace.gz
SORTED
TRACE STRING: /mnt/beegfs/iconst01/spec2017/Xz.trace.gz
INITIAL
TRACE STRING: /mnt/beegfs/iconst01/spec2017/Xz.trace.gz

champsim_seed used: 210

CPU 0 L1D next line prefetcher
CPU 0 L2C IP-based stride prefetcher
Initialize DRRIP state
Assign rand_sets[0]: 454  LLC: 2048
rand_sets[0]: 454
Assign rand_sets[1]: 1662  LLC: 2048
rand_sets[1]: 1662
Assign rand_sets[2]: 1921  LLC: 2048
rand_sets[2]: 1921
Assign rand_sets[3]: 1131  LLC: 2048
rand_sets[3]: 1131
Assign rand_sets[4]: 331  LLC: 2048
rand_sets[4]: 331
Assign rand_sets[5]: 1531  LLC: 2048
rand_sets[5]: 1531
Assign rand_sets[6]: 482  LLC: 2048
rand_sets[6]: 482
Assign rand_sets[7]: 1275  LLC: 2048
rand_sets[7]: 1275
Assign rand_sets[8]: 1876  LLC: 2048
rand_sets[8]: 1876
Assign rand_sets[9]: 2038  LLC: 2048
rand_sets[9]: 2038
Assign rand_sets[10]: 701  LLC: 2048
rand_sets[10]: 701
Assign rand_sets[11]: 479  LLC: 2048
rand_sets[11]: 479
Assign rand_sets[12]: 892  LLC: 2048
rand_sets[12]: 892
Assign rand_sets[13]: 1820  LLC: 2048
rand_sets[13]: 1820
Assign rand_sets[14]: 1505  LLC: 2048
rand_sets[14]: 1505
Assign rand_sets[15]: 1159  LLC: 2048
rand_sets[15]: 1159
Assign rand_sets[16]: 513  LLC: 2048
rand_sets[16]: 513
Assign rand_sets[17]: 703  LLC: 2048
rand_sets[17]: 703
Assign rand_sets[18]: 561  LLC: 2048
rand_sets[18]: 561
Assign rand_sets[19]: 990  LLC: 2048
rand_sets[19]: 990
Assign rand_sets[20]: 342  LLC: 2048
rand_sets[20]: 342
Assign rand_sets[21]: 882  LLC: 2048
rand_sets[21]: 882
Assign rand_sets[22]: 15  LLC: 2048
rand_sets[22]: 15
Assign rand_sets[23]: 71  LLC: 2048
rand_sets[23]: 71
Assign rand_sets[24]: 1127  LLC: 2048
rand_sets[24]: 1127
Assign rand_sets[25]: 1382  LLC: 2048
rand_sets[25]: 1382
Assign rand_sets[26]: 647  LLC: 2048
rand_sets[26]: 647
Assign rand_sets[27]: 857  LLC: 2048
rand_sets[27]: 857
Assign rand_sets[28]: 1450  LLC: 2048
rand_sets[28]: 1450
Assign rand_sets[29]: 1160  LLC: 2048
rand_sets[29]: 1160
Assign rand_sets[30]: 1852  LLC: 2048
rand_sets[30]: 1852
Assign rand_sets[31]: 1881  LLC: 2048
rand_sets[31]: 1881
Assign rand_sets[32]: 1770  LLC: 2048
rand_sets[32]: 1770
Assign rand_sets[33]: 1622  LLC: 2048
rand_sets[33]: 1622
Assign rand_sets[34]: 275  LLC: 2048
rand_sets[34]: 275
Assign rand_sets[35]: 635  LLC: 2048
rand_sets[35]: 635
Assign rand_sets[36]: 466  LLC: 2048
rand_sets[36]: 466
Assign rand_sets[37]: 1413  LLC: 2048
rand_sets[37]: 1413
Assign rand_sets[38]: 417  LLC: 2048
rand_sets[38]: 417
Assign rand_sets[39]: 472  LLC: 2048
rand_sets[39]: 472
Assign rand_sets[40]: 1340  LLC: 2048
rand_sets[40]: 1340
Assign rand_sets[41]: 852  LLC: 2048
rand_sets[41]: 852
Assign rand_sets[42]: 1365  LLC: 2048
rand_sets[42]: 1365
Assign rand_sets[43]: 47  LLC: 2048
rand_sets[43]: 47
Assign rand_sets[44]: 823  LLC: 2048
rand_sets[44]: 823
Assign rand_sets[45]: 686  LLC: 2048
rand_sets[45]: 686
Assign rand_sets[46]: 1637  LLC: 2048
rand_sets[46]: 1637
Assign rand_sets[47]: 1115  LLC: 2048
rand_sets[47]: 1115
Assign rand_sets[48]: 986  LLC: 2048
rand_sets[48]: 986
Assign rand_sets[49]: 258  LLC: 2048
rand_sets[49]: 258
Assign rand_sets[50]: 633  LLC: 2048
rand_sets[50]: 633
Assign rand_sets[51]: 920  LLC: 2048
rand_sets[51]: 920
Assign rand_sets[52]: 204  LLC: 2048
rand_sets[52]: 204
Assign rand_sets[53]: 227  LLC: 2048
rand_sets[53]: 227
Assign rand_sets[54]: 1818  LLC: 2048
rand_sets[54]: 1818
Assign rand_sets[55]: 886  LLC: 2048
rand_sets[55]: 886
Assign rand_sets[56]: 1422  LLC: 2048
rand_sets[56]: 1422
Assign rand_sets[57]: 607  LLC: 2048
rand_sets[57]: 607
Assign rand_sets[58]: 217  LLC: 2048
rand_sets[58]: 217
Assign rand_sets[59]: 1945  LLC: 2048
rand_sets[59]: 1945
Assign rand_sets[60]: 143  LLC: 2048
rand_sets[60]: 143
Assign rand_sets[61]: 1311  LLC: 2048
rand_sets[61]: 1311
Assign rand_sets[62]: 319  LLC: 2048
rand_sets[62]: 319
Assign rand_sets[63]: 1846  LLC: 2048
rand_sets[63]: 1846
 CLEAN-RRIP-POLICY-1: 2-0-1-3-2-3-0-2- CLEAN-RRIP-POLICY-2: 2-0-1-3-2-3-0-2-
 DIRTY-RRIP-POLICY-1: 2-0-0-3-1-3-0-2- DIRTY-RRIP-POLICY-2: 2-0-0-3-1-3-0-2-
 PSEL width: 10
Heartbeat CPU 0 instructions: 10000000 cycles: 4305270 heartbeat IPC: 2.32273 cumulative IPC: 2.32273 (Simulation time: 0 hr 0 min 12 sec) 
Heartbeat CPU 0 instructions: 20000000 cycles: 8617101 heartbeat IPC: 2.3192 cumulative IPC: 2.32097 (Simulation time: 0 hr 0 min 24 sec) 
Heartbeat CPU 0 instructions: 30000003 cycles: 13160976 heartbeat IPC: 2.20077 cumulative IPC: 2.27947 (Simulation time: 0 hr 0 min 36 sec) 
Heartbeat CPU 0 instructions: 40000000 cycles: 17515447 heartbeat IPC: 2.29649 cumulative IPC: 2.2837 (Simulation time: 0 hr 0 min 48 sec) 
Heartbeat CPU 0 instructions: 50000001 cycles: 21878252 heartbeat IPC: 2.2921 cumulative IPC: 2.28537 (Simulation time: 0 hr 0 min 59 sec) 
Heartbeat CPU 0 instructions: 60000000 cycles: 26178446 heartbeat IPC: 2.32548 cumulative IPC: 2.29196 (Simulation time: 0 hr 1 min 11 sec) 
Heartbeat CPU 0 instructions: 70000001 cycles: 30244326 heartbeat IPC: 2.45949 cumulative IPC: 2.31448 (Simulation time: 0 hr 1 min 21 sec) 
Heartbeat CPU 0 instructions: 80000000 cycles: 34523086 heartbeat IPC: 2.33713 cumulative IPC: 2.31729 (Simulation time: 0 hr 1 min 33 sec) 
Heartbeat CPU 0 instructions: 90000001 cycles: 38739694 heartbeat IPC: 2.37157 cumulative IPC: 2.3232 (Simulation time: 0 hr 1 min 44 sec) 
Heartbeat CPU 0 instructions: 100000000 cycles: 42980101 heartbeat IPC: 2.35826 cumulative IPC: 2.32666 (Simulation time: 0 hr 1 min 55 sec) 

Warmup complete CPU 0 instructions: 100000001 cycles: 42980102 (Simulation time: 0 hr 1 min 55 sec) 

Heartbeat CPU 0 instructions: 110000000 cycles: 53114186 heartbeat IPC: 0.986769 cumulative IPC: 0.986769 (Simulation time: 0 hr 2 min 12 sec) 
Heartbeat CPU 0 instructions: 120000000 cycles: 63746199 heartbeat IPC: 0.940556 cumulative IPC: 0.963108 (Simulation time: 0 hr 2 min 29 sec) 
Heartbeat CPU 0 instructions: 130000001 cycles: 74352071 heartbeat IPC: 0.942874 cumulative IPC: 0.956268 (Simulation time: 0 hr 2 min 46 sec) 
Heartbeat CPU 0 instructions: 140000000 cycles: 84045541 heartbeat IPC: 1.03162 cumulative IPC: 0.974055 (Simulation time: 0 hr 3 min 2 sec) 
Heartbeat CPU 0 instructions: 150000001 cycles: 94361457 heartbeat IPC: 0.969376 cumulative IPC: 0.973116 (Simulation time: 0 hr 3 min 19 sec) 
Heartbeat CPU 0 instructions: 160000000 cycles: 104422754 heartbeat IPC: 0.993908 cumulative IPC: 0.97652 (Simulation time: 0 hr 3 min 36 sec) 
Heartbeat CPU 0 instructions: 170000000 cycles: 114101111 heartbeat IPC: 1.03323 cumulative IPC: 0.984238 (Simulation time: 0 hr 3 min 52 sec) 
Heartbeat CPU 0 instructions: 180000000 cycles: 124663094 heartbeat IPC: 0.946792 cumulative IPC: 0.979396 (Simulation time: 0 hr 4 min 9 sec) 
Heartbeat CPU 0 instructions: 190000001 cycles: 134930463 heartbeat IPC: 0.973959 cumulative IPC: 0.978789 (Simulation time: 0 hr 4 min 26 sec) 
Heartbeat CPU 0 instructions: 200000000 cycles: 145507365 heartbeat IPC: 0.945456 cumulative IPC: 0.97535 (Simulation time: 0 hr 4 min 43 sec) 
Heartbeat CPU 0 instructions: 210000002 cycles: 157959881 heartbeat IPC: 0.803051 cumulative IPC: 0.95669 (Simulation time: 0 hr 5 min 1 sec) 
Heartbeat CPU 0 instructions: 220000000 cycles: 170505997 heartbeat IPC: 0.797059 cumulative IPC: 0.940985 (Simulation time: 0 hr 5 min 19 sec) 
Heartbeat CPU 0 instructions: 230000000 cycles: 182687003 heartbeat IPC: 0.82095 cumulative IPC: 0.93052 (Simulation time: 0 hr 5 min 37 sec) 
Heartbeat CPU 0 instructions: 240000000 cycles: 194830243 heartbeat IPC: 0.823503 cumulative IPC: 0.921962 (Simulation time: 0 hr 5 min 55 sec) 
Heartbeat CPU 0 instructions: 250000000 cycles: 206823371 heartbeat IPC: 0.833811 cumulative IPC: 0.915509 (Simulation time: 0 hr 6 min 13 sec) 
Heartbeat CPU 0 instructions: 260000000 cycles: 218389079 heartbeat IPC: 0.864625 cumulative IPC: 0.912154 (Simulation time: 0 hr 6 min 31 sec) 
Heartbeat CPU 0 instructions: 270000003 cycles: 230272063 heartbeat IPC: 0.84154 cumulative IPC: 0.907674 (Simulation time: 0 hr 6 min 49 sec) 
Heartbeat CPU 0 instructions: 280000000 cycles: 241824191 heartbeat IPC: 0.865641 cumulative IPC: 0.905232 (Simulation time: 0 hr 7 min 7 sec) 
Heartbeat CPU 0 instructions: 290000002 cycles: 253359790 heartbeat IPC: 0.866882 cumulative IPC: 0.903129 (Simulation time: 0 hr 7 min 24 sec) 
Heartbeat CPU 0 instructions: 300000000 cycles: 265816405 heartbeat IPC: 0.802786 cumulative IPC: 0.89752 (Simulation time: 0 hr 7 min 42 sec) 
Heartbeat CPU 0 instructions: 310000000 cycles: 277985683 heartbeat IPC: 0.821741 cumulative IPC: 0.893596 (Simulation time: 0 hr 8 min 0 sec) 
Heartbeat CPU 0 instructions: 320000000 cycles: 290646371 heartbeat IPC: 0.789846 cumulative IPC: 0.888292 (Simulation time: 0 hr 8 min 18 sec) 
Heartbeat CPU 0 instructions: 330000003 cycles: 302604307 heartbeat IPC: 0.836265 cumulative IPC: 0.885896 (Simulation time: 0 hr 8 min 36 sec) 
Heartbeat CPU 0 instructions: 340000000 cycles: 314737770 heartbeat IPC: 0.824167 cumulative IPC: 0.88314 (Simulation time: 0 hr 8 min 54 sec) 
Heartbeat CPU 0 instructions: 350000001 cycles: 325743292 heartbeat IPC: 0.908635 cumulative IPC: 0.884132 (Simulation time: 0 hr 9 min 11 sec) 
Heartbeat CPU 0 instructions: 360000000 cycles: 337560390 heartbeat IPC: 0.846231 cumulative IPC: 0.882612 (Simulation time: 0 hr 9 min 29 sec) 
Heartbeat CPU 0 instructions: 370000001 cycles: 348984568 heartbeat IPC: 0.875337 cumulative IPC: 0.88234 (Simulation time: 0 hr 9 min 47 sec) 
Heartbeat CPU 0 instructions: 380000000 cycles: 359988196 heartbeat IPC: 0.908791 cumulative IPC: 0.883258 (Simulation time: 0 hr 10 min 4 sec) 
Heartbeat CPU 0 instructions: 390000003 cycles: 370619395 heartbeat IPC: 0.940628 cumulative IPC: 0.88512 (Simulation time: 0 hr 10 min 22 sec) 
Heartbeat CPU 0 instructions: 400000000 cycles: 380849389 heartbeat IPC: 0.977517 cumulative IPC: 0.887917 (Simulation time: 0 hr 10 min 39 sec) 
Heartbeat CPU 0 instructions: 410000000 cycles: 391385515 heartbeat IPC: 0.949115 cumulative IPC: 0.889768 (Simulation time: 0 hr 10 min 56 sec) 
Heartbeat CPU 0 instructions: 420000000 cycles: 400782542 heartbeat IPC: 1.06417 cumulative IPC: 0.894348 (Simulation time: 0 hr 11 min 13 sec) 
Heartbeat CPU 0 instructions: 430000002 cycles: 409871790 heartbeat IPC: 1.1002 cumulative IPC: 0.899448 (Simulation time: 0 hr 11 min 30 sec) 
Heartbeat CPU 0 instructions: 440000000 cycles: 420140193 heartbeat IPC: 0.973861 cumulative IPC: 0.901474 (Simulation time: 0 hr 11 min 47 sec) 
Heartbeat CPU 0 instructions: 450000002 cycles: 431233153 heartbeat IPC: 0.901473 cumulative IPC: 0.901474 (Simulation time: 0 hr 12 min 4 sec) 
Heartbeat CPU 0 instructions: 460000000 cycles: 442793467 heartbeat IPC: 0.865028 cumulative IPC: 0.90042 (Simulation time: 0 hr 12 min 22 sec) 
Heartbeat CPU 0 instructions: 470000003 cycles: 452997093 heartbeat IPC: 0.980044 cumulative IPC: 0.902402 (Simulation time: 0 hr 12 min 39 sec) 
Heartbeat CPU 0 instructions: 480000000 cycles: 463544132 heartbeat IPC: 0.948133 cumulative IPC: 0.903548 (Simulation time: 0 hr 12 min 56 sec) 
Heartbeat CPU 0 instructions: 490000000 cycles: 473506085 heartbeat IPC: 1.00382 cumulative IPC: 0.905869 (Simulation time: 0 hr 13 min 13 sec) 
Heartbeat CPU 0 instructions: 500000000 cycles: 485285583 heartbeat IPC: 0.848933 cumulative IPC: 0.904352 (Simulation time: 0 hr 13 min 31 sec) 
Heartbeat CPU 0 instructions: 510000002 cycles: 497695661 heartbeat IPC: 0.805797 cumulative IPC: 0.901663 (Simulation time: 0 hr 13 min 49 sec) 
Heartbeat CPU 0 instructions: 520000000 cycles: 509558905 heartbeat IPC: 0.84294 cumulative IPC: 0.900169 (Simulation time: 0 hr 14 min 7 sec) 
Heartbeat CPU 0 instructions: 530000001 cycles: 521410472 heartbeat IPC: 0.84377 cumulative IPC: 0.898772 (Simulation time: 0 hr 14 min 25 sec) 
Heartbeat CPU 0 instructions: 540000000 cycles: 533027096 heartbeat IPC: 0.860835 cumulative IPC: 0.897873 (Simulation time: 0 hr 14 min 43 sec) 
Heartbeat CPU 0 instructions: 550000001 cycles: 544428729 heartbeat IPC: 0.877067 cumulative IPC: 0.8974 (Simulation time: 0 hr 15 min 0 sec) 
Heartbeat CPU 0 instructions: 560000000 cycles: 555989575 heartbeat IPC: 0.864989 cumulative IPC: 0.89667 (Simulation time: 0 hr 15 min 18 sec) 
Heartbeat CPU 0 instructions: 570000000 cycles: 567407786 heartbeat IPC: 0.875794 cumulative IPC: 0.896215 (Simulation time: 0 hr 15 min 36 sec) 
Heartbeat CPU 0 instructions: 580000000 cycles: 578172221 heartbeat IPC: 0.928985 cumulative IPC: 0.896874 (Simulation time: 0 hr 15 min 53 sec) 
Heartbeat CPU 0 instructions: 590000003 cycles: 589567068 heartbeat IPC: 0.87759 cumulative IPC: 0.896472 (Simulation time: 0 hr 16 min 11 sec) 
Heartbeat CPU 0 instructions: 600000000 cycles: 600148194 heartbeat IPC: 0.945079 cumulative IPC: 0.897395 (Simulation time: 0 hr 16 min 28 sec) 
Finished CPU 0 instructions: 500000001 cycles: 557168100 cumulative IPC: 0.897395 (Simulation time: 0 hr 16 min 28 sec) 

CPU 0 Branch Prediction Accuracy: 93.0095% MPKI: 10.0046
Number of Branches: 71558147 Number of Mispredictions: 5002285
Number of LOAD Instructions: 145708893
Number of LOAD Instructions (ROI): 145708893
Number of STORE Instructions: 40463820
Number of STORE Instructions (ROI): 40463820
Total Destination Memory Operands: 45240498
Total Destination Memory Operands (ROI): 45240498
Total Source Memory Operands: 145708893
Total Source Memory Operands (ROI): 145708893
Number of DEPENDED LOADS: 10674394
Number of DEPENDED LOADS (ROI): 10674394
Number of SQ_ADDED: 45240498
Number of SQ_ADDED (ROI): 45240498
Number of LQ_ADDED: 193321166
Number of LQ_ADDED (ROI): 193321166
Number of Instructions read from trace: 600000002

ChampSim completed all CPUs

Region of Interest Statistics

CPU 0 cumulative IPC: 0.897395 instructions: 500000001 cycles: 557168100
ITLB TOTAL     ACCESS:   77992147  HIT:   77992146  MISS:          1
ITLB LOAD      ACCESS:   77992147  HIT:   77992146  MISS:          1
ITLB RFO       ACCESS:          0  HIT:          0  MISS:          0
ITLB PREFETCH  ACCESS:          0  HIT:          0  MISS:          0
ITLB WRITEBACK ACCESS:          0  HIT:          0  MISS:          0
ITLB PREFETCH  REQUESTED:          0  ISSUED:          0  USEFUL:          0  USELESS:          0
ITLB TOTAL MSHR MERGED:          0
ITLB LOAD MSHR MERGED:          0
ITLB RFO MSHR MERGED:          0
ITLB PREFETCH MSHR MERGED:          0
ITLB WRITEBACK MSHR MERGED:          0
ITLB TOTAL ACCESSES:   77992147 HITS:   77992146 MISSES:          1
ITLB LOAD ACCESSES:   77992147 HITS:   77992146 MISSES:          1
ITLB RFO ACCESSES:          0 HITS:          0 MISSES:          0
ITLB PREFETCH ACCESSES:          0 HITS:          0 MISSES:          0
ITLB WRITEBACK ACCESSES:          0 HITS:          0 MISSES:          0
ITLB RQ ACCESS:  499999995
ITLB RQ TO_CACHE:   77992147
ITLB RQ MERGED:  422007848
ITLB RQ FORWARD:          0
ITLB WQ ACCESS:          0
ITLB WQ TO_CACHE:          0
ITLB WQ MERGED:          0
ITLB WQ FORWARD:          0
DTLB TOTAL     ACCESS:   98671643  HIT:   97790306  MISS:     881337
DTLB LOAD      ACCESS:   70891711  HIT:   70030177  MISS:     861534
DTLB RFO       ACCESS:   27779932  HIT:   27760129  MISS:      19803
DTLB PREFETCH  ACCESS:          0  HIT:          0  MISS:          0
DTLB WRITEBACK ACCESS:          0  HIT:          0  MISS:          0
DTLB PREFETCH  REQUESTED:          0  ISSUED:          0  USEFUL:          0  USELESS:          0
DTLB TOTAL MSHR MERGED:      87394
DTLB LOAD MSHR MERGED:      65656
DTLB RFO MSHR MERGED:      21738
DTLB PREFETCH MSHR MERGED:          0
DTLB WRITEBACK MSHR MERGED:          0
DTLB TOTAL ACCESSES:   98759037 HITS:   97790306 MISSES:     968731
DTLB LOAD ACCESSES:   70957367 HITS:   70030177 MISSES:     927190
DTLB RFO ACCESSES:   27801670 HITS:   27760129 MISSES:      41541
DTLB PREFETCH ACCESSES:          0 HITS:          0 MISSES:          0
DTLB WRITEBACK ACCESSES:          0 HITS:          0 MISSES:          0
DTLB RQ ACCESS:  150270662
DTLB RQ TO_CACHE:   98759037
DTLB RQ MERGED:   51511625
DTLB RQ FORWARD:          0
DTLB WQ ACCESS:          0
DTLB WQ TO_CACHE:          0
DTLB WQ MERGED:          0
DTLB WQ FORWARD:          0
L1D TOTAL     ACCESS:  173327247  HIT:  169158628  MISS:    4168619
L1D LOAD      ACCESS:   75279725  HIT:   73398421  MISS:    1881304
L1D RFO       ACCESS:   36778397  HIT:   36571799  MISS:     206598
L1D PREFETCH  ACCESS:   61269125  HIT:   59188408  MISS:    2080717
L1D WRITEBACK ACCESS:          0  HIT:          0  MISS:          0
L1D PREFETCH  REQUESTED:   75382795  ISSUED:   74818621  USEFUL:     415170  USELESS:    1665536
L1D TOTAL MSHR MERGED:     370534
L1D LOAD MSHR MERGED:     111810
L1D RFO MSHR MERGED:     132995
L1D PREFETCH MSHR MERGED:     125729
L1D WRITEBACK MSHR MERGED:          0
L1D TOTAL ACCESSES:  173849409 HITS:  169310256 MISSES:    4539153
L1D LOAD ACCESSES:   75385778 HITS:   73401404 MISSES:    1984374
L1D RFO ACCESSES:   36910004 HITS:   36571799 MISSES:     338205
L1D PREFETCH ACCESSES:   61553627 HITS:   59337053 MISSES:    2216574
L1D WRITEBACK ACCESSES:          0 HITS:          0 MISSES:          0
L1D RQ ACCESS:  112608259
L1D RQ TO_CACHE:   75382795
L1D RQ MERGED:   37222481
L1D RQ FORWARD:          0
L1D WQ ACCESS:   37662403
L1D WQ TO_CACHE:   36910004
L1D WQ MERGED:     752399
L1D WQ FORWARD:     151628
L1I TOTAL     ACCESS:  100700103  HIT:  100700078  MISS:         25
L1I LOAD      ACCESS:  100700103  HIT:  100700078  MISS:         25
L1I RFO       ACCESS:          0  HIT:          0  MISS:          0
L1I PREFETCH  ACCESS:          0  HIT:          0  MISS:          0
L1I WRITEBACK ACCESS:          0  HIT:          0  MISS:          0
L1I PREFETCH  REQUESTED:          0  ISSUED:          0  USEFUL:          0  USELESS:          0
L1I TOTAL MSHR MERGED:         10
L1I LOAD MSHR MERGED:         10
L1I RFO MSHR MERGED:          0
L1I PREFETCH MSHR MERGED:          0
L1I WRITEBACK MSHR MERGED:          0
L1I TOTAL ACCESSES:  100700113 HITS:  100700078 MISSES:         35
L1I LOAD ACCESSES:  100700113 HITS:  100700078 MISSES:         35
L1I RFO ACCESSES:          0 HITS:          0 MISSES:          0
L1I PREFETCH ACCESSES:          0 HITS:          0 MISSES:          0
L1I WRITEBACK ACCESSES:          0 HITS:          0 MISSES:          0
L1I RQ ACCESS:  499999995
L1I RQ TO_CACHE:  100700113
L1I RQ MERGED:  399299882
L1I RQ FORWARD:          0
L1I WQ ACCESS:          0
L1I WQ TO_CACHE:          0
L1I WQ MERGED:          0
L1I WQ FORWARD:          0
L2C TOTAL     ACCESS:    5852602  HIT:    4009420  MISS:    1843182
L2C LOAD      ACCESS:    1872463  HIT:    1061520  MISS:     810943
L2C RFO       ACCESS:     205203  HIT:     100564  MISS:     104639
L2C PREFETCH  ACCESS:    2169303  HIT:    1246123  MISS:     923180
L2C WRITEBACK ACCESS:    1605633  HIT:    1601213  MISS:       4420
L2C PREFETCH  REQUESTED:      91712  ISSUED:      91712  USEFUL:      86466  USELESS:     836737
L2C TOTAL MSHR MERGED:       1004
L2C LOAD MSHR MERGED:        249
L2C RFO MSHR MERGED:          0
L2C PREFETCH MSHR MERGED:        755
L2C WRITEBACK MSHR MERGED:          0
L2C TOTAL ACCESSES:    5853919 HITS:    4009590 MISSES:    1844329
L2C LOAD ACCESSES:    1872589 HITS:    1061646 MISSES:     810943
L2C RFO ACCESSES:     205210 HITS:     100571 MISSES:     104639
L2C PREFETCH ACCESSES:    2170487 HITS:    1246160 MISSES:     924327
L2C WRITEBACK ACCESSES:    1605633 HITS:    1601213 MISSES:       4420
L2C RQ ACCESS:    2077799
L2C RQ TO_CACHE:    2077666
L2C RQ MERGED:          0
L2C RQ FORWARD:          0
L2C WQ ACCESS:    1605633
L2C WQ TO_CACHE:    1605633
L2C WQ MERGED:          0
L2C WQ FORWARD:        170
LLC TOTAL     ACCESS:    2673554  HIT:    2190942  MISS:     482612
LLC LOAD      ACCESS:     810685  HIT:     634271  MISS:     176414
LLC RFO       ACCESS:     104639  HIT:      60069  MISS:      44570
LLC PREFETCH  ACCESS:     923557  HIT:     691078  MISS:     232479
LLC WRITEBACK ACCESS:     834673  HIT:     805524  MISS:      29149
LLC PREFETCH  REQUESTED:          0  ISSUED:          0  USEFUL:       8205  USELESS:     224408
LLC TOTAL MSHR MERGED:          4
LLC LOAD MSHR MERGED:          1
LLC RFO MSHR MERGED:          0
LLC PREFETCH MSHR MERGED:          3
LLC WRITEBACK MSHR MERGED:          0
LLC TOTAL ACCESSES:    2673569 HITS:    2190953 MISSES:     482616
LLC LOAD ACCESSES:     810694 HITS:     634280 MISSES:     176414
LLC RFO ACCESSES:     104639 HITS:      60069 MISSES:      44570
LLC PREFETCH ACCESSES:     923563 HITS:     691080 MISSES:     232483
LLC WRITEBACK ACCESSES:     834673 HITS:     805524 MISSES:      29149
LLC 0 RQ ACCESS:     915333
LLC 0 RQ TO_CACHE:     915324
LLC 0 RQ MERGED:          0
LLC 0 RQ FORWARD:          0
LLC WQ ACCESS:     834673
LLC WQ TO_CACHE:     834673
LLC WQ MERGED:          0
LLC WQ FORWARD:         11
Major fault: 0 Minor fault: 11278
CPU 0 L1D next line prefetcher final stats
CPU 0 L2C PC-based stride prefetcher final stats
All Misses: 595087
All Hits: 2459485
SD Algo Stats - Switches: 0 SRR-Repls: 209619 BRR-Repls: 0

DRAM Statistics
 CHANNEL 0
 RQ ROW_BUFFER_HIT:      28256  ROW_BUFFER_MISS:     424844
 DBUS_CONGESTED:     356124
 WQ ROW_BUFFER_HIT:      14981  ROW_BUFFER_MISS:     211690  FULL:          0

 AVG_CONGESTED_CYCLE: 13
LOADS RETIRED: 121769268
INSTR RETIRED: 500000000
