
*** ChampSim Multicore Out-of-Order Simulator ***

Warmup Instructions: 100000000
Simulation Instructions: 500000000
Number of CPUs: 1
LLC sets: 2048
LLC ways: 16
Clean RRIP Policies: 2223230222232302 Dirty RRIP Policies: 2203130222031302 PSEL Width: 10 Track Set: 4294967295 PSEL Mask: 1 Demote Mask: 1040100010401000DS Algo: 0Window size: 0
Off-chip DRAM Size: 4096 MB Channels: 1 Width: 64-bit Data Rate: 1600 MT/s

CPU 0 runs /mnt/beegfs/iconst01/spec2017/cactuBSSN.trace.gz
NOT SORTED
TRACE STRING: /mnt/beegfs/iconst01/spec2017/cactuBSSN.trace.gz
SORTED
TRACE STRING: /mnt/beegfs/iconst01/spec2017/cactuBSSN.trace.gz
INITIAL
TRACE STRING: /mnt/beegfs/iconst01/spec2017/cactuBSSN.trace.gz

champsim_seed used: 838

CPU 0 L1D next line prefetcher
CPU 0 L2C IP-based stride prefetcher
Initialize DRRIP state
Assign rand_sets[0]: 454  LLC: 2048
rand_sets[0]: 454
Assign rand_sets[1]: 1662  LLC: 2048
rand_sets[1]: 1662
Assign rand_sets[2]: 1921  LLC: 2048
rand_sets[2]: 1921
Assign rand_sets[3]: 1131  LLC: 2048
rand_sets[3]: 1131
Assign rand_sets[4]: 331  LLC: 2048
rand_sets[4]: 331
Assign rand_sets[5]: 1531  LLC: 2048
rand_sets[5]: 1531
Assign rand_sets[6]: 482  LLC: 2048
rand_sets[6]: 482
Assign rand_sets[7]: 1275  LLC: 2048
rand_sets[7]: 1275
Assign rand_sets[8]: 1876  LLC: 2048
rand_sets[8]: 1876
Assign rand_sets[9]: 2038  LLC: 2048
rand_sets[9]: 2038
Assign rand_sets[10]: 701  LLC: 2048
rand_sets[10]: 701
Assign rand_sets[11]: 479  LLC: 2048
rand_sets[11]: 479
Assign rand_sets[12]: 892  LLC: 2048
rand_sets[12]: 892
Assign rand_sets[13]: 1820  LLC: 2048
rand_sets[13]: 1820
Assign rand_sets[14]: 1505  LLC: 2048
rand_sets[14]: 1505
Assign rand_sets[15]: 1159  LLC: 2048
rand_sets[15]: 1159
Assign rand_sets[16]: 513  LLC: 2048
rand_sets[16]: 513
Assign rand_sets[17]: 703  LLC: 2048
rand_sets[17]: 703
Assign rand_sets[18]: 561  LLC: 2048
rand_sets[18]: 561
Assign rand_sets[19]: 990  LLC: 2048
rand_sets[19]: 990
Assign rand_sets[20]: 342  LLC: 2048
rand_sets[20]: 342
Assign rand_sets[21]: 882  LLC: 2048
rand_sets[21]: 882
Assign rand_sets[22]: 15  LLC: 2048
rand_sets[22]: 15
Assign rand_sets[23]: 71  LLC: 2048
rand_sets[23]: 71
Assign rand_sets[24]: 1127  LLC: 2048
rand_sets[24]: 1127
Assign rand_sets[25]: 1382  LLC: 2048
rand_sets[25]: 1382
Assign rand_sets[26]: 647  LLC: 2048
rand_sets[26]: 647
Assign rand_sets[27]: 857  LLC: 2048
rand_sets[27]: 857
Assign rand_sets[28]: 1450  LLC: 2048
rand_sets[28]: 1450
Assign rand_sets[29]: 1160  LLC: 2048
rand_sets[29]: 1160
Assign rand_sets[30]: 1852  LLC: 2048
rand_sets[30]: 1852
Assign rand_sets[31]: 1881  LLC: 2048
rand_sets[31]: 1881
Assign rand_sets[32]: 1770  LLC: 2048
rand_sets[32]: 1770
Assign rand_sets[33]: 1622  LLC: 2048
rand_sets[33]: 1622
Assign rand_sets[34]: 275  LLC: 2048
rand_sets[34]: 275
Assign rand_sets[35]: 635  LLC: 2048
rand_sets[35]: 635
Assign rand_sets[36]: 466  LLC: 2048
rand_sets[36]: 466
Assign rand_sets[37]: 1413  LLC: 2048
rand_sets[37]: 1413
Assign rand_sets[38]: 417  LLC: 2048
rand_sets[38]: 417
Assign rand_sets[39]: 472  LLC: 2048
rand_sets[39]: 472
Assign rand_sets[40]: 1340  LLC: 2048
rand_sets[40]: 1340
Assign rand_sets[41]: 852  LLC: 2048
rand_sets[41]: 852
Assign rand_sets[42]: 1365  LLC: 2048
rand_sets[42]: 1365
Assign rand_sets[43]: 47  LLC: 2048
rand_sets[43]: 47
Assign rand_sets[44]: 823  LLC: 2048
rand_sets[44]: 823
Assign rand_sets[45]: 686  LLC: 2048
rand_sets[45]: 686
Assign rand_sets[46]: 1637  LLC: 2048
rand_sets[46]: 1637
Assign rand_sets[47]: 1115  LLC: 2048
rand_sets[47]: 1115
Assign rand_sets[48]: 986  LLC: 2048
rand_sets[48]: 986
Assign rand_sets[49]: 258  LLC: 2048
rand_sets[49]: 258
Assign rand_sets[50]: 633  LLC: 2048
rand_sets[50]: 633
Assign rand_sets[51]: 920  LLC: 2048
rand_sets[51]: 920
Assign rand_sets[52]: 204  LLC: 2048
rand_sets[52]: 204
Assign rand_sets[53]: 227  LLC: 2048
rand_sets[53]: 227
Assign rand_sets[54]: 1818  LLC: 2048
rand_sets[54]: 1818
Assign rand_sets[55]: 886  LLC: 2048
rand_sets[55]: 886
Assign rand_sets[56]: 1422  LLC: 2048
rand_sets[56]: 1422
Assign rand_sets[57]: 607  LLC: 2048
rand_sets[57]: 607
Assign rand_sets[58]: 217  LLC: 2048
rand_sets[58]: 217
Assign rand_sets[59]: 1945  LLC: 2048
rand_sets[59]: 1945
Assign rand_sets[60]: 143  LLC: 2048
rand_sets[60]: 143
Assign rand_sets[61]: 1311  LLC: 2048
rand_sets[61]: 1311
Assign rand_sets[62]: 319  LLC: 2048
rand_sets[62]: 319
Assign rand_sets[63]: 1846  LLC: 2048
rand_sets[63]: 1846
 CLEAN-RRIP-POLICY-1: 2-2-2-3-2-3-0-2- CLEAN-RRIP-POLICY-2: 2-2-2-3-2-3-0-2-
 DIRTY-RRIP-POLICY-1: 2-2-0-3-1-3-0-2- DIRTY-RRIP-POLICY-2: 2-2-0-3-1-3-0-2-
 PSEL width: 10
Heartbeat CPU 0 instructions: 10000000 cycles: 6588002 heartbeat IPC: 1.51791 cumulative IPC: 1.51791 (Simulation time: 0 hr 0 min 25 sec) 
Heartbeat CPU 0 instructions: 20000000 cycles: 13179595 heartbeat IPC: 1.51708 cumulative IPC: 1.5175 (Simulation time: 0 hr 0 min 50 sec) 
Heartbeat CPU 0 instructions: 30000003 cycles: 19772916 heartbeat IPC: 1.51669 cumulative IPC: 1.51723 (Simulation time: 0 hr 1 min 16 sec) 
Heartbeat CPU 0 instructions: 40000000 cycles: 26364657 heartbeat IPC: 1.51705 cumulative IPC: 1.51718 (Simulation time: 0 hr 1 min 41 sec) 
Heartbeat CPU 0 instructions: 50000001 cycles: 32957338 heartbeat IPC: 1.51683 cumulative IPC: 1.51711 (Simulation time: 0 hr 2 min 7 sec) 
Heartbeat CPU 0 instructions: 60000000 cycles: 39556159 heartbeat IPC: 1.51542 cumulative IPC: 1.51683 (Simulation time: 0 hr 2 min 33 sec) 
Heartbeat CPU 0 instructions: 70000003 cycles: 46154535 heartbeat IPC: 1.51552 cumulative IPC: 1.51664 (Simulation time: 0 hr 2 min 59 sec) 
Heartbeat CPU 0 instructions: 80000000 cycles: 52752580 heartbeat IPC: 1.5156 cumulative IPC: 1.51651 (Simulation time: 0 hr 3 min 24 sec) 
Heartbeat CPU 0 instructions: 90000002 cycles: 59348259 heartbeat IPC: 1.51614 cumulative IPC: 1.51647 (Simulation time: 0 hr 3 min 50 sec) 
Heartbeat CPU 0 instructions: 100000000 cycles: 65943327 heartbeat IPC: 1.51628 cumulative IPC: 1.51645 (Simulation time: 0 hr 4 min 16 sec) 

Warmup complete CPU 0 instructions: 100000002 cycles: 65943328 (Simulation time: 0 hr 4 min 16 sec) 

Heartbeat CPU 0 instructions: 110000000 cycles: 79177859 heartbeat IPC: 0.755599 cumulative IPC: 0.755599 (Simulation time: 0 hr 4 min 47 sec) 
Heartbeat CPU 0 instructions: 120000000 cycles: 92377151 heartbeat IPC: 0.757616 cumulative IPC: 0.756606 (Simulation time: 0 hr 5 min 19 sec) 
Heartbeat CPU 0 instructions: 130000001 cycles: 105642812 heartbeat IPC: 0.753826 cumulative IPC: 0.755677 (Simulation time: 0 hr 5 min 51 sec) 
Heartbeat CPU 0 instructions: 140000000 cycles: 118811614 heartbeat IPC: 0.75937 cumulative IPC: 0.756597 (Simulation time: 0 hr 6 min 22 sec) 
Heartbeat CPU 0 instructions: 150000001 cycles: 131999396 heartbeat IPC: 0.758278 cumulative IPC: 0.756933 (Simulation time: 0 hr 6 min 54 sec) 
Heartbeat CPU 0 instructions: 160000000 cycles: 145229810 heartbeat IPC: 0.755834 cumulative IPC: 0.756749 (Simulation time: 0 hr 7 min 26 sec) 
Heartbeat CPU 0 instructions: 170000000 cycles: 158445905 heartbeat IPC: 0.756653 cumulative IPC: 0.756736 (Simulation time: 0 hr 7 min 57 sec) 
Heartbeat CPU 0 instructions: 180000000 cycles: 171642454 heartbeat IPC: 0.757774 cumulative IPC: 0.756865 (Simulation time: 0 hr 8 min 29 sec) 
Heartbeat CPU 0 instructions: 190000000 cycles: 184804460 heartbeat IPC: 0.759763 cumulative IPC: 0.757186 (Simulation time: 0 hr 9 min 0 sec) 
Heartbeat CPU 0 instructions: 200000000 cycles: 198062422 heartbeat IPC: 0.754264 cumulative IPC: 0.756893 (Simulation time: 0 hr 9 min 32 sec) 
Heartbeat CPU 0 instructions: 210000002 cycles: 211273848 heartbeat IPC: 0.756921 cumulative IPC: 0.756895 (Simulation time: 0 hr 10 min 4 sec) 
Heartbeat CPU 0 instructions: 220000000 cycles: 224450769 heartbeat IPC: 0.758902 cumulative IPC: 0.757062 (Simulation time: 0 hr 10 min 35 sec) 
Heartbeat CPU 0 instructions: 230000003 cycles: 237696538 heartbeat IPC: 0.754958 cumulative IPC: 0.7569 (Simulation time: 0 hr 11 min 7 sec) 
Heartbeat CPU 0 instructions: 240000000 cycles: 250880890 heartbeat IPC: 0.758475 cumulative IPC: 0.757012 (Simulation time: 0 hr 11 min 39 sec) 
Heartbeat CPU 0 instructions: 250000001 cycles: 264105277 heartbeat IPC: 0.756179 cumulative IPC: 0.756957 (Simulation time: 0 hr 12 min 10 sec) 
Heartbeat CPU 0 instructions: 260000000 cycles: 277314850 heartbeat IPC: 0.757027 cumulative IPC: 0.756961 (Simulation time: 0 hr 12 min 41 sec) 
Heartbeat CPU 0 instructions: 270000003 cycles: 290560520 heartbeat IPC: 0.754964 cumulative IPC: 0.756843 (Simulation time: 0 hr 13 min 12 sec) 
Heartbeat CPU 0 instructions: 280000000 cycles: 303757827 heartbeat IPC: 0.75773 cumulative IPC: 0.756892 (Simulation time: 0 hr 13 min 43 sec) 
Heartbeat CPU 0 instructions: 290000000 cycles: 316929346 heartbeat IPC: 0.759214 cumulative IPC: 0.757014 (Simulation time: 0 hr 14 min 14 sec) 
Heartbeat CPU 0 instructions: 300000000 cycles: 330178162 heartbeat IPC: 0.754784 cumulative IPC: 0.756902 (Simulation time: 0 hr 14 min 45 sec) 
Heartbeat CPU 0 instructions: 310000001 cycles: 343349978 heartbeat IPC: 0.759197 cumulative IPC: 0.757011 (Simulation time: 0 hr 15 min 16 sec) 
Heartbeat CPU 0 instructions: 320000000 cycles: 356544591 heartbeat IPC: 0.757885 cumulative IPC: 0.757051 (Simulation time: 0 hr 15 min 47 sec) 
Heartbeat CPU 0 instructions: 330000002 cycles: 369739158 heartbeat IPC: 0.757888 cumulative IPC: 0.757087 (Simulation time: 0 hr 16 min 18 sec) 
Heartbeat CPU 0 instructions: 340000000 cycles: 382980529 heartbeat IPC: 0.755209 cumulative IPC: 0.757009 (Simulation time: 0 hr 16 min 48 sec) 
Heartbeat CPU 0 instructions: 350000000 cycles: 396232975 heartbeat IPC: 0.754578 cumulative IPC: 0.756911 (Simulation time: 0 hr 17 min 19 sec) 
Heartbeat CPU 0 instructions: 360000000 cycles: 409452677 heartbeat IPC: 0.756447 cumulative IPC: 0.756894 (Simulation time: 0 hr 17 min 49 sec) 
Heartbeat CPU 0 instructions: 370000002 cycles: 422730777 heartbeat IPC: 0.75312 cumulative IPC: 0.756753 (Simulation time: 0 hr 18 min 19 sec) 
Heartbeat CPU 0 instructions: 380000000 cycles: 435933233 heartbeat IPC: 0.757435 cumulative IPC: 0.756777 (Simulation time: 0 hr 18 min 48 sec) 
Heartbeat CPU 0 instructions: 390000000 cycles: 449110918 heartbeat IPC: 0.758859 cumulative IPC: 0.756849 (Simulation time: 0 hr 19 min 18 sec) 
Heartbeat CPU 0 instructions: 400000000 cycles: 462304033 heartbeat IPC: 0.757971 cumulative IPC: 0.756886 (Simulation time: 0 hr 19 min 48 sec) 
Heartbeat CPU 0 instructions: 410000001 cycles: 475554335 heartbeat IPC: 0.7547 cumulative IPC: 0.756816 (Simulation time: 0 hr 20 min 18 sec) 
Heartbeat CPU 0 instructions: 420000000 cycles: 488738614 heartbeat IPC: 0.758479 cumulative IPC: 0.756867 (Simulation time: 0 hr 20 min 48 sec) 
Heartbeat CPU 0 instructions: 430000001 cycles: 501923643 heartbeat IPC: 0.758436 cumulative IPC: 0.756915 (Simulation time: 0 hr 21 min 18 sec) 
Heartbeat CPU 0 instructions: 440000000 cycles: 515092995 heartbeat IPC: 0.759339 cumulative IPC: 0.756986 (Simulation time: 0 hr 21 min 48 sec) 
Heartbeat CPU 0 instructions: 450000002 cycles: 528404688 heartbeat IPC: 0.751219 cumulative IPC: 0.75682 (Simulation time: 0 hr 22 min 18 sec) 
Heartbeat CPU 0 instructions: 460000000 cycles: 541619283 heartbeat IPC: 0.756739 cumulative IPC: 0.756818 (Simulation time: 0 hr 22 min 47 sec) 
Heartbeat CPU 0 instructions: 470000003 cycles: 554811872 heartbeat IPC: 0.758002 cumulative IPC: 0.75685 (Simulation time: 0 hr 23 min 17 sec) 
Heartbeat CPU 0 instructions: 480000000 cycles: 568055654 heartbeat IPC: 0.755071 cumulative IPC: 0.756803 (Simulation time: 0 hr 23 min 47 sec) 
Heartbeat CPU 0 instructions: 490000000 cycles: 581270869 heartbeat IPC: 0.756704 cumulative IPC: 0.7568 (Simulation time: 0 hr 24 min 17 sec) 
Heartbeat CPU 0 instructions: 500000000 cycles: 594467080 heartbeat IPC: 0.757793 cumulative IPC: 0.756825 (Simulation time: 0 hr 24 min 47 sec) 
Heartbeat CPU 0 instructions: 510000001 cycles: 607642193 heartbeat IPC: 0.759007 cumulative IPC: 0.756878 (Simulation time: 0 hr 25 min 17 sec) 
Heartbeat CPU 0 instructions: 520000000 cycles: 620927449 heartbeat IPC: 0.752714 cumulative IPC: 0.756778 (Simulation time: 0 hr 25 min 47 sec) 
Heartbeat CPU 0 instructions: 530000000 cycles: 634172445 heartbeat IPC: 0.755002 cumulative IPC: 0.756737 (Simulation time: 0 hr 26 min 16 sec) 
Heartbeat CPU 0 instructions: 540000000 cycles: 647406406 heartbeat IPC: 0.755632 cumulative IPC: 0.756712 (Simulation time: 0 hr 26 min 46 sec) 
Heartbeat CPU 0 instructions: 550000002 cycles: 660667635 heartbeat IPC: 0.754078 cumulative IPC: 0.756653 (Simulation time: 0 hr 27 min 16 sec) 
Heartbeat CPU 0 instructions: 560000000 cycles: 673855781 heartbeat IPC: 0.758257 cumulative IPC: 0.756688 (Simulation time: 0 hr 27 min 46 sec) 
Heartbeat CPU 0 instructions: 570000001 cycles: 687059616 heartbeat IPC: 0.757356 cumulative IPC: 0.756702 (Simulation time: 0 hr 28 min 16 sec) 
Heartbeat CPU 0 instructions: 580000000 cycles: 700268238 heartbeat IPC: 0.757081 cumulative IPC: 0.75671 (Simulation time: 0 hr 28 min 46 sec) 
Heartbeat CPU 0 instructions: 590000003 cycles: 713502544 heartbeat IPC: 0.755612 cumulative IPC: 0.756688 (Simulation time: 0 hr 29 min 15 sec) 
Heartbeat CPU 0 instructions: 600000000 cycles: 726759776 heartbeat IPC: 0.754305 cumulative IPC: 0.75664 (Simulation time: 0 hr 29 min 44 sec) 
Finished CPU 0 instructions: 500000000 cycles: 660816458 cumulative IPC: 0.75664 (Simulation time: 0 hr 29 min 44 sec) 

CPU 0 Branch Prediction Accuracy: 99.968% MPKI: 0.002246
Number of Branches: 3513331 Number of Mispredictions: 1123
Number of LOAD Instructions: 287251172
Number of LOAD Instructions (ROI): 287251172
Number of STORE Instructions: 51060820
Number of STORE Instructions (ROI): 51060820
Total Destination Memory Operands: 51166221
Total Destination Memory Operands (ROI): 51166221
Total Source Memory Operands: 287251172
Total Source Memory Operands (ROI): 287251172
Number of DEPENDED LOADS: 9555437
Number of DEPENDED LOADS (ROI): 9555437
Number of SQ_ADDED: 51166208
Number of SQ_ADDED (ROI): 51166208
Number of LQ_ADDED: 290419930
Number of LQ_ADDED (ROI): 290419930
Number of Instructions read from trace: 600000257

ChampSim completed all CPUs

Region of Interest Statistics

CPU 0 cumulative IPC: 0.75664 instructions: 500000000 cycles: 660816458
ITLB TOTAL     ACCESS:  108949421  HIT:  108949421  MISS:          0
ITLB LOAD      ACCESS:  108949421  HIT:  108949421  MISS:          0
ITLB RFO       ACCESS:          0  HIT:          0  MISS:          0
ITLB PREFETCH  ACCESS:          0  HIT:          0  MISS:          0
ITLB WRITEBACK ACCESS:          0  HIT:          0  MISS:          0
ITLB PREFETCH  REQUESTED:          0  ISSUED:          0  USEFUL:          0  USELESS:          0
ITLB TOTAL MSHR MERGED:          0
ITLB LOAD MSHR MERGED:          0
ITLB RFO MSHR MERGED:          0
ITLB PREFETCH MSHR MERGED:          0
ITLB WRITEBACK MSHR MERGED:          0
ITLB TOTAL ACCESSES:  108949421 HITS:  108949421 MISSES:          0
ITLB LOAD ACCESSES:  108949421 HITS:  108949421 MISSES:          0
ITLB RFO ACCESSES:          0 HITS:          0 MISSES:          0
ITLB PREFETCH ACCESSES:          0 HITS:          0 MISSES:          0
ITLB WRITEBACK ACCESSES:          0 HITS:          0 MISSES:          0
ITLB RQ ACCESS:  500000001
ITLB RQ TO_CACHE:  108949421
ITLB RQ MERGED:  391050580
ITLB RQ FORWARD:          0
ITLB WQ ACCESS:          0
ITLB WQ TO_CACHE:          0
ITLB WQ MERGED:          0
ITLB WQ FORWARD:          0
DTLB TOTAL     ACCESS:  171131517  HIT:  161115204  MISS:   10016313
DTLB LOAD      ACCESS:  143472221  HIT:  135596158  MISS:    7876063
DTLB RFO       ACCESS:   27659296  HIT:   25519046  MISS:    2140250
DTLB PREFETCH  ACCESS:          0  HIT:          0  MISS:          0
DTLB WRITEBACK ACCESS:          0  HIT:          0  MISS:          0
DTLB PREFETCH  REQUESTED:          0  ISSUED:          0  USEFUL:          0  USELESS:          0
DTLB TOTAL MSHR MERGED:     360408
DTLB LOAD MSHR MERGED:     360408
DTLB RFO MSHR MERGED:          0
DTLB PREFETCH MSHR MERGED:          0
DTLB WRITEBACK MSHR MERGED:          0
DTLB TOTAL ACCESSES:  171491925 HITS:  161115204 MISSES:   10376721
DTLB LOAD ACCESSES:  143832629 HITS:  135596158 MISSES:    8236471
DTLB RFO ACCESSES:   27659296 HITS:   25519046 MISSES:    2140250
DTLB PREFETCH ACCESSES:          0 HITS:          0 MISSES:          0
DTLB WRITEBACK ACCESSES:          0 HITS:          0 MISSES:          0
DTLB RQ ACCESS:  274072380
DTLB RQ TO_CACHE:  171491925
DTLB RQ MERGED:  102580455
DTLB RQ FORWARD:          0
DTLB WQ ACCESS:          0
DTLB WQ TO_CACHE:          0
DTLB WQ MERGED:          0
DTLB WQ FORWARD:          0
L1D TOTAL     ACCESS:  350925443  HIT:  283726089  MISS:   67199354
L1D LOAD      ACCESS:  175625503  HIT:  142586094  MISS:   33039409
L1D RFO       ACCESS:   42019029  HIT:   39213246  MISS:    2805783
L1D PREFETCH  ACCESS:  133280911  HIT:  101926749  MISS:   31354162
L1D WRITEBACK ACCESS:          0  HIT:          0  MISS:          0
L1D PREFETCH  REQUESTED:  176229541  ISSUED:  175291434  USEFUL:    2180299  USELESS:   29173865
L1D TOTAL MSHR MERGED:    1483670
L1D LOAD MSHR MERGED:     703965
L1D RFO MSHR MERGED:     349961
L1D PREFETCH MSHR MERGED:     429744
L1D WRITEBACK MSHR MERGED:          0
L1D TOTAL ACCESSES:  352523407 HITS:  283840383 MISSES:   68683024
L1D LOAD ACCESSES:  176237669 HITS:  142594222 MISSES:   33643447
L1D RFO ACCESSES:   42368300 HITS:   39213246 MISSES:    3155054
L1D PREFETCH ACCESSES:  133917438 HITS:  102032915 MISSES:   31884523
L1D WRITEBACK ACCESSES:          0 HITS:          0 MISSES:          0
L1D RQ ACCESS:  231433907
L1D RQ TO_CACHE:  176229541
L1D RQ MERGED:   55196238
L1D RQ FORWARD:          0
L1D WQ ACCESS:   42638475
L1D WQ TO_CACHE:   42368300
L1D WQ MERGED:     270175
L1D WQ FORWARD:     114294
L1I TOTAL     ACCESS:  109343646  HIT:   77827942  MISS:   31515704
L1I LOAD      ACCESS:  109343646  HIT:   77827942  MISS:   31515704
L1I RFO       ACCESS:          0  HIT:          0  MISS:          0
L1I PREFETCH  ACCESS:          0  HIT:          0  MISS:          0
L1I WRITEBACK ACCESS:          0  HIT:          0  MISS:          0
L1I PREFETCH  REQUESTED:          0  ISSUED:          0  USEFUL:          0  USELESS:          0
L1I TOTAL MSHR MERGED:   30749769
L1I LOAD MSHR MERGED:   30749769
L1I RFO MSHR MERGED:          0
L1I PREFETCH MSHR MERGED:          0
L1I WRITEBACK MSHR MERGED:          0
L1I TOTAL ACCESSES:  140093417 HITS:   77827942 MISSES:   62265475
L1I LOAD ACCESSES:  140093417 HITS:   77827942 MISSES:   62265475
L1I RFO ACCESSES:          0 HITS:          0 MISSES:          0
L1I PREFETCH ACCESSES:          0 HITS:          0 MISSES:          0
L1I WRITEBACK ACCESSES:          0 HITS:          0 MISSES:          0
L1I RQ ACCESS:  500000003
L1I RQ TO_CACHE:  140093417
L1I RQ MERGED:  359906586
L1I RQ FORWARD:          0
L1I WQ ACCESS:          0
L1I WQ TO_CACHE:          0
L1I WQ MERGED:          0
L1I WQ FORWARD:          0
L2C TOTAL     ACCESS:  113693288  HIT:  110693882  MISS:    2999406
L2C LOAD      ACCESS:   64453338  HIT:   63893414  MISS:     559924
L2C RFO       ACCESS:    2803198  HIT:    2193849  MISS:     609349
L2C PREFETCH  ACCESS:   43275781  HIT:   41451935  MISS:    1823846
L2C WRITEBACK ACCESS:    3160971  HIT:    3154684  MISS:       6287
L2C PREFETCH  REQUESTED:   15134603  ISSUED:   14620506  USEFUL:    1699433  USELESS:     124419
L2C TOTAL MSHR MERGED:      12984
L2C LOAD MSHR MERGED:          0
L2C RFO MSHR MERGED:          0
L2C PREFETCH MSHR MERGED:      12984
L2C WRITEBACK MSHR MERGED:          0
L2C TOTAL ACCESSES:  113906510 HITS:  110699732 MISSES:    3206778
L2C LOAD ACCESSES:   64455187 HITS:   63895262 MISSES:     559925
L2C RFO ACCESSES:    2805093 HITS:    2195744 MISSES:     609349
L2C PREFETCH ACCESSES:   43485259 HITS:   41454042 MISSES:    2031217
L2C WRITEBACK ACCESSES:    3160971 HITS:    3154684 MISSES:       6287
L2C RQ ACCESS:   67260281
L2C RQ TO_CACHE:   67256538
L2C RQ MERGED:          0
L2C RQ FORWARD:          0
L2C WQ ACCESS:    3160971
L2C WQ TO_CACHE:    3160971
L2C WQ MERGED:          0
L2C WQ FORWARD:       5850
LLC TOTAL     ACCESS:    3718191  HIT:    1795398  MISS:    1922793
LLC LOAD      ACCESS:     559893  HIT:     496236  MISS:      63657
LLC RFO       ACCESS:     527267  HIT:     239136  MISS:     288131
LLC PREFETCH  ACCESS:    2012641  HIT:     596205  MISS:    1416436
LLC WRITEBACK ACCESS:     618390  HIT:     463821  MISS:     154569
LLC PREFETCH  REQUESTED:          0  ISSUED:          0  USEFUL:      43180  USELESS:    1369123
LLC TOTAL MSHR MERGED:       4912
LLC LOAD MSHR MERGED:          0
LLC RFO MSHR MERGED:          0
LLC PREFETCH MSHR MERGED:       4912
LLC WRITEBACK MSHR MERGED:          0
LLC TOTAL ACCESSES:    3805301 HITS:    1877596 MISSES:    1927705
LLC LOAD ACCESSES:     559924 HITS:     496267 MISSES:      63657
LLC RFO ACCESSES:     609349 HITS:     321218 MISSES:     288131
LLC PREFETCH ACCESSES:    2017638 HITS:     596290 MISSES:    1421348
LLC WRITEBACK ACCESSES:     618390 HITS:     463821 MISSES:     154569
LLC 0 RQ ACCESS:    1169274
LLC 0 RQ TO_CACHE:    1087161
LLC 0 RQ MERGED:          0
LLC 0 RQ FORWARD:          0
LLC WQ ACCESS:     618390
LLC WQ TO_CACHE:     618390
LLC WQ MERGED:          0
LLC WQ FORWARD:      82198
Major fault: 0 Minor fault: 12800
CPU 0 L1D next line prefetcher final stats
CPU 0 L2C PC-based stride prefetcher final stats
All Misses: 2322942
All Hits: 2246195
SD Algo Stats - Switches: 0 SRR-Repls: 81171 BRR-Repls: 0

DRAM Statistics
 CHANNEL 0
 RQ ROW_BUFFER_HIT:     879299  ROW_BUFFER_MISS:     888895
 DBUS_CONGESTED:     943976
 WQ ROW_BUFFER_HIT:      29850  ROW_BUFFER_MISS:     259626  FULL:          0

 AVG_CONGESTED_CYCLE: 13
LOADS RETIRED: 239375970
INSTR RETIRED: 500000000
