
*** ChampSim Multicore Out-of-Order Simulator ***

Warmup Instructions: 100000000
Simulation Instructions: 500000000
Number of CPUs: 1
LLC sets: 2048
LLC ways: 16
Clean RRIP Policies: 2223230222232302 Dirty RRIP Policies: 2203130222031302 PSEL Width: 10 Track Set: 4294967295 PSEL Mask: 1 Demote Mask: 1040100010401000DS Algo: 0Window size: 0
Off-chip DRAM Size: 4096 MB Channels: 1 Width: 64-bit Data Rate: 1600 MT/s

CPU 0 runs /mnt/beegfs/iconst01/spec2017/Gcc.trace.gz
NOT SORTED
TRACE STRING: /mnt/beegfs/iconst01/spec2017/Gcc.trace.gz
SORTED
TRACE STRING: /mnt/beegfs/iconst01/spec2017/Gcc.trace.gz
INITIAL
TRACE STRING: /mnt/beegfs/iconst01/spec2017/Gcc.trace.gz

champsim_seed used: 269

CPU 0 L1D next line prefetcher
CPU 0 L2C IP-based stride prefetcher
Initialize DRRIP state
Assign rand_sets[0]: 454  LLC: 2048
rand_sets[0]: 454
Assign rand_sets[1]: 1662  LLC: 2048
rand_sets[1]: 1662
Assign rand_sets[2]: 1921  LLC: 2048
rand_sets[2]: 1921
Assign rand_sets[3]: 1131  LLC: 2048
rand_sets[3]: 1131
Assign rand_sets[4]: 331  LLC: 2048
rand_sets[4]: 331
Assign rand_sets[5]: 1531  LLC: 2048
rand_sets[5]: 1531
Assign rand_sets[6]: 482  LLC: 2048
rand_sets[6]: 482
Assign rand_sets[7]: 1275  LLC: 2048
rand_sets[7]: 1275
Assign rand_sets[8]: 1876  LLC: 2048
rand_sets[8]: 1876
Assign rand_sets[9]: 2038  LLC: 2048
rand_sets[9]: 2038
Assign rand_sets[10]: 701  LLC: 2048
rand_sets[10]: 701
Assign rand_sets[11]: 479  LLC: 2048
rand_sets[11]: 479
Assign rand_sets[12]: 892  LLC: 2048
rand_sets[12]: 892
Assign rand_sets[13]: 1820  LLC: 2048
rand_sets[13]: 1820
Assign rand_sets[14]: 1505  LLC: 2048
rand_sets[14]: 1505
Assign rand_sets[15]: 1159  LLC: 2048
rand_sets[15]: 1159
Assign rand_sets[16]: 513  LLC: 2048
rand_sets[16]: 513
Assign rand_sets[17]: 703  LLC: 2048
rand_sets[17]: 703
Assign rand_sets[18]: 561  LLC: 2048
rand_sets[18]: 561
Assign rand_sets[19]: 990  LLC: 2048
rand_sets[19]: 990
Assign rand_sets[20]: 342  LLC: 2048
rand_sets[20]: 342
Assign rand_sets[21]: 882  LLC: 2048
rand_sets[21]: 882
Assign rand_sets[22]: 15  LLC: 2048
rand_sets[22]: 15
Assign rand_sets[23]: 71  LLC: 2048
rand_sets[23]: 71
Assign rand_sets[24]: 1127  LLC: 2048
rand_sets[24]: 1127
Assign rand_sets[25]: 1382  LLC: 2048
rand_sets[25]: 1382
Assign rand_sets[26]: 647  LLC: 2048
rand_sets[26]: 647
Assign rand_sets[27]: 857  LLC: 2048
rand_sets[27]: 857
Assign rand_sets[28]: 1450  LLC: 2048
rand_sets[28]: 1450
Assign rand_sets[29]: 1160  LLC: 2048
rand_sets[29]: 1160
Assign rand_sets[30]: 1852  LLC: 2048
rand_sets[30]: 1852
Assign rand_sets[31]: 1881  LLC: 2048
rand_sets[31]: 1881
Assign rand_sets[32]: 1770  LLC: 2048
rand_sets[32]: 1770
Assign rand_sets[33]: 1622  LLC: 2048
rand_sets[33]: 1622
Assign rand_sets[34]: 275  LLC: 2048
rand_sets[34]: 275
Assign rand_sets[35]: 635  LLC: 2048
rand_sets[35]: 635
Assign rand_sets[36]: 466  LLC: 2048
rand_sets[36]: 466
Assign rand_sets[37]: 1413  LLC: 2048
rand_sets[37]: 1413
Assign rand_sets[38]: 417  LLC: 2048
rand_sets[38]: 417
Assign rand_sets[39]: 472  LLC: 2048
rand_sets[39]: 472
Assign rand_sets[40]: 1340  LLC: 2048
rand_sets[40]: 1340
Assign rand_sets[41]: 852  LLC: 2048
rand_sets[41]: 852
Assign rand_sets[42]: 1365  LLC: 2048
rand_sets[42]: 1365
Assign rand_sets[43]: 47  LLC: 2048
rand_sets[43]: 47
Assign rand_sets[44]: 823  LLC: 2048
rand_sets[44]: 823
Assign rand_sets[45]: 686  LLC: 2048
rand_sets[45]: 686
Assign rand_sets[46]: 1637  LLC: 2048
rand_sets[46]: 1637
Assign rand_sets[47]: 1115  LLC: 2048
rand_sets[47]: 1115
Assign rand_sets[48]: 986  LLC: 2048
rand_sets[48]: 986
Assign rand_sets[49]: 258  LLC: 2048
rand_sets[49]: 258
Assign rand_sets[50]: 633  LLC: 2048
rand_sets[50]: 633
Assign rand_sets[51]: 920  LLC: 2048
rand_sets[51]: 920
Assign rand_sets[52]: 204  LLC: 2048
rand_sets[52]: 204
Assign rand_sets[53]: 227  LLC: 2048
rand_sets[53]: 227
Assign rand_sets[54]: 1818  LLC: 2048
rand_sets[54]: 1818
Assign rand_sets[55]: 886  LLC: 2048
rand_sets[55]: 886
Assign rand_sets[56]: 1422  LLC: 2048
rand_sets[56]: 1422
Assign rand_sets[57]: 607  LLC: 2048
rand_sets[57]: 607
Assign rand_sets[58]: 217  LLC: 2048
rand_sets[58]: 217
Assign rand_sets[59]: 1945  LLC: 2048
rand_sets[59]: 1945
Assign rand_sets[60]: 143  LLC: 2048
rand_sets[60]: 143
Assign rand_sets[61]: 1311  LLC: 2048
rand_sets[61]: 1311
Assign rand_sets[62]: 319  LLC: 2048
rand_sets[62]: 319
Assign rand_sets[63]: 1846  LLC: 2048
rand_sets[63]: 1846
 CLEAN-RRIP-POLICY-1: 2-2-2-3-2-3-0-2- CLEAN-RRIP-POLICY-2: 2-2-2-3-2-3-0-2-
 DIRTY-RRIP-POLICY-1: 2-2-0-3-1-3-0-2- DIRTY-RRIP-POLICY-2: 2-2-0-3-1-3-0-2-
 PSEL width: 10
Heartbeat CPU 0 instructions: 10000001 cycles: 7315980 heartbeat IPC: 1.36687 cumulative IPC: 1.36687 (Simulation time: 0 hr 0 min 14 sec) 
Heartbeat CPU 0 instructions: 20000000 cycles: 14307644 heartbeat IPC: 1.43027 cumulative IPC: 1.39785 (Simulation time: 0 hr 0 min 28 sec) 
Heartbeat CPU 0 instructions: 30000001 cycles: 21020497 heartbeat IPC: 1.48968 cumulative IPC: 1.42718 (Simulation time: 0 hr 0 min 43 sec) 
Heartbeat CPU 0 instructions: 40000000 cycles: 27481248 heartbeat IPC: 1.54781 cumulative IPC: 1.45554 (Simulation time: 0 hr 0 min 59 sec) 
Heartbeat CPU 0 instructions: 50000001 cycles: 33582984 heartbeat IPC: 1.63888 cumulative IPC: 1.48885 (Simulation time: 0 hr 1 min 13 sec) 
Heartbeat CPU 0 instructions: 60000000 cycles: 40064177 heartbeat IPC: 1.54293 cumulative IPC: 1.4976 (Simulation time: 0 hr 1 min 28 sec) 
Heartbeat CPU 0 instructions: 70000000 cycles: 47102743 heartbeat IPC: 1.42074 cumulative IPC: 1.48611 (Simulation time: 0 hr 1 min 43 sec) 
Heartbeat CPU 0 instructions: 80000000 cycles: 54192909 heartbeat IPC: 1.4104 cumulative IPC: 1.47621 (Simulation time: 0 hr 1 min 56 sec) 
Heartbeat CPU 0 instructions: 90000003 cycles: 61197628 heartbeat IPC: 1.42761 cumulative IPC: 1.47065 (Simulation time: 0 hr 2 min 10 sec) 
Heartbeat CPU 0 instructions: 100000000 cycles: 68365088 heartbeat IPC: 1.39519 cumulative IPC: 1.46273 (Simulation time: 0 hr 2 min 24 sec) 

Warmup complete CPU 0 instructions: 100000004 cycles: 68365089 (Simulation time: 0 hr 2 min 24 sec) 

Heartbeat CPU 0 instructions: 110000003 cycles: 95973648 heartbeat IPC: 0.362207 cumulative IPC: 0.362206 (Simulation time: 0 hr 2 min 51 sec) 
Heartbeat CPU 0 instructions: 120000000 cycles: 123410924 heartbeat IPC: 0.364468 cumulative IPC: 0.363333 (Simulation time: 0 hr 3 min 18 sec) 
Heartbeat CPU 0 instructions: 130000000 cycles: 148369735 heartbeat IPC: 0.40066 cumulative IPC: 0.374978 (Simulation time: 0 hr 3 min 44 sec) 
Heartbeat CPU 0 instructions: 140000000 cycles: 177873871 heartbeat IPC: 0.338936 cumulative IPC: 0.365267 (Simulation time: 0 hr 4 min 10 sec) 
Heartbeat CPU 0 instructions: 150000000 cycles: 207728835 heartbeat IPC: 0.334953 cumulative IPC: 0.358773 (Simulation time: 0 hr 4 min 37 sec) 
Heartbeat CPU 0 instructions: 160000000 cycles: 235140464 heartbeat IPC: 0.364809 cumulative IPC: 0.359765 (Simulation time: 0 hr 5 min 3 sec) 
Heartbeat CPU 0 instructions: 170000001 cycles: 263100903 heartbeat IPC: 0.357648 cumulative IPC: 0.359461 (Simulation time: 0 hr 5 min 30 sec) 
Heartbeat CPU 0 instructions: 180000000 cycles: 291521067 heartbeat IPC: 0.351863 cumulative IPC: 0.358494 (Simulation time: 0 hr 5 min 57 sec) 
Heartbeat CPU 0 instructions: 190000002 cycles: 319496241 heartbeat IPC: 0.35746 cumulative IPC: 0.358378 (Simulation time: 0 hr 6 min 24 sec) 
Heartbeat CPU 0 instructions: 200000000 cycles: 347824127 heartbeat IPC: 0.353009 cumulative IPC: 0.357834 (Simulation time: 0 hr 6 min 51 sec) 
Heartbeat CPU 0 instructions: 210000002 cycles: 375650211 heartbeat IPC: 0.359375 cumulative IPC: 0.357974 (Simulation time: 0 hr 7 min 18 sec) 
Heartbeat CPU 0 instructions: 220000000 cycles: 404781776 heartbeat IPC: 0.34327 cumulative IPC: 0.3567 (Simulation time: 0 hr 7 min 44 sec) 
Heartbeat CPU 0 instructions: 230000000 cycles: 432274444 heartbeat IPC: 0.363733 cumulative IPC: 0.357232 (Simulation time: 0 hr 8 min 10 sec) 
Heartbeat CPU 0 instructions: 240000000 cycles: 458194312 heartbeat IPC: 0.385804 cumulative IPC: 0.359132 (Simulation time: 0 hr 8 min 35 sec) 
Heartbeat CPU 0 instructions: 250000000 cycles: 488292037 heartbeat IPC: 0.332251 cumulative IPC: 0.357205 (Simulation time: 0 hr 9 min 3 sec) 
Heartbeat CPU 0 instructions: 260000000 cycles: 515362084 heartbeat IPC: 0.369412 cumulative IPC: 0.357944 (Simulation time: 0 hr 9 min 28 sec) 
Heartbeat CPU 0 instructions: 270000003 cycles: 543739612 heartbeat IPC: 0.352392 cumulative IPC: 0.357613 (Simulation time: 0 hr 9 min 56 sec) 
Heartbeat CPU 0 instructions: 280000000 cycles: 571890100 heartbeat IPC: 0.355234 cumulative IPC: 0.35748 (Simulation time: 0 hr 10 min 23 sec) 
Heartbeat CPU 0 instructions: 290000000 cycles: 600799549 heartbeat IPC: 0.345908 cumulative IPC: 0.356851 (Simulation time: 0 hr 10 min 51 sec) 
Heartbeat CPU 0 instructions: 300000000 cycles: 630784216 heartbeat IPC: 0.333504 cumulative IPC: 0.355607 (Simulation time: 0 hr 11 min 17 sec) 
Heartbeat CPU 0 instructions: 310000001 cycles: 660204706 heartbeat IPC: 0.339899 cumulative IPC: 0.354826 (Simulation time: 0 hr 11 min 43 sec) 
Heartbeat CPU 0 instructions: 320000000 cycles: 688414723 heartbeat IPC: 0.354484 cumulative IPC: 0.35481 (Simulation time: 0 hr 12 min 9 sec) 
Heartbeat CPU 0 instructions: 330000000 cycles: 717039871 heartbeat IPC: 0.349343 cumulative IPC: 0.354569 (Simulation time: 0 hr 12 min 35 sec) 
Heartbeat CPU 0 instructions: 340000000 cycles: 746282974 heartbeat IPC: 0.341961 cumulative IPC: 0.354025 (Simulation time: 0 hr 13 min 1 sec) 
Heartbeat CPU 0 instructions: 350000003 cycles: 773320067 heartbeat IPC: 0.369862 cumulative IPC: 0.354633 (Simulation time: 0 hr 13 min 27 sec) 
Heartbeat CPU 0 instructions: 360000000 cycles: 801442273 heartbeat IPC: 0.355591 cumulative IPC: 0.354669 (Simulation time: 0 hr 13 min 52 sec) 
Heartbeat CPU 0 instructions: 370000000 cycles: 829621982 heartbeat IPC: 0.354865 cumulative IPC: 0.354677 (Simulation time: 0 hr 14 min 17 sec) 
Heartbeat CPU 0 instructions: 380000000 cycles: 858112866 heartbeat IPC: 0.350989 cumulative IPC: 0.354544 (Simulation time: 0 hr 14 min 42 sec) 
Heartbeat CPU 0 instructions: 390000001 cycles: 885723226 heartbeat IPC: 0.362183 cumulative IPC: 0.354802 (Simulation time: 0 hr 15 min 6 sec) 
Heartbeat CPU 0 instructions: 400000000 cycles: 914357954 heartbeat IPC: 0.349226 cumulative IPC: 0.354613 (Simulation time: 0 hr 15 min 32 sec) 
Heartbeat CPU 0 instructions: 410000001 cycles: 941672447 heartbeat IPC: 0.366106 cumulative IPC: 0.354972 (Simulation time: 0 hr 15 min 57 sec) 
Heartbeat CPU 0 instructions: 420000000 cycles: 968991939 heartbeat IPC: 0.366039 cumulative IPC: 0.355308 (Simulation time: 0 hr 16 min 21 sec) 
Heartbeat CPU 0 instructions: 430000002 cycles: 996692257 heartbeat IPC: 0.361007 cumulative IPC: 0.355478 (Simulation time: 0 hr 16 min 46 sec) 
Heartbeat CPU 0 instructions: 440000000 cycles: 1026208300 heartbeat IPC: 0.338799 cumulative IPC: 0.354964 (Simulation time: 0 hr 17 min 12 sec) 
Heartbeat CPU 0 instructions: 450000002 cycles: 1055434026 heartbeat IPC: 0.342164 cumulative IPC: 0.354585 (Simulation time: 0 hr 17 min 37 sec) 
Heartbeat CPU 0 instructions: 460000000 cycles: 1083124220 heartbeat IPC: 0.361139 cumulative IPC: 0.354764 (Simulation time: 0 hr 18 min 2 sec) 
Heartbeat CPU 0 instructions: 470000000 cycles: 1110756266 heartbeat IPC: 0.361899 cumulative IPC: 0.354953 (Simulation time: 0 hr 18 min 27 sec) 
Heartbeat CPU 0 instructions: 480000000 cycles: 1138638128 heartbeat IPC: 0.358656 cumulative IPC: 0.35505 (Simulation time: 0 hr 18 min 52 sec) 
Heartbeat CPU 0 instructions: 490000000 cycles: 1166226878 heartbeat IPC: 0.362467 cumulative IPC: 0.355236 (Simulation time: 0 hr 19 min 17 sec) 
Heartbeat CPU 0 instructions: 500000000 cycles: 1194526370 heartbeat IPC: 0.353363 cumulative IPC: 0.355189 (Simulation time: 0 hr 19 min 42 sec) 
Heartbeat CPU 0 instructions: 510000000 cycles: 1228719801 heartbeat IPC: 0.292454 cumulative IPC: 0.35334 (Simulation time: 0 hr 20 min 11 sec) 
Heartbeat CPU 0 instructions: 520000000 cycles: 1256710992 heartbeat IPC: 0.357255 cumulative IPC: 0.353432 (Simulation time: 0 hr 20 min 37 sec) 
Heartbeat CPU 0 instructions: 530000001 cycles: 1286221482 heartbeat IPC: 0.338863 cumulative IPC: 0.353079 (Simulation time: 0 hr 21 min 3 sec) 
Heartbeat CPU 0 instructions: 540000000 cycles: 1314303275 heartbeat IPC: 0.356103 cumulative IPC: 0.353148 (Simulation time: 0 hr 21 min 29 sec) 
Heartbeat CPU 0 instructions: 550000001 cycles: 1343471766 heartbeat IPC: 0.342836 cumulative IPC: 0.352912 (Simulation time: 0 hr 21 min 57 sec) 
Heartbeat CPU 0 instructions: 560000000 cycles: 1368855630 heartbeat IPC: 0.393951 cumulative IPC: 0.353713 (Simulation time: 0 hr 22 min 22 sec) 
Heartbeat CPU 0 instructions: 570000000 cycles: 1398293685 heartbeat IPC: 0.339696 cumulative IPC: 0.353402 (Simulation time: 0 hr 22 min 49 sec) 
Heartbeat CPU 0 instructions: 580000000 cycles: 1426227975 heartbeat IPC: 0.357983 cumulative IPC: 0.353497 (Simulation time: 0 hr 23 min 15 sec) 
Heartbeat CPU 0 instructions: 590000001 cycles: 1450962748 heartbeat IPC: 0.404289 cumulative IPC: 0.354405 (Simulation time: 0 hr 23 min 40 sec) 
Heartbeat CPU 0 instructions: 600000000 cycles: 1477033005 heartbeat IPC: 0.383579 cumulative IPC: 0.354945 (Simulation time: 0 hr 24 min 5 sec) 
Finished CPU 0 instructions: 500000000 cycles: 1408667938 cumulative IPC: 0.354945 (Simulation time: 0 hr 24 min 5 sec) 

CPU 0 Branch Prediction Accuracy: 86.4311% MPKI: 26.2662
Number of Branches: 96788573 Number of Mispredictions: 13133102
Number of LOAD Instructions: 164682285
Number of LOAD Instructions (ROI): 164682285
Number of STORE Instructions: 78194750
Number of STORE Instructions (ROI): 78194750
Total Destination Memory Operands: 83268534
Total Destination Memory Operands (ROI): 83268534
Total Source Memory Operands: 164712438
Total Source Memory Operands (ROI): 164712438
Number of DEPENDED LOADS: 7058098
Number of DEPENDED LOADS (ROI): 7058098
Number of SQ_ADDED: 83268522
Number of SQ_ADDED (ROI): 83268522
Number of LQ_ADDED: 236732040
Number of LQ_ADDED (ROI): 236732040
Number of Instructions read from trace: 600000066

ChampSim completed all CPUs

Region of Interest Statistics

CPU 0 cumulative IPC: 0.354945 instructions: 500000000 cycles: 1408667938
ITLB TOTAL     ACCESS:  100517288  HIT:  100312842  MISS:     204446
ITLB LOAD      ACCESS:  100517288  HIT:  100312842  MISS:     204446
ITLB RFO       ACCESS:          0  HIT:          0  MISS:          0
ITLB PREFETCH  ACCESS:          0  HIT:          0  MISS:          0
ITLB WRITEBACK ACCESS:          0  HIT:          0  MISS:          0
ITLB PREFETCH  REQUESTED:          0  ISSUED:          0  USEFUL:          0  USELESS:          0
ITLB TOTAL MSHR MERGED:     172424
ITLB LOAD MSHR MERGED:     172424
ITLB RFO MSHR MERGED:          0
ITLB PREFETCH MSHR MERGED:          0
ITLB WRITEBACK MSHR MERGED:          0
ITLB TOTAL ACCESSES:  100689712 HITS:  100312842 MISSES:     376870
ITLB LOAD ACCESSES:  100689712 HITS:  100312842 MISSES:     376870
ITLB RFO ACCESSES:          0 HITS:          0 MISSES:          0
ITLB PREFETCH ACCESSES:          0 HITS:          0 MISSES:          0
ITLB WRITEBACK ACCESSES:          0 HITS:          0 MISSES:          0
ITLB RQ ACCESS:  500000057
ITLB RQ TO_CACHE:  100689712
ITLB RQ MERGED:  399310345
ITLB RQ FORWARD:          0
ITLB WQ ACCESS:          0
ITLB WQ TO_CACHE:          0
ITLB WQ MERGED:          0
ITLB WQ FORWARD:          0
DTLB TOTAL     ACCESS:  165338119  HIT:  164703768  MISS:     634351
DTLB LOAD      ACCESS:  106293253  HIT:  105723337  MISS:     569916
DTLB RFO       ACCESS:   59044866  HIT:   58980431  MISS:      64435
DTLB PREFETCH  ACCESS:          0  HIT:          0  MISS:          0
DTLB WRITEBACK ACCESS:          0  HIT:          0  MISS:          0
DTLB PREFETCH  REQUESTED:          0  ISSUED:          0  USEFUL:          0  USELESS:          0
DTLB TOTAL MSHR MERGED:      99968
DTLB LOAD MSHR MERGED:      59457
DTLB RFO MSHR MERGED:      40511
DTLB PREFETCH MSHR MERGED:          0
DTLB WRITEBACK MSHR MERGED:          0
DTLB TOTAL ACCESSES:  165438087 HITS:  164703768 MISSES:     734319
DTLB LOAD ACCESSES:  106352710 HITS:  105723337 MISSES:     629373
DTLB RFO ACCESSES:   59085377 HITS:   58980431 MISSES:     104946
DTLB PREFETCH ACCESSES:          0 HITS:          0 MISSES:          0
DTLB WRITEBACK ACCESSES:          0 HITS:          0 MISSES:          0
DTLB RQ ACCESS:  200312786
DTLB RQ TO_CACHE:  165438087
DTLB RQ MERGED:   34874699
DTLB RQ FORWARD:          0
DTLB WQ ACCESS:          0
DTLB WQ TO_CACHE:          0
DTLB WQ MERGED:          0
DTLB WQ FORWARD:          0
L1D TOTAL     ACCESS:  281836934  HIT:  273927581  MISS:    7909353
L1D LOAD      ACCESS:  110417419  HIT:  107138685  MISS:    3278734
L1D RFO       ACCESS:   67123997  HIT:   66233573  MISS:     890424
L1D PREFETCH  ACCESS:  104295518  HIT:  100555323  MISS:    3740195
L1D WRITEBACK ACCESS:          0  HIT:          0  MISS:          0
L1D PREFETCH  REQUESTED:  110818574  ISSUED:  109119280  USEFUL:    1660868  USELESS:    2079291
L1D TOTAL MSHR MERGED:    2869899
L1D LOAD MSHR MERGED:     499342
L1D RFO MSHR MERGED:    1861821
L1D PREFETCH MSHR MERGED:     508736
L1D WRITEBACK MSHR MERGED:          0
L1D TOTAL ACCESSES:  284734265 HITS:  273955013 MISSES:   10779252
L1D LOAD ACCESSES:  110820015 HITS:  107140126 MISSES:    3679889
L1D RFO ACCESSES:   68974190 HITS:   66233573 MISSES:    2740617
L1D PREFETCH ACCESSES:  104940060 HITS:  100581314 MISSES:    4358746
L1D WRITEBACK ACCESSES:          0 HITS:          0 MISSES:          0
L1D RQ ACCESS:  130760183
L1D RQ TO_CACHE:  110818577
L1D RQ MERGED:   19940165
L1D RQ FORWARD:          0
L1D WQ ACCESS:   69552603
L1D WQ TO_CACHE:   68974191
L1D WQ MERGED:     578412
L1D WQ FORWARD:      27432
L1I TOTAL     ACCESS:  126564639  HIT:  122326086  MISS:    4238553
L1I LOAD      ACCESS:  126564639  HIT:  122326086  MISS:    4238553
L1I RFO       ACCESS:          0  HIT:          0  MISS:          0
L1I PREFETCH  ACCESS:          0  HIT:          0  MISS:          0
L1I WRITEBACK ACCESS:          0  HIT:          0  MISS:          0
L1I PREFETCH  REQUESTED:          0  ISSUED:          0  USEFUL:          0  USELESS:          0
L1I TOTAL MSHR MERGED:    1834630
L1I LOAD MSHR MERGED:    1834630
L1I RFO MSHR MERGED:          0
L1I PREFETCH MSHR MERGED:          0
L1I WRITEBACK MSHR MERGED:          0
L1I TOTAL ACCESSES:  128399272 HITS:  122326086 MISSES:    6073186
L1I LOAD ACCESSES:  128399272 HITS:  122326086 MISSES:    6073186
L1I RFO ACCESSES:          0 HITS:          0 MISSES:          0
L1I PREFETCH ACCESSES:          0 HITS:          0 MISSES:          0
L1I WRITEBACK ACCESSES:          0 HITS:          0 MISSES:          0
L1I RQ ACCESS:  500000057
L1I RQ TO_CACHE:  128399272
L1I RQ MERGED:  371600785
L1I RQ FORWARD:          0
L1I WQ ACCESS:          0
L1I WQ TO_CACHE:          0
L1I WQ MERGED:          0
L1I WQ FORWARD:          0
L2C TOTAL     ACCESS:   14905181  HIT:   11158699  MISS:    3746482
L2C LOAD      ACCESS:    7418892  HIT:    5098894  MISS:    2319998
L2C RFO       ACCESS:     878699  HIT:     409894  MISS:     468805
L2C PREFETCH  ACCESS:    4568349  HIT:    3627924  MISS:     940425
L2C WRITEBACK ACCESS:    2039241  HIT:    2021987  MISS:      17254
L2C PREFETCH  REQUESTED:     842776  ISSUED:     842776  USEFUL:     203383  USELESS:     736748
L2C TOTAL MSHR MERGED:       7136
L2C LOAD MSHR MERGED:        800
L2C RFO MSHR MERGED:          0
L2C PREFETCH MSHR MERGED:       6336
L2C WRITEBACK MSHR MERGED:          0
L2C TOTAL ACCESSES:   14913186 HITS:   11159148 MISSES:    3754038
L2C LOAD ACCESSES:    7419100 HITS:    5099102 MISSES:    2319998
L2C RFO ACCESSES:     878796 HITS:     409991 MISSES:     468805
L2C PREFETCH ACCESSES:    4576049 HITS:    3628068 MISSES:     947981
L2C WRITEBACK ACCESSES:    2039241 HITS:    2021987 MISSES:      17254
L2C RQ ACCESS:    8297899
L2C RQ TO_CACHE:    8297594
L2C RQ MERGED:          0
L2C RQ FORWARD:          0
L2C WQ ACCESS:    2039241
L2C WQ TO_CACHE:    2039241
L2C WQ MERGED:          0
L2C WQ FORWARD:        449
LLC TOTAL     ACCESS:    4609807  HIT:    3975781  MISS:     634026
LLC LOAD      ACCESS:    2319181  HIT:    2078621  MISS:     240560
LLC RFO       ACCESS:     468795  HIT:     413208  MISS:      55587
LLC PREFETCH  ACCESS:     941534  HIT:     650646  MISS:     290888
LLC WRITEBACK ACCESS:     880297  HIT:     833306  MISS:      46991
LLC PREFETCH  REQUESTED:          0  ISSUED:          0  USEFUL:      14806  USELESS:     276259
LLC TOTAL MSHR MERGED:         92
LLC LOAD MSHR MERGED:         28
LLC RFO MSHR MERGED:          0
LLC PREFETCH MSHR MERGED:         64
LLC WRITEBACK MSHR MERGED:          0
LLC TOTAL ACCESSES:    4609937 HITS:    3975819 MISSES:     634118
LLC LOAD ACCESSES:    2319198 HITS:    2078638 MISSES:     240560
LLC RFO ACCESSES:     468805 HITS:     413218 MISSES:      55587
LLC PREFETCH ACCESSES:     941637 HITS:     650657 MISSES:     290980
LLC WRITEBACK ACCESSES:     880297 HITS:     833306 MISSES:      46991
LLC 0 RQ ACCESS:    2788003
LLC 0 RQ TO_CACHE:    2787976
LLC 0 RQ MERGED:          0
LLC 0 RQ FORWARD:          0
LLC WQ ACCESS:     880297
LLC WQ TO_CACHE:     880297
LLC WQ MERGED:          0
LLC WQ FORWARD:         38
Major fault: 0 Minor fault: 12862
CPU 0 L1D next line prefetcher final stats
CPU 0 L2C PC-based stride prefetcher final stats
All Misses: 758656
All Hits: 4668157
SD Algo Stats - Switches: 0 SRR-Repls: 284870 BRR-Repls: 0

DRAM Statistics
 CHANNEL 0
 RQ ROW_BUFFER_HIT:     117272  ROW_BUFFER_MISS:     468988
 DBUS_CONGESTED:     322159
 WQ ROW_BUFFER_HIT:      10461  ROW_BUFFER_MISS:     153586  FULL:          0

 AVG_CONGESTED_CYCLE: 13
LOADS RETIRED: 136549171
INSTR RETIRED: 500000000
