
*** ChampSim Multicore Out-of-Order Simulator ***

Warmup Instructions: 100000000
Simulation Instructions: 500000000
Number of CPUs: 1
LLC sets: 2048
LLC ways: 16
Clean RRIP Policies: 1013232110132321 Dirty RRIP Policies: 2013132120131321 PSEL Width: 10 Track Set: 4294967295 PSEL Mask: 1 Demote Mask: 4340204343402043DS Algo: 0Window size: 0
Off-chip DRAM Size: 4096 MB Channels: 1 Width: 64-bit Data Rate: 1600 MT/s

CPU 0 runs /mnt/beegfs/iconst01/spec2017/Fotonik3d.trace.gz
NOT SORTED
TRACE STRING: /mnt/beegfs/iconst01/spec2017/Fotonik3d.trace.gz
SORTED
TRACE STRING: /mnt/beegfs/iconst01/spec2017/Fotonik3d.trace.gz
INITIAL
TRACE STRING: /mnt/beegfs/iconst01/spec2017/Fotonik3d.trace.gz

champsim_seed used: 881

CPU 0 L1D next line prefetcher
CPU 0 L2C IP-based stride prefetcher
Initialize DRRIP state
Assign rand_sets[0]: 454  LLC: 2048
rand_sets[0]: 454
Assign rand_sets[1]: 1662  LLC: 2048
rand_sets[1]: 1662
Assign rand_sets[2]: 1921  LLC: 2048
rand_sets[2]: 1921
Assign rand_sets[3]: 1131  LLC: 2048
rand_sets[3]: 1131
Assign rand_sets[4]: 331  LLC: 2048
rand_sets[4]: 331
Assign rand_sets[5]: 1531  LLC: 2048
rand_sets[5]: 1531
Assign rand_sets[6]: 482  LLC: 2048
rand_sets[6]: 482
Assign rand_sets[7]: 1275  LLC: 2048
rand_sets[7]: 1275
Assign rand_sets[8]: 1876  LLC: 2048
rand_sets[8]: 1876
Assign rand_sets[9]: 2038  LLC: 2048
rand_sets[9]: 2038
Assign rand_sets[10]: 701  LLC: 2048
rand_sets[10]: 701
Assign rand_sets[11]: 479  LLC: 2048
rand_sets[11]: 479
Assign rand_sets[12]: 892  LLC: 2048
rand_sets[12]: 892
Assign rand_sets[13]: 1820  LLC: 2048
rand_sets[13]: 1820
Assign rand_sets[14]: 1505  LLC: 2048
rand_sets[14]: 1505
Assign rand_sets[15]: 1159  LLC: 2048
rand_sets[15]: 1159
Assign rand_sets[16]: 513  LLC: 2048
rand_sets[16]: 513
Assign rand_sets[17]: 703  LLC: 2048
rand_sets[17]: 703
Assign rand_sets[18]: 561  LLC: 2048
rand_sets[18]: 561
Assign rand_sets[19]: 990  LLC: 2048
rand_sets[19]: 990
Assign rand_sets[20]: 342  LLC: 2048
rand_sets[20]: 342
Assign rand_sets[21]: 882  LLC: 2048
rand_sets[21]: 882
Assign rand_sets[22]: 15  LLC: 2048
rand_sets[22]: 15
Assign rand_sets[23]: 71  LLC: 2048
rand_sets[23]: 71
Assign rand_sets[24]: 1127  LLC: 2048
rand_sets[24]: 1127
Assign rand_sets[25]: 1382  LLC: 2048
rand_sets[25]: 1382
Assign rand_sets[26]: 647  LLC: 2048
rand_sets[26]: 647
Assign rand_sets[27]: 857  LLC: 2048
rand_sets[27]: 857
Assign rand_sets[28]: 1450  LLC: 2048
rand_sets[28]: 1450
Assign rand_sets[29]: 1160  LLC: 2048
rand_sets[29]: 1160
Assign rand_sets[30]: 1852  LLC: 2048
rand_sets[30]: 1852
Assign rand_sets[31]: 1881  LLC: 2048
rand_sets[31]: 1881
Assign rand_sets[32]: 1770  LLC: 2048
rand_sets[32]: 1770
Assign rand_sets[33]: 1622  LLC: 2048
rand_sets[33]: 1622
Assign rand_sets[34]: 275  LLC: 2048
rand_sets[34]: 275
Assign rand_sets[35]: 635  LLC: 2048
rand_sets[35]: 635
Assign rand_sets[36]: 466  LLC: 2048
rand_sets[36]: 466
Assign rand_sets[37]: 1413  LLC: 2048
rand_sets[37]: 1413
Assign rand_sets[38]: 417  LLC: 2048
rand_sets[38]: 417
Assign rand_sets[39]: 472  LLC: 2048
rand_sets[39]: 472
Assign rand_sets[40]: 1340  LLC: 2048
rand_sets[40]: 1340
Assign rand_sets[41]: 852  LLC: 2048
rand_sets[41]: 852
Assign rand_sets[42]: 1365  LLC: 2048
rand_sets[42]: 1365
Assign rand_sets[43]: 47  LLC: 2048
rand_sets[43]: 47
Assign rand_sets[44]: 823  LLC: 2048
rand_sets[44]: 823
Assign rand_sets[45]: 686  LLC: 2048
rand_sets[45]: 686
Assign rand_sets[46]: 1637  LLC: 2048
rand_sets[46]: 1637
Assign rand_sets[47]: 1115  LLC: 2048
rand_sets[47]: 1115
Assign rand_sets[48]: 986  LLC: 2048
rand_sets[48]: 986
Assign rand_sets[49]: 258  LLC: 2048
rand_sets[49]: 258
Assign rand_sets[50]: 633  LLC: 2048
rand_sets[50]: 633
Assign rand_sets[51]: 920  LLC: 2048
rand_sets[51]: 920
Assign rand_sets[52]: 204  LLC: 2048
rand_sets[52]: 204
Assign rand_sets[53]: 227  LLC: 2048
rand_sets[53]: 227
Assign rand_sets[54]: 1818  LLC: 2048
rand_sets[54]: 1818
Assign rand_sets[55]: 886  LLC: 2048
rand_sets[55]: 886
Assign rand_sets[56]: 1422  LLC: 2048
rand_sets[56]: 1422
Assign rand_sets[57]: 607  LLC: 2048
rand_sets[57]: 607
Assign rand_sets[58]: 217  LLC: 2048
rand_sets[58]: 217
Assign rand_sets[59]: 1945  LLC: 2048
rand_sets[59]: 1945
Assign rand_sets[60]: 143  LLC: 2048
rand_sets[60]: 143
Assign rand_sets[61]: 1311  LLC: 2048
rand_sets[61]: 1311
Assign rand_sets[62]: 319  LLC: 2048
rand_sets[62]: 319
Assign rand_sets[63]: 1846  LLC: 2048
rand_sets[63]: 1846
 CLEAN-RRIP-POLICY-1: 1-0-1-3-2-3-2-1- CLEAN-RRIP-POLICY-2: 1-0-1-3-2-3-2-1-
 DIRTY-RRIP-POLICY-1: 2-0-1-3-1-3-2-1- DIRTY-RRIP-POLICY-2: 2-0-1-3-1-3-2-1-
 PSEL width: 10
Heartbeat CPU 0 instructions: 10000002 cycles: 7306805 heartbeat IPC: 1.36859 cumulative IPC: 1.36859 (Simulation time: 0 hr 0 min 25 sec) 
Heartbeat CPU 0 instructions: 20000000 cycles: 14613800 heartbeat IPC: 1.36855 cumulative IPC: 1.36857 (Simulation time: 0 hr 0 min 50 sec) 
Heartbeat CPU 0 instructions: 30000001 cycles: 21920657 heartbeat IPC: 1.36858 cumulative IPC: 1.36857 (Simulation time: 0 hr 1 min 15 sec) 
Heartbeat CPU 0 instructions: 40000000 cycles: 29227429 heartbeat IPC: 1.36859 cumulative IPC: 1.36858 (Simulation time: 0 hr 1 min 40 sec) 
Heartbeat CPU 0 instructions: 50000001 cycles: 36534181 heartbeat IPC: 1.3686 cumulative IPC: 1.36858 (Simulation time: 0 hr 2 min 5 sec) 
Heartbeat CPU 0 instructions: 60000000 cycles: 43841146 heartbeat IPC: 1.36856 cumulative IPC: 1.36858 (Simulation time: 0 hr 2 min 31 sec) 
Heartbeat CPU 0 instructions: 70000002 cycles: 51147929 heartbeat IPC: 1.36859 cumulative IPC: 1.36858 (Simulation time: 0 hr 2 min 56 sec) 
Heartbeat CPU 0 instructions: 80000000 cycles: 58454671 heartbeat IPC: 1.3686 cumulative IPC: 1.36858 (Simulation time: 0 hr 3 min 22 sec) 
Heartbeat CPU 0 instructions: 90000003 cycles: 65765237 heartbeat IPC: 1.36788 cumulative IPC: 1.3685 (Simulation time: 0 hr 3 min 48 sec) 
Heartbeat CPU 0 instructions: 100000000 cycles: 73075881 heartbeat IPC: 1.36787 cumulative IPC: 1.36844 (Simulation time: 0 hr 4 min 13 sec) 

Warmup complete CPU 0 instructions: 100000002 cycles: 73075893 (Simulation time: 0 hr 4 min 13 sec) 

Heartbeat CPU 0 instructions: 110000001 cycles: 85571497 heartbeat IPC: 0.800281 cumulative IPC: 0.800281 (Simulation time: 0 hr 4 min 44 sec) 
Heartbeat CPU 0 instructions: 120000000 cycles: 98023448 heartbeat IPC: 0.803087 cumulative IPC: 0.801682 (Simulation time: 0 hr 5 min 15 sec) 
Heartbeat CPU 0 instructions: 130000000 cycles: 110523964 heartbeat IPC: 0.799967 cumulative IPC: 0.801109 (Simulation time: 0 hr 5 min 45 sec) 
Heartbeat CPU 0 instructions: 140000000 cycles: 123011058 heartbeat IPC: 0.800827 cumulative IPC: 0.801039 (Simulation time: 0 hr 6 min 16 sec) 
Heartbeat CPU 0 instructions: 150000000 cycles: 135429737 heartbeat IPC: 0.805239 cumulative IPC: 0.801875 (Simulation time: 0 hr 6 min 46 sec) 
Heartbeat CPU 0 instructions: 160000000 cycles: 147909984 heartbeat IPC: 0.801266 cumulative IPC: 0.801774 (Simulation time: 0 hr 7 min 17 sec) 
Heartbeat CPU 0 instructions: 170000001 cycles: 160386919 heartbeat IPC: 0.801479 cumulative IPC: 0.801731 (Simulation time: 0 hr 7 min 48 sec) 
Heartbeat CPU 0 instructions: 180000000 cycles: 172867193 heartbeat IPC: 0.801264 cumulative IPC: 0.801673 (Simulation time: 0 hr 8 min 18 sec) 
Heartbeat CPU 0 instructions: 190000000 cycles: 185381615 heartbeat IPC: 0.799078 cumulative IPC: 0.801384 (Simulation time: 0 hr 8 min 49 sec) 
Heartbeat CPU 0 instructions: 200000000 cycles: 197847983 heartbeat IPC: 0.802158 cumulative IPC: 0.801461 (Simulation time: 0 hr 9 min 20 sec) 
Heartbeat CPU 0 instructions: 210000002 cycles: 210352658 heartbeat IPC: 0.799701 cumulative IPC: 0.801301 (Simulation time: 0 hr 9 min 50 sec) 
Heartbeat CPU 0 instructions: 220000000 cycles: 222857826 heartbeat IPC: 0.799669 cumulative IPC: 0.801165 (Simulation time: 0 hr 10 min 21 sec) 
Heartbeat CPU 0 instructions: 230000002 cycles: 235314234 heartbeat IPC: 0.8028 cumulative IPC: 0.80129 (Simulation time: 0 hr 10 min 52 sec) 
Heartbeat CPU 0 instructions: 240000000 cycles: 248539146 heartbeat IPC: 0.756149 cumulative IPC: 0.797888 (Simulation time: 0 hr 11 min 23 sec) 
Heartbeat CPU 0 instructions: 250000002 cycles: 265896817 heartbeat IPC: 0.576114 cumulative IPC: 0.777924 (Simulation time: 0 hr 11 min 56 sec) 
Heartbeat CPU 0 instructions: 260000000 cycles: 283191885 heartbeat IPC: 0.578199 cumulative IPC: 0.761484 (Simulation time: 0 hr 12 min 30 sec) 
Heartbeat CPU 0 instructions: 270000000 cycles: 300552107 heartbeat IPC: 0.576029 cumulative IPC: 0.747331 (Simulation time: 0 hr 13 min 3 sec) 
Heartbeat CPU 0 instructions: 280000000 cycles: 317906359 heartbeat IPC: 0.576228 cumulative IPC: 0.735203 (Simulation time: 0 hr 13 min 36 sec) 
Heartbeat CPU 0 instructions: 290000000 cycles: 346525126 heartbeat IPC: 0.349421 cumulative IPC: 0.694827 (Simulation time: 0 hr 14 min 17 sec) 
Heartbeat CPU 0 instructions: 300000000 cycles: 383556416 heartbeat IPC: 0.270042 cumulative IPC: 0.644163 (Simulation time: 0 hr 15 min 3 sec) 
Heartbeat CPU 0 instructions: 310000000 cycles: 400296982 heartbeat IPC: 0.597351 cumulative IPC: 0.641768 (Simulation time: 0 hr 15 min 36 sec) 
Heartbeat CPU 0 instructions: 320000000 cycles: 417004028 heartbeat IPC: 0.59855 cumulative IPC: 0.639669 (Simulation time: 0 hr 16 min 8 sec) 
Heartbeat CPU 0 instructions: 330000003 cycles: 433752162 heartbeat IPC: 0.597082 cumulative IPC: 0.637691 (Simulation time: 0 hr 16 min 39 sec) 
Heartbeat CPU 0 instructions: 340000000 cycles: 450460785 heartbeat IPC: 0.598493 cumulative IPC: 0.635956 (Simulation time: 0 hr 17 min 11 sec) 
Heartbeat CPU 0 instructions: 350000001 cycles: 465408143 heartbeat IPC: 0.669015 cumulative IPC: 0.637215 (Simulation time: 0 hr 17 min 40 sec) 
Heartbeat CPU 0 instructions: 360000000 cycles: 477379206 heartbeat IPC: 0.835348 cumulative IPC: 0.643082 (Simulation time: 0 hr 18 min 7 sec) 
Heartbeat CPU 0 instructions: 370000002 cycles: 489090016 heartbeat IPC: 0.853912 cumulative IPC: 0.649016 (Simulation time: 0 hr 18 min 35 sec) 
Heartbeat CPU 0 instructions: 380000000 cycles: 501003929 heartbeat IPC: 0.839355 cumulative IPC: 0.654316 (Simulation time: 0 hr 19 min 2 sec) 
Heartbeat CPU 0 instructions: 390000003 cycles: 514367988 heartbeat IPC: 0.748276 cumulative IPC: 0.657161 (Simulation time: 0 hr 19 min 30 sec) 
Heartbeat CPU 0 instructions: 400000000 cycles: 526671522 heartbeat IPC: 0.812774 cumulative IPC: 0.661382 (Simulation time: 0 hr 19 min 58 sec) 
Heartbeat CPU 0 instructions: 410000003 cycles: 538698084 heartbeat IPC: 0.831493 cumulative IPC: 0.665776 (Simulation time: 0 hr 20 min 26 sec) 
Heartbeat CPU 0 instructions: 420000000 cycles: 551595446 heartbeat IPC: 0.775352 cumulative IPC: 0.668729 (Simulation time: 0 hr 20 min 54 sec) 
Heartbeat CPU 0 instructions: 430000003 cycles: 570245670 heartbeat IPC: 0.536187 cumulative IPC: 0.663757 (Simulation time: 0 hr 21 min 19 sec) 
Heartbeat CPU 0 instructions: 440000000 cycles: 588871605 heartbeat IPC: 0.536886 cumulative IPC: 0.659176 (Simulation time: 0 hr 21 min 44 sec) 
Heartbeat CPU 0 instructions: 450000003 cycles: 607543637 heartbeat IPC: 0.53556 cumulative IPC: 0.654857 (Simulation time: 0 hr 22 min 10 sec) 
Heartbeat CPU 0 instructions: 460000000 cycles: 626181960 heartbeat IPC: 0.536529 cumulative IPC: 0.65087 (Simulation time: 0 hr 22 min 35 sec) 
Heartbeat CPU 0 instructions: 470000003 cycles: 644848674 heartbeat IPC: 0.535713 cumulative IPC: 0.64711 (Simulation time: 0 hr 23 min 0 sec) 
Heartbeat CPU 0 instructions: 480000000 cycles: 663499430 heartbeat IPC: 0.536171 cumulative IPC: 0.643606 (Simulation time: 0 hr 23 min 26 sec) 
Heartbeat CPU 0 instructions: 490000003 cycles: 682169056 heartbeat IPC: 0.53563 cumulative IPC: 0.640296 (Simulation time: 0 hr 23 min 51 sec) 
Heartbeat CPU 0 instructions: 500000000 cycles: 700789860 heartbeat IPC: 0.537034 cumulative IPC: 0.637233 (Simulation time: 0 hr 24 min 16 sec) 
Heartbeat CPU 0 instructions: 510000003 cycles: 719452907 heartbeat IPC: 0.535818 cumulative IPC: 0.634305 (Simulation time: 0 hr 24 min 42 sec) 
Heartbeat CPU 0 instructions: 520000000 cycles: 738091892 heartbeat IPC: 0.53651 cumulative IPC: 0.631564 (Simulation time: 0 hr 25 min 7 sec) 
Heartbeat CPU 0 instructions: 530000001 cycles: 756741839 heartbeat IPC: 0.536195 cumulative IPC: 0.628962 (Simulation time: 0 hr 25 min 32 sec) 
Heartbeat CPU 0 instructions: 540000000 cycles: 775343407 heartbeat IPC: 0.537589 cumulative IPC: 0.626542 (Simulation time: 0 hr 25 min 58 sec) 
Heartbeat CPU 0 instructions: 550000001 cycles: 793943538 heartbeat IPC: 0.537631 cumulative IPC: 0.624248 (Simulation time: 0 hr 26 min 23 sec) 
Heartbeat CPU 0 instructions: 560000000 cycles: 812565994 heartbeat IPC: 0.536986 cumulative IPC: 0.62205 (Simulation time: 0 hr 26 min 48 sec) 
Heartbeat CPU 0 instructions: 570000001 cycles: 831144372 heartbeat IPC: 0.53826 cumulative IPC: 0.619997 (Simulation time: 0 hr 27 min 14 sec) 
Heartbeat CPU 0 instructions: 580000000 cycles: 849682650 heartbeat IPC: 0.539424 cumulative IPC: 0.618073 (Simulation time: 0 hr 27 min 39 sec) 
Heartbeat CPU 0 instructions: 590000001 cycles: 868289569 heartbeat IPC: 0.537435 cumulative IPC: 0.616187 (Simulation time: 0 hr 28 min 4 sec) 
Heartbeat CPU 0 instructions: 600000000 cycles: 886899423 heartbeat IPC: 0.53735 cumulative IPC: 0.614384 (Simulation time: 0 hr 28 min 30 sec) 
Finished CPU 0 instructions: 500000002 cycles: 813823544 cumulative IPC: 0.614384 (Simulation time: 0 hr 28 min 30 sec) 

CPU 0 Branch Prediction Accuracy: 99.5931% MPKI: 0.08288
Number of Branches: 10184133 Number of Mispredictions: 41440
Number of LOAD Instructions: 261155957
Number of LOAD Instructions (ROI): 261155957
Number of STORE Instructions: 57884062
Number of STORE Instructions (ROI): 57884062
Total Destination Memory Operands: 83293336
Total Destination Memory Operands (ROI): 83293336
Total Source Memory Operands: 261155957
Total Source Memory Operands (ROI): 261155957
Number of DEPENDED LOADS: 22256295
Number of DEPENDED LOADS (ROI): 22256295
Number of SQ_ADDED: 83293300
Number of SQ_ADDED (ROI): 83293300
Number of LQ_ADDED: 1775592347
Number of LQ_ADDED (ROI): 1775592347
Number of Instructions read from trace: 600000257

ChampSim completed all CPUs

Region of Interest Statistics

CPU 0 cumulative IPC: 0.614384 instructions: 500000002 cycles: 813823544
ITLB TOTAL     ACCESS:   94687212  HIT:   94687174  MISS:         38
ITLB LOAD      ACCESS:   94687212  HIT:   94687174  MISS:         38
ITLB RFO       ACCESS:          0  HIT:          0  MISS:          0
ITLB PREFETCH  ACCESS:          0  HIT:          0  MISS:          0
ITLB WRITEBACK ACCESS:          0  HIT:          0  MISS:          0
ITLB PREFETCH  REQUESTED:          0  ISSUED:          0  USEFUL:          0  USELESS:          0
ITLB TOTAL MSHR MERGED:         93
ITLB LOAD MSHR MERGED:         93
ITLB RFO MSHR MERGED:          0
ITLB PREFETCH MSHR MERGED:          0
ITLB WRITEBACK MSHR MERGED:          0
ITLB TOTAL ACCESSES:   94687305 HITS:   94687174 MISSES:        131
ITLB LOAD ACCESSES:   94687305 HITS:   94687174 MISSES:        131
ITLB RFO ACCESSES:          0 HITS:          0 MISSES:          0
ITLB PREFETCH ACCESSES:          0 HITS:          0 MISSES:          0
ITLB WRITEBACK ACCESSES:          0 HITS:          0 MISSES:          0
ITLB RQ ACCESS:  500000001
ITLB RQ TO_CACHE:   94687306
ITLB RQ MERGED:  405312695
ITLB RQ FORWARD:          0
ITLB WQ ACCESS:          0
ITLB WQ TO_CACHE:          0
ITLB WQ MERGED:          0
ITLB WQ FORWARD:          0
DTLB TOTAL     ACCESS:  149180758  HIT:  148583797  MISS:     596961
DTLB LOAD      ACCESS:  107307299  HIT:  106710349  MISS:     596950
DTLB RFO       ACCESS:   41873459  HIT:   41873448  MISS:         11
DTLB PREFETCH  ACCESS:          0  HIT:          0  MISS:          0
DTLB WRITEBACK ACCESS:          0  HIT:          0  MISS:          0
DTLB PREFETCH  REQUESTED:          0  ISSUED:          0  USEFUL:          0  USELESS:          0
DTLB TOTAL MSHR MERGED:     134287
DTLB LOAD MSHR MERGED:     134287
DTLB RFO MSHR MERGED:          0
DTLB PREFETCH MSHR MERGED:          0
DTLB WRITEBACK MSHR MERGED:          0
DTLB TOTAL ACCESSES:  149315045 HITS:  148583797 MISSES:     731248
DTLB LOAD ACCESSES:  107441586 HITS:  106710349 MISSES:     731237
DTLB RFO ACCESSES:   41873459 HITS:   41873448 MISSES:         11
DTLB PREFETCH ACCESSES:          0 HITS:          0 MISSES:          0
DTLB WRITEBACK ACCESSES:          0 HITS:          0 MISSES:          0
DTLB RQ ACCESS:  259759600
DTLB RQ TO_CACHE:  149315045
DTLB RQ MERGED:  110444555
DTLB RQ FORWARD:          0
DTLB WQ ACCESS:          0
DTLB WQ TO_CACHE:          0
DTLB WQ MERGED:          0
DTLB WQ FORWARD:          0
L1D TOTAL     ACCESS:  261051821  HIT:  245653704  MISS:   15398117
L1D LOAD      ACCESS:  118068758  HIT:  112567720  MISS:    5501038
L1D RFO       ACCESS:   68946722  HIT:   68932313  MISS:      14409
L1D PREFETCH  ACCESS:   74036341  HIT:   64153671  MISS:    9882670
L1D WRITEBACK ACCESS:          0  HIT:          0  MISS:          0
L1D PREFETCH  REQUESTED:  120655073  ISSUED:  119082440  USEFUL:    8011599  USELESS:    1871093
L1D TOTAL MSHR MERGED:   16509324
L1D LOAD MSHR MERGED:    4997448
L1D RFO MSHR MERGED:      21851
L1D PREFETCH MSHR MERGED:   11490025
L1D WRITEBACK MSHR MERGED:          0
L1D TOTAL ACCESSES:  277671307 HITS:  245763866 MISSES:   31907441
L1D LOAD ACCESSES:  120662601 HITS:  112575248 MISSES:    8087353
L1D RFO ACCESSES:   68968573 HITS:   68932313 MISSES:      36260
L1D PREFETCH ACCESSES:   88040133 HITS:   64256305 MISSES:   23783828
L1D WRITEBACK ACCESSES:          0 HITS:          0 MISSES:          0
L1D RQ ACCESS:  190685284
L1D RQ TO_CACHE:  120655073
L1D RQ MERGED:   70022683
L1D RQ FORWARD:          0
L1D WQ ACCESS:   69074336
L1D WQ TO_CACHE:   68968575
L1D WQ MERGED:     105761
L1D WQ FORWARD:     110162
L1I TOTAL     ACCESS:  121595217  HIT:  121594144  MISS:       1073
L1I LOAD      ACCESS:  121595217  HIT:  121594144  MISS:       1073
L1I RFO       ACCESS:          0  HIT:          0  MISS:          0
L1I PREFETCH  ACCESS:          0  HIT:          0  MISS:          0
L1I WRITEBACK ACCESS:          0  HIT:          0  MISS:          0
L1I PREFETCH  REQUESTED:          0  ISSUED:          0  USEFUL:          0  USELESS:          0
L1I TOTAL MSHR MERGED:       1086
L1I LOAD MSHR MERGED:       1086
L1I RFO MSHR MERGED:          0
L1I PREFETCH MSHR MERGED:          0
L1I WRITEBACK MSHR MERGED:          0
L1I TOTAL ACCESSES:  121596303 HITS:  121594144 MISSES:       2159
L1I LOAD ACCESSES:  121596303 HITS:  121594144 MISSES:       2159
L1I RFO ACCESSES:          0 HITS:          0 MISSES:          0
L1I PREFETCH ACCESSES:          0 HITS:          0 MISSES:          0
L1I WRITEBACK ACCESSES:          0 HITS:          0 MISSES:          0
L1I RQ ACCESS:  500000000
L1I RQ TO_CACHE:  121596303
L1I RQ MERGED:  378403697
L1I RQ FORWARD:          0
L1I WQ ACCESS:          0
L1I WQ TO_CACHE:          0
L1I WQ MERGED:          0
L1I WQ FORWARD:          0
L2C TOTAL     ACCESS:   22469750  HIT:    9150682  MISS:   13319068
L2C LOAD      ACCESS:    3090938  HIT:     416227  MISS:    2674711
L2C RFO       ACCESS:      14409  HIT:      13993  MISS:        416
L2C PREFETCH  ACCESS:   12734487  HIT:    2092364  MISS:   10642123
L2C WRITEBACK ACCESS:    6629916  HIT:    6628098  MISS:       1818
L2C PREFETCH  REQUESTED:     694652  ISSUED:     694652  USEFUL:     185641  USELESS:   10457279
L2C TOTAL MSHR MERGED:      71436
L2C LOAD MSHR MERGED:      22387
L2C RFO MSHR MERGED:          0
L2C PREFETCH MSHR MERGED:      49049
L2C WRITEBACK MSHR MERGED:          0
L2C TOTAL ACCESSES:   22683538 HITS:    9150733 MISSES:   13532805
L2C LOAD ACCESSES:    3090978 HITS:     416267 MISSES:    2674711
L2C RFO ACCESSES:      14409 HITS:      13993 MISSES:        416
L2C PREFETCH ACCESSES:   12948235 HITS:    2092375 MISSES:   10855860
L2C WRITEBACK ACCESSES:    6629916 HITS:    6628098 MISSES:       1818
L2C RQ ACCESS:    3105387
L2C RQ TO_CACHE:    3105347
L2C RQ MERGED:          0
L2C RQ FORWARD:          0
L2C WQ ACCESS:    6629916
L2C WQ TO_CACHE:    6629916
L2C WQ MERGED:          0
L2C WQ FORWARD:         51
LLC TOTAL     ACCESS:   20027836  HIT:    1823071  MISS:   18204765
LLC LOAD      ACCESS:    2652323  HIT:     380220  MISS:    2272103
LLC RFO       ACCESS:        416  HIT:         19  MISS:        397
LLC PREFETCH  ACCESS:   10783841  HIT:      99483  MISS:   10684358
LLC WRITEBACK ACCESS:    6591256  HIT:    1343349  MISS:    5247907
LLC PREFETCH  REQUESTED:          0  ISSUED:          0  USEFUL:      47471  USELESS:   10637894
LLC TOTAL MSHR MERGED:      21604
LLC LOAD MSHR MERGED:      10002
LLC RFO MSHR MERGED:          0
LLC PREFETCH MSHR MERGED:      11602
LLC WRITEBACK MSHR MERGED:          0
LLC TOTAL ACCESSES:   20049443 HITS:    1823073 MISSES:   18226370
LLC LOAD ACCESSES:    2652324 HITS:     380221 MISSES:    2272103
LLC RFO ACCESSES:        416 HITS:         19 MISSES:        397
LLC PREFETCH ACCESSES:   10805447 HITS:      99484 MISSES:   10705963
LLC WRITEBACK ACCESSES:    6591256 HITS:    1343349 MISSES:    5247907
LLC 0 RQ ACCESS:    2652740
LLC 0 RQ TO_CACHE:    2652739
LLC 0 RQ MERGED:          0
LLC 0 RQ FORWARD:          0
LLC WQ ACCESS:    6591257
LLC WQ TO_CACHE:    6591257
LLC WQ MERGED:          0
LLC WQ FORWARD:          2
Major fault: 0 Minor fault: 183991
CPU 0 L1D next line prefetcher final stats
CPU 0 L2C PC-based stride prefetcher final stats
All Misses: 21082097
All Hits: 1876785
SD Algo Stats - Switches: 0 SRR-Repls: 2333209 BRR-Repls: 0

DRAM Statistics
 CHANNEL 0
 RQ ROW_BUFFER_HIT:    7186150  ROW_BUFFER_MISS:    5770708
 DBUS_CONGESTED:   11249627
 WQ ROW_BUFFER_HIT:     822989  ROW_BUFFER_MISS:    5764788  FULL:          0

 AVG_CONGESTED_CYCLE: 13
LOADS RETIRED: 204440772
INSTR RETIRED: 500000000
