
*** ChampSim Multicore Out-of-Order Simulator ***

Warmup Instructions: 100000000
Simulation Instructions: 500000000
Number of CPUs: 1
LLC sets: 2048
LLC ways: 16
Clean RRIP Policies: 2213030222130302 Dirty RRIP Policies: 1203130212031302 PSEL Width: 10 Track Set: 4294967295 PSEL Mask: 1 Demote Mask: 3040300030403000DS Algo: 0Window size: 0
Off-chip DRAM Size: 4096 MB Channels: 1 Width: 64-bit Data Rate: 1600 MT/s

CPU 0 runs /mnt/beegfs/iconst01/spec2017/Roms.trace.gz
NOT SORTED
TRACE STRING: /mnt/beegfs/iconst01/spec2017/Roms.trace.gz
SORTED
TRACE STRING: /mnt/beegfs/iconst01/spec2017/Roms.trace.gz
INITIAL
TRACE STRING: /mnt/beegfs/iconst01/spec2017/Roms.trace.gz

champsim_seed used: 417

CPU 0 L1D next line prefetcher
CPU 0 L2C IP-based stride prefetcher
Initialize DRRIP state
Assign rand_sets[0]: 454  LLC: 2048
rand_sets[0]: 454
Assign rand_sets[1]: 1662  LLC: 2048
rand_sets[1]: 1662
Assign rand_sets[2]: 1921  LLC: 2048
rand_sets[2]: 1921
Assign rand_sets[3]: 1131  LLC: 2048
rand_sets[3]: 1131
Assign rand_sets[4]: 331  LLC: 2048
rand_sets[4]: 331
Assign rand_sets[5]: 1531  LLC: 2048
rand_sets[5]: 1531
Assign rand_sets[6]: 482  LLC: 2048
rand_sets[6]: 482
Assign rand_sets[7]: 1275  LLC: 2048
rand_sets[7]: 1275
Assign rand_sets[8]: 1876  LLC: 2048
rand_sets[8]: 1876
Assign rand_sets[9]: 2038  LLC: 2048
rand_sets[9]: 2038
Assign rand_sets[10]: 701  LLC: 2048
rand_sets[10]: 701
Assign rand_sets[11]: 479  LLC: 2048
rand_sets[11]: 479
Assign rand_sets[12]: 892  LLC: 2048
rand_sets[12]: 892
Assign rand_sets[13]: 1820  LLC: 2048
rand_sets[13]: 1820
Assign rand_sets[14]: 1505  LLC: 2048
rand_sets[14]: 1505
Assign rand_sets[15]: 1159  LLC: 2048
rand_sets[15]: 1159
Assign rand_sets[16]: 513  LLC: 2048
rand_sets[16]: 513
Assign rand_sets[17]: 703  LLC: 2048
rand_sets[17]: 703
Assign rand_sets[18]: 561  LLC: 2048
rand_sets[18]: 561
Assign rand_sets[19]: 990  LLC: 2048
rand_sets[19]: 990
Assign rand_sets[20]: 342  LLC: 2048
rand_sets[20]: 342
Assign rand_sets[21]: 882  LLC: 2048
rand_sets[21]: 882
Assign rand_sets[22]: 15  LLC: 2048
rand_sets[22]: 15
Assign rand_sets[23]: 71  LLC: 2048
rand_sets[23]: 71
Assign rand_sets[24]: 1127  LLC: 2048
rand_sets[24]: 1127
Assign rand_sets[25]: 1382  LLC: 2048
rand_sets[25]: 1382
Assign rand_sets[26]: 647  LLC: 2048
rand_sets[26]: 647
Assign rand_sets[27]: 857  LLC: 2048
rand_sets[27]: 857
Assign rand_sets[28]: 1450  LLC: 2048
rand_sets[28]: 1450
Assign rand_sets[29]: 1160  LLC: 2048
rand_sets[29]: 1160
Assign rand_sets[30]: 1852  LLC: 2048
rand_sets[30]: 1852
Assign rand_sets[31]: 1881  LLC: 2048
rand_sets[31]: 1881
Assign rand_sets[32]: 1770  LLC: 2048
rand_sets[32]: 1770
Assign rand_sets[33]: 1622  LLC: 2048
rand_sets[33]: 1622
Assign rand_sets[34]: 275  LLC: 2048
rand_sets[34]: 275
Assign rand_sets[35]: 635  LLC: 2048
rand_sets[35]: 635
Assign rand_sets[36]: 466  LLC: 2048
rand_sets[36]: 466
Assign rand_sets[37]: 1413  LLC: 2048
rand_sets[37]: 1413
Assign rand_sets[38]: 417  LLC: 2048
rand_sets[38]: 417
Assign rand_sets[39]: 472  LLC: 2048
rand_sets[39]: 472
Assign rand_sets[40]: 1340  LLC: 2048
rand_sets[40]: 1340
Assign rand_sets[41]: 852  LLC: 2048
rand_sets[41]: 852
Assign rand_sets[42]: 1365  LLC: 2048
rand_sets[42]: 1365
Assign rand_sets[43]: 47  LLC: 2048
rand_sets[43]: 47
Assign rand_sets[44]: 823  LLC: 2048
rand_sets[44]: 823
Assign rand_sets[45]: 686  LLC: 2048
rand_sets[45]: 686
Assign rand_sets[46]: 1637  LLC: 2048
rand_sets[46]: 1637
Assign rand_sets[47]: 1115  LLC: 2048
rand_sets[47]: 1115
Assign rand_sets[48]: 986  LLC: 2048
rand_sets[48]: 986
Assign rand_sets[49]: 258  LLC: 2048
rand_sets[49]: 258
Assign rand_sets[50]: 633  LLC: 2048
rand_sets[50]: 633
Assign rand_sets[51]: 920  LLC: 2048
rand_sets[51]: 920
Assign rand_sets[52]: 204  LLC: 2048
rand_sets[52]: 204
Assign rand_sets[53]: 227  LLC: 2048
rand_sets[53]: 227
Assign rand_sets[54]: 1818  LLC: 2048
rand_sets[54]: 1818
Assign rand_sets[55]: 886  LLC: 2048
rand_sets[55]: 886
Assign rand_sets[56]: 1422  LLC: 2048
rand_sets[56]: 1422
Assign rand_sets[57]: 607  LLC: 2048
rand_sets[57]: 607
Assign rand_sets[58]: 217  LLC: 2048
rand_sets[58]: 217
Assign rand_sets[59]: 1945  LLC: 2048
rand_sets[59]: 1945
Assign rand_sets[60]: 143  LLC: 2048
rand_sets[60]: 143
Assign rand_sets[61]: 1311  LLC: 2048
rand_sets[61]: 1311
Assign rand_sets[62]: 319  LLC: 2048
rand_sets[62]: 319
Assign rand_sets[63]: 1846  LLC: 2048
rand_sets[63]: 1846
 CLEAN-RRIP-POLICY-1: 2-2-1-3-0-3-0-2- CLEAN-RRIP-POLICY-2: 2-2-1-3-0-3-0-2-
 DIRTY-RRIP-POLICY-1: 1-2-0-3-1-3-0-2- DIRTY-RRIP-POLICY-2: 1-2-0-3-1-3-0-2-
 PSEL width: 10
Heartbeat CPU 0 instructions: 10000000 cycles: 4688066 heartbeat IPC: 2.13308 cumulative IPC: 2.13308 (Simulation time: 0 hr 0 min 33 sec) 
Heartbeat CPU 0 instructions: 20000000 cycles: 9325334 heartbeat IPC: 2.15644 cumulative IPC: 2.1447 (Simulation time: 0 hr 1 min 6 sec) 
Heartbeat CPU 0 instructions: 30000003 cycles: 14019722 heartbeat IPC: 2.1302 cumulative IPC: 2.13984 (Simulation time: 0 hr 1 min 40 sec) 
Heartbeat CPU 0 instructions: 40000000 cycles: 18670140 heartbeat IPC: 2.15034 cumulative IPC: 2.14246 (Simulation time: 0 hr 2 min 13 sec) 
Heartbeat CPU 0 instructions: 50000003 cycles: 23323497 heartbeat IPC: 2.14899 cumulative IPC: 2.14376 (Simulation time: 0 hr 2 min 46 sec) 
Heartbeat CPU 0 instructions: 60000000 cycles: 27976128 heartbeat IPC: 2.14932 cumulative IPC: 2.14469 (Simulation time: 0 hr 3 min 19 sec) 
Heartbeat CPU 0 instructions: 70000002 cycles: 32367264 heartbeat IPC: 2.27732 cumulative IPC: 2.16268 (Simulation time: 0 hr 3 min 48 sec) 
Heartbeat CPU 0 instructions: 80000000 cycles: 36304041 heartbeat IPC: 2.54015 cumulative IPC: 2.20361 (Simulation time: 0 hr 4 min 11 sec) 
Heartbeat CPU 0 instructions: 90000000 cycles: 40249277 heartbeat IPC: 2.5347 cumulative IPC: 2.23606 (Simulation time: 0 hr 4 min 33 sec) 
Heartbeat CPU 0 instructions: 100000000 cycles: 44211540 heartbeat IPC: 2.52381 cumulative IPC: 2.26185 (Simulation time: 0 hr 4 min 56 sec) 

Warmup complete CPU 0 instructions: 100000002 cycles: 44211541 (Simulation time: 0 hr 4 min 56 sec) 

Heartbeat CPU 0 instructions: 110000000 cycles: 52786527 heartbeat IPC: 1.16618 cumulative IPC: 1.16618 (Simulation time: 0 hr 5 min 33 sec) 
Heartbeat CPU 0 instructions: 120000000 cycles: 61416927 heartbeat IPC: 1.15869 cumulative IPC: 1.16243 (Simulation time: 0 hr 6 min 10 sec) 
Heartbeat CPU 0 instructions: 130000002 cycles: 70089441 heartbeat IPC: 1.15307 cumulative IPC: 1.15929 (Simulation time: 0 hr 6 min 46 sec) 
Heartbeat CPU 0 instructions: 140000000 cycles: 78634076 heartbeat IPC: 1.17032 cumulative IPC: 1.16203 (Simulation time: 0 hr 7 min 23 sec) 
Heartbeat CPU 0 instructions: 150000003 cycles: 87329799 heartbeat IPC: 1.14999 cumulative IPC: 1.1596 (Simulation time: 0 hr 8 min 0 sec) 
Heartbeat CPU 0 instructions: 160000000 cycles: 97593502 heartbeat IPC: 0.974307 cumulative IPC: 1.12398 (Simulation time: 0 hr 8 min 41 sec) 
Heartbeat CPU 0 instructions: 170000000 cycles: 110053786 heartbeat IPC: 0.80255 cumulative IPC: 1.06315 (Simulation time: 0 hr 9 min 27 sec) 
Heartbeat CPU 0 instructions: 180000000 cycles: 122538436 heartbeat IPC: 0.800984 cumulative IPC: 1.02136 (Simulation time: 0 hr 10 min 13 sec) 
Heartbeat CPU 0 instructions: 190000000 cycles: 135271436 heartbeat IPC: 0.785361 cumulative IPC: 0.98836 (Simulation time: 0 hr 11 min 0 sec) 
Heartbeat CPU 0 instructions: 200000000 cycles: 149136853 heartbeat IPC: 0.721219 cumulative IPC: 0.953059 (Simulation time: 0 hr 11 min 47 sec) 
Heartbeat CPU 0 instructions: 210000001 cycles: 163036043 heartbeat IPC: 0.719466 cumulative IPC: 0.925735 (Simulation time: 0 hr 12 min 33 sec) 
Heartbeat CPU 0 instructions: 220000000 cycles: 176763846 heartbeat IPC: 0.728449 cumulative IPC: 0.905303 (Simulation time: 0 hr 13 min 20 sec) 
Heartbeat CPU 0 instructions: 230000000 cycles: 190286431 heartbeat IPC: 0.739504 cumulative IPC: 0.889954 (Simulation time: 0 hr 14 min 8 sec) 
Heartbeat CPU 0 instructions: 240000000 cycles: 203882634 heartbeat IPC: 0.735499 cumulative IPC: 0.876802 (Simulation time: 0 hr 14 min 56 sec) 
Heartbeat CPU 0 instructions: 250000003 cycles: 214940951 heartbeat IPC: 0.904297 cumulative IPC: 0.878583 (Simulation time: 0 hr 15 min 40 sec) 
Heartbeat CPU 0 instructions: 260000000 cycles: 222764645 heartbeat IPC: 1.27817 cumulative IPC: 0.896092 (Simulation time: 0 hr 16 min 17 sec) 
Heartbeat CPU 0 instructions: 270000003 cycles: 231060564 heartbeat IPC: 1.20541 cumulative IPC: 0.909826 (Simulation time: 0 hr 16 min 55 sec) 
Heartbeat CPU 0 instructions: 280000000 cycles: 239503806 heartbeat IPC: 1.18438 cumulative IPC: 0.921695 (Simulation time: 0 hr 17 min 32 sec) 
Heartbeat CPU 0 instructions: 290000000 cycles: 248105383 heartbeat IPC: 1.16258 cumulative IPC: 0.931857 (Simulation time: 0 hr 18 min 10 sec) 
Heartbeat CPU 0 instructions: 300000000 cycles: 256712794 heartbeat IPC: 1.16179 cumulative IPC: 0.941171 (Simulation time: 0 hr 18 min 48 sec) 
Heartbeat CPU 0 instructions: 310000000 cycles: 265394988 heartbeat IPC: 1.15178 cumulative IPC: 0.949438 (Simulation time: 0 hr 19 min 27 sec) 
Heartbeat CPU 0 instructions: 320000000 cycles: 274129153 heartbeat IPC: 1.14493 cumulative IPC: 0.956864 (Simulation time: 0 hr 20 min 7 sec) 
Heartbeat CPU 0 instructions: 330000002 cycles: 282823626 heartbeat IPC: 1.15016 cumulative IPC: 0.963908 (Simulation time: 0 hr 20 min 46 sec) 
Heartbeat CPU 0 instructions: 340000000 cycles: 292749100 heartbeat IPC: 1.00751 cumulative IPC: 0.965649 (Simulation time: 0 hr 21 min 28 sec) 
Heartbeat CPU 0 instructions: 350000001 cycles: 301105801 heartbeat IPC: 1.19664 cumulative IPC: 0.973163 (Simulation time: 0 hr 22 min 5 sec) 
Heartbeat CPU 0 instructions: 360000000 cycles: 309484721 heartbeat IPC: 1.19347 cumulative IPC: 0.980122 (Simulation time: 0 hr 22 min 43 sec) 
Heartbeat CPU 0 instructions: 370000001 cycles: 317869161 heartbeat IPC: 1.19269 cumulative IPC: 0.986634 (Simulation time: 0 hr 23 min 21 sec) 
Heartbeat CPU 0 instructions: 380000000 cycles: 326223273 heartbeat IPC: 1.19702 cumulative IPC: 0.992867 (Simulation time: 0 hr 23 min 59 sec) 
Heartbeat CPU 0 instructions: 390000001 cycles: 334412914 heartbeat IPC: 1.22105 cumulative IPC: 0.999306 (Simulation time: 0 hr 24 min 36 sec) 
Heartbeat CPU 0 instructions: 400000000 cycles: 342689006 heartbeat IPC: 1.2083 cumulative IPC: 1.0051 (Simulation time: 0 hr 25 min 14 sec) 
Heartbeat CPU 0 instructions: 410000003 cycles: 350871245 heartbeat IPC: 1.22216 cumulative IPC: 1.01089 (Simulation time: 0 hr 25 min 51 sec) 
Heartbeat CPU 0 instructions: 420000000 cycles: 359142926 heartbeat IPC: 1.20894 cumulative IPC: 1.01609 (Simulation time: 0 hr 26 min 29 sec) 
Heartbeat CPU 0 instructions: 430000001 cycles: 367351070 heartbeat IPC: 1.2183 cumulative IPC: 1.02123 (Simulation time: 0 hr 27 min 6 sec) 
Heartbeat CPU 0 instructions: 440000000 cycles: 375495876 heartbeat IPC: 1.22778 cumulative IPC: 1.02631 (Simulation time: 0 hr 27 min 43 sec) 
Heartbeat CPU 0 instructions: 450000001 cycles: 384897592 heartbeat IPC: 1.06364 cumulative IPC: 1.02734 (Simulation time: 0 hr 28 min 24 sec) 
Heartbeat CPU 0 instructions: 460000000 cycles: 393096163 heartbeat IPC: 1.21972 cumulative IPC: 1.03186 (Simulation time: 0 hr 29 min 1 sec) 
Heartbeat CPU 0 instructions: 470000003 cycles: 401168228 heartbeat IPC: 1.23884 cumulative IPC: 1.03654 (Simulation time: 0 hr 29 min 38 sec) 
Heartbeat CPU 0 instructions: 480000000 cycles: 409278099 heartbeat IPC: 1.23306 cumulative IPC: 1.04091 (Simulation time: 0 hr 30 min 14 sec) 
Heartbeat CPU 0 instructions: 490000000 cycles: 417371516 heartbeat IPC: 1.23557 cumulative IPC: 1.04513 (Simulation time: 0 hr 30 min 51 sec) 
Heartbeat CPU 0 instructions: 500000000 cycles: 425469462 heartbeat IPC: 1.23488 cumulative IPC: 1.04916 (Simulation time: 0 hr 31 min 27 sec) 
Heartbeat CPU 0 instructions: 510000001 cycles: 433529986 heartbeat IPC: 1.24061 cumulative IPC: 1.05312 (Simulation time: 0 hr 32 min 3 sec) 
Heartbeat CPU 0 instructions: 520000000 cycles: 441617176 heartbeat IPC: 1.23652 cumulative IPC: 1.05685 (Simulation time: 0 hr 32 min 39 sec) 
Heartbeat CPU 0 instructions: 530000001 cycles: 449702112 heartbeat IPC: 1.23687 cumulative IPC: 1.06044 (Simulation time: 0 hr 33 min 16 sec) 
Heartbeat CPU 0 instructions: 540000000 cycles: 457954851 heartbeat IPC: 1.21172 cumulative IPC: 1.06346 (Simulation time: 0 hr 33 min 52 sec) 
Heartbeat CPU 0 instructions: 550000000 cycles: 466265326 heartbeat IPC: 1.2033 cumulative IPC: 1.06621 (Simulation time: 0 hr 34 min 29 sec) 
Heartbeat CPU 0 instructions: 560000000 cycles: 474352702 heartbeat IPC: 1.2365 cumulative IPC: 1.06942 (Simulation time: 0 hr 35 min 5 sec) 
Heartbeat CPU 0 instructions: 570000001 cycles: 485409411 heartbeat IPC: 0.904428 cumulative IPC: 1.06528 (Simulation time: 0 hr 35 min 43 sec) 
Heartbeat CPU 0 instructions: 580000000 cycles: 496159928 heartbeat IPC: 0.930188 cumulative IPC: 1.06207 (Simulation time: 0 hr 36 min 21 sec) 
Heartbeat CPU 0 instructions: 590000001 cycles: 507150014 heartbeat IPC: 0.909911 cumulative IPC: 1.05846 (Simulation time: 0 hr 36 min 59 sec) 
Heartbeat CPU 0 instructions: 600000000 cycles: 517892685 heartbeat IPC: 0.930867 cumulative IPC: 1.05556 (Simulation time: 0 hr 37 min 37 sec) 
Finished CPU 0 instructions: 500000001 cycles: 473681157 cumulative IPC: 1.05556 (Simulation time: 0 hr 37 min 37 sec) 

CPU 0 Branch Prediction Accuracy: 99.7422% MPKI: 0.173296
Number of Branches: 33608403 Number of Mispredictions: 86648
Number of LOAD Instructions: 180215231
Number of LOAD Instructions (ROI): 180215231
Number of STORE Instructions: 36067263
Number of STORE Instructions (ROI): 36067263
Total Destination Memory Operands: 38428915
Total Destination Memory Operands (ROI): 38428915
Total Source Memory Operands: 180215231
Total Source Memory Operands (ROI): 180215231
Number of DEPENDED LOADS: 3041307
Number of DEPENDED LOADS (ROI): 3041307
Number of SQ_ADDED: 38428892
Number of SQ_ADDED (ROI): 38428892
Number of LQ_ADDED: 207605670
Number of LQ_ADDED (ROI): 207605670
Number of Instructions read from trace: 600000257

ChampSim completed all CPUs

Region of Interest Statistics

CPU 0 cumulative IPC: 1.05556 instructions: 500000001 cycles: 473681157
ITLB TOTAL     ACCESS:   91782515  HIT:   91782496  MISS:         19
ITLB LOAD      ACCESS:   91782515  HIT:   91782496  MISS:         19
ITLB RFO       ACCESS:          0  HIT:          0  MISS:          0
ITLB PREFETCH  ACCESS:          0  HIT:          0  MISS:          0
ITLB WRITEBACK ACCESS:          0  HIT:          0  MISS:          0
ITLB PREFETCH  REQUESTED:          0  ISSUED:          0  USEFUL:          0  USELESS:          0
ITLB TOTAL MSHR MERGED:         40
ITLB LOAD MSHR MERGED:         40
ITLB RFO MSHR MERGED:          0
ITLB PREFETCH MSHR MERGED:          0
ITLB WRITEBACK MSHR MERGED:          0
ITLB TOTAL ACCESSES:   91782555 HITS:   91782496 MISSES:         59
ITLB LOAD ACCESSES:   91782555 HITS:   91782496 MISSES:         59
ITLB RFO ACCESSES:          0 HITS:          0 MISSES:          0
ITLB PREFETCH ACCESSES:          0 HITS:          0 MISSES:          0
ITLB WRITEBACK ACCESSES:          0 HITS:          0 MISSES:          0
ITLB RQ ACCESS:  500000003
ITLB RQ TO_CACHE:   91782555
ITLB RQ MERGED:  408217448
ITLB RQ FORWARD:          0
ITLB WQ ACCESS:          0
ITLB WQ TO_CACHE:          0
ITLB WQ MERGED:          0
ITLB WQ FORWARD:          0
DTLB TOTAL     ACCESS:  142061968  HIT:  141695507  MISS:     366461
DTLB LOAD      ACCESS:  119420790  HIT:  119107205  MISS:     313585
DTLB RFO       ACCESS:   22641178  HIT:   22588302  MISS:      52876
DTLB PREFETCH  ACCESS:          0  HIT:          0  MISS:          0
DTLB WRITEBACK ACCESS:          0  HIT:          0  MISS:          0
DTLB PREFETCH  REQUESTED:          0  ISSUED:          0  USEFUL:          0  USELESS:          0
DTLB TOTAL MSHR MERGED:     288362
DTLB LOAD MSHR MERGED:     240583
DTLB RFO MSHR MERGED:      47779
DTLB PREFETCH MSHR MERGED:          0
DTLB WRITEBACK MSHR MERGED:          0
DTLB TOTAL ACCESSES:  142350330 HITS:  141695507 MISSES:     654823
DTLB LOAD ACCESSES:  119661373 HITS:  119107205 MISSES:     554168
DTLB RFO ACCESSES:   22688957 HITS:   22588302 MISSES:     100655
DTLB PREFETCH ACCESSES:          0 HITS:          0 MISSES:          0
DTLB WRITEBACK ACCESSES:          0 HITS:          0 MISSES:          0
DTLB RQ ACCESS:  184791670
DTLB RQ TO_CACHE:  142350330
DTLB RQ MERGED:   42441340
DTLB RQ FORWARD:          0
DTLB WQ ACCESS:          0
DTLB WQ TO_CACHE:          0
DTLB WQ MERGED:          0
DTLB WQ FORWARD:          0
L1D TOTAL     ACCESS:  190476426  HIT:  177024496  MISS:   13451930
L1D LOAD      ACCESS:  111981098  HIT:  108744950  MISS:    3236148
L1D RFO       ACCESS:   19133771  HIT:   16352029  MISS:    2781742
L1D PREFETCH  ACCESS:   59361557  HIT:   51927517  MISS:    7434040
L1D WRITEBACK ACCESS:          0  HIT:          0  MISS:          0
L1D PREFETCH  REQUESTED:  116514174  ISSUED:  115153686  USEFUL:    7224305  USELESS:     209735
L1D TOTAL MSHR MERGED:   31168645
L1D LOAD MSHR MERGED:    7213058
L1D RFO MSHR MERGED:    9118992
L1D PREFETCH MSHR MERGED:   14836595
L1D WRITEBACK MSHR MERGED:          0
L1D TOTAL ACCESSES:  221645479 HITS:  177024903 MISSES:   44620576
L1D LOAD ACCESSES:  116514195 HITS:  108744971 MISSES:    7769224
L1D RFO ACCESSES:   28252717 HITS:   16352029 MISSES:   11900688
L1D PREFETCH ACCESSES:   76878567 HITS:   51927903 MISSES:   24950664
L1D WRITEBACK ACCESSES:          0 HITS:          0 MISSES:          0
L1D RQ ACCESS:  156535604
L1D RQ TO_CACHE:  116514177
L1D RQ MERGED:   40021406
L1D RQ FORWARD:          0
L1D WQ ACCESS:   28256066
L1D WQ TO_CACHE:   28252717
L1D WQ MERGED:       3349
L1D WQ FORWARD:        407
L1I TOTAL     ACCESS:  115771114  HIT:  115770166  MISS:        948
L1I LOAD      ACCESS:  115771114  HIT:  115770166  MISS:        948
L1I RFO       ACCESS:          0  HIT:          0  MISS:          0
L1I PREFETCH  ACCESS:          0  HIT:          0  MISS:          0
L1I WRITEBACK ACCESS:          0  HIT:          0  MISS:          0
L1I PREFETCH  REQUESTED:          0  ISSUED:          0  USEFUL:          0  USELESS:          0
L1I TOTAL MSHR MERGED:       1569
L1I LOAD MSHR MERGED:       1569
L1I RFO MSHR MERGED:          0
L1I PREFETCH MSHR MERGED:          0
L1I WRITEBACK MSHR MERGED:          0
L1I TOTAL ACCESSES:  115772683 HITS:  115770166 MISSES:       2517
L1I LOAD ACCESSES:  115772683 HITS:  115770166 MISSES:       2517
L1I RFO ACCESSES:          0 HITS:          0 MISSES:          0
L1I PREFETCH ACCESSES:          0 HITS:          0 MISSES:          0
L1I WRITEBACK ACCESSES:          0 HITS:          0 MISSES:          0
L1I RQ ACCESS:  500000007
L1I RQ TO_CACHE:  115772683
L1I RQ MERGED:  384227324
L1I RQ FORWARD:          0
L1I WQ ACCESS:          0
L1I WQ TO_CACHE:          0
L1I WQ MERGED:          0
L1I WQ FORWARD:          0
L2C TOTAL     ACCESS:   16697577  HIT:    4852951  MISS:   11844626
L2C LOAD      ACCESS:     557081  HIT:      95565  MISS:     461516
L2C RFO       ACCESS:    2781696  HIT:     266562  MISS:    2515134
L2C PREFETCH  ACCESS:   10138151  HIT:    1272456  MISS:    8865695
L2C WRITEBACK ACCESS:    3220649  HIT:    3218368  MISS:       2281
L2C PREFETCH  REQUESTED:      26102  ISSUED:      26102  USEFUL:      93100  USELESS:    8770644
L2C TOTAL MSHR MERGED:        494
L2C LOAD MSHR MERGED:          7
L2C RFO MSHR MERGED:          0
L2C PREFETCH MSHR MERGED:        487
L2C WRITEBACK MSHR MERGED:          0
L2C TOTAL ACCESSES:   16698217 HITS:    4853003 MISSES:   11845214
L2C LOAD ACCESSES:     557114 HITS:      95598 MISSES:     461516
L2C RFO ACCESSES:    2781696 HITS:     266562 MISSES:    2515134
L2C PREFETCH ACCESSES:   10138758 HITS:    1272475 MISSES:    8866283
L2C WRITEBACK ACCESSES:    3220649 HITS:    3218368 MISSES:       2281
L2C RQ ACCESS:    3338810
L2C RQ TO_CACHE:    3338777
L2C RQ MERGED:          0
L2C RQ FORWARD:          0
L2C WQ ACCESS:    3220649
L2C WQ TO_CACHE:    3220649
L2C WQ MERGED:          0
L2C WQ FORWARD:         52
LLC TOTAL     ACCESS:   14742895  HIT:    7730119  MISS:    7012776
LLC LOAD      ACCESS:     461506  HIT:     233782  MISS:     227724
LLC RFO       ACCESS:    2515117  HIT:    1919435  MISS:     595682
LLC PREFETCH  ACCESS:    8865735  HIT:    3340682  MISS:    5525053
LLC WRITEBACK ACCESS:    2900537  HIT:    2236220  MISS:     664317
LLC PREFETCH  REQUESTED:          0  ISSUED:          0  USEFUL:       3174  USELESS:    5528037
LLC TOTAL MSHR MERGED:          3
LLC LOAD MSHR MERGED:          0
LLC RFO MSHR MERGED:          0
LLC PREFETCH MSHR MERGED:          3
LLC WRITEBACK MSHR MERGED:          0
LLC TOTAL ACCESSES:   14742963 HITS:    7730183 MISSES:    7012780
LLC LOAD ACCESSES:     461509 HITS:     233785 MISSES:     227724
LLC RFO ACCESSES:    2515134 HITS:    1919452 MISSES:     595682
LLC PREFETCH ACCESSES:    8865783 HITS:    3340726 MISSES:    5525057
LLC WRITEBACK ACCESSES:    2900537 HITS:    2236220 MISSES:     664317
LLC 0 RQ ACCESS:    2976643
LLC 0 RQ TO_CACHE:    2976623
LLC 0 RQ MERGED:          0
LLC 0 RQ FORWARD:          0
LLC WQ ACCESS:    2900537
LLC WQ TO_CACHE:    2900537
LLC WQ MERGED:          0
LLC WQ FORWARD:         64
Major fault: 0 Minor fault: 57518
CPU 0 L1D next line prefetcher final stats
CPU 0 L2C PC-based stride prefetcher final stats
All Misses: 7606070
All Hits: 8633006
SD Algo Stats - Switches: 0 SRR-Repls: 234084 BRR-Repls: 0

DRAM Statistics
 CHANNEL 0
 RQ ROW_BUFFER_HIT:    3656935  ROW_BUFFER_MISS:    2689069
 DBUS_CONGESTED:    2851737
 WQ ROW_BUFFER_HIT:      87309  ROW_BUFFER_MISS:     774046  FULL:          0

 AVG_CONGESTED_CYCLE: 12
LOADS RETIRED: 157818985
INSTR RETIRED: 500000000
