
*** ChampSim Multicore Out-of-Order Simulator ***

Warmup Instructions: 100000000
Simulation Instructions: 500000000
Number of CPUs: 1
LLC sets: 2048
LLC ways: 16
Clean RRIP Policies: 1213230112132301 Dirty RRIP Policies: 2203130122031301 PSEL Width: 10 Track Set: 4294967295 PSEL Mask: 1 Demote Mask: 3011100030111000DS Algo: 0Window size: 0
Off-chip DRAM Size: 4096 MB Channels: 1 Width: 64-bit Data Rate: 1600 MT/s

CPU 0 runs /mnt/beegfs/iconst01/spec2017/Mcf.trace.gz
NOT SORTED
TRACE STRING: /mnt/beegfs/iconst01/spec2017/Mcf.trace.gz
SORTED
TRACE STRING: /mnt/beegfs/iconst01/spec2017/Mcf.trace.gz
INITIAL
TRACE STRING: /mnt/beegfs/iconst01/spec2017/Mcf.trace.gz

champsim_seed used: 278

CPU 0 L1D next line prefetcher
CPU 0 L2C IP-based stride prefetcher
Initialize DRRIP state
Assign rand_sets[0]: 454  LLC: 2048
rand_sets[0]: 454
Assign rand_sets[1]: 1662  LLC: 2048
rand_sets[1]: 1662
Assign rand_sets[2]: 1921  LLC: 2048
rand_sets[2]: 1921
Assign rand_sets[3]: 1131  LLC: 2048
rand_sets[3]: 1131
Assign rand_sets[4]: 331  LLC: 2048
rand_sets[4]: 331
Assign rand_sets[5]: 1531  LLC: 2048
rand_sets[5]: 1531
Assign rand_sets[6]: 482  LLC: 2048
rand_sets[6]: 482
Assign rand_sets[7]: 1275  LLC: 2048
rand_sets[7]: 1275
Assign rand_sets[8]: 1876  LLC: 2048
rand_sets[8]: 1876
Assign rand_sets[9]: 2038  LLC: 2048
rand_sets[9]: 2038
Assign rand_sets[10]: 701  LLC: 2048
rand_sets[10]: 701
Assign rand_sets[11]: 479  LLC: 2048
rand_sets[11]: 479
Assign rand_sets[12]: 892  LLC: 2048
rand_sets[12]: 892
Assign rand_sets[13]: 1820  LLC: 2048
rand_sets[13]: 1820
Assign rand_sets[14]: 1505  LLC: 2048
rand_sets[14]: 1505
Assign rand_sets[15]: 1159  LLC: 2048
rand_sets[15]: 1159
Assign rand_sets[16]: 513  LLC: 2048
rand_sets[16]: 513
Assign rand_sets[17]: 703  LLC: 2048
rand_sets[17]: 703
Assign rand_sets[18]: 561  LLC: 2048
rand_sets[18]: 561
Assign rand_sets[19]: 990  LLC: 2048
rand_sets[19]: 990
Assign rand_sets[20]: 342  LLC: 2048
rand_sets[20]: 342
Assign rand_sets[21]: 882  LLC: 2048
rand_sets[21]: 882
Assign rand_sets[22]: 15  LLC: 2048
rand_sets[22]: 15
Assign rand_sets[23]: 71  LLC: 2048
rand_sets[23]: 71
Assign rand_sets[24]: 1127  LLC: 2048
rand_sets[24]: 1127
Assign rand_sets[25]: 1382  LLC: 2048
rand_sets[25]: 1382
Assign rand_sets[26]: 647  LLC: 2048
rand_sets[26]: 647
Assign rand_sets[27]: 857  LLC: 2048
rand_sets[27]: 857
Assign rand_sets[28]: 1450  LLC: 2048
rand_sets[28]: 1450
Assign rand_sets[29]: 1160  LLC: 2048
rand_sets[29]: 1160
Assign rand_sets[30]: 1852  LLC: 2048
rand_sets[30]: 1852
Assign rand_sets[31]: 1881  LLC: 2048
rand_sets[31]: 1881
Assign rand_sets[32]: 1770  LLC: 2048
rand_sets[32]: 1770
Assign rand_sets[33]: 1622  LLC: 2048
rand_sets[33]: 1622
Assign rand_sets[34]: 275  LLC: 2048
rand_sets[34]: 275
Assign rand_sets[35]: 635  LLC: 2048
rand_sets[35]: 635
Assign rand_sets[36]: 466  LLC: 2048
rand_sets[36]: 466
Assign rand_sets[37]: 1413  LLC: 2048
rand_sets[37]: 1413
Assign rand_sets[38]: 417  LLC: 2048
rand_sets[38]: 417
Assign rand_sets[39]: 472  LLC: 2048
rand_sets[39]: 472
Assign rand_sets[40]: 1340  LLC: 2048
rand_sets[40]: 1340
Assign rand_sets[41]: 852  LLC: 2048
rand_sets[41]: 852
Assign rand_sets[42]: 1365  LLC: 2048
rand_sets[42]: 1365
Assign rand_sets[43]: 47  LLC: 2048
rand_sets[43]: 47
Assign rand_sets[44]: 823  LLC: 2048
rand_sets[44]: 823
Assign rand_sets[45]: 686  LLC: 2048
rand_sets[45]: 686
Assign rand_sets[46]: 1637  LLC: 2048
rand_sets[46]: 1637
Assign rand_sets[47]: 1115  LLC: 2048
rand_sets[47]: 1115
Assign rand_sets[48]: 986  LLC: 2048
rand_sets[48]: 986
Assign rand_sets[49]: 258  LLC: 2048
rand_sets[49]: 258
Assign rand_sets[50]: 633  LLC: 2048
rand_sets[50]: 633
Assign rand_sets[51]: 920  LLC: 2048
rand_sets[51]: 920
Assign rand_sets[52]: 204  LLC: 2048
rand_sets[52]: 204
Assign rand_sets[53]: 227  LLC: 2048
rand_sets[53]: 227
Assign rand_sets[54]: 1818  LLC: 2048
rand_sets[54]: 1818
Assign rand_sets[55]: 886  LLC: 2048
rand_sets[55]: 886
Assign rand_sets[56]: 1422  LLC: 2048
rand_sets[56]: 1422
Assign rand_sets[57]: 607  LLC: 2048
rand_sets[57]: 607
Assign rand_sets[58]: 217  LLC: 2048
rand_sets[58]: 217
Assign rand_sets[59]: 1945  LLC: 2048
rand_sets[59]: 1945
Assign rand_sets[60]: 143  LLC: 2048
rand_sets[60]: 143
Assign rand_sets[61]: 1311  LLC: 2048
rand_sets[61]: 1311
Assign rand_sets[62]: 319  LLC: 2048
rand_sets[62]: 319
Assign rand_sets[63]: 1846  LLC: 2048
rand_sets[63]: 1846
 CLEAN-RRIP-POLICY-1: 1-2-1-3-2-3-0-1- CLEAN-RRIP-POLICY-2: 1-2-1-3-2-3-0-1-
 DIRTY-RRIP-POLICY-1: 2-2-0-3-1-3-0-1- DIRTY-RRIP-POLICY-2: 2-2-0-3-1-3-0-1-
 PSEL width: 10
Heartbeat CPU 0 instructions: 10000002 cycles: 6248370 heartbeat IPC: 1.60042 cumulative IPC: 1.60042 (Simulation time: 0 hr 0 min 13 sec) 
Heartbeat CPU 0 instructions: 20000000 cycles: 12468884 heartbeat IPC: 1.60758 cumulative IPC: 1.60399 (Simulation time: 0 hr 0 min 26 sec) 
Heartbeat CPU 0 instructions: 30000000 cycles: 18678920 heartbeat IPC: 1.6103 cumulative IPC: 1.60609 (Simulation time: 0 hr 0 min 39 sec) 
Heartbeat CPU 0 instructions: 40000000 cycles: 24889255 heartbeat IPC: 1.61022 cumulative IPC: 1.60712 (Simulation time: 0 hr 0 min 52 sec) 
Heartbeat CPU 0 instructions: 50000003 cycles: 31101484 heartbeat IPC: 1.60973 cumulative IPC: 1.60764 (Simulation time: 0 hr 1 min 6 sec) 
Heartbeat CPU 0 instructions: 60000000 cycles: 37297471 heartbeat IPC: 1.61395 cumulative IPC: 1.60869 (Simulation time: 0 hr 1 min 19 sec) 
Heartbeat CPU 0 instructions: 70000003 cycles: 43515684 heartbeat IPC: 1.60818 cumulative IPC: 1.60862 (Simulation time: 0 hr 1 min 32 sec) 
Heartbeat CPU 0 instructions: 80000000 cycles: 49745954 heartbeat IPC: 1.60507 cumulative IPC: 1.60817 (Simulation time: 0 hr 1 min 45 sec) 
Heartbeat CPU 0 instructions: 90000000 cycles: 55974745 heartbeat IPC: 1.60545 cumulative IPC: 1.60787 (Simulation time: 0 hr 1 min 59 sec) 
Heartbeat CPU 0 instructions: 100000000 cycles: 62193465 heartbeat IPC: 1.60805 cumulative IPC: 1.60789 (Simulation time: 0 hr 2 min 12 sec) 

Warmup complete CPU 0 instructions: 100000001 cycles: 62193466 (Simulation time: 0 hr 2 min 12 sec) 

Heartbeat CPU 0 instructions: 110000000 cycles: 86749688 heartbeat IPC: 0.407229 cumulative IPC: 0.407229 (Simulation time: 0 hr 2 min 38 sec) 
Heartbeat CPU 0 instructions: 120000000 cycles: 111403492 heartbeat IPC: 0.405617 cumulative IPC: 0.406421 (Simulation time: 0 hr 3 min 3 sec) 
Heartbeat CPU 0 instructions: 130000000 cycles: 136134291 heartbeat IPC: 0.404354 cumulative IPC: 0.40573 (Simulation time: 0 hr 3 min 29 sec) 
Heartbeat CPU 0 instructions: 140000000 cycles: 160826048 heartbeat IPC: 0.404993 cumulative IPC: 0.405546 (Simulation time: 0 hr 3 min 54 sec) 
Heartbeat CPU 0 instructions: 150000003 cycles: 185404416 heartbeat IPC: 0.406862 cumulative IPC: 0.405808 (Simulation time: 0 hr 4 min 20 sec) 
Heartbeat CPU 0 instructions: 160000000 cycles: 210251186 heartbeat IPC: 0.402467 cumulative IPC: 0.405247 (Simulation time: 0 hr 4 min 45 sec) 
Heartbeat CPU 0 instructions: 170000001 cycles: 234960469 heartbeat IPC: 0.404706 cumulative IPC: 0.40517 (Simulation time: 0 hr 5 min 11 sec) 
Heartbeat CPU 0 instructions: 180000000 cycles: 259675387 heartbeat IPC: 0.404614 cumulative IPC: 0.4051 (Simulation time: 0 hr 5 min 36 sec) 
Heartbeat CPU 0 instructions: 190000003 cycles: 284345906 heartbeat IPC: 0.405342 cumulative IPC: 0.405127 (Simulation time: 0 hr 6 min 2 sec) 
Heartbeat CPU 0 instructions: 200000000 cycles: 309053589 heartbeat IPC: 0.404732 cumulative IPC: 0.405088 (Simulation time: 0 hr 6 min 27 sec) 
Heartbeat CPU 0 instructions: 210000003 cycles: 333826712 heartbeat IPC: 0.403663 cumulative IPC: 0.404958 (Simulation time: 0 hr 6 min 53 sec) 
Heartbeat CPU 0 instructions: 220000000 cycles: 358789295 heartbeat IPC: 0.400599 cumulative IPC: 0.404591 (Simulation time: 0 hr 7 min 19 sec) 
Heartbeat CPU 0 instructions: 230000002 cycles: 383404740 heartbeat IPC: 0.406249 cumulative IPC: 0.404718 (Simulation time: 0 hr 7 min 44 sec) 
Heartbeat CPU 0 instructions: 240000000 cycles: 408325758 heartbeat IPC: 0.401268 cumulative IPC: 0.40447 (Simulation time: 0 hr 8 min 10 sec) 
Heartbeat CPU 0 instructions: 250000000 cycles: 433073359 heartbeat IPC: 0.40408 cumulative IPC: 0.404444 (Simulation time: 0 hr 8 min 36 sec) 
Heartbeat CPU 0 instructions: 260000000 cycles: 457776937 heartbeat IPC: 0.4048 cumulative IPC: 0.404466 (Simulation time: 0 hr 9 min 2 sec) 
Heartbeat CPU 0 instructions: 270000001 cycles: 482569145 heartbeat IPC: 0.403353 cumulative IPC: 0.4044 (Simulation time: 0 hr 9 min 27 sec) 
Heartbeat CPU 0 instructions: 280000000 cycles: 507292280 heartbeat IPC: 0.404479 cumulative IPC: 0.404405 (Simulation time: 0 hr 9 min 53 sec) 
Heartbeat CPU 0 instructions: 290000001 cycles: 532100836 heartbeat IPC: 0.403087 cumulative IPC: 0.404335 (Simulation time: 0 hr 10 min 19 sec) 
Heartbeat CPU 0 instructions: 300000000 cycles: 557062484 heartbeat IPC: 0.400615 cumulative IPC: 0.404147 (Simulation time: 0 hr 10 min 45 sec) 
Heartbeat CPU 0 instructions: 310000003 cycles: 581672276 heartbeat IPC: 0.406342 cumulative IPC: 0.404251 (Simulation time: 0 hr 11 min 10 sec) 
Heartbeat CPU 0 instructions: 320000000 cycles: 606638495 heartbeat IPC: 0.400541 cumulative IPC: 0.404081 (Simulation time: 0 hr 11 min 36 sec) 
Heartbeat CPU 0 instructions: 330000003 cycles: 631365239 heartbeat IPC: 0.404421 cumulative IPC: 0.404096 (Simulation time: 0 hr 12 min 2 sec) 
Heartbeat CPU 0 instructions: 340000000 cycles: 656380137 heartbeat IPC: 0.399762 cumulative IPC: 0.403913 (Simulation time: 0 hr 12 min 28 sec) 
Heartbeat CPU 0 instructions: 350000002 cycles: 681358305 heartbeat IPC: 0.40035 cumulative IPC: 0.40377 (Simulation time: 0 hr 12 min 53 sec) 
Heartbeat CPU 0 instructions: 360000000 cycles: 706469216 heartbeat IPC: 0.398233 cumulative IPC: 0.403554 (Simulation time: 0 hr 13 min 19 sec) 
Heartbeat CPU 0 instructions: 370000000 cycles: 731360748 heartbeat IPC: 0.401743 cumulative IPC: 0.403487 (Simulation time: 0 hr 13 min 44 sec) 
Heartbeat CPU 0 instructions: 380000000 cycles: 756068271 heartbeat IPC: 0.404735 cumulative IPC: 0.403531 (Simulation time: 0 hr 14 min 9 sec) 
Heartbeat CPU 0 instructions: 390000002 cycles: 780804043 heartbeat IPC: 0.404273 cumulative IPC: 0.403557 (Simulation time: 0 hr 14 min 35 sec) 
Heartbeat CPU 0 instructions: 400000000 cycles: 805707929 heartbeat IPC: 0.401544 cumulative IPC: 0.403489 (Simulation time: 0 hr 15 min 0 sec) 
Heartbeat CPU 0 instructions: 410000002 cycles: 830519199 heartbeat IPC: 0.403043 cumulative IPC: 0.403475 (Simulation time: 0 hr 15 min 26 sec) 
Heartbeat CPU 0 instructions: 420000000 cycles: 855120440 heartbeat IPC: 0.406483 cumulative IPC: 0.403568 (Simulation time: 0 hr 15 min 51 sec) 
Heartbeat CPU 0 instructions: 430000000 cycles: 879955803 heartbeat IPC: 0.402652 cumulative IPC: 0.40354 (Simulation time: 0 hr 16 min 17 sec) 
Heartbeat CPU 0 instructions: 440000000 cycles: 904489032 heartbeat IPC: 0.40761 cumulative IPC: 0.403659 (Simulation time: 0 hr 16 min 42 sec) 
Heartbeat CPU 0 instructions: 450000000 cycles: 929446842 heartbeat IPC: 0.400676 cumulative IPC: 0.403573 (Simulation time: 0 hr 17 min 8 sec) 
Heartbeat CPU 0 instructions: 460000000 cycles: 954330246 heartbeat IPC: 0.401874 cumulative IPC: 0.403526 (Simulation time: 0 hr 17 min 34 sec) 
Heartbeat CPU 0 instructions: 470000001 cycles: 979005563 heartbeat IPC: 0.405263 cumulative IPC: 0.403572 (Simulation time: 0 hr 17 min 59 sec) 
Heartbeat CPU 0 instructions: 480000000 cycles: 1003845660 heartbeat IPC: 0.402575 cumulative IPC: 0.403546 (Simulation time: 0 hr 18 min 25 sec) 
Heartbeat CPU 0 instructions: 490000000 cycles: 1028785499 heartbeat IPC: 0.400965 cumulative IPC: 0.403479 (Simulation time: 0 hr 18 min 51 sec) 
Heartbeat CPU 0 instructions: 500000000 cycles: 1054056579 heartbeat IPC: 0.395709 cumulative IPC: 0.403281 (Simulation time: 0 hr 19 min 16 sec) 
Heartbeat CPU 0 instructions: 510000003 cycles: 1079195852 heartbeat IPC: 0.397784 cumulative IPC: 0.403146 (Simulation time: 0 hr 19 min 42 sec) 
Heartbeat CPU 0 instructions: 520000000 cycles: 1104489071 heartbeat IPC: 0.395363 cumulative IPC: 0.402957 (Simulation time: 0 hr 20 min 7 sec) 
Heartbeat CPU 0 instructions: 530000003 cycles: 1129815748 heartbeat IPC: 0.394841 cumulative IPC: 0.402764 (Simulation time: 0 hr 20 min 33 sec) 
Heartbeat CPU 0 instructions: 540000000 cycles: 1155050760 heartbeat IPC: 0.396275 cumulative IPC: 0.402614 (Simulation time: 0 hr 20 min 58 sec) 
Heartbeat CPU 0 instructions: 550000000 cycles: 1180297870 heartbeat IPC: 0.396085 cumulative IPC: 0.402467 (Simulation time: 0 hr 21 min 24 sec) 
Heartbeat CPU 0 instructions: 560000000 cycles: 1205853597 heartbeat IPC: 0.391302 cumulative IPC: 0.402217 (Simulation time: 0 hr 21 min 49 sec) 
Heartbeat CPU 0 instructions: 570000001 cycles: 1231332092 heartbeat IPC: 0.392488 cumulative IPC: 0.402005 (Simulation time: 0 hr 22 min 15 sec) 
Heartbeat CPU 0 instructions: 580000000 cycles: 1256825540 heartbeat IPC: 0.392258 cumulative IPC: 0.401797 (Simulation time: 0 hr 22 min 41 sec) 
Heartbeat CPU 0 instructions: 590000000 cycles: 1282474140 heartbeat IPC: 0.389885 cumulative IPC: 0.401547 (Simulation time: 0 hr 23 min 6 sec) 
Heartbeat CPU 0 instructions: 600000000 cycles: 1308198033 heartbeat IPC: 0.388744 cumulative IPC: 0.401283 (Simulation time: 0 hr 23 min 32 sec) 
Finished CPU 0 instructions: 500000003 cycles: 1246004580 cumulative IPC: 0.401283 (Simulation time: 0 hr 23 min 32 sec) 

CPU 0 Branch Prediction Accuracy: 91.1342% MPKI: 18.7968
Number of Branches: 106006945 Number of Mispredictions: 9398408
Number of LOAD Instructions: 207894007
Number of LOAD Instructions (ROI): 207894007
Number of STORE Instructions: 54285997
Number of STORE Instructions (ROI): 54285997
Total Destination Memory Operands: 57463404
Total Destination Memory Operands (ROI): 57463404
Total Source Memory Operands: 207894007
Total Source Memory Operands (ROI): 207894007
Number of DEPENDED LOADS: 18105352
Number of DEPENDED LOADS (ROI): 18105352
Number of SQ_ADDED: 57463404
Number of SQ_ADDED (ROI): 57463404
Number of LQ_ADDED: 209237860
Number of LQ_ADDED (ROI): 209237860
Number of Instructions read from trace: 600000039

ChampSim completed all CPUs

Region of Interest Statistics

CPU 0 cumulative IPC: 0.401283 instructions: 500000003 cycles: 1246004580
ITLB TOTAL     ACCESS:   96421612  HIT:   96421612  MISS:          0
ITLB LOAD      ACCESS:   96421612  HIT:   96421612  MISS:          0
ITLB RFO       ACCESS:          0  HIT:          0  MISS:          0
ITLB PREFETCH  ACCESS:          0  HIT:          0  MISS:          0
ITLB WRITEBACK ACCESS:          0  HIT:          0  MISS:          0
ITLB PREFETCH  REQUESTED:          0  ISSUED:          0  USEFUL:          0  USELESS:          0
ITLB TOTAL MSHR MERGED:          0
ITLB LOAD MSHR MERGED:          0
ITLB RFO MSHR MERGED:          0
ITLB PREFETCH MSHR MERGED:          0
ITLB WRITEBACK MSHR MERGED:          0
ITLB TOTAL ACCESSES:   96421612 HITS:   96421612 MISSES:          0
ITLB LOAD ACCESSES:   96421612 HITS:   96421612 MISSES:          0
ITLB RFO ACCESSES:          0 HITS:          0 MISSES:          0
ITLB PREFETCH ACCESSES:          0 HITS:          0 MISSES:          0
ITLB WRITEBACK ACCESSES:          0 HITS:          0 MISSES:          0
ITLB RQ ACCESS:  499999980
ITLB RQ TO_CACHE:   96421612
ITLB RQ MERGED:  403578368
ITLB RQ FORWARD:          0
ITLB WQ ACCESS:          0
ITLB WQ TO_CACHE:          0
ITLB WQ MERGED:          0
ITLB WQ FORWARD:          0
DTLB TOTAL     ACCESS:  155173623  HIT:  150261475  MISS:    4912148
DTLB LOAD      ACCESS:  117723135  HIT:  113332686  MISS:    4390449
DTLB RFO       ACCESS:   37450488  HIT:   36928789  MISS:     521699
DTLB PREFETCH  ACCESS:          0  HIT:          0  MISS:          0
DTLB WRITEBACK ACCESS:          0  HIT:          0  MISS:          0
DTLB PREFETCH  REQUESTED:          0  ISSUED:          0  USEFUL:          0  USELESS:          0
DTLB TOTAL MSHR MERGED:     453121
DTLB LOAD MSHR MERGED:     161677
DTLB RFO MSHR MERGED:     291444
DTLB PREFETCH MSHR MERGED:          0
DTLB WRITEBACK MSHR MERGED:          0
DTLB TOTAL ACCESSES:  155626744 HITS:  150261475 MISSES:    5365269
DTLB LOAD ACCESSES:  117884812 HITS:  113332686 MISSES:    4552126
DTLB RFO ACCESSES:   37741932 HITS:   36928789 MISSES:     813143
DTLB PREFETCH ACCESSES:          0 HITS:          0 MISSES:          0
DTLB WRITEBACK ACCESSES:          0 HITS:          0 MISSES:          0
DTLB RQ ACCESS:  205977572
DTLB RQ TO_CACHE:  155626744
DTLB RQ MERGED:   50350828
DTLB RQ FORWARD:          0
DTLB WQ ACCESS:          0
DTLB WQ TO_CACHE:          0
DTLB WQ MERGED:          0
DTLB WQ FORWARD:          0
L1D TOTAL     ACCESS:  277177445  HIT:  242354905  MISS:   34822540
L1D LOAD      ACCESS:  125414581  HIT:  107775306  MISS:   17639275
L1D RFO       ACCESS:   41135844  HIT:   38823999  MISS:    2311845
L1D PREFETCH  ACCESS:  110627020  HIT:   95755600  MISS:   14871420
L1D WRITEBACK ACCESS:          0  HIT:          0  MISS:          0
L1D PREFETCH  REQUESTED:  126272349  ISSUED:  124753186  USEFUL:    2705427  USELESS:   12166019
L1D TOTAL MSHR MERGED:    8493796
L1D LOAD MSHR MERGED:    1550629
L1D RFO MSHR MERGED:    3768841
L1D PREFETCH MSHR MERGED:    3174326
L1D WRITEBACK MSHR MERGED:          0
L1D TOTAL ACCESSES:  285758549 HITS:  242442210 MISSES:   43316339
L1D LOAD ACCESSES:  126272381 HITS:  107775338 MISSES:   18497043
L1D RFO ACCESSES:   44904189 HITS:   38823999 MISSES:    6080190
L1D PREFETCH ACCESSES:  114581979 HITS:   95842873 MISSES:   18739106
L1D WRITEBACK ACCESSES:          0 HITS:          0 MISSES:          0
L1D RQ ACCESS:  158430691
L1D RQ TO_CACHE:  126272349
L1D RQ MERGED:   32158310
L1D RQ FORWARD:          0
L1D WQ ACCESS:   47546882
L1D WQ TO_CACHE:   44904189
L1D WQ MERGED:    2642693
L1D WQ FORWARD:      87305
L1I TOTAL     ACCESS:  132831360  HIT:  132831360  MISS:          0
L1I LOAD      ACCESS:  132831360  HIT:  132831360  MISS:          0
L1I RFO       ACCESS:          0  HIT:          0  MISS:          0
L1I PREFETCH  ACCESS:          0  HIT:          0  MISS:          0
L1I WRITEBACK ACCESS:          0  HIT:          0  MISS:          0
L1I PREFETCH  REQUESTED:          0  ISSUED:          0  USEFUL:          0  USELESS:          0
L1I TOTAL MSHR MERGED:          0
L1I LOAD MSHR MERGED:          0
L1I RFO MSHR MERGED:          0
L1I PREFETCH MSHR MERGED:          0
L1I WRITEBACK MSHR MERGED:          0
L1I TOTAL ACCESSES:  132831360 HITS:  132831360 MISSES:          0
L1I LOAD ACCESSES:  132831360 HITS:  132831360 MISSES:          0
L1I RFO ACCESSES:          0 HITS:          0 MISSES:          0
L1I PREFETCH ACCESSES:          0 HITS:          0 MISSES:          0
L1I WRITEBACK ACCESSES:          0 HITS:          0 MISSES:          0
L1I RQ ACCESS:  499999980
L1I RQ TO_CACHE:  132831360
L1I RQ MERGED:  367168620
L1I RQ FORWARD:          0
L1I WQ ACCESS:          0
L1I WQ TO_CACHE:          0
L1I WQ MERGED:          0
L1I WQ FORWARD:          0
L2C TOTAL     ACCESS:   39596970  HIT:   20627632  MISS:   18969338
L2C LOAD      ACCESS:   16946351  HIT:    8568035  MISS:    8378316
L2C RFO       ACCESS:    2311297  HIT:     630849  MISS:    1680448
L2C PREFETCH  ACCESS:   17116867  HIT:    8210044  MISS:    8906823
L2C WRITEBACK ACCESS:    3222455  HIT:    3218704  MISS:       3751
L2C PREFETCH  REQUESTED:    2877139  ISSUED:    2877139  USEFUL:    1307281  USELESS:    7599285
L2C TOTAL MSHR MERGED:     531190
L2C LOAD MSHR MERGED:      88381
L2C RFO MSHR MERGED:          0
L2C PREFETCH MSHR MERGED:     442809
L2C WRITEBACK MSHR MERGED:          0
L2C TOTAL ACCESSES:   40240462 HITS:   20627799 MISSES:   19612663
L2C LOAD ACCESSES:   16946414 HITS:    8568098 MISSES:    8378316
L2C RFO ACCESSES:    2311349 HITS:     630901 MISSES:    1680448
L2C PREFETCH ACCESSES:   17760244 HITS:    8210096 MISSES:    9550148
L2C WRITEBACK ACCESSES:    3222455 HITS:    3218704 MISSES:       3751
L2C RQ ACCESS:   19257763
L2C RQ TO_CACHE:   19257648
L2C RQ MERGED:          0
L2C RQ FORWARD:          0
L2C WQ ACCESS:    3222455
L2C WQ TO_CACHE:    3222455
L2C WQ MERGED:          0
L2C WQ FORWARD:        167
LLC TOTAL     ACCESS:   21197221  HIT:   14138240  MISS:    7058981
LLC LOAD      ACCESS:    8289911  HIT:    5785230  MISS:    2504681
LLC RFO       ACCESS:    1680368  HIT:    1671617  MISS:       8751
LLC PREFETCH  ACCESS:    9051287  HIT:    4512205  MISS:    4539082
LLC WRITEBACK ACCESS:    2175655  HIT:    2169188  MISS:       6467
LLC PREFETCH  REQUESTED:          0  ISSUED:          0  USEFUL:     203071  USELESS:    4338583
LLC TOTAL MSHR MERGED:      47336
LLC LOAD MSHR MERGED:      14935
LLC RFO MSHR MERGED:          0
LLC PREFETCH MSHR MERGED:      32401
LLC WRITEBACK MSHR MERGED:          0
LLC TOTAL ACCESSES:   21244694 HITS:   14138374 MISSES:    7106320
LLC LOAD ACCESSES:    8289935 HITS:    5785254 MISSES:    2504681
LLC RFO ACCESSES:    1680448 HITS:    1671697 MISSES:       8751
LLC PREFETCH ACCESSES:    9098656 HITS:    4512235 MISSES:    4586421
LLC WRITEBACK ACCESSES:    2175655 HITS:    2169188 MISSES:       6467
LLC 0 RQ ACCESS:    9970383
LLC 0 RQ TO_CACHE:    9970279
LLC 0 RQ MERGED:          0
LLC 0 RQ FORWARD:          0
LLC WQ ACCESS:    2175655
LLC WQ TO_CACHE:    2175655
LLC WQ MERGED:          0
LLC WQ FORWARD:        134
Major fault: 0 Minor fault: 56391
CPU 0 L1D next line prefetcher final stats
CPU 0 L2C PC-based stride prefetcher final stats
All Misses: 8302189
All Hits: 16271877
SD Algo Stats - Switches: 0 SRR-Repls: 2627397 BRR-Repls: 0

DRAM Statistics
 CHANNEL 0
 RQ ROW_BUFFER_HIT:    4569128  ROW_BUFFER_MISS:    2471173
 DBUS_CONGESTED:    3285926
 WQ ROW_BUFFER_HIT:        652  ROW_BUFFER_MISS:      21835  FULL:          0

 AVG_CONGESTED_CYCLE: 12
LOADS RETIRED: 173631671
INSTR RETIRED: 500000000
