
*** ChampSim Multicore Out-of-Order Simulator ***

Warmup Instructions: 100000000
Simulation Instructions: 500000000
Number of CPUs: 1
LLC sets: 2048
LLC ways: 16
Clean RRIP Policies: 2223230022232300 Dirty RRIP Policies: 2203130022031300 PSEL Width: 10 Track Set: 4294967295 PSEL Mask: 1 Demote Mask: 1040100010401000DS Algo: 0Window size: 0
Off-chip DRAM Size: 4096 MB Channels: 1 Width: 64-bit Data Rate: 1600 MT/s

CPU 0 runs /mnt/beegfs/iconst01/spec2017/Xalancbmk.trace.gz
NOT SORTED
TRACE STRING: /mnt/beegfs/iconst01/spec2017/Xalancbmk.trace.gz
SORTED
TRACE STRING: /mnt/beegfs/iconst01/spec2017/Xalancbmk.trace.gz
INITIAL
TRACE STRING: /mnt/beegfs/iconst01/spec2017/Xalancbmk.trace.gz

champsim_seed used: 913

CPU 0 L1D next line prefetcher
CPU 0 L2C IP-based stride prefetcher
Initialize DRRIP state
Assign rand_sets[0]: 454  LLC: 2048
rand_sets[0]: 454
Assign rand_sets[1]: 1662  LLC: 2048
rand_sets[1]: 1662
Assign rand_sets[2]: 1921  LLC: 2048
rand_sets[2]: 1921
Assign rand_sets[3]: 1131  LLC: 2048
rand_sets[3]: 1131
Assign rand_sets[4]: 331  LLC: 2048
rand_sets[4]: 331
Assign rand_sets[5]: 1531  LLC: 2048
rand_sets[5]: 1531
Assign rand_sets[6]: 482  LLC: 2048
rand_sets[6]: 482
Assign rand_sets[7]: 1275  LLC: 2048
rand_sets[7]: 1275
Assign rand_sets[8]: 1876  LLC: 2048
rand_sets[8]: 1876
Assign rand_sets[9]: 2038  LLC: 2048
rand_sets[9]: 2038
Assign rand_sets[10]: 701  LLC: 2048
rand_sets[10]: 701
Assign rand_sets[11]: 479  LLC: 2048
rand_sets[11]: 479
Assign rand_sets[12]: 892  LLC: 2048
rand_sets[12]: 892
Assign rand_sets[13]: 1820  LLC: 2048
rand_sets[13]: 1820
Assign rand_sets[14]: 1505  LLC: 2048
rand_sets[14]: 1505
Assign rand_sets[15]: 1159  LLC: 2048
rand_sets[15]: 1159
Assign rand_sets[16]: 513  LLC: 2048
rand_sets[16]: 513
Assign rand_sets[17]: 703  LLC: 2048
rand_sets[17]: 703
Assign rand_sets[18]: 561  LLC: 2048
rand_sets[18]: 561
Assign rand_sets[19]: 990  LLC: 2048
rand_sets[19]: 990
Assign rand_sets[20]: 342  LLC: 2048
rand_sets[20]: 342
Assign rand_sets[21]: 882  LLC: 2048
rand_sets[21]: 882
Assign rand_sets[22]: 15  LLC: 2048
rand_sets[22]: 15
Assign rand_sets[23]: 71  LLC: 2048
rand_sets[23]: 71
Assign rand_sets[24]: 1127  LLC: 2048
rand_sets[24]: 1127
Assign rand_sets[25]: 1382  LLC: 2048
rand_sets[25]: 1382
Assign rand_sets[26]: 647  LLC: 2048
rand_sets[26]: 647
Assign rand_sets[27]: 857  LLC: 2048
rand_sets[27]: 857
Assign rand_sets[28]: 1450  LLC: 2048
rand_sets[28]: 1450
Assign rand_sets[29]: 1160  LLC: 2048
rand_sets[29]: 1160
Assign rand_sets[30]: 1852  LLC: 2048
rand_sets[30]: 1852
Assign rand_sets[31]: 1881  LLC: 2048
rand_sets[31]: 1881
Assign rand_sets[32]: 1770  LLC: 2048
rand_sets[32]: 1770
Assign rand_sets[33]: 1622  LLC: 2048
rand_sets[33]: 1622
Assign rand_sets[34]: 275  LLC: 2048
rand_sets[34]: 275
Assign rand_sets[35]: 635  LLC: 2048
rand_sets[35]: 635
Assign rand_sets[36]: 466  LLC: 2048
rand_sets[36]: 466
Assign rand_sets[37]: 1413  LLC: 2048
rand_sets[37]: 1413
Assign rand_sets[38]: 417  LLC: 2048
rand_sets[38]: 417
Assign rand_sets[39]: 472  LLC: 2048
rand_sets[39]: 472
Assign rand_sets[40]: 1340  LLC: 2048
rand_sets[40]: 1340
Assign rand_sets[41]: 852  LLC: 2048
rand_sets[41]: 852
Assign rand_sets[42]: 1365  LLC: 2048
rand_sets[42]: 1365
Assign rand_sets[43]: 47  LLC: 2048
rand_sets[43]: 47
Assign rand_sets[44]: 823  LLC: 2048
rand_sets[44]: 823
Assign rand_sets[45]: 686  LLC: 2048
rand_sets[45]: 686
Assign rand_sets[46]: 1637  LLC: 2048
rand_sets[46]: 1637
Assign rand_sets[47]: 1115  LLC: 2048
rand_sets[47]: 1115
Assign rand_sets[48]: 986  LLC: 2048
rand_sets[48]: 986
Assign rand_sets[49]: 258  LLC: 2048
rand_sets[49]: 258
Assign rand_sets[50]: 633  LLC: 2048
rand_sets[50]: 633
Assign rand_sets[51]: 920  LLC: 2048
rand_sets[51]: 920
Assign rand_sets[52]: 204  LLC: 2048
rand_sets[52]: 204
Assign rand_sets[53]: 227  LLC: 2048
rand_sets[53]: 227
Assign rand_sets[54]: 1818  LLC: 2048
rand_sets[54]: 1818
Assign rand_sets[55]: 886  LLC: 2048
rand_sets[55]: 886
Assign rand_sets[56]: 1422  LLC: 2048
rand_sets[56]: 1422
Assign rand_sets[57]: 607  LLC: 2048
rand_sets[57]: 607
Assign rand_sets[58]: 217  LLC: 2048
rand_sets[58]: 217
Assign rand_sets[59]: 1945  LLC: 2048
rand_sets[59]: 1945
Assign rand_sets[60]: 143  LLC: 2048
rand_sets[60]: 143
Assign rand_sets[61]: 1311  LLC: 2048
rand_sets[61]: 1311
Assign rand_sets[62]: 319  LLC: 2048
rand_sets[62]: 319
Assign rand_sets[63]: 1846  LLC: 2048
rand_sets[63]: 1846
 CLEAN-RRIP-POLICY-1: 2-2-2-3-2-3-0-0- CLEAN-RRIP-POLICY-2: 2-2-2-3-2-3-0-0-
 DIRTY-RRIP-POLICY-1: 2-2-0-3-1-3-0-0- DIRTY-RRIP-POLICY-2: 2-2-0-3-1-3-0-0-
 PSEL width: 10
Heartbeat CPU 0 instructions: 10000003 cycles: 4581353 heartbeat IPC: 2.18276 cumulative IPC: 2.18276 (Simulation time: 0 hr 0 min 15 sec) 
Heartbeat CPU 0 instructions: 20000000 cycles: 8972239 heartbeat IPC: 2.27744 cumulative IPC: 2.2291 (Simulation time: 0 hr 0 min 29 sec) 
Heartbeat CPU 0 instructions: 30000000 cycles: 13382254 heartbeat IPC: 2.26757 cumulative IPC: 2.24177 (Simulation time: 0 hr 0 min 43 sec) 
Heartbeat CPU 0 instructions: 40000000 cycles: 18004464 heartbeat IPC: 2.16347 cumulative IPC: 2.22167 (Simulation time: 0 hr 0 min 59 sec) 
Heartbeat CPU 0 instructions: 50000002 cycles: 22415393 heartbeat IPC: 2.2671 cumulative IPC: 2.23061 (Simulation time: 0 hr 1 min 12 sec) 
Heartbeat CPU 0 instructions: 60000000 cycles: 27065786 heartbeat IPC: 2.15036 cumulative IPC: 2.21682 (Simulation time: 0 hr 1 min 28 sec) 
Heartbeat CPU 0 instructions: 70000003 cycles: 31469040 heartbeat IPC: 2.27105 cumulative IPC: 2.22441 (Simulation time: 0 hr 1 min 42 sec) 
Heartbeat CPU 0 instructions: 80000000 cycles: 35895079 heartbeat IPC: 2.25936 cumulative IPC: 2.22872 (Simulation time: 0 hr 1 min 56 sec) 
Heartbeat CPU 0 instructions: 90000002 cycles: 40352831 heartbeat IPC: 2.24328 cumulative IPC: 2.23033 (Simulation time: 0 hr 2 min 10 sec) 
Heartbeat CPU 0 instructions: 100000000 cycles: 44828594 heartbeat IPC: 2.23426 cumulative IPC: 2.23072 (Simulation time: 0 hr 2 min 24 sec) 

Warmup complete CPU 0 instructions: 100000003 cycles: 44828595 (Simulation time: 0 hr 2 min 24 sec) 

Heartbeat CPU 0 instructions: 110000000 cycles: 71224273 heartbeat IPC: 0.37885 cumulative IPC: 0.37885 (Simulation time: 0 hr 2 min 55 sec) 
Heartbeat CPU 0 instructions: 120000000 cycles: 99579123 heartbeat IPC: 0.352673 cumulative IPC: 0.365293 (Simulation time: 0 hr 3 min 27 sec) 
Heartbeat CPU 0 instructions: 130000000 cycles: 123197596 heartbeat IPC: 0.423397 cumulative IPC: 0.382804 (Simulation time: 0 hr 3 min 56 sec) 
Heartbeat CPU 0 instructions: 140000000 cycles: 145618347 heartbeat IPC: 0.446015 cumulative IPC: 0.396866 (Simulation time: 0 hr 4 min 24 sec) 
Heartbeat CPU 0 instructions: 150000000 cycles: 170044925 heartbeat IPC: 0.40939 cumulative IPC: 0.399309 (Simulation time: 0 hr 4 min 53 sec) 
Heartbeat CPU 0 instructions: 160000000 cycles: 194772837 heartbeat IPC: 0.404401 cumulative IPC: 0.400149 (Simulation time: 0 hr 5 min 22 sec) 
Heartbeat CPU 0 instructions: 170000002 cycles: 216010413 heartbeat IPC: 0.470864 cumulative IPC: 0.408922 (Simulation time: 0 hr 5 min 49 sec) 
Heartbeat CPU 0 instructions: 180000000 cycles: 239171184 heartbeat IPC: 0.431764 cumulative IPC: 0.411644 (Simulation time: 0 hr 6 min 18 sec) 
Heartbeat CPU 0 instructions: 190000000 cycles: 258307164 heartbeat IPC: 0.522576 cumulative IPC: 0.421588 (Simulation time: 0 hr 6 min 43 sec) 
Heartbeat CPU 0 instructions: 200000000 cycles: 279696129 heartbeat IPC: 0.467531 cumulative IPC: 0.425772 (Simulation time: 0 hr 7 min 10 sec) 
Heartbeat CPU 0 instructions: 210000001 cycles: 306058612 heartbeat IPC: 0.379327 cumulative IPC: 0.421085 (Simulation time: 0 hr 7 min 41 sec) 
Heartbeat CPU 0 instructions: 220000000 cycles: 331853478 heartbeat IPC: 0.387674 cumulative IPC: 0.418082 (Simulation time: 0 hr 8 min 11 sec) 
Heartbeat CPU 0 instructions: 230000000 cycles: 354018350 heartbeat IPC: 0.451164 cumulative IPC: 0.420454 (Simulation time: 0 hr 8 min 39 sec) 
Heartbeat CPU 0 instructions: 240000000 cycles: 379570873 heartbeat IPC: 0.391351 cumulative IPC: 0.418232 (Simulation time: 0 hr 9 min 9 sec) 
Heartbeat CPU 0 instructions: 250000001 cycles: 404462309 heartbeat IPC: 0.401745 cumulative IPC: 0.417091 (Simulation time: 0 hr 9 min 39 sec) 
Heartbeat CPU 0 instructions: 260000000 cycles: 425638734 heartbeat IPC: 0.472223 cumulative IPC: 0.420157 (Simulation time: 0 hr 10 min 5 sec) 
Heartbeat CPU 0 instructions: 270000000 cycles: 447778018 heartbeat IPC: 0.451686 cumulative IPC: 0.421889 (Simulation time: 0 hr 10 min 33 sec) 
Heartbeat CPU 0 instructions: 280000000 cycles: 475172141 heartbeat IPC: 0.365042 cumulative IPC: 0.41827 (Simulation time: 0 hr 11 min 4 sec) 
Heartbeat CPU 0 instructions: 290000000 cycles: 496451549 heartbeat IPC: 0.469938 cumulative IPC: 0.420705 (Simulation time: 0 hr 11 min 31 sec) 
Heartbeat CPU 0 instructions: 300000000 cycles: 517166520 heartbeat IPC: 0.482743 cumulative IPC: 0.423426 (Simulation time: 0 hr 11 min 58 sec) 
Heartbeat CPU 0 instructions: 310000000 cycles: 536583085 heartbeat IPC: 0.515024 cumulative IPC: 0.427042 (Simulation time: 0 hr 12 min 23 sec) 
Heartbeat CPU 0 instructions: 320000000 cycles: 565789344 heartbeat IPC: 0.342392 cumulative IPC: 0.422297 (Simulation time: 0 hr 12 min 56 sec) 
Heartbeat CPU 0 instructions: 330000001 cycles: 585188520 heartbeat IPC: 0.515486 cumulative IPC: 0.425642 (Simulation time: 0 hr 13 min 21 sec) 
Heartbeat CPU 0 instructions: 340000000 cycles: 604654095 heartbeat IPC: 0.513727 cumulative IPC: 0.428705 (Simulation time: 0 hr 13 min 47 sec) 
Heartbeat CPU 0 instructions: 350000002 cycles: 629308929 heartbeat IPC: 0.4056 cumulative IPC: 0.42773 (Simulation time: 0 hr 14 min 16 sec) 
Heartbeat CPU 0 instructions: 360000000 cycles: 651579982 heartbeat IPC: 0.449013 cumulative IPC: 0.428512 (Simulation time: 0 hr 14 min 44 sec) 
Heartbeat CPU 0 instructions: 370000001 cycles: 676674712 heartbeat IPC: 0.39849 cumulative IPC: 0.427319 (Simulation time: 0 hr 15 min 13 sec) 
Heartbeat CPU 0 instructions: 380000000 cycles: 699660719 heartbeat IPC: 0.435047 cumulative IPC: 0.42759 (Simulation time: 0 hr 15 min 41 sec) 
Heartbeat CPU 0 instructions: 390000000 cycles: 718456637 heartbeat IPC: 0.53203 cumulative IPC: 0.430505 (Simulation time: 0 hr 16 min 6 sec) 
Heartbeat CPU 0 instructions: 400000000 cycles: 738420661 heartbeat IPC: 0.500901 cumulative IPC: 0.432531 (Simulation time: 0 hr 16 min 32 sec) 
Heartbeat CPU 0 instructions: 410000001 cycles: 764082816 heartbeat IPC: 0.389679 cumulative IPC: 0.431002 (Simulation time: 0 hr 17 min 2 sec) 
Heartbeat CPU 0 instructions: 420000000 cycles: 788564323 heartbeat IPC: 0.408472 cumulative IPC: 0.43026 (Simulation time: 0 hr 17 min 31 sec) 
Heartbeat CPU 0 instructions: 430000002 cycles: 809970402 heartbeat IPC: 0.467157 cumulative IPC: 0.431293 (Simulation time: 0 hr 17 min 58 sec) 
Heartbeat CPU 0 instructions: 440000000 cycles: 830548453 heartbeat IPC: 0.485955 cumulative IPC: 0.432724 (Simulation time: 0 hr 18 min 24 sec) 
Heartbeat CPU 0 instructions: 450000002 cycles: 856998186 heartbeat IPC: 0.378076 cumulative IPC: 0.430944 (Simulation time: 0 hr 18 min 55 sec) 
Heartbeat CPU 0 instructions: 460000000 cycles: 882917866 heartbeat IPC: 0.385807 cumulative IPC: 0.429549 (Simulation time: 0 hr 19 min 25 sec) 
Heartbeat CPU 0 instructions: 470000002 cycles: 908792887 heartbeat IPC: 0.386473 cumulative IPC: 0.428258 (Simulation time: 0 hr 19 min 55 sec) 
Heartbeat CPU 0 instructions: 480000000 cycles: 933611936 heartbeat IPC: 0.402916 cumulative IPC: 0.427551 (Simulation time: 0 hr 20 min 24 sec) 
Heartbeat CPU 0 instructions: 490000000 cycles: 954590880 heartbeat IPC: 0.476668 cumulative IPC: 0.428683 (Simulation time: 0 hr 20 min 50 sec) 
Heartbeat CPU 0 instructions: 500000000 cycles: 979390466 heartbeat IPC: 0.403233 cumulative IPC: 0.428008 (Simulation time: 0 hr 21 min 20 sec) 
Heartbeat CPU 0 instructions: 510000000 cycles: 1004620522 heartbeat IPC: 0.396353 cumulative IPC: 0.427176 (Simulation time: 0 hr 21 min 49 sec) 
Heartbeat CPU 0 instructions: 520000000 cycles: 1025982111 heartbeat IPC: 0.46813 cumulative IPC: 0.428068 (Simulation time: 0 hr 22 min 16 sec) 
Heartbeat CPU 0 instructions: 530000003 cycles: 1051517043 heartbeat IPC: 0.391621 cumulative IPC: 0.427143 (Simulation time: 0 hr 22 min 45 sec) 
Heartbeat CPU 0 instructions: 540000000 cycles: 1074379387 heartbeat IPC: 0.4374 cumulative IPC: 0.427371 (Simulation time: 0 hr 23 min 13 sec) 
Heartbeat CPU 0 instructions: 550000000 cycles: 1099688635 heartbeat IPC: 0.395112 cumulative IPC: 0.426597 (Simulation time: 0 hr 23 min 43 sec) 
Heartbeat CPU 0 instructions: 560000000 cycles: 1123708981 heartbeat IPC: 0.416314 cumulative IPC: 0.426368 (Simulation time: 0 hr 24 min 11 sec) 
Heartbeat CPU 0 instructions: 570000002 cycles: 1147093927 heartbeat IPC: 0.427626 cumulative IPC: 0.426395 (Simulation time: 0 hr 24 min 40 sec) 
Heartbeat CPU 0 instructions: 580000000 cycles: 1168389301 heartbeat IPC: 0.469585 cumulative IPC: 0.427213 (Simulation time: 0 hr 25 min 6 sec) 
Heartbeat CPU 0 instructions: 590000001 cycles: 1192237396 heartbeat IPC: 0.419321 cumulative IPC: 0.427049 (Simulation time: 0 hr 25 min 35 sec) 
Heartbeat CPU 0 instructions: 600000000 cycles: 1211471898 heartbeat IPC: 0.519899 cumulative IPC: 0.42858 (Simulation time: 0 hr 26 min 0 sec) 
Finished CPU 0 instructions: 500000000 cycles: 1166643324 cumulative IPC: 0.42858 (Simulation time: 0 hr 26 min 0 sec) 

CPU 0 Branch Prediction Accuracy: 99.5434% MPKI: 1.33026
Number of Branches: 145676990 Number of Mispredictions: 665128
Number of LOAD Instructions: 188863207
Number of LOAD Instructions (ROI): 188863207
Number of STORE Instructions: 7332002
Number of STORE Instructions (ROI): 7332002
Total Destination Memory Operands: 10029285
Total Destination Memory Operands (ROI): 10029285
Total Source Memory Operands: 188863207
Total Source Memory Operands (ROI): 188863207
Number of DEPENDED LOADS: 291958
Number of DEPENDED LOADS (ROI): 291958
Number of SQ_ADDED: 10029285
Number of SQ_ADDED (ROI): 10029285
Number of LQ_ADDED: 200757764
Number of LQ_ADDED (ROI): 200757764
Number of Instructions read from trace: 600000010

ChampSim completed all CPUs

Region of Interest Statistics

CPU 0 cumulative IPC: 0.42858 instructions: 500000000 cycles: 1166643324
ITLB TOTAL     ACCESS:  145799193  HIT:  145759666  MISS:      39527
ITLB LOAD      ACCESS:  145799193  HIT:  145759666  MISS:      39527
ITLB RFO       ACCESS:          0  HIT:          0  MISS:          0
ITLB PREFETCH  ACCESS:          0  HIT:          0  MISS:          0
ITLB WRITEBACK ACCESS:          0  HIT:          0  MISS:          0
ITLB PREFETCH  REQUESTED:          0  ISSUED:          0  USEFUL:          0  USELESS:          0
ITLB TOTAL MSHR MERGED:      57366
ITLB LOAD MSHR MERGED:      57366
ITLB RFO MSHR MERGED:          0
ITLB PREFETCH MSHR MERGED:          0
ITLB WRITEBACK MSHR MERGED:          0
ITLB TOTAL ACCESSES:  145856559 HITS:  145759666 MISSES:      96893
ITLB LOAD ACCESSES:  145856559 HITS:  145759666 MISSES:      96893
ITLB RFO ACCESSES:          0 HITS:          0 MISSES:          0
ITLB PREFETCH ACCESSES:          0 HITS:          0 MISSES:          0
ITLB WRITEBACK ACCESSES:          0 HITS:          0 MISSES:          0
ITLB RQ ACCESS:  499999754
ITLB RQ TO_CACHE:  145856559
ITLB RQ MERGED:  354143195
ITLB RQ FORWARD:          0
ITLB WQ ACCESS:          0
ITLB WQ TO_CACHE:          0
ITLB WQ MERGED:          0
ITLB WQ FORWARD:          0
DTLB TOTAL     ACCESS:  135188522  HIT:  134020159  MISS:    1168363
DTLB LOAD      ACCESS:  127147393  HIT:  125988136  MISS:    1159257
DTLB RFO       ACCESS:    8041129  HIT:    8032023  MISS:       9106
DTLB PREFETCH  ACCESS:          0  HIT:          0  MISS:          0
DTLB WRITEBACK ACCESS:          0  HIT:          0  MISS:          0
DTLB PREFETCH  REQUESTED:          0  ISSUED:          0  USEFUL:          0  USELESS:          0
DTLB TOTAL MSHR MERGED:     582506
DTLB LOAD MSHR MERGED:     578125
DTLB RFO MSHR MERGED:       4381
DTLB PREFETCH MSHR MERGED:          0
DTLB WRITEBACK MSHR MERGED:          0
DTLB TOTAL ACCESSES:  135771028 HITS:  134020159 MISSES:    1750869
DTLB LOAD ACCESSES:  127725518 HITS:  125988136 MISSES:    1737382
DTLB RFO ACCESSES:    8045510 HITS:    8032023 MISSES:      13487
DTLB PREFETCH ACCESSES:          0 HITS:          0 MISSES:          0
DTLB WRITEBACK ACCESSES:          0 HITS:          0 MISSES:          0
DTLB RQ ACCESS:  165762384
DTLB RQ TO_CACHE:  135771028
DTLB RQ MERGED:   29991356
DTLB RQ FORWARD:          0
DTLB WQ ACCESS:          0
DTLB WQ TO_CACHE:          0
DTLB WQ MERGED:          0
DTLB WQ FORWARD:          0
L1D TOTAL     ACCESS:  156827876  HIT:  139512203  MISS:   17315673
L1D LOAD      ACCESS:   89948800  HIT:   78797894  MISS:   11150906
L1D RFO       ACCESS:    8497557  HIT:    8410392  MISS:      87165
L1D PREFETCH  ACCESS:   58381519  HIT:   52303917  MISS:    6077602
L1D WRITEBACK ACCESS:          0  HIT:          0  MISS:          0
L1D PREFETCH  REQUESTED:   93719710  ISSUED:   92852225  USEFUL:    1996167  USELESS:    4081509
L1D TOTAL MSHR MERGED:   15234309
L1D LOAD MSHR MERGED:    7178783
L1D RFO MSHR MERGED:     127116
L1D PREFETCH MSHR MERGED:    7928410
L1D WRITEBACK MSHR MERGED:          0
L1D TOTAL ACCESSES:  172062366 HITS:  139512383 MISSES:   32549983
L1D LOAD ACCESSES:   93719712 HITS:   78797896 MISSES:   14921816
L1D RFO ACCESSES:    8622808 HITS:    8410392 MISSES:     212416
L1D PREFETCH ACCESSES:   69719846 HITS:   52304095 MISSES:   17415751
L1D WRITEBACK ACCESSES:          0 HITS:          0 MISSES:          0
L1D RQ ACCESS:  157123178
L1D RQ TO_CACHE:   93719710
L1D RQ MERGED:   63403466
L1D RQ FORWARD:          0
L1D WQ ACCESS:    8639208
L1D WQ TO_CACHE:    8622808
L1D WQ MERGED:      16400
L1D WQ FORWARD:        180
L1I TOTAL     ACCESS:  178786810  HIT:  178123208  MISS:     663602
L1I LOAD      ACCESS:  178786810  HIT:  178123208  MISS:     663602
L1I RFO       ACCESS:          0  HIT:          0  MISS:          0
L1I PREFETCH  ACCESS:          0  HIT:          0  MISS:          0
L1I WRITEBACK ACCESS:          0  HIT:          0  MISS:          0
L1I PREFETCH  REQUESTED:          0  ISSUED:          0  USEFUL:          0  USELESS:          0
L1I TOTAL MSHR MERGED:     599501
L1I LOAD MSHR MERGED:     599501
L1I RFO MSHR MERGED:          0
L1I PREFETCH MSHR MERGED:          0
L1I WRITEBACK MSHR MERGED:          0
L1I TOTAL ACCESSES:  179386311 HITS:  178123208 MISSES:    1263103
L1I LOAD ACCESSES:  179386311 HITS:  178123208 MISSES:    1263103
L1I RFO ACCESSES:          0 HITS:          0 MISSES:          0
L1I PREFETCH ACCESSES:          0 HITS:          0 MISSES:          0
L1I WRITEBACK ACCESSES:          0 HITS:          0 MISSES:          0
L1I RQ ACCESS:  499999757
L1I RQ TO_CACHE:  179386311
L1I RQ MERGED:  320613446
L1I RQ FORWARD:          0
L1I WQ ACCESS:          0
L1I WQ TO_CACHE:          0
L1I WQ MERGED:          0
L1I WQ FORWARD:          0
L2C TOTAL     ACCESS:   19275493  HIT:    2056302  MISS:   17219191
L2C LOAD      ACCESS:    8406528  HIT:     950733  MISS:    7455795
L2C RFO       ACCESS:      85277  HIT:      53719  MISS:      31558
L2C PREFETCH  ACCESS:   10498698  HIT:     769670  MISS:    9729028
L2C WRITEBACK ACCESS:     284990  HIT:     282180  MISS:       2810
L2C PREFETCH  REQUESTED:    1015822  ISSUED:    1015822  USEFUL:     274469  USELESS:    9453654
L2C TOTAL MSHR MERGED:       1069
L2C LOAD MSHR MERGED:        230
L2C RFO MSHR MERGED:          1
L2C PREFETCH MSHR MERGED:        838
L2C WRITEBACK MSHR MERGED:          0
L2C TOTAL ACCESSES:   19278827 HITS:    2056495 MISSES:   17222332
L2C LOAD ACCESSES:    8406635 HITS:     950840 MISSES:    7455795
L2C RFO ACCESSES:      85300 HITS:      53742 MISSES:      31558
L2C PREFETCH ACCESSES:   10501902 HITS:     769733 MISSES:    9732169
L2C WRITEBACK ACCESSES:     284990 HITS:     282180 MISSES:       2810
L2C RQ ACCESS:    8491935
L2C RQ TO_CACHE:    8491805
L2C RQ MERGED:          0
L2C RQ FORWARD:          0
L2C WQ ACCESS:     284990
L2C WQ TO_CACHE:     284990
L2C WQ MERGED:          0
L2C WQ FORWARD:        193
LLC TOTAL     ACCESS:   17324513  HIT:    4708370  MISS:   12616143
LLC LOAD      ACCESS:    7455565  HIT:    4000538  MISS:    3455027
LLC RFO       ACCESS:      31557  HIT:      14079  MISS:      17478
LLC PREFETCH  ACCESS:    9731329  HIT:     614781  MISS:    9116548
LLC WRITEBACK ACCESS:     106062  HIT:      78972  MISS:      27090
LLC PREFETCH  REQUESTED:          0  ISSUED:          0  USEFUL:       1757  USELESS:    9114093
LLC TOTAL MSHR MERGED:          1
LLC LOAD MSHR MERGED:          0
LLC RFO MSHR MERGED:          0
LLC PREFETCH MSHR MERGED:          1
LLC WRITEBACK MSHR MERGED:          0
LLC TOTAL ACCESSES:   17324515 HITS:    4708370 MISSES:   12616145
LLC LOAD ACCESSES:    7455565 HITS:    4000538 MISSES:    3455027
LLC RFO ACCESSES:      31557 HITS:      14079 MISSES:      17478
LLC PREFETCH ACCESSES:    9731331 HITS:     614781 MISSES:    9116550
LLC WRITEBACK ACCESSES:     106062 HITS:      78972 MISSES:      27090
LLC 0 RQ ACCESS:    7487122
LLC 0 RQ TO_CACHE:    7487122
LLC 0 RQ MERGED:          0
LLC 0 RQ FORWARD:          0
LLC WQ ACCESS:     106062
LLC WQ TO_CACHE:     106062
LLC WQ MERGED:          0
LLC WQ FORWARD:          0
Major fault: 0 Minor fault: 6432
CPU 0 L1D next line prefetcher final stats
CPU 0 L2C PC-based stride prefetcher final stats
All Misses: 14875410
All Hits: 5668744
SD Algo Stats - Switches: 0 SRR-Repls: 3676092 BRR-Repls: 0

DRAM Statistics
 CHANNEL 0
 RQ ROW_BUFFER_HIT:    9522261  ROW_BUFFER_MISS:    3060790
 DBUS_CONGESTED:    5840242
 WQ ROW_BUFFER_HIT:       1571  ROW_BUFFER_MISS:      52647  FULL:          0

 AVG_CONGESTED_CYCLE: 12
LOADS RETIRED: 157382665
INSTR RETIRED: 500000000
