
*** ChampSim Multicore Out-of-Order Simulator ***

Warmup Instructions: 100000000
Simulation Instructions: 500000000
Number of CPUs: 1
LLC sets: 2048
LLC ways: 16
Clean RRIP Policies: 2223230022232300 Dirty RRIP Policies: 2203130022031300 PSEL Width: 10 Track Set: 4294967295 PSEL Mask: 1 Demote Mask: 1040100010401000DS Algo: 0Window size: 0
Off-chip DRAM Size: 4096 MB Channels: 1 Width: 64-bit Data Rate: 1600 MT/s

CPU 0 runs /mnt/beegfs/iconst01/spec2017/Xz.trace.gz
NOT SORTED
TRACE STRING: /mnt/beegfs/iconst01/spec2017/Xz.trace.gz
SORTED
TRACE STRING: /mnt/beegfs/iconst01/spec2017/Xz.trace.gz
INITIAL
TRACE STRING: /mnt/beegfs/iconst01/spec2017/Xz.trace.gz

champsim_seed used: 210

CPU 0 L1D next line prefetcher
CPU 0 L2C IP-based stride prefetcher
Initialize DRRIP state
Assign rand_sets[0]: 454  LLC: 2048
rand_sets[0]: 454
Assign rand_sets[1]: 1662  LLC: 2048
rand_sets[1]: 1662
Assign rand_sets[2]: 1921  LLC: 2048
rand_sets[2]: 1921
Assign rand_sets[3]: 1131  LLC: 2048
rand_sets[3]: 1131
Assign rand_sets[4]: 331  LLC: 2048
rand_sets[4]: 331
Assign rand_sets[5]: 1531  LLC: 2048
rand_sets[5]: 1531
Assign rand_sets[6]: 482  LLC: 2048
rand_sets[6]: 482
Assign rand_sets[7]: 1275  LLC: 2048
rand_sets[7]: 1275
Assign rand_sets[8]: 1876  LLC: 2048
rand_sets[8]: 1876
Assign rand_sets[9]: 2038  LLC: 2048
rand_sets[9]: 2038
Assign rand_sets[10]: 701  LLC: 2048
rand_sets[10]: 701
Assign rand_sets[11]: 479  LLC: 2048
rand_sets[11]: 479
Assign rand_sets[12]: 892  LLC: 2048
rand_sets[12]: 892
Assign rand_sets[13]: 1820  LLC: 2048
rand_sets[13]: 1820
Assign rand_sets[14]: 1505  LLC: 2048
rand_sets[14]: 1505
Assign rand_sets[15]: 1159  LLC: 2048
rand_sets[15]: 1159
Assign rand_sets[16]: 513  LLC: 2048
rand_sets[16]: 513
Assign rand_sets[17]: 703  LLC: 2048
rand_sets[17]: 703
Assign rand_sets[18]: 561  LLC: 2048
rand_sets[18]: 561
Assign rand_sets[19]: 990  LLC: 2048
rand_sets[19]: 990
Assign rand_sets[20]: 342  LLC: 2048
rand_sets[20]: 342
Assign rand_sets[21]: 882  LLC: 2048
rand_sets[21]: 882
Assign rand_sets[22]: 15  LLC: 2048
rand_sets[22]: 15
Assign rand_sets[23]: 71  LLC: 2048
rand_sets[23]: 71
Assign rand_sets[24]: 1127  LLC: 2048
rand_sets[24]: 1127
Assign rand_sets[25]: 1382  LLC: 2048
rand_sets[25]: 1382
Assign rand_sets[26]: 647  LLC: 2048
rand_sets[26]: 647
Assign rand_sets[27]: 857  LLC: 2048
rand_sets[27]: 857
Assign rand_sets[28]: 1450  LLC: 2048
rand_sets[28]: 1450
Assign rand_sets[29]: 1160  LLC: 2048
rand_sets[29]: 1160
Assign rand_sets[30]: 1852  LLC: 2048
rand_sets[30]: 1852
Assign rand_sets[31]: 1881  LLC: 2048
rand_sets[31]: 1881
Assign rand_sets[32]: 1770  LLC: 2048
rand_sets[32]: 1770
Assign rand_sets[33]: 1622  LLC: 2048
rand_sets[33]: 1622
Assign rand_sets[34]: 275  LLC: 2048
rand_sets[34]: 275
Assign rand_sets[35]: 635  LLC: 2048
rand_sets[35]: 635
Assign rand_sets[36]: 466  LLC: 2048
rand_sets[36]: 466
Assign rand_sets[37]: 1413  LLC: 2048
rand_sets[37]: 1413
Assign rand_sets[38]: 417  LLC: 2048
rand_sets[38]: 417
Assign rand_sets[39]: 472  LLC: 2048
rand_sets[39]: 472
Assign rand_sets[40]: 1340  LLC: 2048
rand_sets[40]: 1340
Assign rand_sets[41]: 852  LLC: 2048
rand_sets[41]: 852
Assign rand_sets[42]: 1365  LLC: 2048
rand_sets[42]: 1365
Assign rand_sets[43]: 47  LLC: 2048
rand_sets[43]: 47
Assign rand_sets[44]: 823  LLC: 2048
rand_sets[44]: 823
Assign rand_sets[45]: 686  LLC: 2048
rand_sets[45]: 686
Assign rand_sets[46]: 1637  LLC: 2048
rand_sets[46]: 1637
Assign rand_sets[47]: 1115  LLC: 2048
rand_sets[47]: 1115
Assign rand_sets[48]: 986  LLC: 2048
rand_sets[48]: 986
Assign rand_sets[49]: 258  LLC: 2048
rand_sets[49]: 258
Assign rand_sets[50]: 633  LLC: 2048
rand_sets[50]: 633
Assign rand_sets[51]: 920  LLC: 2048
rand_sets[51]: 920
Assign rand_sets[52]: 204  LLC: 2048
rand_sets[52]: 204
Assign rand_sets[53]: 227  LLC: 2048
rand_sets[53]: 227
Assign rand_sets[54]: 1818  LLC: 2048
rand_sets[54]: 1818
Assign rand_sets[55]: 886  LLC: 2048
rand_sets[55]: 886
Assign rand_sets[56]: 1422  LLC: 2048
rand_sets[56]: 1422
Assign rand_sets[57]: 607  LLC: 2048
rand_sets[57]: 607
Assign rand_sets[58]: 217  LLC: 2048
rand_sets[58]: 217
Assign rand_sets[59]: 1945  LLC: 2048
rand_sets[59]: 1945
Assign rand_sets[60]: 143  LLC: 2048
rand_sets[60]: 143
Assign rand_sets[61]: 1311  LLC: 2048
rand_sets[61]: 1311
Assign rand_sets[62]: 319  LLC: 2048
rand_sets[62]: 319
Assign rand_sets[63]: 1846  LLC: 2048
rand_sets[63]: 1846
 CLEAN-RRIP-POLICY-1: 2-2-2-3-2-3-0-0- CLEAN-RRIP-POLICY-2: 2-2-2-3-2-3-0-0-
 DIRTY-RRIP-POLICY-1: 2-2-0-3-1-3-0-0- DIRTY-RRIP-POLICY-2: 2-2-0-3-1-3-0-0-
 PSEL width: 10
Heartbeat CPU 0 instructions: 10000000 cycles: 4305270 heartbeat IPC: 2.32273 cumulative IPC: 2.32273 (Simulation time: 0 hr 0 min 12 sec) 
Heartbeat CPU 0 instructions: 20000000 cycles: 8617101 heartbeat IPC: 2.3192 cumulative IPC: 2.32097 (Simulation time: 0 hr 0 min 24 sec) 
Heartbeat CPU 0 instructions: 30000003 cycles: 13160981 heartbeat IPC: 2.20076 cumulative IPC: 2.27947 (Simulation time: 0 hr 0 min 36 sec) 
Heartbeat CPU 0 instructions: 40000000 cycles: 17515457 heartbeat IPC: 2.29649 cumulative IPC: 2.2837 (Simulation time: 0 hr 0 min 48 sec) 
Heartbeat CPU 0 instructions: 50000001 cycles: 21878274 heartbeat IPC: 2.2921 cumulative IPC: 2.28537 (Simulation time: 0 hr 1 min 0 sec) 
Heartbeat CPU 0 instructions: 60000000 cycles: 26178476 heartbeat IPC: 2.32547 cumulative IPC: 2.29196 (Simulation time: 0 hr 1 min 11 sec) 
Heartbeat CPU 0 instructions: 70000001 cycles: 30244371 heartbeat IPC: 2.45948 cumulative IPC: 2.31448 (Simulation time: 0 hr 1 min 22 sec) 
Heartbeat CPU 0 instructions: 80000000 cycles: 34523177 heartbeat IPC: 2.3371 cumulative IPC: 2.31728 (Simulation time: 0 hr 1 min 34 sec) 
Heartbeat CPU 0 instructions: 90000001 cycles: 38739814 heartbeat IPC: 2.37156 cumulative IPC: 2.32319 (Simulation time: 0 hr 1 min 45 sec) 
Heartbeat CPU 0 instructions: 100000000 cycles: 42980209 heartbeat IPC: 2.35827 cumulative IPC: 2.32665 (Simulation time: 0 hr 1 min 56 sec) 

Warmup complete CPU 0 instructions: 100000001 cycles: 42980210 (Simulation time: 0 hr 1 min 56 sec) 

Heartbeat CPU 0 instructions: 110000000 cycles: 53119056 heartbeat IPC: 0.986305 cumulative IPC: 0.986305 (Simulation time: 0 hr 2 min 14 sec) 
Heartbeat CPU 0 instructions: 120000000 cycles: 63760620 heartbeat IPC: 0.939712 cumulative IPC: 0.962445 (Simulation time: 0 hr 2 min 31 sec) 
Heartbeat CPU 0 instructions: 130000001 cycles: 74373639 heartbeat IPC: 0.942239 cumulative IPC: 0.955614 (Simulation time: 0 hr 2 min 48 sec) 
Heartbeat CPU 0 instructions: 140000000 cycles: 84072801 heartbeat IPC: 1.03102 cumulative IPC: 0.973411 (Simulation time: 0 hr 3 min 5 sec) 
Heartbeat CPU 0 instructions: 150000001 cycles: 94395792 heartbeat IPC: 0.968712 cumulative IPC: 0.972468 (Simulation time: 0 hr 3 min 22 sec) 
Heartbeat CPU 0 instructions: 160000000 cycles: 104462760 heartbeat IPC: 0.993348 cumulative IPC: 0.975887 (Simulation time: 0 hr 3 min 40 sec) 
Heartbeat CPU 0 instructions: 170000000 cycles: 114143645 heartbeat IPC: 1.03296 cumulative IPC: 0.983651 (Simulation time: 0 hr 3 min 57 sec) 
Heartbeat CPU 0 instructions: 180000000 cycles: 124706289 heartbeat IPC: 0.946733 cumulative IPC: 0.97888 (Simulation time: 0 hr 4 min 14 sec) 
Heartbeat CPU 0 instructions: 190000001 cycles: 134974716 heartbeat IPC: 0.973859 cumulative IPC: 0.978319 (Simulation time: 0 hr 4 min 31 sec) 
Heartbeat CPU 0 instructions: 200000000 cycles: 145557747 heartbeat IPC: 0.944909 cumulative IPC: 0.974872 (Simulation time: 0 hr 4 min 49 sec) 
Heartbeat CPU 0 instructions: 210000002 cycles: 158022413 heartbeat IPC: 0.802268 cumulative IPC: 0.956171 (Simulation time: 0 hr 5 min 7 sec) 
Heartbeat CPU 0 instructions: 220000000 cycles: 170576342 heartbeat IPC: 0.796563 cumulative IPC: 0.940467 (Simulation time: 0 hr 5 min 26 sec) 
Heartbeat CPU 0 instructions: 230000000 cycles: 182756856 heartbeat IPC: 0.820983 cumulative IPC: 0.930055 (Simulation time: 0 hr 5 min 45 sec) 
Heartbeat CPU 0 instructions: 240000000 cycles: 194909607 heartbeat IPC: 0.822859 cumulative IPC: 0.921481 (Simulation time: 0 hr 6 min 3 sec) 
Heartbeat CPU 0 instructions: 250000000 cycles: 206894930 heartbeat IPC: 0.834354 cumulative IPC: 0.91511 (Simulation time: 0 hr 6 min 21 sec) 
Heartbeat CPU 0 instructions: 260000000 cycles: 218455743 heartbeat IPC: 0.864991 cumulative IPC: 0.911808 (Simulation time: 0 hr 6 min 40 sec) 
Heartbeat CPU 0 instructions: 270000003 cycles: 230339018 heartbeat IPC: 0.841519 cumulative IPC: 0.90735 (Simulation time: 0 hr 6 min 58 sec) 
Heartbeat CPU 0 instructions: 280000000 cycles: 241900581 heartbeat IPC: 0.864935 cumulative IPC: 0.904885 (Simulation time: 0 hr 7 min 16 sec) 
Heartbeat CPU 0 instructions: 290000002 cycles: 253434171 heartbeat IPC: 0.867033 cumulative IPC: 0.90281 (Simulation time: 0 hr 7 min 34 sec) 
Heartbeat CPU 0 instructions: 300000000 cycles: 265897169 heartbeat IPC: 0.802375 cumulative IPC: 0.897195 (Simulation time: 0 hr 7 min 53 sec) 
Heartbeat CPU 0 instructions: 310000000 cycles: 278071547 heartbeat IPC: 0.821397 cumulative IPC: 0.89327 (Simulation time: 0 hr 8 min 11 sec) 
Heartbeat CPU 0 instructions: 320000000 cycles: 290738832 heartbeat IPC: 0.789435 cumulative IPC: 0.887961 (Simulation time: 0 hr 8 min 30 sec) 
Heartbeat CPU 0 instructions: 330000003 cycles: 302706511 heartbeat IPC: 0.835584 cumulative IPC: 0.885548 (Simulation time: 0 hr 8 min 48 sec) 
Heartbeat CPU 0 instructions: 340000000 cycles: 314827972 heartbeat IPC: 0.824983 cumulative IPC: 0.882847 (Simulation time: 0 hr 9 min 7 sec) 
Heartbeat CPU 0 instructions: 350000001 cycles: 325833294 heartbeat IPC: 0.908651 cumulative IPC: 0.883851 (Simulation time: 0 hr 9 min 25 sec) 
Heartbeat CPU 0 instructions: 360000000 cycles: 337627213 heartbeat IPC: 0.847894 cumulative IPC: 0.882412 (Simulation time: 0 hr 9 min 43 sec) 
Heartbeat CPU 0 instructions: 370000001 cycles: 349055451 heartbeat IPC: 0.875026 cumulative IPC: 0.882136 (Simulation time: 0 hr 10 min 1 sec) 
Heartbeat CPU 0 instructions: 380000000 cycles: 360063103 heartbeat IPC: 0.908459 cumulative IPC: 0.88305 (Simulation time: 0 hr 10 min 19 sec) 
Heartbeat CPU 0 instructions: 390000003 cycles: 370694436 heartbeat IPC: 0.940616 cumulative IPC: 0.884917 (Simulation time: 0 hr 10 min 36 sec) 
Heartbeat CPU 0 instructions: 400000000 cycles: 380920531 heartbeat IPC: 0.97789 cumulative IPC: 0.887731 (Simulation time: 0 hr 10 min 54 sec) 
Heartbeat CPU 0 instructions: 410000000 cycles: 391451097 heartbeat IPC: 0.949617 cumulative IPC: 0.889601 (Simulation time: 0 hr 11 min 12 sec) 
Heartbeat CPU 0 instructions: 420000000 cycles: 400843959 heartbeat IPC: 1.06464 cumulative IPC: 0.894195 (Simulation time: 0 hr 11 min 29 sec) 
Heartbeat CPU 0 instructions: 430000002 cycles: 409933575 heartbeat IPC: 1.10016 cumulative IPC: 0.899297 (Simulation time: 0 hr 11 min 46 sec) 
Heartbeat CPU 0 instructions: 440000000 cycles: 420216529 heartbeat IPC: 0.972483 cumulative IPC: 0.901292 (Simulation time: 0 hr 12 min 4 sec) 
Heartbeat CPU 0 instructions: 450000002 cycles: 431311141 heartbeat IPC: 0.901339 cumulative IPC: 0.901293 (Simulation time: 0 hr 12 min 21 sec) 
Heartbeat CPU 0 instructions: 460000000 cycles: 442860021 heartbeat IPC: 0.865885 cumulative IPC: 0.900271 (Simulation time: 0 hr 12 min 39 sec) 
Heartbeat CPU 0 instructions: 470000003 cycles: 453064842 heartbeat IPC: 0.979929 cumulative IPC: 0.902253 (Simulation time: 0 hr 12 min 57 sec) 
Heartbeat CPU 0 instructions: 480000000 cycles: 463613418 heartbeat IPC: 0.947995 cumulative IPC: 0.9034 (Simulation time: 0 hr 13 min 14 sec) 
Heartbeat CPU 0 instructions: 490000000 cycles: 473576263 heartbeat IPC: 1.00373 cumulative IPC: 0.905721 (Simulation time: 0 hr 13 min 31 sec) 
Heartbeat CPU 0 instructions: 500000000 cycles: 485378582 heartbeat IPC: 0.847291 cumulative IPC: 0.904162 (Simulation time: 0 hr 13 min 50 sec) 
Heartbeat CPU 0 instructions: 510000002 cycles: 497786412 heartbeat IPC: 0.805943 cumulative IPC: 0.901483 (Simulation time: 0 hr 14 min 8 sec) 
Heartbeat CPU 0 instructions: 520000000 cycles: 509645447 heartbeat IPC: 0.843239 cumulative IPC: 0.900003 (Simulation time: 0 hr 14 min 26 sec) 
Heartbeat CPU 0 instructions: 530000001 cycles: 521501151 heartbeat IPC: 0.843476 cumulative IPC: 0.898602 (Simulation time: 0 hr 14 min 45 sec) 
Heartbeat CPU 0 instructions: 540000000 cycles: 533109306 heartbeat IPC: 0.861463 cumulative IPC: 0.897723 (Simulation time: 0 hr 15 min 3 sec) 
Heartbeat CPU 0 instructions: 550000001 cycles: 544508080 heartbeat IPC: 0.877287 cumulative IPC: 0.897258 (Simulation time: 0 hr 15 min 21 sec) 
Heartbeat CPU 0 instructions: 560000000 cycles: 556079053 heartbeat IPC: 0.864231 cumulative IPC: 0.896513 (Simulation time: 0 hr 15 min 39 sec) 
Heartbeat CPU 0 instructions: 570000000 cycles: 567505656 heartbeat IPC: 0.875151 cumulative IPC: 0.896048 (Simulation time: 0 hr 15 min 56 sec) 
Heartbeat CPU 0 instructions: 580000000 cycles: 578272221 heartbeat IPC: 0.928801 cumulative IPC: 0.896707 (Simulation time: 0 hr 16 min 14 sec) 
Heartbeat CPU 0 instructions: 590000003 cycles: 589673856 heartbeat IPC: 0.877067 cumulative IPC: 0.896297 (Simulation time: 0 hr 16 min 32 sec) 
Heartbeat CPU 0 instructions: 600000000 cycles: 600259425 heartbeat IPC: 0.944682 cumulative IPC: 0.897216 (Simulation time: 0 hr 16 min 49 sec) 
Finished CPU 0 instructions: 500000001 cycles: 557279223 cumulative IPC: 0.897216 (Simulation time: 0 hr 16 min 49 sec) 

CPU 0 Branch Prediction Accuracy: 93.0095% MPKI: 10.0046
Number of Branches: 71558147 Number of Mispredictions: 5002285
Number of LOAD Instructions: 145708893
Number of LOAD Instructions (ROI): 145708893
Number of STORE Instructions: 40463820
Number of STORE Instructions (ROI): 40463820
Total Destination Memory Operands: 45240498
Total Destination Memory Operands (ROI): 45240498
Total Source Memory Operands: 145708893
Total Source Memory Operands (ROI): 145708893
Number of DEPENDED LOADS: 10674124
Number of DEPENDED LOADS (ROI): 10674124
Number of SQ_ADDED: 45240498
Number of SQ_ADDED (ROI): 45240498
Number of LQ_ADDED: 193323987
Number of LQ_ADDED (ROI): 193323987
Number of Instructions read from trace: 600000002

ChampSim completed all CPUs

Region of Interest Statistics

CPU 0 cumulative IPC: 0.897216 instructions: 500000001 cycles: 557279223
ITLB TOTAL     ACCESS:   77992090  HIT:   77992089  MISS:          1
ITLB LOAD      ACCESS:   77992090  HIT:   77992089  MISS:          1
ITLB RFO       ACCESS:          0  HIT:          0  MISS:          0
ITLB PREFETCH  ACCESS:          0  HIT:          0  MISS:          0
ITLB WRITEBACK ACCESS:          0  HIT:          0  MISS:          0
ITLB PREFETCH  REQUESTED:          0  ISSUED:          0  USEFUL:          0  USELESS:          0
ITLB TOTAL MSHR MERGED:          0
ITLB LOAD MSHR MERGED:          0
ITLB RFO MSHR MERGED:          0
ITLB PREFETCH MSHR MERGED:          0
ITLB WRITEBACK MSHR MERGED:          0
ITLB TOTAL ACCESSES:   77992090 HITS:   77992089 MISSES:          1
ITLB LOAD ACCESSES:   77992090 HITS:   77992089 MISSES:          1
ITLB RFO ACCESSES:          0 HITS:          0 MISSES:          0
ITLB PREFETCH ACCESSES:          0 HITS:          0 MISSES:          0
ITLB WRITEBACK ACCESSES:          0 HITS:          0 MISSES:          0
ITLB RQ ACCESS:  499999995
ITLB RQ TO_CACHE:   77992090
ITLB RQ MERGED:  422007905
ITLB RQ FORWARD:          0
ITLB WQ ACCESS:          0
ITLB WQ TO_CACHE:          0
ITLB WQ MERGED:          0
ITLB WQ FORWARD:          0
DTLB TOTAL     ACCESS:   98671323  HIT:   97789987  MISS:     881336
DTLB LOAD      ACCESS:   70891457  HIT:   70029924  MISS:     861533
DTLB RFO       ACCESS:   27779866  HIT:   27760063  MISS:      19803
DTLB PREFETCH  ACCESS:          0  HIT:          0  MISS:          0
DTLB WRITEBACK ACCESS:          0  HIT:          0  MISS:          0
DTLB PREFETCH  REQUESTED:          0  ISSUED:          0  USEFUL:          0  USELESS:          0
DTLB TOTAL MSHR MERGED:      87390
DTLB LOAD MSHR MERGED:      65648
DTLB RFO MSHR MERGED:      21742
DTLB PREFETCH MSHR MERGED:          0
DTLB WRITEBACK MSHR MERGED:          0
DTLB TOTAL ACCESSES:   98758713 HITS:   97789987 MISSES:     968726
DTLB LOAD ACCESSES:   70957105 HITS:   70029924 MISSES:     927181
DTLB RFO ACCESSES:   27801608 HITS:   27760063 MISSES:      41545
DTLB PREFETCH ACCESSES:          0 HITS:          0 MISSES:          0
DTLB WRITEBACK ACCESSES:          0 HITS:          0 MISSES:          0
DTLB RQ ACCESS:  150270933
DTLB RQ TO_CACHE:   98758713
DTLB RQ MERGED:   51512220
DTLB RQ FORWARD:          0
DTLB WQ ACCESS:          0
DTLB WQ TO_CACHE:          0
DTLB WQ MERGED:          0
DTLB WQ FORWARD:          0
L1D TOTAL     ACCESS:  173323751  HIT:  169155128  MISS:    4168623
L1D LOAD      ACCESS:   75279769  HIT:   73398365  MISS:    1881404
L1D RFO       ACCESS:   36778301  HIT:   36571697  MISS:     206604
L1D PREFETCH  ACCESS:   61265681  HIT:   59185066  MISS:    2080615
L1D WRITEBACK ACCESS:          0  HIT:          0  MISS:          0
L1D PREFETCH  REQUESTED:   75383158  ISSUED:   74818964  USEFUL:     415061  USELESS:    1665543
L1D TOTAL MSHR MERGED:     374905
L1D LOAD MSHR MERGED:     112230
L1D RFO MSHR MERGED:     133070
L1D PREFETCH MSHR MERGED:     129605
L1D WRITEBACK MSHR MERGED:          0
L1D TOTAL ACCESSES:  173850430 HITS:  169306902 MISSES:    4543528
L1D LOAD ACCESSES:   75386240 HITS:   73401447 MISSES:    1984793
L1D RFO ACCESSES:   36909978 HITS:   36571697 MISSES:     338281
L1D PREFETCH ACCESSES:   61554212 HITS:   59333758 MISSES:    2220454
L1D WRITEBACK ACCESSES:          0 HITS:          0 MISSES:          0
L1D RQ ACCESS:  112608530
L1D RQ TO_CACHE:   75383158
L1D RQ MERGED:   37222290
L1D RQ FORWARD:          0
L1D WQ ACCESS:   37662403
L1D WQ TO_CACHE:   36909978
L1D WQ MERGED:     752425
L1D WQ FORWARD:     151774
L1I TOTAL     ACCESS:  100700094  HIT:  100700069  MISS:         25
L1I LOAD      ACCESS:  100700094  HIT:  100700069  MISS:         25
L1I RFO       ACCESS:          0  HIT:          0  MISS:          0
L1I PREFETCH  ACCESS:          0  HIT:          0  MISS:          0
L1I WRITEBACK ACCESS:          0  HIT:          0  MISS:          0
L1I PREFETCH  REQUESTED:          0  ISSUED:          0  USEFUL:          0  USELESS:          0
L1I TOTAL MSHR MERGED:         10
L1I LOAD MSHR MERGED:         10
L1I RFO MSHR MERGED:          0
L1I PREFETCH MSHR MERGED:          0
L1I WRITEBACK MSHR MERGED:          0
L1I TOTAL ACCESSES:  100700104 HITS:  100700069 MISSES:         35
L1I LOAD ACCESSES:  100700104 HITS:  100700069 MISSES:         35
L1I RFO ACCESSES:          0 HITS:          0 MISSES:          0
L1I PREFETCH ACCESSES:          0 HITS:          0 MISSES:          0
L1I WRITEBACK ACCESSES:          0 HITS:          0 MISSES:          0
L1I RQ ACCESS:  499999995
L1I RQ TO_CACHE:  100700104
L1I RQ MERGED:  399299891
L1I RQ FORWARD:          0
L1I WQ ACCESS:          0
L1I WQ TO_CACHE:          0
L1I WQ MERGED:          0
L1I WQ FORWARD:          0
L2C TOTAL     ACCESS:    5852557  HIT:    4009376  MISS:    1843181
L2C LOAD      ACCESS:    1872464  HIT:    1061504  MISS:     810960
L2C RFO       ACCESS:     205202  HIT:     100561  MISS:     104641
L2C PREFETCH  ACCESS:    2169258  HIT:    1246097  MISS:     923161
L2C WRITEBACK ACCESS:    1605633  HIT:    1601214  MISS:       4419
L2C PREFETCH  REQUESTED:      91709  ISSUED:      91709  USEFUL:      86451  USELESS:     836733
L2C TOTAL MSHR MERGED:       1037
L2C LOAD MSHR MERGED:        257
L2C RFO MSHR MERGED:          0
L2C PREFETCH MSHR MERGED:        780
L2C WRITEBACK MSHR MERGED:          0
L2C TOTAL ACCESSES:    5853915 HITS:    4009546 MISSES:    1844369
L2C LOAD ACCESSES:    1872588 HITS:    1061628 MISSES:     810960
L2C RFO ACCESSES:     205211 HITS:     100570 MISSES:     104641
L2C PREFETCH ACCESSES:    2170483 HITS:    1246134 MISSES:     924349
L2C WRITEBACK ACCESSES:    1605633 HITS:    1601214 MISSES:       4419
L2C RQ ACCESS:    2077799
L2C RQ TO_CACHE:    2077666
L2C RQ MERGED:          0
L2C RQ FORWARD:          0
L2C WQ ACCESS:    1605633
L2C WQ TO_CACHE:    1605633
L2C WQ MERGED:          0
L2C WQ FORWARD:        170
LLC TOTAL     ACCESS:    2673560  HIT:    2173150  MISS:     500410
LLC LOAD      ACCESS:     810695  HIT:     633154  MISS:     177541
LLC RFO       ACCESS:     104641  HIT:      59987  MISS:      44654
LLC PREFETCH  ACCESS:     923549  HIT:     675090  MISS:     248459
LLC WRITEBACK ACCESS:     834675  HIT:     804919  MISS:      29756
LLC PREFETCH  REQUESTED:          0  ISSUED:          0  USEFUL:       8068  USELESS:     240698
LLC TOTAL MSHR MERGED:          6
LLC LOAD MSHR MERGED:          1
LLC RFO MSHR MERGED:          0
LLC PREFETCH MSHR MERGED:          5
LLC WRITEBACK MSHR MERGED:          0
LLC TOTAL ACCESSES:    2673577 HITS:    2173161 MISSES:     500416
LLC LOAD ACCESSES:     810703 HITS:     633162 MISSES:     177541
LLC RFO ACCESSES:     104641 HITS:      59987 MISSES:      44654
LLC PREFETCH ACCESSES:     923558 HITS:     675093 MISSES:     248465
LLC WRITEBACK ACCESSES:     834675 HITS:     804919 MISSES:      29756
LLC 0 RQ ACCESS:     915344
LLC 0 RQ TO_CACHE:     915336
LLC 0 RQ MERGED:          0
LLC 0 RQ FORWARD:          0
LLC WQ ACCESS:     834675
LLC WQ TO_CACHE:     834675
LLC WQ MERGED:          0
LLC WQ FORWARD:         11
Major fault: 0 Minor fault: 11278
CPU 0 L1D next line prefetcher final stats
CPU 0 L2C PC-based stride prefetcher final stats
All Misses: 614400
All Hits: 2440178
SD Algo Stats - Switches: 0 SRR-Repls: 211144 BRR-Repls: 0

DRAM Statistics
 CHANNEL 0
 RQ ROW_BUFFER_HIT:      29671  ROW_BUFFER_MISS:     440590
 DBUS_CONGESTED:     357090
 WQ ROW_BUFFER_HIT:      14765  ROW_BUFFER_MISS:     209735  FULL:          0

 AVG_CONGESTED_CYCLE: 13
LOADS RETIRED: 121769268
INSTR RETIRED: 500000000
