
*** ChampSim Multicore Out-of-Order Simulator ***

Warmup Instructions: 100000000
Simulation Instructions: 500000000
Number of CPUs: 1
LLC sets: 2048
LLC ways: 16
Clean RRIP Policies: 2213230222132302 Dirty RRIP Policies: 2203130222031302 PSEL Width: 10 Track Set: 4294967295 PSEL Mask: 1 Demote Mask: 3042100030421000DS Algo: 0Window size: 0
Off-chip DRAM Size: 4096 MB Channels: 1 Width: 64-bit Data Rate: 1600 MT/s

CPU 0 runs /mnt/beegfs/iconst01/spec2017/Gcc.trace.gz
NOT SORTED
TRACE STRING: /mnt/beegfs/iconst01/spec2017/Gcc.trace.gz
SORTED
TRACE STRING: /mnt/beegfs/iconst01/spec2017/Gcc.trace.gz
INITIAL
TRACE STRING: /mnt/beegfs/iconst01/spec2017/Gcc.trace.gz

champsim_seed used: 269

CPU 0 L1D next line prefetcher
CPU 0 L2C IP-based stride prefetcher
Initialize DRRIP state
Assign rand_sets[0]: 454  LLC: 2048
rand_sets[0]: 454
Assign rand_sets[1]: 1662  LLC: 2048
rand_sets[1]: 1662
Assign rand_sets[2]: 1921  LLC: 2048
rand_sets[2]: 1921
Assign rand_sets[3]: 1131  LLC: 2048
rand_sets[3]: 1131
Assign rand_sets[4]: 331  LLC: 2048
rand_sets[4]: 331
Assign rand_sets[5]: 1531  LLC: 2048
rand_sets[5]: 1531
Assign rand_sets[6]: 482  LLC: 2048
rand_sets[6]: 482
Assign rand_sets[7]: 1275  LLC: 2048
rand_sets[7]: 1275
Assign rand_sets[8]: 1876  LLC: 2048
rand_sets[8]: 1876
Assign rand_sets[9]: 2038  LLC: 2048
rand_sets[9]: 2038
Assign rand_sets[10]: 701  LLC: 2048
rand_sets[10]: 701
Assign rand_sets[11]: 479  LLC: 2048
rand_sets[11]: 479
Assign rand_sets[12]: 892  LLC: 2048
rand_sets[12]: 892
Assign rand_sets[13]: 1820  LLC: 2048
rand_sets[13]: 1820
Assign rand_sets[14]: 1505  LLC: 2048
rand_sets[14]: 1505
Assign rand_sets[15]: 1159  LLC: 2048
rand_sets[15]: 1159
Assign rand_sets[16]: 513  LLC: 2048
rand_sets[16]: 513
Assign rand_sets[17]: 703  LLC: 2048
rand_sets[17]: 703
Assign rand_sets[18]: 561  LLC: 2048
rand_sets[18]: 561
Assign rand_sets[19]: 990  LLC: 2048
rand_sets[19]: 990
Assign rand_sets[20]: 342  LLC: 2048
rand_sets[20]: 342
Assign rand_sets[21]: 882  LLC: 2048
rand_sets[21]: 882
Assign rand_sets[22]: 15  LLC: 2048
rand_sets[22]: 15
Assign rand_sets[23]: 71  LLC: 2048
rand_sets[23]: 71
Assign rand_sets[24]: 1127  LLC: 2048
rand_sets[24]: 1127
Assign rand_sets[25]: 1382  LLC: 2048
rand_sets[25]: 1382
Assign rand_sets[26]: 647  LLC: 2048
rand_sets[26]: 647
Assign rand_sets[27]: 857  LLC: 2048
rand_sets[27]: 857
Assign rand_sets[28]: 1450  LLC: 2048
rand_sets[28]: 1450
Assign rand_sets[29]: 1160  LLC: 2048
rand_sets[29]: 1160
Assign rand_sets[30]: 1852  LLC: 2048
rand_sets[30]: 1852
Assign rand_sets[31]: 1881  LLC: 2048
rand_sets[31]: 1881
Assign rand_sets[32]: 1770  LLC: 2048
rand_sets[32]: 1770
Assign rand_sets[33]: 1622  LLC: 2048
rand_sets[33]: 1622
Assign rand_sets[34]: 275  LLC: 2048
rand_sets[34]: 275
Assign rand_sets[35]: 635  LLC: 2048
rand_sets[35]: 635
Assign rand_sets[36]: 466  LLC: 2048
rand_sets[36]: 466
Assign rand_sets[37]: 1413  LLC: 2048
rand_sets[37]: 1413
Assign rand_sets[38]: 417  LLC: 2048
rand_sets[38]: 417
Assign rand_sets[39]: 472  LLC: 2048
rand_sets[39]: 472
Assign rand_sets[40]: 1340  LLC: 2048
rand_sets[40]: 1340
Assign rand_sets[41]: 852  LLC: 2048
rand_sets[41]: 852
Assign rand_sets[42]: 1365  LLC: 2048
rand_sets[42]: 1365
Assign rand_sets[43]: 47  LLC: 2048
rand_sets[43]: 47
Assign rand_sets[44]: 823  LLC: 2048
rand_sets[44]: 823
Assign rand_sets[45]: 686  LLC: 2048
rand_sets[45]: 686
Assign rand_sets[46]: 1637  LLC: 2048
rand_sets[46]: 1637
Assign rand_sets[47]: 1115  LLC: 2048
rand_sets[47]: 1115
Assign rand_sets[48]: 986  LLC: 2048
rand_sets[48]: 986
Assign rand_sets[49]: 258  LLC: 2048
rand_sets[49]: 258
Assign rand_sets[50]: 633  LLC: 2048
rand_sets[50]: 633
Assign rand_sets[51]: 920  LLC: 2048
rand_sets[51]: 920
Assign rand_sets[52]: 204  LLC: 2048
rand_sets[52]: 204
Assign rand_sets[53]: 227  LLC: 2048
rand_sets[53]: 227
Assign rand_sets[54]: 1818  LLC: 2048
rand_sets[54]: 1818
Assign rand_sets[55]: 886  LLC: 2048
rand_sets[55]: 886
Assign rand_sets[56]: 1422  LLC: 2048
rand_sets[56]: 1422
Assign rand_sets[57]: 607  LLC: 2048
rand_sets[57]: 607
Assign rand_sets[58]: 217  LLC: 2048
rand_sets[58]: 217
Assign rand_sets[59]: 1945  LLC: 2048
rand_sets[59]: 1945
Assign rand_sets[60]: 143  LLC: 2048
rand_sets[60]: 143
Assign rand_sets[61]: 1311  LLC: 2048
rand_sets[61]: 1311
Assign rand_sets[62]: 319  LLC: 2048
rand_sets[62]: 319
Assign rand_sets[63]: 1846  LLC: 2048
rand_sets[63]: 1846
 CLEAN-RRIP-POLICY-1: 2-2-1-3-2-3-0-2- CLEAN-RRIP-POLICY-2: 2-2-1-3-2-3-0-2-
 DIRTY-RRIP-POLICY-1: 2-2-0-3-1-3-0-2- DIRTY-RRIP-POLICY-2: 2-2-0-3-1-3-0-2-
 PSEL width: 10
Heartbeat CPU 0 instructions: 10000001 cycles: 7315980 heartbeat IPC: 1.36687 cumulative IPC: 1.36687 (Simulation time: 0 hr 0 min 14 sec) 
Heartbeat CPU 0 instructions: 20000000 cycles: 14307772 heartbeat IPC: 1.43025 cumulative IPC: 1.39784 (Simulation time: 0 hr 0 min 28 sec) 
Heartbeat CPU 0 instructions: 30000001 cycles: 21020735 heartbeat IPC: 1.48966 cumulative IPC: 1.42716 (Simulation time: 0 hr 0 min 43 sec) 
Heartbeat CPU 0 instructions: 40000000 cycles: 27481508 heartbeat IPC: 1.5478 cumulative IPC: 1.45552 (Simulation time: 0 hr 0 min 58 sec) 
Heartbeat CPU 0 instructions: 50000001 cycles: 33583304 heartbeat IPC: 1.63886 cumulative IPC: 1.48884 (Simulation time: 0 hr 1 min 13 sec) 
Heartbeat CPU 0 instructions: 60000000 cycles: 40064558 heartbeat IPC: 1.54291 cumulative IPC: 1.49758 (Simulation time: 0 hr 1 min 28 sec) 
Heartbeat CPU 0 instructions: 70000000 cycles: 47103942 heartbeat IPC: 1.42058 cumulative IPC: 1.48608 (Simulation time: 0 hr 1 min 42 sec) 
Heartbeat CPU 0 instructions: 80000000 cycles: 54194937 heartbeat IPC: 1.41024 cumulative IPC: 1.47615 (Simulation time: 0 hr 1 min 56 sec) 
Heartbeat CPU 0 instructions: 90000003 cycles: 61200459 heartbeat IPC: 1.42745 cumulative IPC: 1.47058 (Simulation time: 0 hr 2 min 10 sec) 
Heartbeat CPU 0 instructions: 100000000 cycles: 68368706 heartbeat IPC: 1.39504 cumulative IPC: 1.46266 (Simulation time: 0 hr 2 min 24 sec) 

Warmup complete CPU 0 instructions: 100000004 cycles: 68368707 (Simulation time: 0 hr 2 min 24 sec) 

Heartbeat CPU 0 instructions: 110000003 cycles: 96094097 heartbeat IPC: 0.36068 cumulative IPC: 0.36068 (Simulation time: 0 hr 2 min 52 sec) 
Heartbeat CPU 0 instructions: 120000000 cycles: 123567799 heartbeat IPC: 0.363984 cumulative IPC: 0.362325 (Simulation time: 0 hr 3 min 19 sec) 
Heartbeat CPU 0 instructions: 130000000 cycles: 148568838 heartbeat IPC: 0.399983 cumulative IPC: 0.374064 (Simulation time: 0 hr 3 min 46 sec) 
Heartbeat CPU 0 instructions: 140000000 cycles: 178281713 heartbeat IPC: 0.336554 cumulative IPC: 0.363924 (Simulation time: 0 hr 4 min 13 sec) 
Heartbeat CPU 0 instructions: 150000000 cycles: 208275529 heartbeat IPC: 0.333402 cumulative IPC: 0.357381 (Simulation time: 0 hr 4 min 40 sec) 
Heartbeat CPU 0 instructions: 160000000 cycles: 235733053 heartbeat IPC: 0.364199 cumulative IPC: 0.358499 (Simulation time: 0 hr 5 min 6 sec) 
Heartbeat CPU 0 instructions: 170000001 cycles: 263785128 heartbeat IPC: 0.35648 cumulative IPC: 0.358209 (Simulation time: 0 hr 5 min 35 sec) 
Heartbeat CPU 0 instructions: 180000000 cycles: 292285190 heartbeat IPC: 0.350876 cumulative IPC: 0.357276 (Simulation time: 0 hr 6 min 3 sec) 
Heartbeat CPU 0 instructions: 190000002 cycles: 320372810 heartbeat IPC: 0.356029 cumulative IPC: 0.357137 (Simulation time: 0 hr 6 min 30 sec) 
Heartbeat CPU 0 instructions: 200000000 cycles: 348783809 heartbeat IPC: 0.351976 cumulative IPC: 0.356614 (Simulation time: 0 hr 6 min 58 sec) 
Heartbeat CPU 0 instructions: 210000002 cycles: 376718336 heartbeat IPC: 0.35798 cumulative IPC: 0.356738 (Simulation time: 0 hr 7 min 25 sec) 
Heartbeat CPU 0 instructions: 220000000 cycles: 406110205 heartbeat IPC: 0.34023 cumulative IPC: 0.355301 (Simulation time: 0 hr 7 min 51 sec) 
Heartbeat CPU 0 instructions: 230000000 cycles: 433699264 heartbeat IPC: 0.362463 cumulative IPC: 0.355842 (Simulation time: 0 hr 8 min 18 sec) 
Heartbeat CPU 0 instructions: 240000000 cycles: 459652112 heartbeat IPC: 0.385314 cumulative IPC: 0.357797 (Simulation time: 0 hr 8 min 43 sec) 
Heartbeat CPU 0 instructions: 250000000 cycles: 489797435 heartbeat IPC: 0.331726 cumulative IPC: 0.355932 (Simulation time: 0 hr 9 min 12 sec) 
Heartbeat CPU 0 instructions: 260000000 cycles: 516889455 heartbeat IPC: 0.369112 cumulative IPC: 0.356728 (Simulation time: 0 hr 9 min 39 sec) 
Heartbeat CPU 0 instructions: 270000003 cycles: 545338592 heartbeat IPC: 0.351505 cumulative IPC: 0.356417 (Simulation time: 0 hr 10 min 7 sec) 
Heartbeat CPU 0 instructions: 280000000 cycles: 573590044 heartbeat IPC: 0.353964 cumulative IPC: 0.356279 (Simulation time: 0 hr 10 min 35 sec) 
Heartbeat CPU 0 instructions: 290000000 cycles: 602561240 heartbeat IPC: 0.34517 cumulative IPC: 0.355677 (Simulation time: 0 hr 11 min 3 sec) 
Heartbeat CPU 0 instructions: 300000000 cycles: 632792511 heartbeat IPC: 0.330783 cumulative IPC: 0.354344 (Simulation time: 0 hr 11 min 30 sec) 
Heartbeat CPU 0 instructions: 310000001 cycles: 662385528 heartbeat IPC: 0.337918 cumulative IPC: 0.353525 (Simulation time: 0 hr 11 min 57 sec) 
Heartbeat CPU 0 instructions: 320000000 cycles: 690800244 heartbeat IPC: 0.35193 cumulative IPC: 0.353453 (Simulation time: 0 hr 12 min 24 sec) 
Heartbeat CPU 0 instructions: 330000000 cycles: 719550212 heartbeat IPC: 0.347826 cumulative IPC: 0.353204 (Simulation time: 0 hr 12 min 50 sec) 
Heartbeat CPU 0 instructions: 340000000 cycles: 748930050 heartbeat IPC: 0.340369 cumulative IPC: 0.35265 (Simulation time: 0 hr 13 min 17 sec) 
Heartbeat CPU 0 instructions: 350000003 cycles: 776049236 heartbeat IPC: 0.368743 cumulative IPC: 0.353267 (Simulation time: 0 hr 13 min 43 sec) 
Heartbeat CPU 0 instructions: 360000000 cycles: 804456394 heartbeat IPC: 0.352024 cumulative IPC: 0.353219 (Simulation time: 0 hr 14 min 9 sec) 
Heartbeat CPU 0 instructions: 370000000 cycles: 832797572 heartbeat IPC: 0.352843 cumulative IPC: 0.353205 (Simulation time: 0 hr 14 min 34 sec) 
Heartbeat CPU 0 instructions: 380000000 cycles: 861411929 heartbeat IPC: 0.349475 cumulative IPC: 0.35307 (Simulation time: 0 hr 15 min 0 sec) 
Heartbeat CPU 0 instructions: 390000001 cycles: 889101240 heartbeat IPC: 0.36115 cumulative IPC: 0.353343 (Simulation time: 0 hr 15 min 25 sec) 
Heartbeat CPU 0 instructions: 400000000 cycles: 917823297 heartbeat IPC: 0.348164 cumulative IPC: 0.353168 (Simulation time: 0 hr 15 min 50 sec) 
Heartbeat CPU 0 instructions: 410000001 cycles: 945189908 heartbeat IPC: 0.365409 cumulative IPC: 0.35355 (Simulation time: 0 hr 16 min 15 sec) 
Heartbeat CPU 0 instructions: 420000000 cycles: 972574089 heartbeat IPC: 0.365174 cumulative IPC: 0.353902 (Simulation time: 0 hr 16 min 40 sec) 
Heartbeat CPU 0 instructions: 430000002 cycles: 1000356009 heartbeat IPC: 0.359946 cumulative IPC: 0.354082 (Simulation time: 0 hr 17 min 5 sec) 
Heartbeat CPU 0 instructions: 440000000 cycles: 1030023674 heartbeat IPC: 0.337067 cumulative IPC: 0.353557 (Simulation time: 0 hr 17 min 31 sec) 
Heartbeat CPU 0 instructions: 450000002 cycles: 1059379242 heartbeat IPC: 0.340651 cumulative IPC: 0.353175 (Simulation time: 0 hr 17 min 56 sec) 
Heartbeat CPU 0 instructions: 460000000 cycles: 1087165209 heartbeat IPC: 0.359894 cumulative IPC: 0.353358 (Simulation time: 0 hr 18 min 21 sec) 
Heartbeat CPU 0 instructions: 470000000 cycles: 1114853995 heartbeat IPC: 0.361157 cumulative IPC: 0.353564 (Simulation time: 0 hr 18 min 46 sec) 
Heartbeat CPU 0 instructions: 480000000 cycles: 1142792168 heartbeat IPC: 0.357933 cumulative IPC: 0.353678 (Simulation time: 0 hr 19 min 11 sec) 
Heartbeat CPU 0 instructions: 490000000 cycles: 1170444723 heartbeat IPC: 0.36163 cumulative IPC: 0.353878 (Simulation time: 0 hr 19 min 36 sec) 
Heartbeat CPU 0 instructions: 500000000 cycles: 1198815664 heartbeat IPC: 0.352473 cumulative IPC: 0.353842 (Simulation time: 0 hr 20 min 1 sec) 
Heartbeat CPU 0 instructions: 510000000 cycles: 1232879577 heartbeat IPC: 0.293566 cumulative IPC: 0.352079 (Simulation time: 0 hr 20 min 29 sec) 
Heartbeat CPU 0 instructions: 520000000 cycles: 1260946127 heartbeat IPC: 0.356296 cumulative IPC: 0.352178 (Simulation time: 0 hr 20 min 55 sec) 
Heartbeat CPU 0 instructions: 530000001 cycles: 1290842437 heartbeat IPC: 0.334489 cumulative IPC: 0.351746 (Simulation time: 0 hr 21 min 22 sec) 
Heartbeat CPU 0 instructions: 540000000 cycles: 1319161874 heartbeat IPC: 0.353114 cumulative IPC: 0.351777 (Simulation time: 0 hr 21 min 48 sec) 
Heartbeat CPU 0 instructions: 550000001 cycles: 1348405929 heartbeat IPC: 0.34195 cumulative IPC: 0.351552 (Simulation time: 0 hr 22 min 15 sec) 
Heartbeat CPU 0 instructions: 560000000 cycles: 1373860950 heartbeat IPC: 0.39285 cumulative IPC: 0.352358 (Simulation time: 0 hr 22 min 41 sec) 
Heartbeat CPU 0 instructions: 570000000 cycles: 1403541636 heartbeat IPC: 0.336919 cumulative IPC: 0.352014 (Simulation time: 0 hr 23 min 7 sec) 
Heartbeat CPU 0 instructions: 580000000 cycles: 1431605325 heartbeat IPC: 0.356332 cumulative IPC: 0.352103 (Simulation time: 0 hr 23 min 34 sec) 
Heartbeat CPU 0 instructions: 590000001 cycles: 1456372775 heartbeat IPC: 0.403756 cumulative IPC: 0.353025 (Simulation time: 0 hr 23 min 58 sec) 
Heartbeat CPU 0 instructions: 600000000 cycles: 1482485716 heartbeat IPC: 0.382952 cumulative IPC: 0.353578 (Simulation time: 0 hr 24 min 23 sec) 
Finished CPU 0 instructions: 500000000 cycles: 1414117031 cumulative IPC: 0.353578 (Simulation time: 0 hr 24 min 23 sec) 

CPU 0 Branch Prediction Accuracy: 86.4311% MPKI: 26.2662
Number of Branches: 96788573 Number of Mispredictions: 13133102
Number of LOAD Instructions: 164682285
Number of LOAD Instructions (ROI): 164682285
Number of STORE Instructions: 78194750
Number of STORE Instructions (ROI): 78194750
Total Destination Memory Operands: 83268534
Total Destination Memory Operands (ROI): 83268534
Total Source Memory Operands: 164712438
Total Source Memory Operands (ROI): 164712438
Number of DEPENDED LOADS: 7056523
Number of DEPENDED LOADS (ROI): 7056523
Number of SQ_ADDED: 83268522
Number of SQ_ADDED (ROI): 83268522
Number of LQ_ADDED: 236732943
Number of LQ_ADDED (ROI): 236732943
Number of Instructions read from trace: 600000066

ChampSim completed all CPUs

Region of Interest Statistics

CPU 0 cumulative IPC: 0.353578 instructions: 500000000 cycles: 1414117031
ITLB TOTAL     ACCESS:  100520231  HIT:  100315785  MISS:     204446
ITLB LOAD      ACCESS:  100520231  HIT:  100315785  MISS:     204446
ITLB RFO       ACCESS:          0  HIT:          0  MISS:          0
ITLB PREFETCH  ACCESS:          0  HIT:          0  MISS:          0
ITLB WRITEBACK ACCESS:          0  HIT:          0  MISS:          0
ITLB PREFETCH  REQUESTED:          0  ISSUED:          0  USEFUL:          0  USELESS:          0
ITLB TOTAL MSHR MERGED:     172424
ITLB LOAD MSHR MERGED:     172424
ITLB RFO MSHR MERGED:          0
ITLB PREFETCH MSHR MERGED:          0
ITLB WRITEBACK MSHR MERGED:          0
ITLB TOTAL ACCESSES:  100692655 HITS:  100315785 MISSES:     376870
ITLB LOAD ACCESSES:  100692655 HITS:  100315785 MISSES:     376870
ITLB RFO ACCESSES:          0 HITS:          0 MISSES:          0
ITLB PREFETCH ACCESSES:          0 HITS:          0 MISSES:          0
ITLB WRITEBACK ACCESSES:          0 HITS:          0 MISSES:          0
ITLB RQ ACCESS:  500000057
ITLB RQ TO_CACHE:  100692655
ITLB RQ MERGED:  399307402
ITLB RQ FORWARD:          0
ITLB WQ ACCESS:          0
ITLB WQ TO_CACHE:          0
ITLB WQ MERGED:          0
ITLB WQ FORWARD:          0
DTLB TOTAL     ACCESS:  165341153  HIT:  164706801  MISS:     634352
DTLB LOAD      ACCESS:  106295407  HIT:  105725506  MISS:     569901
DTLB RFO       ACCESS:   59045746  HIT:   58981295  MISS:      64451
DTLB PREFETCH  ACCESS:          0  HIT:          0  MISS:          0
DTLB WRITEBACK ACCESS:          0  HIT:          0  MISS:          0
DTLB PREFETCH  REQUESTED:          0  ISSUED:          0  USEFUL:          0  USELESS:          0
DTLB TOTAL MSHR MERGED:      99875
DTLB LOAD MSHR MERGED:      59383
DTLB RFO MSHR MERGED:      40492
DTLB PREFETCH MSHR MERGED:          0
DTLB WRITEBACK MSHR MERGED:          0
DTLB TOTAL ACCESSES:  165441028 HITS:  164706801 MISSES:     734227
DTLB LOAD ACCESSES:  106354790 HITS:  105725506 MISSES:     629284
DTLB RFO ACCESSES:   59086238 HITS:   58981295 MISSES:     104943
DTLB PREFETCH ACCESSES:          0 HITS:          0 MISSES:          0
DTLB WRITEBACK ACCESSES:          0 HITS:          0 MISSES:          0
DTLB RQ ACCESS:  200314363
DTLB RQ TO_CACHE:  165441028
DTLB RQ MERGED:   34873335
DTLB RQ FORWARD:          0
DTLB WQ ACCESS:          0
DTLB WQ TO_CACHE:          0
DTLB WQ MERGED:          0
DTLB WQ FORWARD:          0
L1D TOTAL     ACCESS:  281859179  HIT:  273949778  MISS:    7909401
L1D LOAD      ACCESS:  110423130  HIT:  107145573  MISS:    3277557
L1D RFO       ACCESS:   67130203  HIT:   66240044  MISS:     890159
L1D PREFETCH  ACCESS:  104305846  HIT:  100564161  MISS:    3741685
L1D WRITEBACK ACCESS:          0  HIT:          0  MISS:          0
L1D PREFETCH  REQUESTED:  110821380  ISSUED:  109122059  USEFUL:    1662285  USELESS:    2079364
L1D TOTAL MSHR MERGED:    2853735
L1D LOAD MSHR MERGED:     495287
L1D RFO MSHR MERGED:    1855340
L1D PREFETCH MSHR MERGED:     503108
L1D WRITEBACK MSHR MERGED:          0
L1D TOTAL ACCESSES:  284740323 HITS:  273977187 MISSES:   10763136
L1D LOAD ACCESSES:  110822805 HITS:  107146998 MISSES:    3675807
L1D RFO ACCESSES:   68974157 HITS:   66240044 MISSES:    2734113
L1D PREFETCH ACCESSES:  104943361 HITS:  100590145 MISSES:    4353216
L1D WRITEBACK ACCESSES:          0 HITS:          0 MISSES:          0
L1D RQ ACCESS:  130761760
L1D RQ TO_CACHE:  110821383
L1D RQ MERGED:   19938952
L1D RQ FORWARD:          0
L1D WQ ACCESS:   69552603
L1D WQ TO_CACHE:   68974158
L1D WQ MERGED:     578445
L1D WQ FORWARD:      27409
L1I TOTAL     ACCESS:  126567284  HIT:  122328730  MISS:    4238554
L1I LOAD      ACCESS:  126567284  HIT:  122328730  MISS:    4238554
L1I RFO       ACCESS:          0  HIT:          0  MISS:          0
L1I PREFETCH  ACCESS:          0  HIT:          0  MISS:          0
L1I WRITEBACK ACCESS:          0  HIT:          0  MISS:          0
L1I PREFETCH  REQUESTED:          0  ISSUED:          0  USEFUL:          0  USELESS:          0
L1I TOTAL MSHR MERGED:    1834788
L1I LOAD MSHR MERGED:    1834788
L1I RFO MSHR MERGED:          0
L1I PREFETCH MSHR MERGED:          0
L1I WRITEBACK MSHR MERGED:          0
L1I TOTAL ACCESSES:  128402075 HITS:  122328730 MISSES:    6073345
L1I LOAD ACCESSES:  128402075 HITS:  122328730 MISSES:    6073345
L1I RFO ACCESSES:          0 HITS:          0 MISSES:          0
L1I PREFETCH ACCESSES:          0 HITS:          0 MISSES:          0
L1I WRITEBACK ACCESSES:          0 HITS:          0 MISSES:          0
L1I RQ ACCESS:  500000057
L1I RQ TO_CACHE:  128402075
L1I RQ MERGED:  371597982
L1I RQ FORWARD:          0
L1I WQ ACCESS:          0
L1I WQ TO_CACHE:          0
L1I WQ MERGED:          0
L1I WQ FORWARD:          0
L2C TOTAL     ACCESS:   14905451  HIT:   11158907  MISS:    3746544
L2C LOAD      ACCESS:    7418863  HIT:    5098877  MISS:    2319986
L2C RFO       ACCESS:     878676  HIT:     409895  MISS:     468781
L2C PREFETCH  ACCESS:    4568662  HIT:    3628140  MISS:     940522
L2C WRITEBACK ACCESS:    2039250  HIT:    2021995  MISS:      17255
L2C PREFETCH  REQUESTED:     842791  ISSUED:     842791  USEFUL:     203410  USELESS:     736818
L2C TOTAL MSHR MERGED:       6945
L2C LOAD MSHR MERGED:        765
L2C RFO MSHR MERGED:          0
L2C PREFETCH MSHR MERGED:       6180
L2C WRITEBACK MSHR MERGED:          0
L2C TOTAL ACCESSES:   14913251 HITS:   11159358 MISSES:    3753893
L2C LOAD ACCESSES:    7419074 HITS:    5099088 MISSES:    2319986
L2C RFO ACCESSES:     878773 HITS:     409992 MISSES:     468781
L2C PREFETCH ACCESSES:    4576154 HITS:    3628283 MISSES:     947871
L2C WRITEBACK ACCESSES:    2039250 HITS:    2021995 MISSES:      17255
L2C RQ ACCESS:    8297850
L2C RQ TO_CACHE:    8297542
L2C RQ MERGED:          0
L2C RQ FORWARD:          0
L2C WQ ACCESS:    2039250
L2C WQ TO_CACHE:    2039250
L2C WQ MERGED:          0
L2C WQ FORWARD:        451
LLC TOTAL     ACCESS:    4609871  HIT:    3954656  MISS:     655215
LLC LOAD      ACCESS:    2319205  HIT:    2028246  MISS:     290959
LLC RFO       ACCESS:     468771  HIT:     421247  MISS:      47524
LLC PREFETCH  ACCESS:     941591  HIT:     668845  MISS:     272746
LLC WRITEBACK ACCESS:     880304  HIT:     836318  MISS:      43986
LLC PREFETCH  REQUESTED:          0  ISSUED:          0  USEFUL:      14223  USELESS:     258692
LLC TOTAL MSHR MERGED:         85
LLC LOAD MSHR MERGED:         22
LLC RFO MSHR MERGED:          0
LLC PREFETCH MSHR MERGED:         63
LLC WRITEBACK MSHR MERGED:          0
LLC TOTAL ACCESSES:    4609992 HITS:    3954692 MISSES:     655300
LLC LOAD ACCESSES:    2319221 HITS:    2028262 MISSES:     290959
LLC RFO ACCESSES:     468781 HITS:     421257 MISSES:      47524
LLC PREFETCH ACCESSES:     941686 HITS:     668855 MISSES:     272831
LLC WRITEBACK ACCESSES:     880304 HITS:     836318 MISSES:      43986
LLC 0 RQ ACCESS:    2788002
LLC 0 RQ TO_CACHE:    2787976
LLC 0 RQ MERGED:          0
LLC 0 RQ FORWARD:          0
LLC WQ ACCESS:     880304
LLC WQ TO_CACHE:     880304
LLC WQ MERGED:          0
LLC WQ FORWARD:         36
Major fault: 0 Minor fault: 12862
CPU 0 L1D next line prefetcher final stats
CPU 0 L2C PC-based stride prefetcher final stats
All Misses: 783605
All Hits: 4643272
SD Algo Stats - Switches: 0 SRR-Repls: 341942 BRR-Repls: 0

DRAM Statistics
 CHANNEL 0
 RQ ROW_BUFFER_HIT:     128738  ROW_BUFFER_MISS:     481782
 DBUS_CONGESTED:     308742
 WQ ROW_BUFFER_HIT:       8278  ROW_BUFFER_MISS:     141284  FULL:          0

 AVG_CONGESTED_CYCLE: 13
LOADS RETIRED: 136549171
INSTR RETIRED: 500000000
