
*** ChampSim Multicore Out-of-Order Simulator ***

Warmup Instructions: 100000000
Simulation Instructions: 500000000
Number of CPUs: 1
LLC sets: 2048
LLC ways: 16
Clean RRIP Policies: 2213230222132302 Dirty RRIP Policies: 2203130222031302 PSEL Width: 10 Track Set: 4294967295 PSEL Mask: 1 Demote Mask: 3042100030421000DS Algo: 0Window size: 0
Off-chip DRAM Size: 4096 MB Channels: 1 Width: 64-bit Data Rate: 1600 MT/s

CPU 0 runs /mnt/beegfs/iconst01/spec2017/x264.trace.gz
NOT SORTED
TRACE STRING: /mnt/beegfs/iconst01/spec2017/x264.trace.gz
SORTED
TRACE STRING: /mnt/beegfs/iconst01/spec2017/x264.trace.gz
INITIAL
TRACE STRING: /mnt/beegfs/iconst01/spec2017/x264.trace.gz

champsim_seed used: 276

CPU 0 L1D next line prefetcher
CPU 0 L2C IP-based stride prefetcher
Initialize DRRIP state
Assign rand_sets[0]: 454  LLC: 2048
rand_sets[0]: 454
Assign rand_sets[1]: 1662  LLC: 2048
rand_sets[1]: 1662
Assign rand_sets[2]: 1921  LLC: 2048
rand_sets[2]: 1921
Assign rand_sets[3]: 1131  LLC: 2048
rand_sets[3]: 1131
Assign rand_sets[4]: 331  LLC: 2048
rand_sets[4]: 331
Assign rand_sets[5]: 1531  LLC: 2048
rand_sets[5]: 1531
Assign rand_sets[6]: 482  LLC: 2048
rand_sets[6]: 482
Assign rand_sets[7]: 1275  LLC: 2048
rand_sets[7]: 1275
Assign rand_sets[8]: 1876  LLC: 2048
rand_sets[8]: 1876
Assign rand_sets[9]: 2038  LLC: 2048
rand_sets[9]: 2038
Assign rand_sets[10]: 701  LLC: 2048
rand_sets[10]: 701
Assign rand_sets[11]: 479  LLC: 2048
rand_sets[11]: 479
Assign rand_sets[12]: 892  LLC: 2048
rand_sets[12]: 892
Assign rand_sets[13]: 1820  LLC: 2048
rand_sets[13]: 1820
Assign rand_sets[14]: 1505  LLC: 2048
rand_sets[14]: 1505
Assign rand_sets[15]: 1159  LLC: 2048
rand_sets[15]: 1159
Assign rand_sets[16]: 513  LLC: 2048
rand_sets[16]: 513
Assign rand_sets[17]: 703  LLC: 2048
rand_sets[17]: 703
Assign rand_sets[18]: 561  LLC: 2048
rand_sets[18]: 561
Assign rand_sets[19]: 990  LLC: 2048
rand_sets[19]: 990
Assign rand_sets[20]: 342  LLC: 2048
rand_sets[20]: 342
Assign rand_sets[21]: 882  LLC: 2048
rand_sets[21]: 882
Assign rand_sets[22]: 15  LLC: 2048
rand_sets[22]: 15
Assign rand_sets[23]: 71  LLC: 2048
rand_sets[23]: 71
Assign rand_sets[24]: 1127  LLC: 2048
rand_sets[24]: 1127
Assign rand_sets[25]: 1382  LLC: 2048
rand_sets[25]: 1382
Assign rand_sets[26]: 647  LLC: 2048
rand_sets[26]: 647
Assign rand_sets[27]: 857  LLC: 2048
rand_sets[27]: 857
Assign rand_sets[28]: 1450  LLC: 2048
rand_sets[28]: 1450
Assign rand_sets[29]: 1160  LLC: 2048
rand_sets[29]: 1160
Assign rand_sets[30]: 1852  LLC: 2048
rand_sets[30]: 1852
Assign rand_sets[31]: 1881  LLC: 2048
rand_sets[31]: 1881
Assign rand_sets[32]: 1770  LLC: 2048
rand_sets[32]: 1770
Assign rand_sets[33]: 1622  LLC: 2048
rand_sets[33]: 1622
Assign rand_sets[34]: 275  LLC: 2048
rand_sets[34]: 275
Assign rand_sets[35]: 635  LLC: 2048
rand_sets[35]: 635
Assign rand_sets[36]: 466  LLC: 2048
rand_sets[36]: 466
Assign rand_sets[37]: 1413  LLC: 2048
rand_sets[37]: 1413
Assign rand_sets[38]: 417  LLC: 2048
rand_sets[38]: 417
Assign rand_sets[39]: 472  LLC: 2048
rand_sets[39]: 472
Assign rand_sets[40]: 1340  LLC: 2048
rand_sets[40]: 1340
Assign rand_sets[41]: 852  LLC: 2048
rand_sets[41]: 852
Assign rand_sets[42]: 1365  LLC: 2048
rand_sets[42]: 1365
Assign rand_sets[43]: 47  LLC: 2048
rand_sets[43]: 47
Assign rand_sets[44]: 823  LLC: 2048
rand_sets[44]: 823
Assign rand_sets[45]: 686  LLC: 2048
rand_sets[45]: 686
Assign rand_sets[46]: 1637  LLC: 2048
rand_sets[46]: 1637
Assign rand_sets[47]: 1115  LLC: 2048
rand_sets[47]: 1115
Assign rand_sets[48]: 986  LLC: 2048
rand_sets[48]: 986
Assign rand_sets[49]: 258  LLC: 2048
rand_sets[49]: 258
Assign rand_sets[50]: 633  LLC: 2048
rand_sets[50]: 633
Assign rand_sets[51]: 920  LLC: 2048
rand_sets[51]: 920
Assign rand_sets[52]: 204  LLC: 2048
rand_sets[52]: 204
Assign rand_sets[53]: 227  LLC: 2048
rand_sets[53]: 227
Assign rand_sets[54]: 1818  LLC: 2048
rand_sets[54]: 1818
Assign rand_sets[55]: 886  LLC: 2048
rand_sets[55]: 886
Assign rand_sets[56]: 1422  LLC: 2048
rand_sets[56]: 1422
Assign rand_sets[57]: 607  LLC: 2048
rand_sets[57]: 607
Assign rand_sets[58]: 217  LLC: 2048
rand_sets[58]: 217
Assign rand_sets[59]: 1945  LLC: 2048
rand_sets[59]: 1945
Assign rand_sets[60]: 143  LLC: 2048
rand_sets[60]: 143
Assign rand_sets[61]: 1311  LLC: 2048
rand_sets[61]: 1311
Assign rand_sets[62]: 319  LLC: 2048
rand_sets[62]: 319
Assign rand_sets[63]: 1846  LLC: 2048
rand_sets[63]: 1846
 CLEAN-RRIP-POLICY-1: 2-2-1-3-2-3-0-2- CLEAN-RRIP-POLICY-2: 2-2-1-3-2-3-0-2-
 DIRTY-RRIP-POLICY-1: 2-2-0-3-1-3-0-2- DIRTY-RRIP-POLICY-2: 2-2-0-3-1-3-0-2-
 PSEL width: 10
Heartbeat CPU 0 instructions: 10000000 cycles: 4124759 heartbeat IPC: 2.42438 cumulative IPC: 2.42438 (Simulation time: 0 hr 0 min 14 sec) 
Heartbeat CPU 0 instructions: 20000000 cycles: 8233863 heartbeat IPC: 2.43362 cumulative IPC: 2.42899 (Simulation time: 0 hr 0 min 27 sec) 
Heartbeat CPU 0 instructions: 30000003 cycles: 12464696 heartbeat IPC: 2.3636 cumulative IPC: 2.4068 (Simulation time: 0 hr 0 min 40 sec) 
Heartbeat CPU 0 instructions: 40000000 cycles: 16636669 heartbeat IPC: 2.39695 cumulative IPC: 2.40433 (Simulation time: 0 hr 0 min 53 sec) 
Heartbeat CPU 0 instructions: 50000000 cycles: 20699150 heartbeat IPC: 2.46155 cumulative IPC: 2.41556 (Simulation time: 0 hr 1 min 6 sec) 
Heartbeat CPU 0 instructions: 60000000 cycles: 25022637 heartbeat IPC: 2.31295 cumulative IPC: 2.39783 (Simulation time: 0 hr 1 min 19 sec) 
Heartbeat CPU 0 instructions: 70000000 cycles: 29370939 heartbeat IPC: 2.29975 cumulative IPC: 2.38331 (Simulation time: 0 hr 1 min 32 sec) 
Heartbeat CPU 0 instructions: 80000000 cycles: 33721088 heartbeat IPC: 2.29877 cumulative IPC: 2.3724 (Simulation time: 0 hr 1 min 45 sec) 
Heartbeat CPU 0 instructions: 90000002 cycles: 38032070 heartbeat IPC: 2.31966 cumulative IPC: 2.36642 (Simulation time: 0 hr 1 min 58 sec) 
Heartbeat CPU 0 instructions: 100000000 cycles: 42328976 heartbeat IPC: 2.32726 cumulative IPC: 2.36245 (Simulation time: 0 hr 2 min 11 sec) 

Warmup complete CPU 0 instructions: 100000001 cycles: 42328977 (Simulation time: 0 hr 2 min 11 sec) 

Heartbeat CPU 0 instructions: 110000001 cycles: 49385316 heartbeat IPC: 1.41717 cumulative IPC: 1.41717 (Simulation time: 0 hr 2 min 27 sec) 
Heartbeat CPU 0 instructions: 120000000 cycles: 58886418 heartbeat IPC: 1.05251 cumulative IPC: 1.20792 (Simulation time: 0 hr 2 min 46 sec) 
Heartbeat CPU 0 instructions: 130000000 cycles: 63713148 heartbeat IPC: 2.0718 cumulative IPC: 1.40291 (Simulation time: 0 hr 3 min 3 sec) 
Heartbeat CPU 0 instructions: 140000000 cycles: 68643658 heartbeat IPC: 2.02819 cumulative IPC: 1.52006 (Simulation time: 0 hr 3 min 19 sec) 
Heartbeat CPU 0 instructions: 150000002 cycles: 75473931 heartbeat IPC: 1.46407 cumulative IPC: 1.50853 (Simulation time: 0 hr 3 min 36 sec) 
Heartbeat CPU 0 instructions: 160000000 cycles: 83323088 heartbeat IPC: 1.27402 cumulative IPC: 1.46362 (Simulation time: 0 hr 3 min 54 sec) 
Heartbeat CPU 0 instructions: 170000000 cycles: 90733271 heartbeat IPC: 1.34949 cumulative IPC: 1.44615 (Simulation time: 0 hr 4 min 11 sec) 
Heartbeat CPU 0 instructions: 180000000 cycles: 98040077 heartbeat IPC: 1.36859 cumulative IPC: 1.43598 (Simulation time: 0 hr 4 min 27 sec) 
Heartbeat CPU 0 instructions: 190000002 cycles: 105221360 heartbeat IPC: 1.39251 cumulative IPC: 1.43102 (Simulation time: 0 hr 4 min 44 sec) 
Heartbeat CPU 0 instructions: 200000000 cycles: 112462074 heartbeat IPC: 1.38108 cumulative IPC: 1.42586 (Simulation time: 0 hr 5 min 1 sec) 
Heartbeat CPU 0 instructions: 210000000 cycles: 119334527 heartbeat IPC: 1.45508 cumulative IPC: 1.42847 (Simulation time: 0 hr 5 min 17 sec) 
Heartbeat CPU 0 instructions: 220000000 cycles: 126111669 heartbeat IPC: 1.47555 cumulative IPC: 1.43228 (Simulation time: 0 hr 5 min 33 sec) 
Heartbeat CPU 0 instructions: 230000003 cycles: 132839071 heartbeat IPC: 1.48646 cumulative IPC: 1.4363 (Simulation time: 0 hr 5 min 49 sec) 
Heartbeat CPU 0 instructions: 240000000 cycles: 139590706 heartbeat IPC: 1.48112 cumulative IPC: 1.43942 (Simulation time: 0 hr 6 min 6 sec) 
Heartbeat CPU 0 instructions: 250000001 cycles: 146320432 heartbeat IPC: 1.48594 cumulative IPC: 1.44243 (Simulation time: 0 hr 6 min 22 sec) 
Heartbeat CPU 0 instructions: 260000000 cycles: 153026021 heartbeat IPC: 1.49129 cumulative IPC: 1.44539 (Simulation time: 0 hr 6 min 38 sec) 
Heartbeat CPU 0 instructions: 270000001 cycles: 160002819 heartbeat IPC: 1.43332 cumulative IPC: 1.44467 (Simulation time: 0 hr 6 min 55 sec) 
Heartbeat CPU 0 instructions: 280000000 cycles: 167541880 heartbeat IPC: 1.32642 cumulative IPC: 1.43755 (Simulation time: 0 hr 7 min 11 sec) 
Heartbeat CPU 0 instructions: 290000000 cycles: 175462604 heartbeat IPC: 1.26251 cumulative IPC: 1.42714 (Simulation time: 0 hr 7 min 29 sec) 
Heartbeat CPU 0 instructions: 300000000 cycles: 183637410 heartbeat IPC: 1.22327 cumulative IPC: 1.41534 (Simulation time: 0 hr 7 min 46 sec) 
Heartbeat CPU 0 instructions: 310000002 cycles: 191951088 heartbeat IPC: 1.20284 cumulative IPC: 1.40354 (Simulation time: 0 hr 8 min 4 sec) 
Heartbeat CPU 0 instructions: 320000000 cycles: 201954533 heartbeat IPC: 0.999655 cumulative IPC: 1.37823 (Simulation time: 0 hr 8 min 24 sec) 
Heartbeat CPU 0 instructions: 330000002 cycles: 206605648 heartbeat IPC: 2.15002 cumulative IPC: 1.40008 (Simulation time: 0 hr 8 min 40 sec) 
Heartbeat CPU 0 instructions: 340000000 cycles: 211855558 heartbeat IPC: 1.90479 cumulative IPC: 1.41571 (Simulation time: 0 hr 8 min 56 sec) 
Heartbeat CPU 0 instructions: 350000000 cycles: 219083403 heartbeat IPC: 1.38354 cumulative IPC: 1.41439 (Simulation time: 0 hr 9 min 14 sec) 
Heartbeat CPU 0 instructions: 360000000 cycles: 226755025 heartbeat IPC: 1.30351 cumulative IPC: 1.40978 (Simulation time: 0 hr 9 min 31 sec) 
Heartbeat CPU 0 instructions: 370000000 cycles: 234168901 heartbeat IPC: 1.34882 cumulative IPC: 1.40742 (Simulation time: 0 hr 9 min 48 sec) 
Heartbeat CPU 0 instructions: 380000000 cycles: 241445821 heartbeat IPC: 1.37421 cumulative IPC: 1.40621 (Simulation time: 0 hr 10 min 5 sec) 
Heartbeat CPU 0 instructions: 390000000 cycles: 249558873 heartbeat IPC: 1.23258 cumulative IPC: 1.39941 (Simulation time: 0 hr 10 min 22 sec) 
Heartbeat CPU 0 instructions: 400000000 cycles: 257759957 heartbeat IPC: 1.21935 cumulative IPC: 1.39256 (Simulation time: 0 hr 10 min 40 sec) 
Heartbeat CPU 0 instructions: 410000001 cycles: 265587595 heartbeat IPC: 1.27752 cumulative IPC: 1.38852 (Simulation time: 0 hr 10 min 57 sec) 
Heartbeat CPU 0 instructions: 420000000 cycles: 273637430 heartbeat IPC: 1.24226 cumulative IPC: 1.38343 (Simulation time: 0 hr 11 min 15 sec) 
Heartbeat CPU 0 instructions: 430000001 cycles: 281899440 heartbeat IPC: 1.21036 cumulative IPC: 1.37747 (Simulation time: 0 hr 11 min 32 sec) 
Heartbeat CPU 0 instructions: 440000000 cycles: 289945191 heartbeat IPC: 1.24289 cumulative IPC: 1.37309 (Simulation time: 0 hr 11 min 50 sec) 
Heartbeat CPU 0 instructions: 450000001 cycles: 297818074 heartbeat IPC: 1.27018 cumulative IPC: 1.36992 (Simulation time: 0 hr 12 min 7 sec) 
Heartbeat CPU 0 instructions: 460000000 cycles: 307759486 heartbeat IPC: 1.00589 cumulative IPC: 1.35629 (Simulation time: 0 hr 12 min 27 sec) 
Heartbeat CPU 0 instructions: 470000002 cycles: 312405874 heartbeat IPC: 2.15221 cumulative IPC: 1.36998 (Simulation time: 0 hr 12 min 43 sec) 
Heartbeat CPU 0 instructions: 480000000 cycles: 317676109 heartbeat IPC: 1.89745 cumulative IPC: 1.38008 (Simulation time: 0 hr 13 min 0 sec) 
Heartbeat CPU 0 instructions: 490000001 cycles: 324995193 heartbeat IPC: 1.36629 cumulative IPC: 1.37972 (Simulation time: 0 hr 13 min 18 sec) 
Heartbeat CPU 0 instructions: 500000000 cycles: 333727903 heartbeat IPC: 1.14512 cumulative IPC: 1.37269 (Simulation time: 0 hr 13 min 37 sec) 
Heartbeat CPU 0 instructions: 510000002 cycles: 342461443 heartbeat IPC: 1.14501 cumulative IPC: 1.36606 (Simulation time: 0 hr 13 min 57 sec) 
Heartbeat CPU 0 instructions: 520000000 cycles: 351189656 heartbeat IPC: 1.14571 cumulative IPC: 1.35984 (Simulation time: 0 hr 14 min 17 sec) 
Heartbeat CPU 0 instructions: 530000000 cycles: 359897806 heartbeat IPC: 1.14835 cumulative IPC: 1.35404 (Simulation time: 0 hr 14 min 36 sec) 
Heartbeat CPU 0 instructions: 540000000 cycles: 368154058 heartbeat IPC: 1.2112 cumulative IPC: 1.35042 (Simulation time: 0 hr 14 min 55 sec) 
Heartbeat CPU 0 instructions: 550000000 cycles: 375194504 heartbeat IPC: 1.42036 cumulative IPC: 1.3519 (Simulation time: 0 hr 15 min 13 sec) 
Heartbeat CPU 0 instructions: 560000000 cycles: 381810990 heartbeat IPC: 1.51138 cumulative IPC: 1.35501 (Simulation time: 0 hr 15 min 29 sec) 
Heartbeat CPU 0 instructions: 570000002 cycles: 388403364 heartbeat IPC: 1.5169 cumulative IPC: 1.35809 (Simulation time: 0 hr 15 min 46 sec) 
Heartbeat CPU 0 instructions: 580000000 cycles: 395049975 heartbeat IPC: 1.50453 cumulative IPC: 1.36085 (Simulation time: 0 hr 16 min 3 sec) 
Heartbeat CPU 0 instructions: 590000002 cycles: 401741217 heartbeat IPC: 1.49449 cumulative IPC: 1.36334 (Simulation time: 0 hr 16 min 20 sec) 
Heartbeat CPU 0 instructions: 600000000 cycles: 408549698 heartbeat IPC: 1.46876 cumulative IPC: 1.3653 (Simulation time: 0 hr 16 min 37 sec) 
Finished CPU 0 instructions: 500000000 cycles: 366220729 cumulative IPC: 1.3653 (Simulation time: 0 hr 16 min 37 sec) 

CPU 0 Branch Prediction Accuracy: 93.4682% MPKI: 2.44079
Number of Branches: 18683822 Number of Mispredictions: 1220394
Number of LOAD Instructions: 142551610
Number of LOAD Instructions (ROI): 142551610
Number of STORE Instructions: 44807454
Number of STORE Instructions (ROI): 44807454
Total Destination Memory Operands: 48357071
Total Destination Memory Operands (ROI): 48357071
Total Source Memory Operands: 142551610
Total Source Memory Operands (ROI): 142551610
Number of DEPENDED LOADS: 7394936
Number of DEPENDED LOADS (ROI): 7394936
Number of SQ_ADDED: 48357051
Number of SQ_ADDED (ROI): 48357051
Number of LQ_ADDED: 157225745
Number of LQ_ADDED (ROI): 157225745
Number of Instructions read from trace: 600000256

ChampSim completed all CPUs

Region of Interest Statistics

CPU 0 cumulative IPC: 1.3653 instructions: 500000000 cycles: 366220729
ITLB TOTAL     ACCESS:   88177968  HIT:   88177899  MISS:         69
ITLB LOAD      ACCESS:   88177968  HIT:   88177899  MISS:         69
ITLB RFO       ACCESS:          0  HIT:          0  MISS:          0
ITLB PREFETCH  ACCESS:          0  HIT:          0  MISS:          0
ITLB WRITEBACK ACCESS:          0  HIT:          0  MISS:          0
ITLB PREFETCH  REQUESTED:          0  ISSUED:          0  USEFUL:          0  USELESS:          0
ITLB TOTAL MSHR MERGED:         85
ITLB LOAD MSHR MERGED:         85
ITLB RFO MSHR MERGED:          0
ITLB PREFETCH MSHR MERGED:          0
ITLB WRITEBACK MSHR MERGED:          0
ITLB TOTAL ACCESSES:   88178053 HITS:   88177899 MISSES:        154
ITLB LOAD ACCESSES:   88178053 HITS:   88177899 MISSES:        154
ITLB RFO ACCESSES:          0 HITS:          0 MISSES:          0
ITLB PREFETCH ACCESSES:          0 HITS:          0 MISSES:          0
ITLB WRITEBACK ACCESSES:          0 HITS:          0 MISSES:          0
ITLB RQ ACCESS:  500000000
ITLB RQ TO_CACHE:   88178053
ITLB RQ MERGED:  411821947
ITLB RQ FORWARD:          0
ITLB WQ ACCESS:          0
ITLB WQ TO_CACHE:          0
ITLB WQ MERGED:          0
ITLB WQ FORWARD:          0
DTLB TOTAL     ACCESS:   88203282  HIT:   88075863  MISS:     127419
DTLB LOAD      ACCESS:   59485247  HIT:   59392777  MISS:      92470
DTLB RFO       ACCESS:   28718035  HIT:   28683086  MISS:      34949
DTLB PREFETCH  ACCESS:          0  HIT:          0  MISS:          0
DTLB WRITEBACK ACCESS:          0  HIT:          0  MISS:          0
DTLB PREFETCH  REQUESTED:          0  ISSUED:          0  USEFUL:          0  USELESS:          0
DTLB TOTAL MSHR MERGED:     141217
DTLB LOAD MSHR MERGED:     107721
DTLB RFO MSHR MERGED:      33496
DTLB PREFETCH MSHR MERGED:          0
DTLB WRITEBACK MSHR MERGED:          0
DTLB TOTAL ACCESSES:   88344499 HITS:   88075863 MISSES:     268636
DTLB LOAD ACCESSES:   59592968 HITS:   59392777 MISSES:     200191
DTLB RFO ACCESSES:   28751531 HITS:   28683086 MISSES:      68445
DTLB PREFETCH ACCESSES:          0 HITS:          0 MISSES:          0
DTLB WRITEBACK ACCESSES:          0 HITS:          0 MISSES:          0
DTLB RQ ACCESS:  154558957
DTLB RQ TO_CACHE:   88344499
DTLB RQ MERGED:   66214458
DTLB RQ FORWARD:          0
DTLB WQ ACCESS:          0
DTLB WQ TO_CACHE:          0
DTLB WQ MERGED:          0
DTLB WQ FORWARD:          0
L1D TOTAL     ACCESS:  128112032  HIT:  124886360  MISS:    3225672
L1D LOAD      ACCESS:   53171946  HIT:   51976633  MISS:    1195313
L1D RFO       ACCESS:   37379768  HIT:   36765651  MISS:     614117
L1D PREFETCH  ACCESS:   37560318  HIT:   36144076  MISS:    1416242
L1D WRITEBACK ACCESS:          0  HIT:          0  MISS:          0
L1D PREFETCH  REQUESTED:   53656999  ISSUED:   52457070  USEFUL:     352118  USELESS:    1064089
L1D TOTAL MSHR MERGED:    2797652
L1D LOAD MSHR MERGED:     523809
L1D RFO MSHR MERGED:    1574844
L1D PREFETCH MSHR MERGED:     698999
L1D WRITEBACK MSHR MERGED:          0
L1D TOTAL ACCESSES:  130944565 HITS:  124921241 MISSES:    6023324
L1D LOAD ACCESSES:   53659894 HITS:   51979528 MISSES:    1680366
L1D RFO ACCESSES:   38952857 HITS:   36765651 MISSES:    2187206
L1D PREFETCH ACCESSES:   38331814 HITS:   36176062 MISSES:    2155752
L1D WRITEBACK ACCESSES:          0 HITS:          0 MISSES:          0
L1D RQ ACCESS:  113714065
L1D RQ TO_CACHE:   53656999
L1D RQ MERGED:   60054171
L1D RQ FORWARD:          0
L1D WQ ACCESS:   40844891
L1D WQ TO_CACHE:   38952857
L1D WQ MERGED:    1892034
L1D WQ FORWARD:      34881
L1I TOTAL     ACCESS:  108369046  HIT:  107809917  MISS:     559129
L1I LOAD      ACCESS:  108369046  HIT:  107809917  MISS:     559129
L1I RFO       ACCESS:          0  HIT:          0  MISS:          0
L1I PREFETCH  ACCESS:          0  HIT:          0  MISS:          0
L1I WRITEBACK ACCESS:          0  HIT:          0  MISS:          0
L1I PREFETCH  REQUESTED:          0  ISSUED:          0  USEFUL:          0  USELESS:          0
L1I TOTAL MSHR MERGED:     525604
L1I LOAD MSHR MERGED:     525604
L1I RFO MSHR MERGED:          0
L1I PREFETCH MSHR MERGED:          0
L1I WRITEBACK MSHR MERGED:          0
L1I TOTAL ACCESSES:  108894650 HITS:  107809917 MISSES:    1084733
L1I LOAD ACCESSES:  108894650 HITS:  107809917 MISSES:    1084733
L1I RFO ACCESSES:          0 HITS:          0 MISSES:          0
L1I PREFETCH ACCESSES:          0 HITS:          0 MISSES:          0
L1I WRITEBACK ACCESSES:          0 HITS:          0 MISSES:          0
L1I RQ ACCESS:  500000002
L1I RQ TO_CACHE:  108894650
L1I RQ MERGED:  391105352
L1I RQ FORWARD:          0
L1I WQ ACCESS:          0
L1I WQ TO_CACHE:          0
L1I WQ MERGED:          0
L1I WQ FORWARD:          0
L2C TOTAL     ACCESS:    4692174  HIT:    3866080  MISS:     826094
L2C LOAD      ACCESS:    1715574  HIT:    1562728  MISS:     152846
L2C RFO       ACCESS:     610927  HIT:     421170  MISS:     189757
L2C PREFETCH  ACCESS:    1662748  HIT:    1181441  MISS:     481307
L2C WRITEBACK ACCESS:     702925  HIT:     700741  MISS:       2184
L2C PREFETCH  REQUESTED:     256416  ISSUED:     256416  USEFUL:     173123  USELESS:     308850
L2C TOTAL MSHR MERGED:      13229
L2C LOAD MSHR MERGED:       4026
L2C RFO MSHR MERGED:          0
L2C PREFETCH MSHR MERGED:       9203
L2C WRITEBACK MSHR MERGED:          0
L2C TOTAL ACCESSES:    4712281 HITS:    3867695 MISSES:     844586
L2C LOAD ACCESSES:    1715686 HITS:    1562840 MISSES:     152846
L2C RFO ACCESSES:     612362 HITS:     422605 MISSES:     189757
L2C PREFETCH ACCESSES:    1681308 HITS:    1181509 MISSES:     499799
L2C WRITEBACK ACCESSES:     702925 HITS:     700741 MISSES:       2184
L2C RQ ACCESS:    2328048
L2C RQ TO_CACHE:    2326501
L2C RQ MERGED:          0
L2C RQ FORWARD:          0
L2C WQ ACCESS:     702925
L2C WQ TO_CACHE:     702925
L2C WQ MERGED:          0
L2C WQ FORWARD:       1615
LLC TOTAL     ACCESS:    1047616  HIT:     290847  MISS:     756769
LLC LOAD      ACCESS:     148816  HIT:      87265  MISS:      61551
LLC RFO       ACCESS:     189749  HIT:       6183  MISS:     183566
LLC PREFETCH  ACCESS:     488175  HIT:     158653  MISS:     329522
LLC WRITEBACK ACCESS:     220876  HIT:      38746  MISS:     182130
LLC PREFETCH  REQUESTED:          0  ISSUED:          0  USEFUL:       2210  USELESS:     327842
LLC TOTAL MSHR MERGED:       1690
LLC LOAD MSHR MERGED:        577
LLC RFO MSHR MERGED:          0
LLC PREFETCH MSHR MERGED:       1113
LLC WRITEBACK MSHR MERGED:          0
LLC TOTAL ACCESSES:    1049318 HITS:     290859 MISSES:     758459
LLC LOAD ACCESSES:     148820 HITS:      87269 MISSES:      61551
LLC RFO ACCESSES:     189757 HITS:       6191 MISSES:     183566
LLC PREFETCH ACCESSES:     489865 HITS:     158653 MISSES:     331212
LLC WRITEBACK ACCESSES:     220876 HITS:      38746 MISSES:     182130
LLC 0 RQ ACCESS:     338577
LLC 0 RQ TO_CACHE:     338565
LLC 0 RQ MERGED:          0
LLC 0 RQ FORWARD:          0
LLC WQ ACCESS:     220876
LLC WQ TO_CACHE:     220876
LLC WQ MERGED:          0
LLC WQ FORWARD:         12
Major fault: 0 Minor fault: 6811
CPU 0 L1D next line prefetcher final stats
CPU 0 L2C PC-based stride prefetcher final stats
All Misses: 896133
All Hits: 358466
SD Algo Stats - Switches: 0 SRR-Repls: 69031 BRR-Repls: 0

DRAM Statistics
 CHANNEL 0
 RQ ROW_BUFFER_HIT:     286448  ROW_BUFFER_MISS:     288129
 DBUS_CONGESTED:     396324
 WQ ROW_BUFFER_HIT:      23443  ROW_BUFFER_MISS:     191981  FULL:          0

 AVG_CONGESTED_CYCLE: 13
LOADS RETIRED: 119922929
INSTR RETIRED: 500000000
