
*** ChampSim Multicore Out-of-Order Simulator ***

Warmup Instructions: 100000000
Simulation Instructions: 500000000
Number of CPUs: 1
LLC sets: 2048
LLC ways: 16
Clean RRIP Policies: 1223230112232301 Dirty RRIP Policies: 2213031122130311 PSEL Width: 10 Track Set: 4294967295 PSEL Mask: 1 Demote Mask: 3342011033420110DS Algo: 0Window size: 0
Off-chip DRAM Size: 4096 MB Channels: 1 Width: 64-bit Data Rate: 1600 MT/s

CPU 0 runs /mnt/beegfs/iconst01/spec2017/Parest.trace.gz
NOT SORTED
TRACE STRING: /mnt/beegfs/iconst01/spec2017/Parest.trace.gz
SORTED
TRACE STRING: /mnt/beegfs/iconst01/spec2017/Parest.trace.gz
INITIAL
TRACE STRING: /mnt/beegfs/iconst01/spec2017/Parest.trace.gz

champsim_seed used: 623

CPU 0 L1D next line prefetcher
CPU 0 L2C IP-based stride prefetcher
Initialize DRRIP state
Assign rand_sets[0]: 454  LLC: 2048
rand_sets[0]: 454
Assign rand_sets[1]: 1662  LLC: 2048
rand_sets[1]: 1662
Assign rand_sets[2]: 1921  LLC: 2048
rand_sets[2]: 1921
Assign rand_sets[3]: 1131  LLC: 2048
rand_sets[3]: 1131
Assign rand_sets[4]: 331  LLC: 2048
rand_sets[4]: 331
Assign rand_sets[5]: 1531  LLC: 2048
rand_sets[5]: 1531
Assign rand_sets[6]: 482  LLC: 2048
rand_sets[6]: 482
Assign rand_sets[7]: 1275  LLC: 2048
rand_sets[7]: 1275
Assign rand_sets[8]: 1876  LLC: 2048
rand_sets[8]: 1876
Assign rand_sets[9]: 2038  LLC: 2048
rand_sets[9]: 2038
Assign rand_sets[10]: 701  LLC: 2048
rand_sets[10]: 701
Assign rand_sets[11]: 479  LLC: 2048
rand_sets[11]: 479
Assign rand_sets[12]: 892  LLC: 2048
rand_sets[12]: 892
Assign rand_sets[13]: 1820  LLC: 2048
rand_sets[13]: 1820
Assign rand_sets[14]: 1505  LLC: 2048
rand_sets[14]: 1505
Assign rand_sets[15]: 1159  LLC: 2048
rand_sets[15]: 1159
Assign rand_sets[16]: 513  LLC: 2048
rand_sets[16]: 513
Assign rand_sets[17]: 703  LLC: 2048
rand_sets[17]: 703
Assign rand_sets[18]: 561  LLC: 2048
rand_sets[18]: 561
Assign rand_sets[19]: 990  LLC: 2048
rand_sets[19]: 990
Assign rand_sets[20]: 342  LLC: 2048
rand_sets[20]: 342
Assign rand_sets[21]: 882  LLC: 2048
rand_sets[21]: 882
Assign rand_sets[22]: 15  LLC: 2048
rand_sets[22]: 15
Assign rand_sets[23]: 71  LLC: 2048
rand_sets[23]: 71
Assign rand_sets[24]: 1127  LLC: 2048
rand_sets[24]: 1127
Assign rand_sets[25]: 1382  LLC: 2048
rand_sets[25]: 1382
Assign rand_sets[26]: 647  LLC: 2048
rand_sets[26]: 647
Assign rand_sets[27]: 857  LLC: 2048
rand_sets[27]: 857
Assign rand_sets[28]: 1450  LLC: 2048
rand_sets[28]: 1450
Assign rand_sets[29]: 1160  LLC: 2048
rand_sets[29]: 1160
Assign rand_sets[30]: 1852  LLC: 2048
rand_sets[30]: 1852
Assign rand_sets[31]: 1881  LLC: 2048
rand_sets[31]: 1881
Assign rand_sets[32]: 1770  LLC: 2048
rand_sets[32]: 1770
Assign rand_sets[33]: 1622  LLC: 2048
rand_sets[33]: 1622
Assign rand_sets[34]: 275  LLC: 2048
rand_sets[34]: 275
Assign rand_sets[35]: 635  LLC: 2048
rand_sets[35]: 635
Assign rand_sets[36]: 466  LLC: 2048
rand_sets[36]: 466
Assign rand_sets[37]: 1413  LLC: 2048
rand_sets[37]: 1413
Assign rand_sets[38]: 417  LLC: 2048
rand_sets[38]: 417
Assign rand_sets[39]: 472  LLC: 2048
rand_sets[39]: 472
Assign rand_sets[40]: 1340  LLC: 2048
rand_sets[40]: 1340
Assign rand_sets[41]: 852  LLC: 2048
rand_sets[41]: 852
Assign rand_sets[42]: 1365  LLC: 2048
rand_sets[42]: 1365
Assign rand_sets[43]: 47  LLC: 2048
rand_sets[43]: 47
Assign rand_sets[44]: 823  LLC: 2048
rand_sets[44]: 823
Assign rand_sets[45]: 686  LLC: 2048
rand_sets[45]: 686
Assign rand_sets[46]: 1637  LLC: 2048
rand_sets[46]: 1637
Assign rand_sets[47]: 1115  LLC: 2048
rand_sets[47]: 1115
Assign rand_sets[48]: 986  LLC: 2048
rand_sets[48]: 986
Assign rand_sets[49]: 258  LLC: 2048
rand_sets[49]: 258
Assign rand_sets[50]: 633  LLC: 2048
rand_sets[50]: 633
Assign rand_sets[51]: 920  LLC: 2048
rand_sets[51]: 920
Assign rand_sets[52]: 204  LLC: 2048
rand_sets[52]: 204
Assign rand_sets[53]: 227  LLC: 2048
rand_sets[53]: 227
Assign rand_sets[54]: 1818  LLC: 2048
rand_sets[54]: 1818
Assign rand_sets[55]: 886  LLC: 2048
rand_sets[55]: 886
Assign rand_sets[56]: 1422  LLC: 2048
rand_sets[56]: 1422
Assign rand_sets[57]: 607  LLC: 2048
rand_sets[57]: 607
Assign rand_sets[58]: 217  LLC: 2048
rand_sets[58]: 217
Assign rand_sets[59]: 1945  LLC: 2048
rand_sets[59]: 1945
Assign rand_sets[60]: 143  LLC: 2048
rand_sets[60]: 143
Assign rand_sets[61]: 1311  LLC: 2048
rand_sets[61]: 1311
Assign rand_sets[62]: 319  LLC: 2048
rand_sets[62]: 319
Assign rand_sets[63]: 1846  LLC: 2048
rand_sets[63]: 1846
 CLEAN-RRIP-POLICY-1: 1-2-2-3-2-3-0-1- CLEAN-RRIP-POLICY-2: 1-2-2-3-2-3-0-1-
 DIRTY-RRIP-POLICY-1: 2-2-1-3-0-3-1-1- DIRTY-RRIP-POLICY-2: 2-2-1-3-0-3-1-1-
 PSEL width: 10
Heartbeat CPU 0 instructions: 10000001 cycles: 4387119 heartbeat IPC: 2.2794 cumulative IPC: 2.2794 (Simulation time: 0 hr 0 min 14 sec) 
Heartbeat CPU 0 instructions: 20000000 cycles: 8781229 heartbeat IPC: 2.27577 cumulative IPC: 2.27759 (Simulation time: 0 hr 0 min 28 sec) 
Heartbeat CPU 0 instructions: 30000003 cycles: 13213185 heartbeat IPC: 2.25634 cumulative IPC: 2.27046 (Simulation time: 0 hr 0 min 43 sec) 
Heartbeat CPU 0 instructions: 40000000 cycles: 17643727 heartbeat IPC: 2.25706 cumulative IPC: 2.26709 (Simulation time: 0 hr 0 min 56 sec) 
Heartbeat CPU 0 instructions: 50000000 cycles: 22051880 heartbeat IPC: 2.26852 cumulative IPC: 2.26738 (Simulation time: 0 hr 1 min 10 sec) 
Heartbeat CPU 0 instructions: 60000000 cycles: 26457518 heartbeat IPC: 2.26982 cumulative IPC: 2.26779 (Simulation time: 0 hr 1 min 24 sec) 
Heartbeat CPU 0 instructions: 70000000 cycles: 30858314 heartbeat IPC: 2.27232 cumulative IPC: 2.26843 (Simulation time: 0 hr 1 min 38 sec) 
Heartbeat CPU 0 instructions: 80000000 cycles: 35253840 heartbeat IPC: 2.27504 cumulative IPC: 2.26926 (Simulation time: 0 hr 1 min 52 sec) 
Heartbeat CPU 0 instructions: 90000000 cycles: 39648064 heartbeat IPC: 2.27571 cumulative IPC: 2.26997 (Simulation time: 0 hr 2 min 6 sec) 
Heartbeat CPU 0 instructions: 100000000 cycles: 44045343 heartbeat IPC: 2.27413 cumulative IPC: 2.27039 (Simulation time: 0 hr 2 min 20 sec) 

Warmup complete CPU 0 instructions: 100000002 cycles: 44045353 (Simulation time: 0 hr 2 min 20 sec) 

Heartbeat CPU 0 instructions: 110000000 cycles: 54710263 heartbeat IPC: 0.937654 cumulative IPC: 0.937654 (Simulation time: 0 hr 2 min 38 sec) 
Heartbeat CPU 0 instructions: 120000000 cycles: 64498825 heartbeat IPC: 1.0216 cumulative IPC: 0.977829 (Simulation time: 0 hr 2 min 56 sec) 
Heartbeat CPU 0 instructions: 130000001 cycles: 74183565 heartbeat IPC: 1.03255 cumulative IPC: 0.995414 (Simulation time: 0 hr 3 min 14 sec) 
Heartbeat CPU 0 instructions: 140000000 cycles: 84034996 heartbeat IPC: 1.01508 cumulative IPC: 1.00026 (Simulation time: 0 hr 3 min 32 sec) 
Heartbeat CPU 0 instructions: 150000000 cycles: 95264327 heartbeat IPC: 0.890525 cumulative IPC: 0.976201 (Simulation time: 0 hr 3 min 50 sec) 
Heartbeat CPU 0 instructions: 160000000 cycles: 105691711 heartbeat IPC: 0.959013 cumulative IPC: 0.973293 (Simulation time: 0 hr 4 min 8 sec) 
Heartbeat CPU 0 instructions: 170000000 cycles: 115950968 heartbeat IPC: 0.974729 cumulative IPC: 0.973498 (Simulation time: 0 hr 4 min 26 sec) 
Heartbeat CPU 0 instructions: 180000000 cycles: 126080266 heartbeat IPC: 0.987235 cumulative IPC: 0.975195 (Simulation time: 0 hr 4 min 44 sec) 
Heartbeat CPU 0 instructions: 190000002 cycles: 136283543 heartbeat IPC: 0.980078 cumulative IPC: 0.975735 (Simulation time: 0 hr 5 min 2 sec) 
Heartbeat CPU 0 instructions: 200000000 cycles: 145923429 heartbeat IPC: 1.03736 cumulative IPC: 0.981565 (Simulation time: 0 hr 5 min 20 sec) 
Heartbeat CPU 0 instructions: 210000000 cycles: 156015124 heartbeat IPC: 0.990914 cumulative IPC: 0.982408 (Simulation time: 0 hr 5 min 38 sec) 
Heartbeat CPU 0 instructions: 220000000 cycles: 165454465 heartbeat IPC: 1.0594 cumulative IPC: 0.988394 (Simulation time: 0 hr 5 min 55 sec) 
Heartbeat CPU 0 instructions: 230000001 cycles: 177720200 heartbeat IPC: 0.815279 cumulative IPC: 0.972509 (Simulation time: 0 hr 6 min 15 sec) 
Heartbeat CPU 0 instructions: 240000000 cycles: 188514716 heartbeat IPC: 0.926396 cumulative IPC: 0.969064 (Simulation time: 0 hr 6 min 33 sec) 
Heartbeat CPU 0 instructions: 250000002 cycles: 198784446 heartbeat IPC: 0.973736 cumulative IPC: 0.969374 (Simulation time: 0 hr 6 min 51 sec) 
Heartbeat CPU 0 instructions: 260000000 cycles: 208812096 heartbeat IPC: 0.997242 cumulative IPC: 0.97107 (Simulation time: 0 hr 7 min 9 sec) 
Heartbeat CPU 0 instructions: 270000001 cycles: 218616826 heartbeat IPC: 1.01992 cumulative IPC: 0.973813 (Simulation time: 0 hr 7 min 26 sec) 
Heartbeat CPU 0 instructions: 280000000 cycles: 228731176 heartbeat IPC: 0.988694 cumulative IPC: 0.974628 (Simulation time: 0 hr 7 min 44 sec) 
Heartbeat CPU 0 instructions: 290000002 cycles: 238234379 heartbeat IPC: 1.05228 cumulative IPC: 0.978428 (Simulation time: 0 hr 8 min 2 sec) 
Heartbeat CPU 0 instructions: 300000000 cycles: 248190266 heartbeat IPC: 1.00443 cumulative IPC: 0.979696 (Simulation time: 0 hr 8 min 20 sec) 
Heartbeat CPU 0 instructions: 310000000 cycles: 257637681 heartbeat IPC: 1.05849 cumulative IPC: 0.983181 (Simulation time: 0 hr 8 min 37 sec) 
Heartbeat CPU 0 instructions: 320000000 cycles: 267144273 heartbeat IPC: 1.0519 cumulative IPC: 0.98611 (Simulation time: 0 hr 8 min 55 sec) 
Heartbeat CPU 0 instructions: 330000003 cycles: 276782274 heartbeat IPC: 1.03756 cumulative IPC: 0.98824 (Simulation time: 0 hr 9 min 13 sec) 
Heartbeat CPU 0 instructions: 340000000 cycles: 286992638 heartbeat IPC: 0.979397 cumulative IPC: 0.987869 (Simulation time: 0 hr 9 min 31 sec) 
Heartbeat CPU 0 instructions: 350000000 cycles: 297530408 heartbeat IPC: 0.948967 cumulative IPC: 0.986251 (Simulation time: 0 hr 9 min 49 sec) 
Heartbeat CPU 0 instructions: 360000000 cycles: 307681572 heartbeat IPC: 0.985109 cumulative IPC: 0.986207 (Simulation time: 0 hr 10 min 7 sec) 
Heartbeat CPU 0 instructions: 370000000 cycles: 317611328 heartbeat IPC: 1.00707 cumulative IPC: 0.986965 (Simulation time: 0 hr 10 min 24 sec) 
Heartbeat CPU 0 instructions: 380000000 cycles: 327368267 heartbeat IPC: 1.02491 cumulative IPC: 0.988272 (Simulation time: 0 hr 10 min 42 sec) 
Heartbeat CPU 0 instructions: 390000002 cycles: 336880836 heartbeat IPC: 1.05124 cumulative IPC: 0.990317 (Simulation time: 0 hr 11 min 0 sec) 
Heartbeat CPU 0 instructions: 400000000 cycles: 346801440 heartbeat IPC: 1.008 cumulative IPC: 0.990897 (Simulation time: 0 hr 11 min 18 sec) 
Heartbeat CPU 0 instructions: 410000000 cycles: 356182126 heartbeat IPC: 1.06602 cumulative IPC: 0.993154 (Simulation time: 0 hr 11 min 35 sec) 
Heartbeat CPU 0 instructions: 420000000 cycles: 367282337 heartbeat IPC: 0.900884 cumulative IPC: 0.989986 (Simulation time: 0 hr 11 min 54 sec) 
Heartbeat CPU 0 instructions: 430000000 cycles: 378476903 heartbeat IPC: 0.893291 cumulative IPC: 0.986749 (Simulation time: 0 hr 12 min 12 sec) 
Heartbeat CPU 0 instructions: 440000000 cycles: 388811193 heartbeat IPC: 0.967652 cumulative IPC: 0.986177 (Simulation time: 0 hr 12 min 29 sec) 
Heartbeat CPU 0 instructions: 450000000 cycles: 399044673 heartbeat IPC: 0.977185 cumulative IPC: 0.985917 (Simulation time: 0 hr 12 min 47 sec) 
Heartbeat CPU 0 instructions: 460000000 cycles: 409129841 heartbeat IPC: 0.991555 cumulative IPC: 0.986073 (Simulation time: 0 hr 13 min 5 sec) 
Heartbeat CPU 0 instructions: 470000001 cycles: 419285827 heartbeat IPC: 0.984641 cumulative IPC: 0.986034 (Simulation time: 0 hr 13 min 22 sec) 
Heartbeat CPU 0 instructions: 480000000 cycles: 428900759 heartbeat IPC: 1.04005 cumulative IPC: 0.987384 (Simulation time: 0 hr 13 min 40 sec) 
Heartbeat CPU 0 instructions: 490000002 cycles: 438973246 heartbeat IPC: 0.992804 cumulative IPC: 0.987522 (Simulation time: 0 hr 13 min 58 sec) 
Heartbeat CPU 0 instructions: 500000000 cycles: 448710961 heartbeat IPC: 1.02693 cumulative IPC: 0.98847 (Simulation time: 0 hr 14 min 15 sec) 
Heartbeat CPU 0 instructions: 510000000 cycles: 458220857 heartbeat IPC: 1.05154 cumulative IPC: 0.989919 (Simulation time: 0 hr 14 min 33 sec) 
Heartbeat CPU 0 instructions: 520000000 cycles: 467920357 heartbeat IPC: 1.03098 cumulative IPC: 0.990858 (Simulation time: 0 hr 14 min 51 sec) 
Heartbeat CPU 0 instructions: 530000001 cycles: 478342944 heartbeat IPC: 0.959455 cumulative IPC: 0.990104 (Simulation time: 0 hr 15 min 8 sec) 
Heartbeat CPU 0 instructions: 540000000 cycles: 489004184 heartbeat IPC: 0.937977 cumulative IPC: 0.988856 (Simulation time: 0 hr 15 min 26 sec) 
Heartbeat CPU 0 instructions: 550000003 cycles: 499345390 heartbeat IPC: 0.967005 cumulative IPC: 0.988359 (Simulation time: 0 hr 15 min 44 sec) 
Heartbeat CPU 0 instructions: 560000000 cycles: 509446546 heartbeat IPC: 0.989985 cumulative IPC: 0.988395 (Simulation time: 0 hr 16 min 1 sec) 
Heartbeat CPU 0 instructions: 570000002 cycles: 519352237 heartbeat IPC: 1.00952 cumulative IPC: 0.988835 (Simulation time: 0 hr 16 min 19 sec) 
Heartbeat CPU 0 instructions: 580000000 cycles: 529078368 heartbeat IPC: 1.02816 cumulative IPC: 0.989623 (Simulation time: 0 hr 16 min 36 sec) 
Heartbeat CPU 0 instructions: 590000001 cycles: 539084434 heartbeat IPC: 0.999394 cumulative IPC: 0.989821 (Simulation time: 0 hr 16 min 54 sec) 
Heartbeat CPU 0 instructions: 600000000 cycles: 548713898 heartbeat IPC: 1.03848 cumulative IPC: 0.990749 (Simulation time: 0 hr 17 min 11 sec) 
Finished CPU 0 instructions: 500000000 cycles: 504668559 cumulative IPC: 0.990749 (Simulation time: 0 hr 17 min 11 sec) 

CPU 0 Branch Prediction Accuracy: 97.8526% MPKI: 2.66709
Number of Branches: 62099103 Number of Mispredictions: 1333545
Number of LOAD Instructions: 210576465
Number of LOAD Instructions (ROI): 210576465
Number of STORE Instructions: 16915507
Number of STORE Instructions (ROI): 16915507
Total Destination Memory Operands: 16918869
Total Destination Memory Operands (ROI): 16918869
Total Source Memory Operands: 210576465
Total Source Memory Operands (ROI): 210576465
Number of DEPENDED LOADS: 338600
Number of DEPENDED LOADS (ROI): 338600
Number of SQ_ADDED: 16918826
Number of SQ_ADDED (ROI): 16918826
Number of LQ_ADDED: 210606213
Number of LQ_ADDED (ROI): 210606213
Number of Instructions read from trace: 600000257

ChampSim completed all CPUs

Region of Interest Statistics

CPU 0 cumulative IPC: 0.990749 instructions: 500000000 cycles: 504668559
ITLB TOTAL     ACCESS:   76337568  HIT:   76337530  MISS:         38
ITLB LOAD      ACCESS:   76337568  HIT:   76337530  MISS:         38
ITLB RFO       ACCESS:          0  HIT:          0  MISS:          0
ITLB PREFETCH  ACCESS:          0  HIT:          0  MISS:          0
ITLB WRITEBACK ACCESS:          0  HIT:          0  MISS:          0
ITLB PREFETCH  REQUESTED:          0  ISSUED:          0  USEFUL:          0  USELESS:          0
ITLB TOTAL MSHR MERGED:         37
ITLB LOAD MSHR MERGED:         37
ITLB RFO MSHR MERGED:          0
ITLB PREFETCH MSHR MERGED:          0
ITLB WRITEBACK MSHR MERGED:          0
ITLB TOTAL ACCESSES:   76337605 HITS:   76337530 MISSES:         75
ITLB LOAD ACCESSES:   76337605 HITS:   76337530 MISSES:         75
ITLB RFO ACCESSES:          0 HITS:          0 MISSES:          0
ITLB PREFETCH ACCESSES:          0 HITS:          0 MISSES:          0
ITLB WRITEBACK ACCESSES:          0 HITS:          0 MISSES:          0
ITLB RQ ACCESS:  500000188
ITLB RQ TO_CACHE:   76337606
ITLB RQ MERGED:  423662582
ITLB RQ FORWARD:          0
ITLB WQ ACCESS:          0
ITLB WQ TO_CACHE:          0
ITLB WQ MERGED:          0
ITLB WQ FORWARD:          0
DTLB TOTAL     ACCESS:  136800700  HIT:  136597906  MISS:     202794
DTLB LOAD      ACCESS:  128738264  HIT:  128538191  MISS:     200073
DTLB RFO       ACCESS:    8062436  HIT:    8059715  MISS:       2721
DTLB PREFETCH  ACCESS:          0  HIT:          0  MISS:          0
DTLB WRITEBACK ACCESS:          0  HIT:          0  MISS:          0
DTLB PREFETCH  REQUESTED:          0  ISSUED:          0  USEFUL:          0  USELESS:          0
DTLB TOTAL MSHR MERGED:     445921
DTLB LOAD MSHR MERGED:     442106
DTLB RFO MSHR MERGED:       3815
DTLB PREFETCH MSHR MERGED:          0
DTLB WRITEBACK MSHR MERGED:          0
DTLB TOTAL ACCESSES:  137246621 HITS:  136597906 MISSES:     648715
DTLB LOAD ACCESSES:  129180370 HITS:  128538191 MISSES:     642179
DTLB RFO ACCESSES:    8066251 HITS:    8059715 MISSES:       6536
DTLB PREFETCH ACCESSES:          0 HITS:          0 MISSES:          0
DTLB WRITEBACK ACCESSES:          0 HITS:          0 MISSES:          0
DTLB RQ ACCESS:  189425970
DTLB RQ TO_CACHE:  137246621
DTLB RQ MERGED:   52179349
DTLB RQ FORWARD:          0
DTLB WQ ACCESS:          0
DTLB WQ TO_CACHE:          0
DTLB WQ MERGED:          0
DTLB WQ FORWARD:          0
L1D TOTAL     ACCESS:  125449498  HIT:  107892610  MISS:   17556888
L1D LOAD      ACCESS:   72300048  HIT:   62013312  MISS:   10286736
L1D RFO       ACCESS:   14014177  HIT:   13861347  MISS:     152830
L1D PREFETCH  ACCESS:   39135273  HIT:   32017951  MISS:    7117322
L1D WRITEBACK ACCESS:          0  HIT:          0  MISS:          0
L1D PREFETCH  REQUESTED:   85638086  ISSUED:   84314679  USEFUL:    5858059  USELESS:    1259274
L1D TOTAL MSHR MERGED:   31803801
L1D LOAD MSHR MERGED:   18526372
L1D RFO MSHR MERGED:     265335
L1D PREFETCH MSHR MERGED:   13012094
L1D WRITEBACK MSHR MERGED:          0
L1D TOTAL ACCESSES:  157253821 HITS:  107893133 MISSES:   49360688
L1D LOAD ACCESSES:   85638099 HITS:   62013325 MISSES:   23624774
L1D RFO ACCESSES:   14279491 HITS:   13861347 MISSES:     418144
L1D PREFETCH ACCESSES:   57336231 HITS:   32018461 MISSES:   25317770
L1D WRITEBACK ACCESSES:          0 HITS:          0 MISSES:          0
L1D RQ ACCESS:  175136948
L1D RQ TO_CACHE:   85638086
L1D RQ MERGED:   89498849
L1D RQ FORWARD:          0
L1D WQ ACCESS:   14289037
L1D WQ TO_CACHE:   14279491
L1D WQ MERGED:       9546
L1D WQ FORWARD:        523
L1I TOTAL     ACCESS:   93360543  HIT:   93358747  MISS:       1796
L1I LOAD      ACCESS:   93360543  HIT:   93358747  MISS:       1796
L1I RFO       ACCESS:          0  HIT:          0  MISS:          0
L1I PREFETCH  ACCESS:          0  HIT:          0  MISS:          0
L1I WRITEBACK ACCESS:          0  HIT:          0  MISS:          0
L1I PREFETCH  REQUESTED:          0  ISSUED:          0  USEFUL:          0  USELESS:          0
L1I TOTAL MSHR MERGED:       2255
L1I LOAD MSHR MERGED:       2255
L1I RFO MSHR MERGED:          0
L1I PREFETCH MSHR MERGED:          0
L1I WRITEBACK MSHR MERGED:          0
L1I TOTAL ACCESSES:   93362798 HITS:   93358747 MISSES:       4051
L1I LOAD ACCESSES:   93362798 HITS:   93358747 MISSES:       4051
L1I RFO ACCESSES:          0 HITS:          0 MISSES:          0
L1I PREFETCH ACCESSES:          0 HITS:          0 MISSES:          0
L1I WRITEBACK ACCESSES:          0 HITS:          0 MISSES:          0
L1I RQ ACCESS:  500000187
L1I RQ TO_CACHE:   93362798
L1I RQ MERGED:  406637389
L1I RQ FORWARD:          0
L1I WQ ACCESS:          0
L1I WQ TO_CACHE:          0
L1I WQ MERGED:          0
L1I WQ FORWARD:          0
L2C TOTAL     ACCESS:   20891570  HIT:    8662805  MISS:   12228765
L2C LOAD      ACCESS:    5100176  HIT:    2140070  MISS:    2960106
L2C RFO       ACCESS:     152808  HIT:       6511  MISS:     146297
L2C PREFETCH  ACCESS:   13865834  HIT:    4743582  MISS:    9122252
L2C WRITEBACK ACCESS:    1772752  HIT:    1772642  MISS:        110
L2C PREFETCH  REQUESTED:    1800101  ISSUED:    1800101  USEFUL:    1063378  USELESS:    8060504
L2C TOTAL MSHR MERGED:      98744
L2C LOAD MSHR MERGED:      24286
L2C RFO MSHR MERGED:          0
L2C PREFETCH MSHR MERGED:      74458
L2C WRITEBACK MSHR MERGED:          0
L2C TOTAL ACCESSES:   21014035 HITS:    8662844 MISSES:   12351191
L2C LOAD ACCESSES:    5100198 HITS:    2140092 MISSES:    2960106
L2C RFO ACCESSES:     152809 HITS:       6512 MISSES:     146297
L2C PREFETCH ACCESSES:   13988276 HITS:    4743598 MISSES:    9244678
L2C WRITEBACK ACCESSES:    1772752 HITS:    1772642 MISSES:        110
L2C RQ ACCESS:    5253007
L2C RQ TO_CACHE:    5252984
L2C RQ MERGED:          0
L2C RQ FORWARD:          0
L2C WQ ACCESS:    1772752
L2C WQ TO_CACHE:    1772752
L2C WQ MERGED:          0
L2C WQ FORWARD:         39
LLC TOTAL     ACCESS:   12532315  HIT:    6188312  MISS:    6344003
LLC LOAD      ACCESS:    2935799  HIT:    2290029  MISS:     645770
LLC RFO       ACCESS:     146297  HIT:      92112  MISS:      54185
LLC PREFETCH  ACCESS:    9164245  HIT:    3568866  MISS:    5595379
LLC WRITEBACK ACCESS:     285974  HIT:     237305  MISS:      48669
LLC PREFETCH  REQUESTED:          0  ISSUED:          0  USEFUL:      11939  USELESS:    5583443
LLC TOTAL MSHR MERGED:       1487
LLC LOAD MSHR MERGED:        288
LLC RFO MSHR MERGED:          0
LLC PREFETCH MSHR MERGED:       1199
LLC WRITEBACK MSHR MERGED:          0
LLC TOTAL ACCESSES:   12533837 HITS:    6188347 MISSES:    6345490
LLC LOAD ACCESSES:    2935820 HITS:    2290050 MISSES:     645770
LLC RFO ACCESSES:     146297 HITS:      92112 MISSES:      54185
LLC PREFETCH ACCESSES:    9165746 HITS:    3568880 MISSES:    5596866
LLC WRITEBACK ACCESSES:     285974 HITS:     237305 MISSES:      48669
LLC 0 RQ ACCESS:    3082117
LLC 0 RQ TO_CACHE:    3082096
LLC 0 RQ MERGED:          0
LLC 0 RQ FORWARD:          0
LLC WQ ACCESS:     285974
LLC WQ TO_CACHE:     285974
LLC WQ MERGED:          0
LLC WQ FORWARD:         35
Major fault: 0 Minor fault: 6524
CPU 0 L1D next line prefetcher final stats
CPU 0 L2C PC-based stride prefetcher final stats
All Misses: 8167350
All Hits: 6889978
SD Algo Stats - Switches: 0 SRR-Repls: 674929 BRR-Repls: 0

DRAM Statistics
 CHANNEL 0
 RQ ROW_BUFFER_HIT:    5444378  ROW_BUFFER_MISS:     841656
 DBUS_CONGESTED:    2264002
 WQ ROW_BUFFER_HIT:      10387  ROW_BUFFER_MISS:      66213  FULL:          0

 AVG_CONGESTED_CYCLE: 12
LOADS RETIRED: 175418235
INSTR RETIRED: 500000000
