
*** ChampSim Multicore Out-of-Order Simulator ***

Warmup Instructions: 100000000
Simulation Instructions: 500000000
Number of CPUs: 1
LLC sets: 2048
LLC ways: 16
Clean RRIP Policies: 1223230112232301 Dirty RRIP Policies: 2213031122130311 PSEL Width: 10 Track Set: 4294967295 PSEL Mask: 1 Demote Mask: 3342011033420110DS Algo: 0Window size: 0
Off-chip DRAM Size: 4096 MB Channels: 1 Width: 64-bit Data Rate: 1600 MT/s

CPU 0 runs /mnt/beegfs/iconst01/spec2017/Roms.trace.gz
NOT SORTED
TRACE STRING: /mnt/beegfs/iconst01/spec2017/Roms.trace.gz
SORTED
TRACE STRING: /mnt/beegfs/iconst01/spec2017/Roms.trace.gz
INITIAL
TRACE STRING: /mnt/beegfs/iconst01/spec2017/Roms.trace.gz

champsim_seed used: 417

CPU 0 L1D next line prefetcher
CPU 0 L2C IP-based stride prefetcher
Initialize DRRIP state
Assign rand_sets[0]: 454  LLC: 2048
rand_sets[0]: 454
Assign rand_sets[1]: 1662  LLC: 2048
rand_sets[1]: 1662
Assign rand_sets[2]: 1921  LLC: 2048
rand_sets[2]: 1921
Assign rand_sets[3]: 1131  LLC: 2048
rand_sets[3]: 1131
Assign rand_sets[4]: 331  LLC: 2048
rand_sets[4]: 331
Assign rand_sets[5]: 1531  LLC: 2048
rand_sets[5]: 1531
Assign rand_sets[6]: 482  LLC: 2048
rand_sets[6]: 482
Assign rand_sets[7]: 1275  LLC: 2048
rand_sets[7]: 1275
Assign rand_sets[8]: 1876  LLC: 2048
rand_sets[8]: 1876
Assign rand_sets[9]: 2038  LLC: 2048
rand_sets[9]: 2038
Assign rand_sets[10]: 701  LLC: 2048
rand_sets[10]: 701
Assign rand_sets[11]: 479  LLC: 2048
rand_sets[11]: 479
Assign rand_sets[12]: 892  LLC: 2048
rand_sets[12]: 892
Assign rand_sets[13]: 1820  LLC: 2048
rand_sets[13]: 1820
Assign rand_sets[14]: 1505  LLC: 2048
rand_sets[14]: 1505
Assign rand_sets[15]: 1159  LLC: 2048
rand_sets[15]: 1159
Assign rand_sets[16]: 513  LLC: 2048
rand_sets[16]: 513
Assign rand_sets[17]: 703  LLC: 2048
rand_sets[17]: 703
Assign rand_sets[18]: 561  LLC: 2048
rand_sets[18]: 561
Assign rand_sets[19]: 990  LLC: 2048
rand_sets[19]: 990
Assign rand_sets[20]: 342  LLC: 2048
rand_sets[20]: 342
Assign rand_sets[21]: 882  LLC: 2048
rand_sets[21]: 882
Assign rand_sets[22]: 15  LLC: 2048
rand_sets[22]: 15
Assign rand_sets[23]: 71  LLC: 2048
rand_sets[23]: 71
Assign rand_sets[24]: 1127  LLC: 2048
rand_sets[24]: 1127
Assign rand_sets[25]: 1382  LLC: 2048
rand_sets[25]: 1382
Assign rand_sets[26]: 647  LLC: 2048
rand_sets[26]: 647
Assign rand_sets[27]: 857  LLC: 2048
rand_sets[27]: 857
Assign rand_sets[28]: 1450  LLC: 2048
rand_sets[28]: 1450
Assign rand_sets[29]: 1160  LLC: 2048
rand_sets[29]: 1160
Assign rand_sets[30]: 1852  LLC: 2048
rand_sets[30]: 1852
Assign rand_sets[31]: 1881  LLC: 2048
rand_sets[31]: 1881
Assign rand_sets[32]: 1770  LLC: 2048
rand_sets[32]: 1770
Assign rand_sets[33]: 1622  LLC: 2048
rand_sets[33]: 1622
Assign rand_sets[34]: 275  LLC: 2048
rand_sets[34]: 275
Assign rand_sets[35]: 635  LLC: 2048
rand_sets[35]: 635
Assign rand_sets[36]: 466  LLC: 2048
rand_sets[36]: 466
Assign rand_sets[37]: 1413  LLC: 2048
rand_sets[37]: 1413
Assign rand_sets[38]: 417  LLC: 2048
rand_sets[38]: 417
Assign rand_sets[39]: 472  LLC: 2048
rand_sets[39]: 472
Assign rand_sets[40]: 1340  LLC: 2048
rand_sets[40]: 1340
Assign rand_sets[41]: 852  LLC: 2048
rand_sets[41]: 852
Assign rand_sets[42]: 1365  LLC: 2048
rand_sets[42]: 1365
Assign rand_sets[43]: 47  LLC: 2048
rand_sets[43]: 47
Assign rand_sets[44]: 823  LLC: 2048
rand_sets[44]: 823
Assign rand_sets[45]: 686  LLC: 2048
rand_sets[45]: 686
Assign rand_sets[46]: 1637  LLC: 2048
rand_sets[46]: 1637
Assign rand_sets[47]: 1115  LLC: 2048
rand_sets[47]: 1115
Assign rand_sets[48]: 986  LLC: 2048
rand_sets[48]: 986
Assign rand_sets[49]: 258  LLC: 2048
rand_sets[49]: 258
Assign rand_sets[50]: 633  LLC: 2048
rand_sets[50]: 633
Assign rand_sets[51]: 920  LLC: 2048
rand_sets[51]: 920
Assign rand_sets[52]: 204  LLC: 2048
rand_sets[52]: 204
Assign rand_sets[53]: 227  LLC: 2048
rand_sets[53]: 227
Assign rand_sets[54]: 1818  LLC: 2048
rand_sets[54]: 1818
Assign rand_sets[55]: 886  LLC: 2048
rand_sets[55]: 886
Assign rand_sets[56]: 1422  LLC: 2048
rand_sets[56]: 1422
Assign rand_sets[57]: 607  LLC: 2048
rand_sets[57]: 607
Assign rand_sets[58]: 217  LLC: 2048
rand_sets[58]: 217
Assign rand_sets[59]: 1945  LLC: 2048
rand_sets[59]: 1945
Assign rand_sets[60]: 143  LLC: 2048
rand_sets[60]: 143
Assign rand_sets[61]: 1311  LLC: 2048
rand_sets[61]: 1311
Assign rand_sets[62]: 319  LLC: 2048
rand_sets[62]: 319
Assign rand_sets[63]: 1846  LLC: 2048
rand_sets[63]: 1846
 CLEAN-RRIP-POLICY-1: 1-2-2-3-2-3-0-1- CLEAN-RRIP-POLICY-2: 1-2-2-3-2-3-0-1-
 DIRTY-RRIP-POLICY-1: 2-2-1-3-0-3-1-1- DIRTY-RRIP-POLICY-2: 2-2-1-3-0-3-1-1-
 PSEL width: 10
Heartbeat CPU 0 instructions: 10000000 cycles: 4688066 heartbeat IPC: 2.13308 cumulative IPC: 2.13308 (Simulation time: 0 hr 0 min 17 sec) 
Heartbeat CPU 0 instructions: 20000000 cycles: 9325334 heartbeat IPC: 2.15644 cumulative IPC: 2.1447 (Simulation time: 0 hr 0 min 34 sec) 
Heartbeat CPU 0 instructions: 30000003 cycles: 14019727 heartbeat IPC: 2.1302 cumulative IPC: 2.13984 (Simulation time: 0 hr 0 min 50 sec) 
Heartbeat CPU 0 instructions: 40000000 cycles: 18670144 heartbeat IPC: 2.15034 cumulative IPC: 2.14246 (Simulation time: 0 hr 1 min 7 sec) 
Heartbeat CPU 0 instructions: 50000003 cycles: 23323507 heartbeat IPC: 2.14898 cumulative IPC: 2.14376 (Simulation time: 0 hr 1 min 24 sec) 
Heartbeat CPU 0 instructions: 60000000 cycles: 27976115 heartbeat IPC: 2.14933 cumulative IPC: 2.14469 (Simulation time: 0 hr 1 min 40 sec) 
Heartbeat CPU 0 instructions: 70000002 cycles: 32367405 heartbeat IPC: 2.27724 cumulative IPC: 2.16267 (Simulation time: 0 hr 1 min 55 sec) 
Heartbeat CPU 0 instructions: 80000000 cycles: 36304203 heartbeat IPC: 2.54013 cumulative IPC: 2.2036 (Simulation time: 0 hr 2 min 7 sec) 
Heartbeat CPU 0 instructions: 90000000 cycles: 40249589 heartbeat IPC: 2.53461 cumulative IPC: 2.23605 (Simulation time: 0 hr 2 min 18 sec) 
Heartbeat CPU 0 instructions: 100000000 cycles: 44212082 heartbeat IPC: 2.52366 cumulative IPC: 2.26183 (Simulation time: 0 hr 2 min 30 sec) 

Warmup complete CPU 0 instructions: 100000002 cycles: 44212083 (Simulation time: 0 hr 2 min 30 sec) 

Heartbeat CPU 0 instructions: 110000000 cycles: 53483152 heartbeat IPC: 1.07862 cumulative IPC: 1.07862 (Simulation time: 0 hr 2 min 49 sec) 
Heartbeat CPU 0 instructions: 120000000 cycles: 62747071 heartbeat IPC: 1.07946 cumulative IPC: 1.07904 (Simulation time: 0 hr 3 min 8 sec) 
Heartbeat CPU 0 instructions: 130000002 cycles: 72012117 heartbeat IPC: 1.07933 cumulative IPC: 1.07914 (Simulation time: 0 hr 3 min 27 sec) 
Heartbeat CPU 0 instructions: 140000000 cycles: 81093504 heartbeat IPC: 1.10115 cumulative IPC: 1.08456 (Simulation time: 0 hr 3 min 45 sec) 
Heartbeat CPU 0 instructions: 150000003 cycles: 90350731 heartbeat IPC: 1.08024 cumulative IPC: 1.08369 (Simulation time: 0 hr 4 min 4 sec) 
Heartbeat CPU 0 instructions: 160000000 cycles: 101162781 heartbeat IPC: 0.924894 cumulative IPC: 1.05354 (Simulation time: 0 hr 4 min 25 sec) 
Heartbeat CPU 0 instructions: 170000000 cycles: 113893009 heartbeat IPC: 0.785532 cumulative IPC: 1.00458 (Simulation time: 0 hr 4 min 48 sec) 
Heartbeat CPU 0 instructions: 180000000 cycles: 126548112 heartbeat IPC: 0.790195 cumulative IPC: 0.971628 (Simulation time: 0 hr 5 min 12 sec) 
Heartbeat CPU 0 instructions: 190000000 cycles: 139441306 heartbeat IPC: 0.775603 cumulative IPC: 0.945088 (Simulation time: 0 hr 5 min 35 sec) 
Heartbeat CPU 0 instructions: 200000000 cycles: 153308534 heartbeat IPC: 0.721125 cumulative IPC: 0.91662 (Simulation time: 0 hr 5 min 58 sec) 
Heartbeat CPU 0 instructions: 210000001 cycles: 167211678 heartbeat IPC: 0.719262 cumulative IPC: 0.894312 (Simulation time: 0 hr 6 min 21 sec) 
Heartbeat CPU 0 instructions: 220000000 cycles: 180976353 heartbeat IPC: 0.726497 cumulative IPC: 0.877422 (Simulation time: 0 hr 6 min 45 sec) 
Heartbeat CPU 0 instructions: 230000000 cycles: 194636445 heartbeat IPC: 0.732059 cumulative IPC: 0.864222 (Simulation time: 0 hr 7 min 9 sec) 
Heartbeat CPU 0 instructions: 240000000 cycles: 208354606 heartbeat IPC: 0.728961 cumulative IPC: 0.852917 (Simulation time: 0 hr 7 min 34 sec) 
Heartbeat CPU 0 instructions: 250000003 cycles: 219449663 heartbeat IPC: 0.901303 cumulative IPC: 0.855981 (Simulation time: 0 hr 7 min 56 sec) 
Heartbeat CPU 0 instructions: 260000000 cycles: 227212767 heartbeat IPC: 1.28814 cumulative IPC: 0.874314 (Simulation time: 0 hr 8 min 15 sec) 
Heartbeat CPU 0 instructions: 270000003 cycles: 235617838 heartbeat IPC: 1.18976 cumulative IPC: 0.888166 (Simulation time: 0 hr 8 min 34 sec) 
Heartbeat CPU 0 instructions: 280000000 cycles: 245332128 heartbeat IPC: 1.02941 cumulative IPC: 0.894988 (Simulation time: 0 hr 8 min 55 sec) 
Heartbeat CPU 0 instructions: 290000000 cycles: 254827576 heartbeat IPC: 1.05314 cumulative IPC: 0.902118 (Simulation time: 0 hr 9 min 16 sec) 
Heartbeat CPU 0 instructions: 300000000 cycles: 264273193 heartbeat IPC: 1.05869 cumulative IPC: 0.908838 (Simulation time: 0 hr 9 min 37 sec) 
Heartbeat CPU 0 instructions: 310000000 cycles: 273769682 heartbeat IPC: 1.05302 cumulative IPC: 0.914803 (Simulation time: 0 hr 9 min 59 sec) 
Heartbeat CPU 0 instructions: 320000000 cycles: 283128870 heartbeat IPC: 1.06847 cumulative IPC: 0.920823 (Simulation time: 0 hr 10 min 20 sec) 
Heartbeat CPU 0 instructions: 330000002 cycles: 292505710 heartbeat IPC: 1.06646 cumulative IPC: 0.926323 (Simulation time: 0 hr 10 min 42 sec) 
Heartbeat CPU 0 instructions: 340000000 cycles: 303177937 heartbeat IPC: 0.937011 cumulative IPC: 0.926763 (Simulation time: 0 hr 11 min 5 sec) 
Heartbeat CPU 0 instructions: 350000001 cycles: 312480584 heartbeat IPC: 1.07496 cumulative IPC: 0.931902 (Simulation time: 0 hr 11 min 26 sec) 
Heartbeat CPU 0 instructions: 360000000 cycles: 321809720 heartbeat IPC: 1.07191 cumulative IPC: 0.936607 (Simulation time: 0 hr 11 min 47 sec) 
Heartbeat CPU 0 instructions: 370000001 cycles: 331142191 heartbeat IPC: 1.07153 cumulative IPC: 0.940996 (Simulation time: 0 hr 12 min 7 sec) 
Heartbeat CPU 0 instructions: 380000000 cycles: 340419388 heartbeat IPC: 1.07791 cumulative IPC: 0.945284 (Simulation time: 0 hr 12 min 28 sec) 
Heartbeat CPU 0 instructions: 390000001 cycles: 349519505 heartbeat IPC: 1.09889 cumulative IPC: 0.949862 (Simulation time: 0 hr 12 min 49 sec) 
Heartbeat CPU 0 instructions: 400000000 cycles: 358720358 heartbeat IPC: 1.08686 cumulative IPC: 0.95387 (Simulation time: 0 hr 13 min 9 sec) 
Heartbeat CPU 0 instructions: 410000003 cycles: 367824141 heartbeat IPC: 1.09844 cumulative IPC: 0.957937 (Simulation time: 0 hr 13 min 30 sec) 
Heartbeat CPU 0 instructions: 420000000 cycles: 377013297 heartbeat IPC: 1.08824 cumulative IPC: 0.961535 (Simulation time: 0 hr 13 min 50 sec) 
Heartbeat CPU 0 instructions: 430000001 cycles: 386090281 heartbeat IPC: 1.10169 cumulative IPC: 0.965256 (Simulation time: 0 hr 14 min 11 sec) 
Heartbeat CPU 0 instructions: 440000000 cycles: 395132434 heartbeat IPC: 1.10593 cumulative IPC: 0.968881 (Simulation time: 0 hr 14 min 32 sec) 
Heartbeat CPU 0 instructions: 450000001 cycles: 405861366 heartbeat IPC: 0.932059 cumulative IPC: 0.967788 (Simulation time: 0 hr 14 min 54 sec) 
Heartbeat CPU 0 instructions: 460000000 cycles: 414935037 heartbeat IPC: 1.10209 cumulative IPC: 0.971076 (Simulation time: 0 hr 15 min 15 sec) 
Heartbeat CPU 0 instructions: 470000003 cycles: 423873556 heartbeat IPC: 1.11875 cumulative IPC: 0.974552 (Simulation time: 0 hr 15 min 35 sec) 
Heartbeat CPU 0 instructions: 480000000 cycles: 432834503 heartbeat IPC: 1.11595 cumulative IPC: 0.977813 (Simulation time: 0 hr 15 min 55 sec) 
Heartbeat CPU 0 instructions: 490000000 cycles: 441760729 heartbeat IPC: 1.12029 cumulative IPC: 0.981012 (Simulation time: 0 hr 16 min 16 sec) 
Heartbeat CPU 0 instructions: 500000000 cycles: 450698470 heartbeat IPC: 1.11885 cumulative IPC: 0.984043 (Simulation time: 0 hr 16 min 36 sec) 
Heartbeat CPU 0 instructions: 510000001 cycles: 459581683 heartbeat IPC: 1.12572 cumulative IPC: 0.987073 (Simulation time: 0 hr 16 min 56 sec) 
Heartbeat CPU 0 instructions: 520000000 cycles: 468515745 heartbeat IPC: 1.11931 cumulative IPC: 0.989857 (Simulation time: 0 hr 17 min 16 sec) 
Heartbeat CPU 0 instructions: 530000001 cycles: 477432722 heartbeat IPC: 1.12146 cumulative IPC: 0.992566 (Simulation time: 0 hr 17 min 37 sec) 
Heartbeat CPU 0 instructions: 540000000 cycles: 486561263 heartbeat IPC: 1.09547 cumulative IPC: 0.994689 (Simulation time: 0 hr 17 min 57 sec) 
Heartbeat CPU 0 instructions: 550000000 cycles: 495723705 heartbeat IPC: 1.09141 cumulative IPC: 0.996652 (Simulation time: 0 hr 18 min 18 sec) 
Heartbeat CPU 0 instructions: 560000000 cycles: 504745201 heartbeat IPC: 1.10846 cumulative IPC: 0.998842 (Simulation time: 0 hr 18 min 38 sec) 
Heartbeat CPU 0 instructions: 570000001 cycles: 517798520 heartbeat IPC: 0.766089 cumulative IPC: 0.992427 (Simulation time: 0 hr 19 min 1 sec) 
Heartbeat CPU 0 instructions: 580000000 cycles: 530756227 heartbeat IPC: 0.771741 cumulative IPC: 0.98655 (Simulation time: 0 hr 19 min 24 sec) 
Heartbeat CPU 0 instructions: 590000001 cycles: 543982269 heartbeat IPC: 0.756084 cumulative IPC: 0.980451 (Simulation time: 0 hr 19 min 46 sec) 
Heartbeat CPU 0 instructions: 600000000 cycles: 556955185 heartbeat IPC: 0.770837 cumulative IPC: 0.975147 (Simulation time: 0 hr 20 min 9 sec) 
Finished CPU 0 instructions: 500000001 cycles: 512743115 cumulative IPC: 0.975147 (Simulation time: 0 hr 20 min 9 sec) 

CPU 0 Branch Prediction Accuracy: 99.7422% MPKI: 0.173296
Number of Branches: 33608403 Number of Mispredictions: 86648
Number of LOAD Instructions: 180215231
Number of LOAD Instructions (ROI): 180215231
Number of STORE Instructions: 36067263
Number of STORE Instructions (ROI): 36067263
Total Destination Memory Operands: 38428915
Total Destination Memory Operands (ROI): 38428915
Total Source Memory Operands: 180215231
Total Source Memory Operands (ROI): 180215231
Number of DEPENDED LOADS: 3042137
Number of DEPENDED LOADS (ROI): 3042137
Number of SQ_ADDED: 38428892
Number of SQ_ADDED (ROI): 38428892
Number of LQ_ADDED: 208434585
Number of LQ_ADDED (ROI): 208434585
Number of Instructions read from trace: 600000257

ChampSim completed all CPUs

Region of Interest Statistics

CPU 0 cumulative IPC: 0.975147 instructions: 500000001 cycles: 512743115
ITLB TOTAL     ACCESS:   92259003  HIT:   92258984  MISS:         19
ITLB LOAD      ACCESS:   92259003  HIT:   92258984  MISS:         19
ITLB RFO       ACCESS:          0  HIT:          0  MISS:          0
ITLB PREFETCH  ACCESS:          0  HIT:          0  MISS:          0
ITLB WRITEBACK ACCESS:          0  HIT:          0  MISS:          0
ITLB PREFETCH  REQUESTED:          0  ISSUED:          0  USEFUL:          0  USELESS:          0
ITLB TOTAL MSHR MERGED:         40
ITLB LOAD MSHR MERGED:         40
ITLB RFO MSHR MERGED:          0
ITLB PREFETCH MSHR MERGED:          0
ITLB WRITEBACK MSHR MERGED:          0
ITLB TOTAL ACCESSES:   92259043 HITS:   92258984 MISSES:         59
ITLB LOAD ACCESSES:   92259043 HITS:   92258984 MISSES:         59
ITLB RFO ACCESSES:          0 HITS:          0 MISSES:          0
ITLB PREFETCH ACCESSES:          0 HITS:          0 MISSES:          0
ITLB WRITEBACK ACCESSES:          0 HITS:          0 MISSES:          0
ITLB RQ ACCESS:  500000003
ITLB RQ TO_CACHE:   92259043
ITLB RQ MERGED:  407740960
ITLB RQ FORWARD:          0
ITLB WQ ACCESS:          0
ITLB WQ TO_CACHE:          0
ITLB WQ MERGED:          0
ITLB WQ FORWARD:          0
DTLB TOTAL     ACCESS:  141855348  HIT:  141488886  MISS:     366462
DTLB LOAD      ACCESS:  119252068  HIT:  118938482  MISS:     313586
DTLB RFO       ACCESS:   22603280  HIT:   22550404  MISS:      52876
DTLB PREFETCH  ACCESS:          0  HIT:          0  MISS:          0
DTLB WRITEBACK ACCESS:          0  HIT:          0  MISS:          0
DTLB PREFETCH  REQUESTED:          0  ISSUED:          0  USEFUL:          0  USELESS:          0
DTLB TOTAL MSHR MERGED:     285352
DTLB LOAD MSHR MERGED:     237272
DTLB RFO MSHR MERGED:      48080
DTLB PREFETCH MSHR MERGED:          0
DTLB WRITEBACK MSHR MERGED:          0
DTLB TOTAL ACCESSES:  142140700 HITS:  141488886 MISSES:     651814
DTLB LOAD ACCESSES:  119489340 HITS:  118938482 MISSES:     550858
DTLB RFO ACCESSES:   22651360 HITS:   22550404 MISSES:     100956
DTLB PREFETCH ACCESSES:          0 HITS:          0 MISSES:          0
DTLB WRITEBACK ACCESSES:          0 HITS:          0 MISSES:          0
DTLB RQ ACCESS:  184790841
DTLB RQ TO_CACHE:  142140700
DTLB RQ MERGED:   42650141
DTLB RQ FORWARD:          0
DTLB WQ ACCESS:          0
DTLB WQ TO_CACHE:          0
DTLB WQ MERGED:          0
DTLB WQ FORWARD:          0
L1D TOTAL     ACCESS:  184353072  HIT:  170917271  MISS:   13435801
L1D LOAD      ACCESS:  111285914  HIT:  107571618  MISS:    3714296
L1D RFO       ACCESS:   16790875  HIT:   14009131  MISS:    2781744
L1D PREFETCH  ACCESS:   56276283  HIT:   49336522  MISS:    6939761
L1D WRITEBACK ACCESS:          0  HIT:          0  MISS:          0
L1D PREFETCH  REQUESTED:  116412334  ISSUED:  115056029  USEFUL:    6730624  USELESS:     209139
L1D TOTAL MSHR MERGED:   37631537
L1D LOAD MSHR MERGED:    8285579
L1D RFO MSHR MERGED:   11461620
L1D PREFETCH MSHR MERGED:   17884338
L1D WRITEBACK MSHR MERGED:          0
L1D TOTAL ACCESSES:  221986532 HITS:  170919191 MISSES:   51067341
L1D LOAD ACCESSES:  116413914 HITS:  107573198 MISSES:    8840716
L1D RFO ACCESSES:   28252414 HITS:   14009131 MISSES:   14243283
L1D PREFETCH ACCESSES:   77320204 HITS:   49336862 MISSES:   27983342
L1D WRITEBACK ACCESSES:          0 HITS:          0 MISSES:          0
L1D RQ ACCESS:  156534775
L1D RQ TO_CACHE:  116412337
L1D RQ MERGED:   40120858
L1D RQ FORWARD:          0
L1D WQ ACCESS:   28256066
L1D WQ TO_CACHE:   28252414
L1D WQ MERGED:       3652
L1D WQ FORWARD:       1920
L1I TOTAL     ACCESS:  116254732  HIT:  116253784  MISS:        948
L1I LOAD      ACCESS:  116254732  HIT:  116253784  MISS:        948
L1I RFO       ACCESS:          0  HIT:          0  MISS:          0
L1I PREFETCH  ACCESS:          0  HIT:          0  MISS:          0
L1I WRITEBACK ACCESS:          0  HIT:          0  MISS:          0
L1I PREFETCH  REQUESTED:          0  ISSUED:          0  USEFUL:          0  USELESS:          0
L1I TOTAL MSHR MERGED:       1585
L1I LOAD MSHR MERGED:       1585
L1I RFO MSHR MERGED:          0
L1I PREFETCH MSHR MERGED:          0
L1I WRITEBACK MSHR MERGED:          0
L1I TOTAL ACCESSES:  116256317 HITS:  116253784 MISSES:       2533
L1I LOAD ACCESSES:  116256317 HITS:  116253784 MISSES:       2533
L1I RFO ACCESSES:          0 HITS:          0 MISSES:          0
L1I PREFETCH ACCESSES:          0 HITS:          0 MISSES:          0
L1I WRITEBACK ACCESSES:          0 HITS:          0 MISSES:          0
L1I RQ ACCESS:  500000007
L1I RQ TO_CACHE:  116256317
L1I RQ MERGED:  383743690
L1I RQ FORWARD:          0
L1I WQ ACCESS:          0
L1I WQ TO_CACHE:          0
L1I WQ MERGED:          0
L1I WQ FORWARD:          0
L2C TOTAL     ACCESS:   16680784  HIT:    4836440  MISS:   11844344
L2C LOAD      ACCESS:     556055  HIT:      95144  MISS:     460911
L2C RFO       ACCESS:    2781663  HIT:     266607  MISS:    2515056
L2C PREFETCH  ACCESS:   10122470  HIT:    1256358  MISS:    8866112
L2C WRITEBACK ACCESS:    3220596  HIT:    3218331  MISS:       2265
L2C PREFETCH  REQUESTED:      25561  ISSUED:      25561  USEFUL:      92458  USELESS:    8771734
L2C TOTAL MSHR MERGED:        561
L2C LOAD MSHR MERGED:         12
L2C RFO MSHR MERGED:          0
L2C PREFETCH MSHR MERGED:        549
L2C WRITEBACK MSHR MERGED:          0
L2C TOTAL ACCESSES:   16681518 HITS:    4836494 MISSES:   11845024
L2C LOAD ACCESSES:     556085 HITS:      95174 MISSES:     460911
L2C RFO ACCESSES:    2781663 HITS:     266607 MISSES:    2515056
L2C PREFETCH ACCESSES:   10123174 HITS:    1256382 MISSES:    8866792
L2C WRITEBACK ACCESSES:    3220596 HITS:    3218331 MISSES:       2265
L2C RQ ACCESS:    3337748
L2C RQ TO_CACHE:    3337718
L2C RQ MERGED:          0
L2C RQ FORWARD:          0
L2C WQ ACCESS:    3220596
L2C WQ TO_CACHE:    3220596
L2C WQ MERGED:          0
L2C WQ FORWARD:         54
LLC TOTAL     ACCESS:   14742508  HIT:    4629458  MISS:   10113050
LLC LOAD      ACCESS:     460897  HIT:     201287  MISS:     259610
LLC RFO       ACCESS:    2515036  HIT:    1141140  MISS:    1373896
LLC PREFETCH  ACCESS:    8866181  HIT:    1798556  MISS:    7067625
LLC WRITEBACK ACCESS:    2900394  HIT:    1488475  MISS:    1411919
LLC PREFETCH  REQUESTED:          0  ISSUED:          0  USEFUL:       3107  USELESS:    7064099
LLC TOTAL MSHR MERGED:         10
LLC LOAD MSHR MERGED:          0
LLC RFO MSHR MERGED:          0
LLC PREFETCH MSHR MERGED:         10
LLC WRITEBACK MSHR MERGED:          0
LLC TOTAL ACCESSES:   14742585 HITS:    4629522 MISSES:   10113063
LLC LOAD ACCESSES:     460899 HITS:     201289 MISSES:     259610
LLC RFO ACCESSES:    2515056 HITS:    1141160 MISSES:    1373896
LLC PREFETCH ACCESSES:    8866236 HITS:    1798598 MISSES:    7067638
LLC WRITEBACK ACCESSES:    2900394 HITS:    1488475 MISSES:    1411919
LLC 0 RQ ACCESS:    2975955
LLC 0 RQ TO_CACHE:    2975933
LLC 0 RQ MERGED:          0
LLC 0 RQ FORWARD:          0
LLC WQ ACCESS:    2900394
LLC WQ TO_CACHE:    2900394
LLC WQ MERGED:          0
LLC WQ FORWARD:         64
Major fault: 0 Minor fault: 57518
CPU 0 L1D next line prefetcher final stats
CPU 0 L2C PC-based stride prefetcher final stats
All Misses: 10836348
All Hits: 5402341
SD Algo Stats - Switches: 0 SRR-Repls: 267430 BRR-Repls: 0

DRAM Statistics
 CHANNEL 0
 RQ ROW_BUFFER_HIT:    4250207  ROW_BUFFER_MISS:    4444479
 DBUS_CONGESTED:    4751543
 WQ ROW_BUFFER_HIT:     263411  ROW_BUFFER_MISS:    1402761  FULL:          0

 AVG_CONGESTED_CYCLE: 12
LOADS RETIRED: 157818985
INSTR RETIRED: 500000000
