
*** ChampSim Multicore Out-of-Order Simulator ***

Warmup Instructions: 100000000
Simulation Instructions: 500000000
Number of CPUs: 1
LLC sets: 2048
LLC ways: 16
Clean RRIP Policies: 1213230112132301 Dirty RRIP Policies: 2213130122131301 PSEL Width: 10 Track Set: 4294967295 PSEL Mask: 1 Demote Mask: 1310100013101000DS Algo: 0Window size: 0
Off-chip DRAM Size: 4096 MB Channels: 1 Width: 64-bit Data Rate: 1600 MT/s

CPU 0 runs /mnt/beegfs/iconst01/spec2017/Roms.trace.gz
NOT SORTED
TRACE STRING: /mnt/beegfs/iconst01/spec2017/Roms.trace.gz
SORTED
TRACE STRING: /mnt/beegfs/iconst01/spec2017/Roms.trace.gz
INITIAL
TRACE STRING: /mnt/beegfs/iconst01/spec2017/Roms.trace.gz

champsim_seed used: 417

CPU 0 L1D next line prefetcher
CPU 0 L2C IP-based stride prefetcher
Initialize DRRIP state
Assign rand_sets[0]: 454  LLC: 2048
rand_sets[0]: 454
Assign rand_sets[1]: 1662  LLC: 2048
rand_sets[1]: 1662
Assign rand_sets[2]: 1921  LLC: 2048
rand_sets[2]: 1921
Assign rand_sets[3]: 1131  LLC: 2048
rand_sets[3]: 1131
Assign rand_sets[4]: 331  LLC: 2048
rand_sets[4]: 331
Assign rand_sets[5]: 1531  LLC: 2048
rand_sets[5]: 1531
Assign rand_sets[6]: 482  LLC: 2048
rand_sets[6]: 482
Assign rand_sets[7]: 1275  LLC: 2048
rand_sets[7]: 1275
Assign rand_sets[8]: 1876  LLC: 2048
rand_sets[8]: 1876
Assign rand_sets[9]: 2038  LLC: 2048
rand_sets[9]: 2038
Assign rand_sets[10]: 701  LLC: 2048
rand_sets[10]: 701
Assign rand_sets[11]: 479  LLC: 2048
rand_sets[11]: 479
Assign rand_sets[12]: 892  LLC: 2048
rand_sets[12]: 892
Assign rand_sets[13]: 1820  LLC: 2048
rand_sets[13]: 1820
Assign rand_sets[14]: 1505  LLC: 2048
rand_sets[14]: 1505
Assign rand_sets[15]: 1159  LLC: 2048
rand_sets[15]: 1159
Assign rand_sets[16]: 513  LLC: 2048
rand_sets[16]: 513
Assign rand_sets[17]: 703  LLC: 2048
rand_sets[17]: 703
Assign rand_sets[18]: 561  LLC: 2048
rand_sets[18]: 561
Assign rand_sets[19]: 990  LLC: 2048
rand_sets[19]: 990
Assign rand_sets[20]: 342  LLC: 2048
rand_sets[20]: 342
Assign rand_sets[21]: 882  LLC: 2048
rand_sets[21]: 882
Assign rand_sets[22]: 15  LLC: 2048
rand_sets[22]: 15
Assign rand_sets[23]: 71  LLC: 2048
rand_sets[23]: 71
Assign rand_sets[24]: 1127  LLC: 2048
rand_sets[24]: 1127
Assign rand_sets[25]: 1382  LLC: 2048
rand_sets[25]: 1382
Assign rand_sets[26]: 647  LLC: 2048
rand_sets[26]: 647
Assign rand_sets[27]: 857  LLC: 2048
rand_sets[27]: 857
Assign rand_sets[28]: 1450  LLC: 2048
rand_sets[28]: 1450
Assign rand_sets[29]: 1160  LLC: 2048
rand_sets[29]: 1160
Assign rand_sets[30]: 1852  LLC: 2048
rand_sets[30]: 1852
Assign rand_sets[31]: 1881  LLC: 2048
rand_sets[31]: 1881
Assign rand_sets[32]: 1770  LLC: 2048
rand_sets[32]: 1770
Assign rand_sets[33]: 1622  LLC: 2048
rand_sets[33]: 1622
Assign rand_sets[34]: 275  LLC: 2048
rand_sets[34]: 275
Assign rand_sets[35]: 635  LLC: 2048
rand_sets[35]: 635
Assign rand_sets[36]: 466  LLC: 2048
rand_sets[36]: 466
Assign rand_sets[37]: 1413  LLC: 2048
rand_sets[37]: 1413
Assign rand_sets[38]: 417  LLC: 2048
rand_sets[38]: 417
Assign rand_sets[39]: 472  LLC: 2048
rand_sets[39]: 472
Assign rand_sets[40]: 1340  LLC: 2048
rand_sets[40]: 1340
Assign rand_sets[41]: 852  LLC: 2048
rand_sets[41]: 852
Assign rand_sets[42]: 1365  LLC: 2048
rand_sets[42]: 1365
Assign rand_sets[43]: 47  LLC: 2048
rand_sets[43]: 47
Assign rand_sets[44]: 823  LLC: 2048
rand_sets[44]: 823
Assign rand_sets[45]: 686  LLC: 2048
rand_sets[45]: 686
Assign rand_sets[46]: 1637  LLC: 2048
rand_sets[46]: 1637
Assign rand_sets[47]: 1115  LLC: 2048
rand_sets[47]: 1115
Assign rand_sets[48]: 986  LLC: 2048
rand_sets[48]: 986
Assign rand_sets[49]: 258  LLC: 2048
rand_sets[49]: 258
Assign rand_sets[50]: 633  LLC: 2048
rand_sets[50]: 633
Assign rand_sets[51]: 920  LLC: 2048
rand_sets[51]: 920
Assign rand_sets[52]: 204  LLC: 2048
rand_sets[52]: 204
Assign rand_sets[53]: 227  LLC: 2048
rand_sets[53]: 227
Assign rand_sets[54]: 1818  LLC: 2048
rand_sets[54]: 1818
Assign rand_sets[55]: 886  LLC: 2048
rand_sets[55]: 886
Assign rand_sets[56]: 1422  LLC: 2048
rand_sets[56]: 1422
Assign rand_sets[57]: 607  LLC: 2048
rand_sets[57]: 607
Assign rand_sets[58]: 217  LLC: 2048
rand_sets[58]: 217
Assign rand_sets[59]: 1945  LLC: 2048
rand_sets[59]: 1945
Assign rand_sets[60]: 143  LLC: 2048
rand_sets[60]: 143
Assign rand_sets[61]: 1311  LLC: 2048
rand_sets[61]: 1311
Assign rand_sets[62]: 319  LLC: 2048
rand_sets[62]: 319
Assign rand_sets[63]: 1846  LLC: 2048
rand_sets[63]: 1846
 CLEAN-RRIP-POLICY-1: 1-2-1-3-2-3-0-1- CLEAN-RRIP-POLICY-2: 1-2-1-3-2-3-0-1-
 DIRTY-RRIP-POLICY-1: 2-2-1-3-1-3-0-1- DIRTY-RRIP-POLICY-2: 2-2-1-3-1-3-0-1-
 PSEL width: 10
Heartbeat CPU 0 instructions: 10000000 cycles: 4688066 heartbeat IPC: 2.13308 cumulative IPC: 2.13308 (Simulation time: 0 hr 0 min 18 sec) 
Heartbeat CPU 0 instructions: 20000000 cycles: 9325334 heartbeat IPC: 2.15644 cumulative IPC: 2.1447 (Simulation time: 0 hr 0 min 35 sec) 
Heartbeat CPU 0 instructions: 30000003 cycles: 14019728 heartbeat IPC: 2.1302 cumulative IPC: 2.13984 (Simulation time: 0 hr 0 min 53 sec) 
Heartbeat CPU 0 instructions: 40000000 cycles: 18670141 heartbeat IPC: 2.15035 cumulative IPC: 2.14246 (Simulation time: 0 hr 1 min 11 sec) 
Heartbeat CPU 0 instructions: 50000003 cycles: 23323500 heartbeat IPC: 2.14899 cumulative IPC: 2.14376 (Simulation time: 0 hr 1 min 28 sec) 
Heartbeat CPU 0 instructions: 60000000 cycles: 27976125 heartbeat IPC: 2.14932 cumulative IPC: 2.14469 (Simulation time: 0 hr 1 min 46 sec) 
Heartbeat CPU 0 instructions: 70000002 cycles: 32367334 heartbeat IPC: 2.27728 cumulative IPC: 2.16267 (Simulation time: 0 hr 2 min 1 sec) 
Heartbeat CPU 0 instructions: 80000000 cycles: 36304161 heartbeat IPC: 2.54012 cumulative IPC: 2.2036 (Simulation time: 0 hr 2 min 14 sec) 
Heartbeat CPU 0 instructions: 90000000 cycles: 40249461 heartbeat IPC: 2.53466 cumulative IPC: 2.23605 (Simulation time: 0 hr 2 min 26 sec) 
Heartbeat CPU 0 instructions: 100000000 cycles: 44211902 heartbeat IPC: 2.5237 cumulative IPC: 2.26183 (Simulation time: 0 hr 2 min 39 sec) 

Warmup complete CPU 0 instructions: 100000002 cycles: 44211903 (Simulation time: 0 hr 2 min 39 sec) 

Heartbeat CPU 0 instructions: 110000001 cycles: 53154918 heartbeat IPC: 1.11819 cumulative IPC: 1.11819 (Simulation time: 0 hr 2 min 59 sec) 
Heartbeat CPU 0 instructions: 120000000 cycles: 62057539 heartbeat IPC: 1.12326 cumulative IPC: 1.12072 (Simulation time: 0 hr 3 min 19 sec) 
Heartbeat CPU 0 instructions: 130000002 cycles: 70959228 heartbeat IPC: 1.12338 cumulative IPC: 1.12161 (Simulation time: 0 hr 3 min 38 sec) 
Heartbeat CPU 0 instructions: 140000000 cycles: 79704159 heartbeat IPC: 1.14352 cumulative IPC: 1.12701 (Simulation time: 0 hr 3 min 58 sec) 
Heartbeat CPU 0 instructions: 150000003 cycles: 88617394 heartbeat IPC: 1.12193 cumulative IPC: 1.12599 (Simulation time: 0 hr 4 min 18 sec) 
Heartbeat CPU 0 instructions: 160000000 cycles: 99121754 heartbeat IPC: 0.951985 cumulative IPC: 1.0927 (Simulation time: 0 hr 4 min 40 sec) 
Heartbeat CPU 0 instructions: 170000002 cycles: 111626871 heartbeat IPC: 0.799673 cumulative IPC: 1.03835 (Simulation time: 0 hr 5 min 5 sec) 
Heartbeat CPU 0 instructions: 180000000 cycles: 124123967 heartbeat IPC: 0.800186 cumulative IPC: 1.0011 (Simulation time: 0 hr 5 min 30 sec) 
Heartbeat CPU 0 instructions: 190000000 cycles: 136905798 heartbeat IPC: 0.782361 cumulative IPC: 0.970938 (Simulation time: 0 hr 5 min 55 sec) 
Heartbeat CPU 0 instructions: 200000000 cycles: 150769825 heartbeat IPC: 0.721291 cumulative IPC: 0.938457 (Simulation time: 0 hr 6 min 20 sec) 
Heartbeat CPU 0 instructions: 210000001 cycles: 164674829 heartbeat IPC: 0.719166 cumulative IPC: 0.913144 (Simulation time: 0 hr 6 min 45 sec) 
Heartbeat CPU 0 instructions: 220000000 cycles: 178445718 heartbeat IPC: 0.726169 cumulative IPC: 0.893963 (Simulation time: 0 hr 7 min 10 sec) 
Heartbeat CPU 0 instructions: 230000000 cycles: 191992593 heartbeat IPC: 0.738178 cumulative IPC: 0.879682 (Simulation time: 0 hr 7 min 36 sec) 
Heartbeat CPU 0 instructions: 240000000 cycles: 205628414 heartbeat IPC: 0.733362 cumulative IPC: 0.867321 (Simulation time: 0 hr 8 min 2 sec) 
Heartbeat CPU 0 instructions: 250000003 cycles: 216776545 heartbeat IPC: 0.897012 cumulative IPC: 0.86924 (Simulation time: 0 hr 8 min 26 sec) 
Heartbeat CPU 0 instructions: 260000000 cycles: 224693090 heartbeat IPC: 1.26318 cumulative IPC: 0.886519 (Simulation time: 0 hr 8 min 47 sec) 
Heartbeat CPU 0 instructions: 270000003 cycles: 233222772 heartbeat IPC: 1.17238 cumulative IPC: 0.899419 (Simulation time: 0 hr 9 min 8 sec) 
Heartbeat CPU 0 instructions: 280000000 cycles: 242705939 heartbeat IPC: 1.0545 cumulative IPC: 0.906828 (Simulation time: 0 hr 9 min 30 sec) 
Heartbeat CPU 0 instructions: 290000000 cycles: 251886787 heartbeat IPC: 1.08922 cumulative IPC: 0.914892 (Simulation time: 0 hr 9 min 52 sec) 
Heartbeat CPU 0 instructions: 300000000 cycles: 260927856 heartbeat IPC: 1.10606 cumulative IPC: 0.922867 (Simulation time: 0 hr 10 min 14 sec) 
Heartbeat CPU 0 instructions: 310000000 cycles: 269983214 heartbeat IPC: 1.10432 cumulative IPC: 0.930145 (Simulation time: 0 hr 10 min 37 sec) 
Heartbeat CPU 0 instructions: 320000000 cycles: 279045984 heartbeat IPC: 1.10342 cumulative IPC: 0.936832 (Simulation time: 0 hr 11 min 0 sec) 
Heartbeat CPU 0 instructions: 330000002 cycles: 288014250 heartbeat IPC: 1.11504 cumulative IPC: 0.943387 (Simulation time: 0 hr 11 min 23 sec) 
Heartbeat CPU 0 instructions: 340000000 cycles: 298378657 heartbeat IPC: 0.96484 cumulative IPC: 0.944262 (Simulation time: 0 hr 11 min 47 sec) 
Heartbeat CPU 0 instructions: 350000001 cycles: 307381259 heartbeat IPC: 1.11079 cumulative IPC: 0.949959 (Simulation time: 0 hr 12 min 9 sec) 
Heartbeat CPU 0 instructions: 360000000 cycles: 316317227 heartbeat IPC: 1.11907 cumulative IPC: 0.955512 (Simulation time: 0 hr 12 min 31 sec) 
Heartbeat CPU 0 instructions: 370000000 cycles: 325201267 heartbeat IPC: 1.12561 cumulative IPC: 0.96089 (Simulation time: 0 hr 12 min 53 sec) 
Heartbeat CPU 0 instructions: 380000000 cycles: 333971080 heartbeat IPC: 1.14028 cumulative IPC: 0.96632 (Simulation time: 0 hr 13 min 14 sec) 
Heartbeat CPU 0 instructions: 390000001 cycles: 342519170 heartbeat IPC: 1.16985 cumulative IPC: 0.972152 (Simulation time: 0 hr 13 min 35 sec) 
Heartbeat CPU 0 instructions: 400000000 cycles: 351132712 heartbeat IPC: 1.16096 cumulative IPC: 0.977451 (Simulation time: 0 hr 13 min 56 sec) 
Heartbeat CPU 0 instructions: 410000003 cycles: 359618591 heartbeat IPC: 1.17843 cumulative IPC: 0.982858 (Simulation time: 0 hr 14 min 18 sec) 
Heartbeat CPU 0 instructions: 420000000 cycles: 368168748 heartbeat IPC: 1.16957 cumulative IPC: 0.987786 (Simulation time: 0 hr 14 min 39 sec) 
Heartbeat CPU 0 instructions: 430000001 cycles: 376617529 heartbeat IPC: 1.1836 cumulative IPC: 0.992763 (Simulation time: 0 hr 15 min 0 sec) 
Heartbeat CPU 0 instructions: 440000000 cycles: 385005455 heartbeat IPC: 1.19219 cumulative IPC: 0.997671 (Simulation time: 0 hr 15 min 21 sec) 
Heartbeat CPU 0 instructions: 450000001 cycles: 394697187 heartbeat IPC: 1.03181 cumulative IPC: 0.998615 (Simulation time: 0 hr 15 min 44 sec) 
Heartbeat CPU 0 instructions: 460000000 cycles: 403097476 heartbeat IPC: 1.19044 cumulative IPC: 1.00311 (Simulation time: 0 hr 16 min 5 sec) 
Heartbeat CPU 0 instructions: 470000003 cycles: 411356625 heartbeat IPC: 1.21078 cumulative IPC: 1.00778 (Simulation time: 0 hr 16 min 26 sec) 
Heartbeat CPU 0 instructions: 480000000 cycles: 419640631 heartbeat IPC: 1.20715 cumulative IPC: 1.01218 (Simulation time: 0 hr 16 min 46 sec) 
Heartbeat CPU 0 instructions: 490000000 cycles: 427888024 heartbeat IPC: 1.2125 cumulative IPC: 1.01648 (Simulation time: 0 hr 17 min 7 sec) 
Heartbeat CPU 0 instructions: 500000000 cycles: 436133028 heartbeat IPC: 1.21286 cumulative IPC: 1.02061 (Simulation time: 0 hr 17 min 27 sec) 
Heartbeat CPU 0 instructions: 510000001 cycles: 444333766 heartbeat IPC: 1.2194 cumulative IPC: 1.02469 (Simulation time: 0 hr 17 min 48 sec) 
Heartbeat CPU 0 instructions: 520000000 cycles: 452575634 heartbeat IPC: 1.21332 cumulative IPC: 1.02849 (Simulation time: 0 hr 18 min 8 sec) 
Heartbeat CPU 0 instructions: 530000001 cycles: 460808835 heartbeat IPC: 1.21459 cumulative IPC: 1.03217 (Simulation time: 0 hr 18 min 28 sec) 
Heartbeat CPU 0 instructions: 540000000 cycles: 469207925 heartbeat IPC: 1.19061 cumulative IPC: 1.0353 (Simulation time: 0 hr 18 min 49 sec) 
Heartbeat CPU 0 instructions: 550000000 cycles: 477650504 heartbeat IPC: 1.18447 cumulative IPC: 1.03821 (Simulation time: 0 hr 19 min 9 sec) 
Heartbeat CPU 0 instructions: 560000000 cycles: 485864902 heartbeat IPC: 1.21737 cumulative IPC: 1.04154 (Simulation time: 0 hr 19 min 30 sec) 
Heartbeat CPU 0 instructions: 570000001 cycles: 497223202 heartbeat IPC: 0.880414 cumulative IPC: 1.0375 (Simulation time: 0 hr 19 min 52 sec) 
Heartbeat CPU 0 instructions: 580000000 cycles: 508319290 heartbeat IPC: 0.901218 cumulative IPC: 1.03424 (Simulation time: 0 hr 20 min 14 sec) 
Heartbeat CPU 0 instructions: 590000001 cycles: 519651248 heartbeat IPC: 0.88246 cumulative IPC: 1.03063 (Simulation time: 0 hr 20 min 36 sec) 
Heartbeat CPU 0 instructions: 600000000 cycles: 530681289 heartbeat IPC: 0.906615 cumulative IPC: 1.02781 (Simulation time: 0 hr 20 min 58 sec) 
Finished CPU 0 instructions: 500000001 cycles: 486469399 cumulative IPC: 1.02781 (Simulation time: 0 hr 20 min 58 sec) 

CPU 0 Branch Prediction Accuracy: 99.7422% MPKI: 0.173296
Number of Branches: 33608403 Number of Mispredictions: 86648
Number of LOAD Instructions: 180215231
Number of LOAD Instructions (ROI): 180215231
Number of STORE Instructions: 36067263
Number of STORE Instructions (ROI): 36067263
Total Destination Memory Operands: 38428915
Total Destination Memory Operands (ROI): 38428915
Total Source Memory Operands: 180215231
Total Source Memory Operands (ROI): 180215231
Number of DEPENDED LOADS: 3041501
Number of DEPENDED LOADS (ROI): 3041501
Number of SQ_ADDED: 38428892
Number of SQ_ADDED (ROI): 38428892
Number of LQ_ADDED: 207858776
Number of LQ_ADDED (ROI): 207858776
Number of Instructions read from trace: 600000257

ChampSim completed all CPUs

Region of Interest Statistics

CPU 0 cumulative IPC: 1.02781 instructions: 500000001 cycles: 486469399
ITLB TOTAL     ACCESS:   91947479  HIT:   91947460  MISS:         19
ITLB LOAD      ACCESS:   91947479  HIT:   91947460  MISS:         19
ITLB RFO       ACCESS:          0  HIT:          0  MISS:          0
ITLB PREFETCH  ACCESS:          0  HIT:          0  MISS:          0
ITLB WRITEBACK ACCESS:          0  HIT:          0  MISS:          0
ITLB PREFETCH  REQUESTED:          0  ISSUED:          0  USEFUL:          0  USELESS:          0
ITLB TOTAL MSHR MERGED:         40
ITLB LOAD MSHR MERGED:         40
ITLB RFO MSHR MERGED:          0
ITLB PREFETCH MSHR MERGED:          0
ITLB WRITEBACK MSHR MERGED:          0
ITLB TOTAL ACCESSES:   91947519 HITS:   91947460 MISSES:         59
ITLB LOAD ACCESSES:   91947519 HITS:   91947460 MISSES:         59
ITLB RFO ACCESSES:          0 HITS:          0 MISSES:          0
ITLB PREFETCH ACCESSES:          0 HITS:          0 MISSES:          0
ITLB WRITEBACK ACCESSES:          0 HITS:          0 MISSES:          0
ITLB RQ ACCESS:  500000003
ITLB RQ TO_CACHE:   91947519
ITLB RQ MERGED:  408052484
ITLB RQ FORWARD:          0
ITLB WQ ACCESS:          0
ITLB WQ TO_CACHE:          0
ITLB WQ MERGED:          0
ITLB WQ FORWARD:          0
DTLB TOTAL     ACCESS:  141993634  HIT:  141627173  MISS:     366461
DTLB LOAD      ACCESS:  119366245  HIT:  119052660  MISS:     313585
DTLB RFO       ACCESS:   22627389  HIT:   22574513  MISS:      52876
DTLB PREFETCH  ACCESS:          0  HIT:          0  MISS:          0
DTLB WRITEBACK ACCESS:          0  HIT:          0  MISS:          0
DTLB PREFETCH  REQUESTED:          0  ISSUED:          0  USEFUL:          0  USELESS:          0
DTLB TOTAL MSHR MERGED:     287156
DTLB LOAD MSHR MERGED:     239146
DTLB RFO MSHR MERGED:      48010
DTLB PREFETCH MSHR MERGED:          0
DTLB WRITEBACK MSHR MERGED:          0
DTLB TOTAL ACCESSES:  142280790 HITS:  141627173 MISSES:     653617
DTLB LOAD ACCESSES:  119605391 HITS:  119052660 MISSES:     552731
DTLB RFO ACCESSES:   22675399 HITS:   22574513 MISSES:     100886
DTLB PREFETCH ACCESSES:          0 HITS:          0 MISSES:          0
DTLB WRITEBACK ACCESSES:          0 HITS:          0 MISSES:          0
DTLB RQ ACCESS:  184791477
DTLB RQ TO_CACHE:  142280790
DTLB RQ MERGED:   42510687
DTLB RQ FORWARD:          0
DTLB WQ ACCESS:          0
DTLB WQ TO_CACHE:          0
DTLB WQ MERGED:          0
DTLB WQ FORWARD:          0
L1D TOTAL     ACCESS:  188665566  HIT:  175219567  MISS:   13445999
L1D LOAD      ACCESS:  111752045  HIT:  108363793  MISS:    3388252
L1D RFO       ACCESS:   18418775  HIT:   15637004  MISS:    2781771
L1D PREFETCH  ACCESS:   58494746  HIT:   51218770  MISS:    7275976
L1D WRITEBACK ACCESS:          0  HIT:          0  MISS:          0
L1D PREFETCH  REQUESTED:  116480535  ISSUED:  115119962  USEFUL:    7066501  USELESS:     209475
L1D TOTAL MSHR MERGED:   33161572
L1D LOAD MSHR MERGED:    7561156
L1D RFO MSHR MERGED:    9833917
L1D PREFETCH MSHR MERGED:   15766499
L1D WRITEBACK MSHR MERGED:          0
L1D TOTAL ACCESSES:  221827591 HITS:  175220019 MISSES:   46607572
L1D LOAD ACCESSES:  116480620 HITS:  108363878 MISSES:    8116742
L1D RFO ACCESSES:   28252617 HITS:   15637004 MISSES:   12615613
L1D PREFETCH ACCESSES:   77094354 HITS:   51219137 MISSES:   25875217
L1D WRITEBACK ACCESSES:          0 HITS:          0 MISSES:          0
L1D RQ ACCESS:  156535411
L1D RQ TO_CACHE:  116480538
L1D RQ MERGED:   40054788
L1D RQ FORWARD:          0
L1D WQ ACCESS:   28256066
L1D WQ TO_CACHE:   28252617
L1D WQ MERGED:       3449
L1D WQ FORWARD:        452
L1I TOTAL     ACCESS:  115938489  HIT:  115937541  MISS:        948
L1I LOAD      ACCESS:  115938489  HIT:  115937541  MISS:        948
L1I RFO       ACCESS:          0  HIT:          0  MISS:          0
L1I PREFETCH  ACCESS:          0  HIT:          0  MISS:          0
L1I WRITEBACK ACCESS:          0  HIT:          0  MISS:          0
L1I PREFETCH  REQUESTED:          0  ISSUED:          0  USEFUL:          0  USELESS:          0
L1I TOTAL MSHR MERGED:       1575
L1I LOAD MSHR MERGED:       1575
L1I RFO MSHR MERGED:          0
L1I PREFETCH MSHR MERGED:          0
L1I WRITEBACK MSHR MERGED:          0
L1I TOTAL ACCESSES:  115940064 HITS:  115937541 MISSES:       2523
L1I LOAD ACCESSES:  115940064 HITS:  115937541 MISSES:       2523
L1I RFO ACCESSES:          0 HITS:          0 MISSES:          0
L1I PREFETCH ACCESSES:          0 HITS:          0 MISSES:          0
L1I WRITEBACK ACCESSES:          0 HITS:          0 MISSES:          0
L1I RQ ACCESS:  500000007
L1I RQ TO_CACHE:  115940064
L1I RQ MERGED:  384059943
L1I RQ FORWARD:          0
L1I WQ ACCESS:          0
L1I WQ TO_CACHE:          0
L1I WQ MERGED:          0
L1I WQ FORWARD:          0
L2C TOTAL     ACCESS:   16691666  HIT:    4846910  MISS:   11844756
L2C LOAD      ACCESS:     556508  HIT:      95364  MISS:     461144
L2C RFO       ACCESS:    2781696  HIT:     266510  MISS:    2515186
L2C PREFETCH  ACCESS:   10132825  HIT:    1266675  MISS:    8866150
L2C WRITEBACK ACCESS:    3220637  HIT:    3218361  MISS:       2276
L2C PREFETCH  REQUESTED:      26092  ISSUED:      26092  USEFUL:      92788  USELESS:    8771425
L2C TOTAL MSHR MERGED:        523
L2C LOAD MSHR MERGED:          7
L2C RFO MSHR MERGED:          0
L2C PREFETCH MSHR MERGED:        516
L2C WRITEBACK MSHR MERGED:          0
L2C TOTAL ACCESSES:   16692296 HITS:    4846958 MISSES:   11845338
L2C LOAD ACCESSES:     556534 HITS:      95390 MISSES:     461144
L2C RFO ACCESSES:    2781696 HITS:     266510 MISSES:    2515186
L2C PREFETCH ACCESSES:   10133429 HITS:    1266697 MISSES:    8866732
L2C WRITEBACK ACCESSES:    3220637 HITS:    3218361 MISSES:       2276
L2C RQ ACCESS:    3338230
L2C RQ TO_CACHE:    3338204
L2C RQ MERGED:          0
L2C RQ FORWARD:          0
L2C WQ ACCESS:    3220637
L2C WQ TO_CACHE:    3220637
L2C WQ MERGED:          0
L2C WQ FORWARD:         48
LLC TOTAL     ACCESS:   14742990  HIT:    6838512  MISS:    7904478
LLC LOAD      ACCESS:     461134  HIT:     221356  MISS:     239778
LLC RFO       ACCESS:    2515168  HIT:    1690634  MISS:     824534
LLC PREFETCH  ACCESS:    8866169  HIT:    2894324  MISS:    5971845
LLC WRITEBACK ACCESS:    2900519  HIT:    2032198  MISS:     868321
LLC PREFETCH  REQUESTED:          0  ISSUED:          0  USEFUL:       3760  USELESS:    5966943
LLC TOTAL MSHR MERGED:          4
LLC LOAD MSHR MERGED:          0
LLC RFO MSHR MERGED:          0
LLC PREFETCH MSHR MERGED:          4
LLC WRITEBACK MSHR MERGED:          0
LLC TOTAL ACCESSES:   14743057 HITS:    6838575 MISSES:    7904482
LLC LOAD ACCESSES:     461137 HITS:     221359 MISSES:     239778
LLC RFO ACCESSES:    2515186 HITS:    1690652 MISSES:     824534
LLC PREFETCH ACCESSES:    8866215 HITS:    2894366 MISSES:    5971849
LLC WRITEBACK ACCESSES:    2900519 HITS:    2032198 MISSES:     868321
LLC 0 RQ ACCESS:    2976323
LLC 0 RQ TO_CACHE:    2976302
LLC 0 RQ MERGED:          0
LLC 0 RQ FORWARD:          0
LLC WQ ACCESS:    2900519
LLC WQ TO_CACHE:    2900519
LLC WQ MERGED:          0
LLC WQ FORWARD:         63
Major fault: 0 Minor fault: 57518
CPU 0 L1D next line prefetcher final stats
CPU 0 L2C PC-based stride prefetcher final stats
All Misses: 8576304
All Hits: 7662867
SD Algo Stats - Switches: 0 SRR-Repls: 246815 BRR-Repls: 0

DRAM Statistics
 CHANNEL 0
 RQ ROW_BUFFER_HIT:    3781556  ROW_BUFFER_MISS:    3250006
 DBUS_CONGESTED:    3361000
 WQ ROW_BUFFER_HIT:     128504  ROW_BUFFER_MISS:     972522  FULL:          0

 AVG_CONGESTED_CYCLE: 12
LOADS RETIRED: 157818985
INSTR RETIRED: 500000000
