
*** ChampSim Multicore Out-of-Order Simulator ***

Warmup Instructions: 100000000
Simulation Instructions: 500000000
Number of CPUs: 1
LLC sets: 2048
LLC ways: 16
Clean RRIP Policies: 2301132223011322 Dirty RRIP Policies: 1311231213112312 PSEL Width: 10 Track Set: 4294967295 PSEL Mask: 1 Demote Mask: 1434142114341421DS Algo: 0Window size: 0
Off-chip DRAM Size: 4096 MB Channels: 1 Width: 64-bit Data Rate: 1600 MT/s

CPU 0 runs /mnt/beegfs/iconst01/spec2017/Blender.trace.gz
NOT SORTED
TRACE STRING: /mnt/beegfs/iconst01/spec2017/Blender.trace.gz
SORTED
TRACE STRING: /mnt/beegfs/iconst01/spec2017/Blender.trace.gz
INITIAL
TRACE STRING: /mnt/beegfs/iconst01/spec2017/Blender.trace.gz

champsim_seed used: 700

CPU 0 L1D next line prefetcher
CPU 0 L2C IP-based stride prefetcher
Initialize DRRIP state
Assign rand_sets[0]: 454  LLC: 2048
rand_sets[0]: 454
Assign rand_sets[1]: 1662  LLC: 2048
rand_sets[1]: 1662
Assign rand_sets[2]: 1921  LLC: 2048
rand_sets[2]: 1921
Assign rand_sets[3]: 1131  LLC: 2048
rand_sets[3]: 1131
Assign rand_sets[4]: 331  LLC: 2048
rand_sets[4]: 331
Assign rand_sets[5]: 1531  LLC: 2048
rand_sets[5]: 1531
Assign rand_sets[6]: 482  LLC: 2048
rand_sets[6]: 482
Assign rand_sets[7]: 1275  LLC: 2048
rand_sets[7]: 1275
Assign rand_sets[8]: 1876  LLC: 2048
rand_sets[8]: 1876
Assign rand_sets[9]: 2038  LLC: 2048
rand_sets[9]: 2038
Assign rand_sets[10]: 701  LLC: 2048
rand_sets[10]: 701
Assign rand_sets[11]: 479  LLC: 2048
rand_sets[11]: 479
Assign rand_sets[12]: 892  LLC: 2048
rand_sets[12]: 892
Assign rand_sets[13]: 1820  LLC: 2048
rand_sets[13]: 1820
Assign rand_sets[14]: 1505  LLC: 2048
rand_sets[14]: 1505
Assign rand_sets[15]: 1159  LLC: 2048
rand_sets[15]: 1159
Assign rand_sets[16]: 513  LLC: 2048
rand_sets[16]: 513
Assign rand_sets[17]: 703  LLC: 2048
rand_sets[17]: 703
Assign rand_sets[18]: 561  LLC: 2048
rand_sets[18]: 561
Assign rand_sets[19]: 990  LLC: 2048
rand_sets[19]: 990
Assign rand_sets[20]: 342  LLC: 2048
rand_sets[20]: 342
Assign rand_sets[21]: 882  LLC: 2048
rand_sets[21]: 882
Assign rand_sets[22]: 15  LLC: 2048
rand_sets[22]: 15
Assign rand_sets[23]: 71  LLC: 2048
rand_sets[23]: 71
Assign rand_sets[24]: 1127  LLC: 2048
rand_sets[24]: 1127
Assign rand_sets[25]: 1382  LLC: 2048
rand_sets[25]: 1382
Assign rand_sets[26]: 647  LLC: 2048
rand_sets[26]: 647
Assign rand_sets[27]: 857  LLC: 2048
rand_sets[27]: 857
Assign rand_sets[28]: 1450  LLC: 2048
rand_sets[28]: 1450
Assign rand_sets[29]: 1160  LLC: 2048
rand_sets[29]: 1160
Assign rand_sets[30]: 1852  LLC: 2048
rand_sets[30]: 1852
Assign rand_sets[31]: 1881  LLC: 2048
rand_sets[31]: 1881
Assign rand_sets[32]: 1770  LLC: 2048
rand_sets[32]: 1770
Assign rand_sets[33]: 1622  LLC: 2048
rand_sets[33]: 1622
Assign rand_sets[34]: 275  LLC: 2048
rand_sets[34]: 275
Assign rand_sets[35]: 635  LLC: 2048
rand_sets[35]: 635
Assign rand_sets[36]: 466  LLC: 2048
rand_sets[36]: 466
Assign rand_sets[37]: 1413  LLC: 2048
rand_sets[37]: 1413
Assign rand_sets[38]: 417  LLC: 2048
rand_sets[38]: 417
Assign rand_sets[39]: 472  LLC: 2048
rand_sets[39]: 472
Assign rand_sets[40]: 1340  LLC: 2048
rand_sets[40]: 1340
Assign rand_sets[41]: 852  LLC: 2048
rand_sets[41]: 852
Assign rand_sets[42]: 1365  LLC: 2048
rand_sets[42]: 1365
Assign rand_sets[43]: 47  LLC: 2048
rand_sets[43]: 47
Assign rand_sets[44]: 823  LLC: 2048
rand_sets[44]: 823
Assign rand_sets[45]: 686  LLC: 2048
rand_sets[45]: 686
Assign rand_sets[46]: 1637  LLC: 2048
rand_sets[46]: 1637
Assign rand_sets[47]: 1115  LLC: 2048
rand_sets[47]: 1115
Assign rand_sets[48]: 986  LLC: 2048
rand_sets[48]: 986
Assign rand_sets[49]: 258  LLC: 2048
rand_sets[49]: 258
Assign rand_sets[50]: 633  LLC: 2048
rand_sets[50]: 633
Assign rand_sets[51]: 920  LLC: 2048
rand_sets[51]: 920
Assign rand_sets[52]: 204  LLC: 2048
rand_sets[52]: 204
Assign rand_sets[53]: 227  LLC: 2048
rand_sets[53]: 227
Assign rand_sets[54]: 1818  LLC: 2048
rand_sets[54]: 1818
Assign rand_sets[55]: 886  LLC: 2048
rand_sets[55]: 886
Assign rand_sets[56]: 1422  LLC: 2048
rand_sets[56]: 1422
Assign rand_sets[57]: 607  LLC: 2048
rand_sets[57]: 607
Assign rand_sets[58]: 217  LLC: 2048
rand_sets[58]: 217
Assign rand_sets[59]: 1945  LLC: 2048
rand_sets[59]: 1945
Assign rand_sets[60]: 143  LLC: 2048
rand_sets[60]: 143
Assign rand_sets[61]: 1311  LLC: 2048
rand_sets[61]: 1311
Assign rand_sets[62]: 319  LLC: 2048
rand_sets[62]: 319
Assign rand_sets[63]: 1846  LLC: 2048
rand_sets[63]: 1846
 CLEAN-RRIP-POLICY-1: 2-3-0-1-1-3-2-2- CLEAN-RRIP-POLICY-2: 2-3-0-1-1-3-2-2-
 DIRTY-RRIP-POLICY-1: 1-3-1-1-2-3-1-2- DIRTY-RRIP-POLICY-2: 1-3-1-1-2-3-1-2-
 PSEL width: 10
Heartbeat CPU 0 instructions: 10000002 cycles: 5480893 heartbeat IPC: 1.82452 cumulative IPC: 1.82452 (Simulation time: 0 hr 0 min 13 sec) 
Heartbeat CPU 0 instructions: 20000000 cycles: 10913735 heartbeat IPC: 1.84066 cumulative IPC: 1.83255 (Simulation time: 0 hr 0 min 25 sec) 
Heartbeat CPU 0 instructions: 30000000 cycles: 16451158 heartbeat IPC: 1.80589 cumulative IPC: 1.82358 (Simulation time: 0 hr 0 min 38 sec) 
Heartbeat CPU 0 instructions: 40000000 cycles: 21906558 heartbeat IPC: 1.83305 cumulative IPC: 1.82594 (Simulation time: 0 hr 0 min 51 sec) 
Heartbeat CPU 0 instructions: 50000000 cycles: 27413186 heartbeat IPC: 1.81599 cumulative IPC: 1.82394 (Simulation time: 0 hr 1 min 3 sec) 
Heartbeat CPU 0 instructions: 60000000 cycles: 32796238 heartbeat IPC: 1.85768 cumulative IPC: 1.82948 (Simulation time: 0 hr 1 min 16 sec) 
Heartbeat CPU 0 instructions: 70000001 cycles: 38357318 heartbeat IPC: 1.79821 cumulative IPC: 1.82495 (Simulation time: 0 hr 1 min 29 sec) 
Heartbeat CPU 0 instructions: 80000000 cycles: 43820647 heartbeat IPC: 1.83039 cumulative IPC: 1.82562 (Simulation time: 0 hr 1 min 42 sec) 
Heartbeat CPU 0 instructions: 90000000 cycles: 49273556 heartbeat IPC: 1.83388 cumulative IPC: 1.82654 (Simulation time: 0 hr 1 min 55 sec) 
Heartbeat CPU 0 instructions: 100000000 cycles: 54824211 heartbeat IPC: 1.80159 cumulative IPC: 1.82401 (Simulation time: 0 hr 2 min 7 sec) 

Warmup complete CPU 0 instructions: 100000002 cycles: 54824212 (Simulation time: 0 hr 2 min 7 sec) 

Heartbeat CPU 0 instructions: 110000001 cycles: 70845191 heartbeat IPC: 0.624182 cumulative IPC: 0.624182 (Simulation time: 0 hr 2 min 26 sec) 
Heartbeat CPU 0 instructions: 120000000 cycles: 88010934 heartbeat IPC: 0.582556 cumulative IPC: 0.602651 (Simulation time: 0 hr 2 min 46 sec) 
Heartbeat CPU 0 instructions: 130000000 cycles: 104220153 heartbeat IPC: 0.616933 cumulative IPC: 0.607337 (Simulation time: 0 hr 3 min 5 sec) 
Heartbeat CPU 0 instructions: 140000000 cycles: 120119971 heartbeat IPC: 0.628938 cumulative IPC: 0.612597 (Simulation time: 0 hr 3 min 24 sec) 
Heartbeat CPU 0 instructions: 150000000 cycles: 136868108 heartbeat IPC: 0.597081 cumulative IPC: 0.60943 (Simulation time: 0 hr 3 min 43 sec) 
Heartbeat CPU 0 instructions: 160000000 cycles: 154055117 heartbeat IPC: 0.581835 cumulative IPC: 0.60465 (Simulation time: 0 hr 4 min 3 sec) 
Heartbeat CPU 0 instructions: 170000001 cycles: 171017869 heartbeat IPC: 0.589527 cumulative IPC: 0.602443 (Simulation time: 0 hr 4 min 22 sec) 
Heartbeat CPU 0 instructions: 180000000 cycles: 188026830 heartbeat IPC: 0.587925 cumulative IPC: 0.600589 (Simulation time: 0 hr 4 min 41 sec) 
Heartbeat CPU 0 instructions: 190000002 cycles: 204202599 heartbeat IPC: 0.618209 cumulative IPC: 0.602497 (Simulation time: 0 hr 5 min 1 sec) 
Heartbeat CPU 0 instructions: 200000000 cycles: 220253422 heartbeat IPC: 0.623021 cumulative IPC: 0.604488 (Simulation time: 0 hr 5 min 20 sec) 
Heartbeat CPU 0 instructions: 210000003 cycles: 236555426 heartbeat IPC: 0.613422 cumulative IPC: 0.60529 (Simulation time: 0 hr 5 min 39 sec) 
Heartbeat CPU 0 instructions: 220000000 cycles: 253022402 heartbeat IPC: 0.607276 cumulative IPC: 0.605455 (Simulation time: 0 hr 5 min 59 sec) 
Heartbeat CPU 0 instructions: 230000001 cycles: 270308834 heartbeat IPC: 0.578488 cumulative IPC: 0.603291 (Simulation time: 0 hr 6 min 19 sec) 
Heartbeat CPU 0 instructions: 240000000 cycles: 287415868 heartbeat IPC: 0.584555 cumulative IPC: 0.601913 (Simulation time: 0 hr 6 min 38 sec) 
Heartbeat CPU 0 instructions: 250000003 cycles: 304112300 heartbeat IPC: 0.598931 cumulative IPC: 0.601713 (Simulation time: 0 hr 6 min 57 sec) 
Heartbeat CPU 0 instructions: 260000000 cycles: 321976188 heartbeat IPC: 0.559788 cumulative IPC: 0.59891 (Simulation time: 0 hr 7 min 16 sec) 
Heartbeat CPU 0 instructions: 270000001 cycles: 338341910 heartbeat IPC: 0.611033 cumulative IPC: 0.59961 (Simulation time: 0 hr 7 min 36 sec) 
Heartbeat CPU 0 instructions: 280000000 cycles: 354479649 heartbeat IPC: 0.619665 cumulative IPC: 0.60069 (Simulation time: 0 hr 7 min 54 sec) 
Heartbeat CPU 0 instructions: 290000002 cycles: 370554159 heartbeat IPC: 0.622103 cumulative IPC: 0.60178 (Simulation time: 0 hr 8 min 14 sec) 
Heartbeat CPU 0 instructions: 300000000 cycles: 388326863 heartbeat IPC: 0.56266 cumulative IPC: 0.599695 (Simulation time: 0 hr 8 min 33 sec) 
Heartbeat CPU 0 instructions: 310000000 cycles: 405499026 heartbeat IPC: 0.582338 cumulative IPC: 0.598845 (Simulation time: 0 hr 8 min 52 sec) 
Heartbeat CPU 0 instructions: 320000000 cycles: 422252776 heartbeat IPC: 0.596881 cumulative IPC: 0.598756 (Simulation time: 0 hr 9 min 11 sec) 
Heartbeat CPU 0 instructions: 330000000 cycles: 440761469 heartbeat IPC: 0.540287 cumulative IPC: 0.595952 (Simulation time: 0 hr 9 min 31 sec) 
Heartbeat CPU 0 instructions: 340000000 cycles: 457281940 heartbeat IPC: 0.60531 cumulative IPC: 0.596336 (Simulation time: 0 hr 9 min 50 sec) 
Heartbeat CPU 0 instructions: 350000000 cycles: 473632811 heartbeat IPC: 0.611588 cumulative IPC: 0.596931 (Simulation time: 0 hr 10 min 8 sec) 
Heartbeat CPU 0 instructions: 360000000 cycles: 490111099 heartbeat IPC: 0.606859 cumulative IPC: 0.597307 (Simulation time: 0 hr 10 min 27 sec) 
Heartbeat CPU 0 instructions: 370000002 cycles: 507940016 heartbeat IPC: 0.560887 cumulative IPC: 0.595874 (Simulation time: 0 hr 10 min 47 sec) 
Heartbeat CPU 0 instructions: 380000000 cycles: 524947140 heartbeat IPC: 0.587989 cumulative IPC: 0.595589 (Simulation time: 0 hr 11 min 6 sec) 
Heartbeat CPU 0 instructions: 390000003 cycles: 541825393 heartbeat IPC: 0.592479 cumulative IPC: 0.595481 (Simulation time: 0 hr 11 min 25 sec) 
Heartbeat CPU 0 instructions: 400000000 cycles: 560422658 heartbeat IPC: 0.537713 cumulative IPC: 0.593356 (Simulation time: 0 hr 11 min 45 sec) 
Heartbeat CPU 0 instructions: 410000001 cycles: 577636466 heartbeat IPC: 0.580929 cumulative IPC: 0.592947 (Simulation time: 0 hr 12 min 3 sec) 
Heartbeat CPU 0 instructions: 420000000 cycles: 594364383 heartbeat IPC: 0.597803 cumulative IPC: 0.593098 (Simulation time: 0 hr 12 min 22 sec) 
Heartbeat CPU 0 instructions: 430000000 cycles: 612331634 heartbeat IPC: 0.556568 cumulative IPC: 0.59192 (Simulation time: 0 hr 12 min 41 sec) 
Heartbeat CPU 0 instructions: 440000000 cycles: 629196334 heartbeat IPC: 0.592955 cumulative IPC: 0.591951 (Simulation time: 0 hr 13 min 0 sec) 
Heartbeat CPU 0 instructions: 450000000 cycles: 646272179 heartbeat IPC: 0.585623 cumulative IPC: 0.591768 (Simulation time: 0 hr 13 min 19 sec) 
Heartbeat CPU 0 instructions: 460000000 cycles: 664706201 heartbeat IPC: 0.542475 cumulative IPC: 0.590278 (Simulation time: 0 hr 13 min 38 sec) 
Heartbeat CPU 0 instructions: 470000000 cycles: 681979826 heartbeat IPC: 0.578917 cumulative IPC: 0.589965 (Simulation time: 0 hr 13 min 57 sec) 
Heartbeat CPU 0 instructions: 480000000 cycles: 698864115 heartbeat IPC: 0.592267 cumulative IPC: 0.590026 (Simulation time: 0 hr 14 min 16 sec) 
Heartbeat CPU 0 instructions: 490000002 cycles: 716448027 heartbeat IPC: 0.568702 cumulative IPC: 0.589459 (Simulation time: 0 hr 14 min 35 sec) 
Heartbeat CPU 0 instructions: 500000000 cycles: 733313579 heartbeat IPC: 0.592924 cumulative IPC: 0.589545 (Simulation time: 0 hr 14 min 53 sec) 
Heartbeat CPU 0 instructions: 510000001 cycles: 750546793 heartbeat IPC: 0.580275 cumulative IPC: 0.589315 (Simulation time: 0 hr 15 min 12 sec) 
Heartbeat CPU 0 instructions: 520000000 cycles: 768469539 heartbeat IPC: 0.55795 cumulative IPC: 0.588528 (Simulation time: 0 hr 15 min 31 sec) 
Heartbeat CPU 0 instructions: 530000001 cycles: 786313588 heartbeat IPC: 0.560411 cumulative IPC: 0.587842 (Simulation time: 0 hr 15 min 50 sec) 
Heartbeat CPU 0 instructions: 540000000 cycles: 802761831 heartbeat IPC: 0.607968 cumulative IPC: 0.588284 (Simulation time: 0 hr 16 min 9 sec) 
Heartbeat CPU 0 instructions: 550000001 cycles: 820263187 heartbeat IPC: 0.571384 cumulative IPC: 0.587898 (Simulation time: 0 hr 16 min 28 sec) 
Heartbeat CPU 0 instructions: 560000000 cycles: 837044268 heartbeat IPC: 0.595909 cumulative IPC: 0.58807 (Simulation time: 0 hr 16 min 46 sec) 
Heartbeat CPU 0 instructions: 570000002 cycles: 854519854 heartbeat IPC: 0.572227 cumulative IPC: 0.587724 (Simulation time: 0 hr 17 min 5 sec) 
Heartbeat CPU 0 instructions: 580000000 cycles: 871716128 heartbeat IPC: 0.581521 cumulative IPC: 0.587593 (Simulation time: 0 hr 17 min 24 sec) 
Heartbeat CPU 0 instructions: 590000001 cycles: 888760511 heartbeat IPC: 0.586704 cumulative IPC: 0.587575 (Simulation time: 0 hr 17 min 43 sec) 
Heartbeat CPU 0 instructions: 600000000 cycles: 905340366 heartbeat IPC: 0.603142 cumulative IPC: 0.587878 (Simulation time: 0 hr 18 min 1 sec) 
Finished CPU 0 instructions: 500000000 cycles: 850516162 cumulative IPC: 0.587878 (Simulation time: 0 hr 18 min 1 sec) 

CPU 0 Branch Prediction Accuracy: 93.7783% MPKI: 10.0718
Number of Branches: 80940586 Number of Mispredictions: 5035908
Number of LOAD Instructions: 184238101
Number of LOAD Instructions (ROI): 184238101
Number of STORE Instructions: 33143298
Number of STORE Instructions (ROI): 33143298
Total Destination Memory Operands: 33324321
Total Destination Memory Operands (ROI): 33324321
Total Source Memory Operands: 184238101
Total Source Memory Operands (ROI): 184238101
Number of DEPENDED LOADS: 4459070
Number of DEPENDED LOADS (ROI): 4459070
Number of SQ_ADDED: 33324292
Number of SQ_ADDED (ROI): 33324292
Number of LQ_ADDED: 184931311
Number of LQ_ADDED (ROI): 184931311
Number of Instructions read from trace: 600000256

ChampSim completed all CPUs

Region of Interest Statistics

CPU 0 cumulative IPC: 0.587878 instructions: 500000000 cycles: 850516162
ITLB TOTAL     ACCESS:   77796133  HIT:   77796133  MISS:          0
ITLB LOAD      ACCESS:   77796133  HIT:   77796133  MISS:          0
ITLB RFO       ACCESS:          0  HIT:          0  MISS:          0
ITLB PREFETCH  ACCESS:          0  HIT:          0  MISS:          0
ITLB WRITEBACK ACCESS:          0  HIT:          0  MISS:          0
ITLB PREFETCH  REQUESTED:          0  ISSUED:          0  USEFUL:          0  USELESS:          0
ITLB TOTAL MSHR MERGED:          0
ITLB LOAD MSHR MERGED:          0
ITLB RFO MSHR MERGED:          0
ITLB PREFETCH MSHR MERGED:          0
ITLB WRITEBACK MSHR MERGED:          0
ITLB TOTAL ACCESSES:   77796133 HITS:   77796133 MISSES:          0
ITLB LOAD ACCESSES:   77796133 HITS:   77796133 MISSES:          0
ITLB RFO ACCESSES:          0 HITS:          0 MISSES:          0
ITLB PREFETCH ACCESSES:          0 HITS:          0 MISSES:          0
ITLB WRITEBACK ACCESSES:          0 HITS:          0 MISSES:          0
ITLB RQ ACCESS:  500000245
ITLB RQ TO_CACHE:   77796133
ITLB RQ MERGED:  422204112
ITLB RQ FORWARD:          0
ITLB WQ ACCESS:          0
ITLB WQ TO_CACHE:          0
ITLB WQ MERGED:          0
ITLB WQ FORWARD:          0
DTLB TOTAL     ACCESS:   88461310  HIT:   87324465  MISS:    1136845
DTLB LOAD      ACCESS:   66333161  HIT:   65200555  MISS:    1132606
DTLB RFO       ACCESS:   22128149  HIT:   22123910  MISS:       4239
DTLB PREFETCH  ACCESS:          0  HIT:          0  MISS:          0
DTLB WRITEBACK ACCESS:          0  HIT:          0  MISS:          0
DTLB PREFETCH  REQUESTED:          0  ISSUED:          0  USEFUL:          0  USELESS:          0
DTLB TOTAL MSHR MERGED:     135969
DTLB LOAD MSHR MERGED:     134158
DTLB RFO MSHR MERGED:       1811
DTLB PREFETCH MSHR MERGED:          0
DTLB WRITEBACK MSHR MERGED:          0
DTLB TOTAL ACCESSES:   88597279 HITS:   87324465 MISSES:    1272814
DTLB LOAD ACCESSES:   66467319 HITS:   65200555 MISSES:    1266764
DTLB RFO ACCESSES:   22129960 HITS:   22123910 MISSES:       6050
DTLB PREFETCH ACCESSES:          0 HITS:          0 MISSES:          0
DTLB WRITEBACK ACCESSES:          0 HITS:          0 MISSES:          0
DTLB RQ ACCESS:  177581802
DTLB RQ TO_CACHE:   88597279
DTLB RQ MERGED:   88984523
DTLB RQ FORWARD:          0
DTLB WQ ACCESS:          0
DTLB WQ TO_CACHE:          0
DTLB WQ MERGED:          0
DTLB WQ FORWARD:          0
L1D TOTAL     ACCESS:  142228641  HIT:  136669603  MISS:    5559038
L1D LOAD      ACCESS:   61404234  HIT:   58330669  MISS:    3073565
L1D RFO       ACCESS:   27669729  HIT:   27588089  MISS:      81640
L1D PREFETCH  ACCESS:   53154678  HIT:   50750845  MISS:    2403833
L1D WRITEBACK ACCESS:          0  HIT:          0  MISS:          0
L1D PREFETCH  REQUESTED:   61706319  ISSUED:   60787975  USEFUL:     696944  USELESS:    1706894
L1D TOTAL MSHR MERGED:    1114966
L1D LOAD MSHR MERGED:     370078
L1D RFO MSHR MERGED:     163833
L1D PREFETCH MSHR MERGED:     581055
L1D WRITEBACK MSHR MERGED:          0
L1D TOTAL ACCESSES:  143441250 HITS:  136767246 MISSES:    6674004
L1D LOAD ACCESSES:   61706335 HITS:   58330685 MISSES:    3375650
L1D RFO ACCESSES:   27829760 HITS:   27588089 MISSES:     241671
L1D PREFETCH ACCESSES:   53905155 HITS:   50848472 MISSES:    3056683
L1D WRITEBACK ACCESSES:          0 HITS:          0 MISSES:          0
L1D RQ ACCESS:  149748836
L1D RQ TO_CACHE:   61706319
L1D RQ MERGED:   88042501
L1D RQ FORWARD:          0
L1D WQ ACCESS:   27832966
L1D WQ TO_CACHE:   27829760
L1D WQ MERGED:       3206
L1D WQ FORWARD:      97643
L1I TOTAL     ACCESS:   96247658  HIT:   96089350  MISS:     158308
L1I LOAD      ACCESS:   96247658  HIT:   96089350  MISS:     158308
L1I RFO       ACCESS:          0  HIT:          0  MISS:          0
L1I PREFETCH  ACCESS:          0  HIT:          0  MISS:          0
L1I WRITEBACK ACCESS:          0  HIT:          0  MISS:          0
L1I PREFETCH  REQUESTED:          0  ISSUED:          0  USEFUL:          0  USELESS:          0
L1I TOTAL MSHR MERGED:     138358
L1I LOAD MSHR MERGED:     138358
L1I RFO MSHR MERGED:          0
L1I PREFETCH MSHR MERGED:          0
L1I WRITEBACK MSHR MERGED:          0
L1I TOTAL ACCESSES:   96386016 HITS:   96089350 MISSES:     296666
L1I LOAD ACCESSES:   96386016 HITS:   96089350 MISSES:     296666
L1I RFO ACCESSES:          0 HITS:          0 MISSES:          0
L1I PREFETCH ACCESSES:          0 HITS:          0 MISSES:          0
L1I WRITEBACK ACCESSES:          0 HITS:          0 MISSES:          0
L1I RQ ACCESS:  500000245
L1I RQ TO_CACHE:   96386016
L1I RQ MERGED:  403614229
L1I RQ FORWARD:          0
L1I WQ ACCESS:          0
L1I WQ TO_CACHE:          0
L1I WQ MERGED:          0
L1I WQ FORWARD:          0
L2C TOTAL     ACCESS:    5912213  HIT:    3064403  MISS:    2847810
L2C LOAD      ACCESS:    3163870  HIT:    1583613  MISS:    1580257
L2C RFO       ACCESS:      77763  HIT:      44981  MISS:      32782
L2C PREFETCH  ACCESS:    2527042  HIT:    1297858  MISS:    1229184
L2C WRITEBACK ACCESS:     143538  HIT:     137951  MISS:       5587
L2C PREFETCH  REQUESTED:      52725  ISSUED:      52725  USEFUL:      19583  USELESS:    1209642
L2C TOTAL MSHR MERGED:        328
L2C LOAD MSHR MERGED:         62
L2C RFO MSHR MERGED:          0
L2C PREFETCH MSHR MERGED:        266
L2C WRITEBACK MSHR MERGED:          0
L2C TOTAL ACCESSES:    5912684 HITS:    3064488 MISSES:    2848196
L2C LOAD ACCESSES:    3163880 HITS:    1583623 MISSES:    1580257
L2C RFO ACCESSES:      77838 HITS:      45056 MISSES:      32782
L2C PREFETCH ACCESSES:    2527428 HITS:    1297858 MISSES:    1229570
L2C WRITEBACK ACCESSES:     143538 HITS:     137951 MISSES:       5587
L2C RQ ACCESS:    3241718
L2C RQ TO_CACHE:    3241633
L2C RQ MERGED:          0
L2C RQ FORWARD:          0
L2C WQ ACCESS:     143538
L2C WQ TO_CACHE:     143538
L2C WQ MERGED:          0
L2C WQ FORWARD:         85
LLC TOTAL     ACCESS:    2891834  HIT:    1229260  MISS:    1662574
LLC LOAD      ACCESS:    1580195  HIT:     226386  MISS:    1353809
LLC RFO       ACCESS:      32781  HIT:      27004  MISS:       5777
LLC PREFETCH  ACCESS:    1229304  HIT:     942915  MISS:     286389
LLC WRITEBACK ACCESS:      49554  HIT:      32955  MISS:      16599
LLC PREFETCH  REQUESTED:          0  ISSUED:          0  USEFUL:      60157  USELESS:     226200
LLC TOTAL MSHR MERGED:          0
LLC LOAD MSHR MERGED:          0
LLC RFO MSHR MERGED:          0
LLC PREFETCH MSHR MERGED:          0
LLC WRITEBACK MSHR MERGED:          0
LLC TOTAL ACCESSES:    2891835 HITS:    1229261 MISSES:    1662574
LLC LOAD ACCESSES:    1580195 HITS:     226386 MISSES:    1353809
LLC RFO ACCESSES:      32782 HITS:      27005 MISSES:       5777
LLC PREFETCH ACCESSES:    1229304 HITS:     942915 MISSES:     286389
LLC WRITEBACK ACCESSES:      49554 HITS:      32955 MISSES:      16599
LLC 0 RQ ACCESS:    1612977
LLC 0 RQ TO_CACHE:    1612976
LLC 0 RQ MERGED:          0
LLC 0 RQ FORWARD:          0
LLC WQ ACCESS:      49554
LLC WQ TO_CACHE:      49554
LLC WQ MERGED:          0
LLC WQ FORWARD:          1
Major fault: 0 Minor fault: 8460
CPU 0 L1D next line prefetcher final stats
CPU 0 L2C PC-based stride prefetcher final stats
All Misses: 1954180
All Hits: 1474250
SD Algo Stats - Switches: 0 SRR-Repls: 1525196 BRR-Repls: 0

DRAM Statistics
 CHANNEL 0
 RQ ROW_BUFFER_HIT:     543694  ROW_BUFFER_MISS:    1097539
 DBUS_CONGESTED:     385550
 WQ ROW_BUFFER_HIT:       4308  ROW_BUFFER_MISS:       9496  FULL:          0

 AVG_CONGESTED_CYCLE: 12
LOADS RETIRED: 153532848
INSTR RETIRED: 500000000
