
*** ChampSim Multicore Out-of-Order Simulator ***

Warmup Instructions: 100000000
Simulation Instructions: 500000000
Number of CPUs: 1
LLC sets: 2048
LLC ways: 16
Clean RRIP Policies: 2301132223011322 Dirty RRIP Policies: 1311231213112312 PSEL Width: 10 Track Set: 4294967295 PSEL Mask: 1 Demote Mask: 1434142114341421DS Algo: 0Window size: 0
Off-chip DRAM Size: 4096 MB Channels: 1 Width: 64-bit Data Rate: 1600 MT/s

CPU 0 runs /mnt/beegfs/iconst01/spec2017/Fotonik3d.trace.gz
NOT SORTED
TRACE STRING: /mnt/beegfs/iconst01/spec2017/Fotonik3d.trace.gz
SORTED
TRACE STRING: /mnt/beegfs/iconst01/spec2017/Fotonik3d.trace.gz
INITIAL
TRACE STRING: /mnt/beegfs/iconst01/spec2017/Fotonik3d.trace.gz

champsim_seed used: 881

CPU 0 L1D next line prefetcher
CPU 0 L2C IP-based stride prefetcher
Initialize DRRIP state
Assign rand_sets[0]: 454  LLC: 2048
rand_sets[0]: 454
Assign rand_sets[1]: 1662  LLC: 2048
rand_sets[1]: 1662
Assign rand_sets[2]: 1921  LLC: 2048
rand_sets[2]: 1921
Assign rand_sets[3]: 1131  LLC: 2048
rand_sets[3]: 1131
Assign rand_sets[4]: 331  LLC: 2048
rand_sets[4]: 331
Assign rand_sets[5]: 1531  LLC: 2048
rand_sets[5]: 1531
Assign rand_sets[6]: 482  LLC: 2048
rand_sets[6]: 482
Assign rand_sets[7]: 1275  LLC: 2048
rand_sets[7]: 1275
Assign rand_sets[8]: 1876  LLC: 2048
rand_sets[8]: 1876
Assign rand_sets[9]: 2038  LLC: 2048
rand_sets[9]: 2038
Assign rand_sets[10]: 701  LLC: 2048
rand_sets[10]: 701
Assign rand_sets[11]: 479  LLC: 2048
rand_sets[11]: 479
Assign rand_sets[12]: 892  LLC: 2048
rand_sets[12]: 892
Assign rand_sets[13]: 1820  LLC: 2048
rand_sets[13]: 1820
Assign rand_sets[14]: 1505  LLC: 2048
rand_sets[14]: 1505
Assign rand_sets[15]: 1159  LLC: 2048
rand_sets[15]: 1159
Assign rand_sets[16]: 513  LLC: 2048
rand_sets[16]: 513
Assign rand_sets[17]: 703  LLC: 2048
rand_sets[17]: 703
Assign rand_sets[18]: 561  LLC: 2048
rand_sets[18]: 561
Assign rand_sets[19]: 990  LLC: 2048
rand_sets[19]: 990
Assign rand_sets[20]: 342  LLC: 2048
rand_sets[20]: 342
Assign rand_sets[21]: 882  LLC: 2048
rand_sets[21]: 882
Assign rand_sets[22]: 15  LLC: 2048
rand_sets[22]: 15
Assign rand_sets[23]: 71  LLC: 2048
rand_sets[23]: 71
Assign rand_sets[24]: 1127  LLC: 2048
rand_sets[24]: 1127
Assign rand_sets[25]: 1382  LLC: 2048
rand_sets[25]: 1382
Assign rand_sets[26]: 647  LLC: 2048
rand_sets[26]: 647
Assign rand_sets[27]: 857  LLC: 2048
rand_sets[27]: 857
Assign rand_sets[28]: 1450  LLC: 2048
rand_sets[28]: 1450
Assign rand_sets[29]: 1160  LLC: 2048
rand_sets[29]: 1160
Assign rand_sets[30]: 1852  LLC: 2048
rand_sets[30]: 1852
Assign rand_sets[31]: 1881  LLC: 2048
rand_sets[31]: 1881
Assign rand_sets[32]: 1770  LLC: 2048
rand_sets[32]: 1770
Assign rand_sets[33]: 1622  LLC: 2048
rand_sets[33]: 1622
Assign rand_sets[34]: 275  LLC: 2048
rand_sets[34]: 275
Assign rand_sets[35]: 635  LLC: 2048
rand_sets[35]: 635
Assign rand_sets[36]: 466  LLC: 2048
rand_sets[36]: 466
Assign rand_sets[37]: 1413  LLC: 2048
rand_sets[37]: 1413
Assign rand_sets[38]: 417  LLC: 2048
rand_sets[38]: 417
Assign rand_sets[39]: 472  LLC: 2048
rand_sets[39]: 472
Assign rand_sets[40]: 1340  LLC: 2048
rand_sets[40]: 1340
Assign rand_sets[41]: 852  LLC: 2048
rand_sets[41]: 852
Assign rand_sets[42]: 1365  LLC: 2048
rand_sets[42]: 1365
Assign rand_sets[43]: 47  LLC: 2048
rand_sets[43]: 47
Assign rand_sets[44]: 823  LLC: 2048
rand_sets[44]: 823
Assign rand_sets[45]: 686  LLC: 2048
rand_sets[45]: 686
Assign rand_sets[46]: 1637  LLC: 2048
rand_sets[46]: 1637
Assign rand_sets[47]: 1115  LLC: 2048
rand_sets[47]: 1115
Assign rand_sets[48]: 986  LLC: 2048
rand_sets[48]: 986
Assign rand_sets[49]: 258  LLC: 2048
rand_sets[49]: 258
Assign rand_sets[50]: 633  LLC: 2048
rand_sets[50]: 633
Assign rand_sets[51]: 920  LLC: 2048
rand_sets[51]: 920
Assign rand_sets[52]: 204  LLC: 2048
rand_sets[52]: 204
Assign rand_sets[53]: 227  LLC: 2048
rand_sets[53]: 227
Assign rand_sets[54]: 1818  LLC: 2048
rand_sets[54]: 1818
Assign rand_sets[55]: 886  LLC: 2048
rand_sets[55]: 886
Assign rand_sets[56]: 1422  LLC: 2048
rand_sets[56]: 1422
Assign rand_sets[57]: 607  LLC: 2048
rand_sets[57]: 607
Assign rand_sets[58]: 217  LLC: 2048
rand_sets[58]: 217
Assign rand_sets[59]: 1945  LLC: 2048
rand_sets[59]: 1945
Assign rand_sets[60]: 143  LLC: 2048
rand_sets[60]: 143
Assign rand_sets[61]: 1311  LLC: 2048
rand_sets[61]: 1311
Assign rand_sets[62]: 319  LLC: 2048
rand_sets[62]: 319
Assign rand_sets[63]: 1846  LLC: 2048
rand_sets[63]: 1846
 CLEAN-RRIP-POLICY-1: 2-3-0-1-1-3-2-2- CLEAN-RRIP-POLICY-2: 2-3-0-1-1-3-2-2-
 DIRTY-RRIP-POLICY-1: 1-3-1-1-2-3-1-2- DIRTY-RRIP-POLICY-2: 1-3-1-1-2-3-1-2-
 PSEL width: 10
Heartbeat CPU 0 instructions: 10000002 cycles: 7306852 heartbeat IPC: 1.36858 cumulative IPC: 1.36858 (Simulation time: 0 hr 0 min 24 sec) 
Heartbeat CPU 0 instructions: 20000000 cycles: 14613955 heartbeat IPC: 1.36853 cumulative IPC: 1.36855 (Simulation time: 0 hr 0 min 47 sec) 
Heartbeat CPU 0 instructions: 30000001 cycles: 21920922 heartbeat IPC: 1.36856 cumulative IPC: 1.36856 (Simulation time: 0 hr 1 min 11 sec) 
Heartbeat CPU 0 instructions: 40000000 cycles: 29227764 heartbeat IPC: 1.36858 cumulative IPC: 1.36856 (Simulation time: 0 hr 1 min 35 sec) 
Heartbeat CPU 0 instructions: 50000001 cycles: 36534561 heartbeat IPC: 1.36859 cumulative IPC: 1.36857 (Simulation time: 0 hr 1 min 58 sec) 
Heartbeat CPU 0 instructions: 60000000 cycles: 43841637 heartbeat IPC: 1.36854 cumulative IPC: 1.36856 (Simulation time: 0 hr 2 min 22 sec) 
Heartbeat CPU 0 instructions: 70000002 cycles: 51148491 heartbeat IPC: 1.36858 cumulative IPC: 1.36856 (Simulation time: 0 hr 2 min 46 sec) 
Heartbeat CPU 0 instructions: 80000000 cycles: 58455300 heartbeat IPC: 1.36859 cumulative IPC: 1.36857 (Simulation time: 0 hr 3 min 10 sec) 
Heartbeat CPU 0 instructions: 90000003 cycles: 65765961 heartbeat IPC: 1.36787 cumulative IPC: 1.36849 (Simulation time: 0 hr 3 min 34 sec) 
Heartbeat CPU 0 instructions: 100000000 cycles: 73076646 heartbeat IPC: 1.36786 cumulative IPC: 1.36843 (Simulation time: 0 hr 3 min 58 sec) 

Warmup complete CPU 0 instructions: 100000002 cycles: 73076658 (Simulation time: 0 hr 3 min 58 sec) 

Heartbeat CPU 0 instructions: 110000001 cycles: 85610610 heartbeat IPC: 0.797832 cumulative IPC: 0.797833 (Simulation time: 0 hr 4 min 27 sec) 
Heartbeat CPU 0 instructions: 120000000 cycles: 98085664 heartbeat IPC: 0.8016 cumulative IPC: 0.799712 (Simulation time: 0 hr 4 min 55 sec) 
Heartbeat CPU 0 instructions: 130000000 cycles: 110635009 heartbeat IPC: 0.796854 cumulative IPC: 0.798757 (Simulation time: 0 hr 5 min 24 sec) 
Heartbeat CPU 0 instructions: 140000000 cycles: 123156794 heartbeat IPC: 0.798608 cumulative IPC: 0.79872 (Simulation time: 0 hr 5 min 52 sec) 
Heartbeat CPU 0 instructions: 150000000 cycles: 135619755 heartbeat IPC: 0.802378 cumulative IPC: 0.799449 (Simulation time: 0 hr 6 min 21 sec) 
Heartbeat CPU 0 instructions: 160000000 cycles: 148124406 heartbeat IPC: 0.799702 cumulative IPC: 0.799491 (Simulation time: 0 hr 6 min 49 sec) 
Heartbeat CPU 0 instructions: 170000001 cycles: 160642333 heartbeat IPC: 0.798854 cumulative IPC: 0.7994 (Simulation time: 0 hr 7 min 18 sec) 
Heartbeat CPU 0 instructions: 180000000 cycles: 173159610 heartbeat IPC: 0.798896 cumulative IPC: 0.799337 (Simulation time: 0 hr 7 min 46 sec) 
Heartbeat CPU 0 instructions: 190000000 cycles: 185697350 heartbeat IPC: 0.797592 cumulative IPC: 0.799143 (Simulation time: 0 hr 8 min 14 sec) 
Heartbeat CPU 0 instructions: 200000000 cycles: 198201304 heartbeat IPC: 0.799747 cumulative IPC: 0.799203 (Simulation time: 0 hr 8 min 43 sec) 
Heartbeat CPU 0 instructions: 210000002 cycles: 210746172 heartbeat IPC: 0.797139 cumulative IPC: 0.799015 (Simulation time: 0 hr 9 min 11 sec) 
Heartbeat CPU 0 instructions: 220000000 cycles: 223295555 heartbeat IPC: 0.796852 cumulative IPC: 0.798834 (Simulation time: 0 hr 9 min 39 sec) 
Heartbeat CPU 0 instructions: 230000002 cycles: 235798988 heartbeat IPC: 0.79978 cumulative IPC: 0.798907 (Simulation time: 0 hr 10 min 7 sec) 
Heartbeat CPU 0 instructions: 240000000 cycles: 248977701 heartbeat IPC: 0.758799 cumulative IPC: 0.795902 (Simulation time: 0 hr 10 min 36 sec) 
Heartbeat CPU 0 instructions: 250000001 cycles: 267298846 heartbeat IPC: 0.545817 cumulative IPC: 0.772311 (Simulation time: 0 hr 11 min 7 sec) 
Heartbeat CPU 0 instructions: 260000000 cycles: 285577747 heartbeat IPC: 0.547079 cumulative IPC: 0.752937 (Simulation time: 0 hr 11 min 39 sec) 
Heartbeat CPU 0 instructions: 270000000 cycles: 303929852 heartbeat IPC: 0.544897 cumulative IPC: 0.736399 (Simulation time: 0 hr 12 min 10 sec) 
Heartbeat CPU 0 instructions: 280000000 cycles: 322236347 heartbeat IPC: 0.546254 cumulative IPC: 0.722428 (Simulation time: 0 hr 12 min 41 sec) 
Heartbeat CPU 0 instructions: 290000000 cycles: 352514319 heartbeat IPC: 0.330273 cumulative IPC: 0.679937 (Simulation time: 0 hr 13 min 20 sec) 
Heartbeat CPU 0 instructions: 300000000 cycles: 392459021 heartbeat IPC: 0.250346 cumulative IPC: 0.626209 (Simulation time: 0 hr 14 min 5 sec) 
Heartbeat CPU 0 instructions: 310000000 cycles: 410171575 heartbeat IPC: 0.564571 cumulative IPC: 0.62297 (Simulation time: 0 hr 14 min 35 sec) 
Heartbeat CPU 0 instructions: 320000000 cycles: 427825930 heartbeat IPC: 0.566432 cumulative IPC: 0.620156 (Simulation time: 0 hr 15 min 6 sec) 
Heartbeat CPU 0 instructions: 330000003 cycles: 445562601 heartbeat IPC: 0.563804 cumulative IPC: 0.617473 (Simulation time: 0 hr 15 min 36 sec) 
Heartbeat CPU 0 instructions: 340000000 cycles: 463229072 heartbeat IPC: 0.566044 cumulative IPC: 0.615144 (Simulation time: 0 hr 16 min 7 sec) 
Heartbeat CPU 0 instructions: 350000001 cycles: 478931308 heartbeat IPC: 0.636852 cumulative IPC: 0.615984 (Simulation time: 0 hr 16 min 36 sec) 
Heartbeat CPU 0 instructions: 360000000 cycles: 490906034 heartbeat IPC: 0.835092 cumulative IPC: 0.622264 (Simulation time: 0 hr 17 min 2 sec) 
Heartbeat CPU 0 instructions: 370000002 cycles: 502705837 heartbeat IPC: 0.847472 cumulative IPC: 0.628449 (Simulation time: 0 hr 17 min 28 sec) 
Heartbeat CPU 0 instructions: 380000000 cycles: 514680530 heartbeat IPC: 0.835094 cumulative IPC: 0.634052 (Simulation time: 0 hr 17 min 55 sec) 
Heartbeat CPU 0 instructions: 390000003 cycles: 528078419 heartbeat IPC: 0.746386 cumulative IPC: 0.63736 (Simulation time: 0 hr 18 min 21 sec) 
Heartbeat CPU 0 instructions: 400000000 cycles: 540453213 heartbeat IPC: 0.808094 cumulative IPC: 0.641881 (Simulation time: 0 hr 18 min 48 sec) 
Heartbeat CPU 0 instructions: 410000001 cycles: 552544373 heartbeat IPC: 0.827051 cumulative IPC: 0.64655 (Simulation time: 0 hr 19 min 15 sec) 
Heartbeat CPU 0 instructions: 420000000 cycles: 565458219 heartbeat IPC: 0.774363 cumulative IPC: 0.649902 (Simulation time: 0 hr 19 min 42 sec) 
Heartbeat CPU 0 instructions: 430000003 cycles: 583820644 heartbeat IPC: 0.544591 cumulative IPC: 0.646116 (Simulation time: 0 hr 20 min 6 sec) 
Heartbeat CPU 0 instructions: 440000000 cycles: 602256665 heartbeat IPC: 0.542416 cumulative IPC: 0.642503 (Simulation time: 0 hr 20 min 30 sec) 
Heartbeat CPU 0 instructions: 450000003 cycles: 620668734 heartbeat IPC: 0.543122 cumulative IPC: 0.639162 (Simulation time: 0 hr 20 min 54 sec) 
Heartbeat CPU 0 instructions: 460000000 cycles: 639081272 heartbeat IPC: 0.543108 cumulative IPC: 0.636037 (Simulation time: 0 hr 21 min 18 sec) 
Heartbeat CPU 0 instructions: 470000003 cycles: 657504541 heartbeat IPC: 0.542792 cumulative IPC: 0.633098 (Simulation time: 0 hr 21 min 42 sec) 
Heartbeat CPU 0 instructions: 480000000 cycles: 675920023 heartbeat IPC: 0.543021 cumulative IPC: 0.630346 (Simulation time: 0 hr 22 min 6 sec) 
Heartbeat CPU 0 instructions: 490000003 cycles: 694349061 heartbeat IPC: 0.542622 cumulative IPC: 0.627744 (Simulation time: 0 hr 22 min 30 sec) 
Heartbeat CPU 0 instructions: 500000000 cycles: 712780374 heartbeat IPC: 0.542555 cumulative IPC: 0.625289 (Simulation time: 0 hr 22 min 54 sec) 
Heartbeat CPU 0 instructions: 510000003 cycles: 731190155 heartbeat IPC: 0.54319 cumulative IPC: 0.622993 (Simulation time: 0 hr 23 min 18 sec) 
Heartbeat CPU 0 instructions: 520000000 cycles: 749619990 heartbeat IPC: 0.542598 cumulative IPC: 0.620803 (Simulation time: 0 hr 23 min 42 sec) 
Heartbeat CPU 0 instructions: 530000001 cycles: 768072707 heartbeat IPC: 0.541926 cumulative IPC: 0.618709 (Simulation time: 0 hr 24 min 6 sec) 
Heartbeat CPU 0 instructions: 540000000 cycles: 786449666 heartbeat IPC: 0.54416 cumulative IPC: 0.616788 (Simulation time: 0 hr 24 min 30 sec) 
Heartbeat CPU 0 instructions: 550000001 cycles: 804824169 heartbeat IPC: 0.544232 cumulative IPC: 0.614966 (Simulation time: 0 hr 24 min 54 sec) 
Heartbeat CPU 0 instructions: 560000000 cycles: 823197461 heartbeat IPC: 0.544268 cumulative IPC: 0.613235 (Simulation time: 0 hr 25 min 19 sec) 
Heartbeat CPU 0 instructions: 570000001 cycles: 841555729 heartbeat IPC: 0.544714 cumulative IPC: 0.611598 (Simulation time: 0 hr 25 min 43 sec) 
Heartbeat CPU 0 instructions: 580000000 cycles: 859936133 heartbeat IPC: 0.544058 cumulative IPC: 0.61002 (Simulation time: 0 hr 26 min 7 sec) 
Heartbeat CPU 0 instructions: 590000001 cycles: 878320737 heartbeat IPC: 0.543933 cumulative IPC: 0.608511 (Simulation time: 0 hr 26 min 31 sec) 
Heartbeat CPU 0 instructions: 600000000 cycles: 896683831 heartbeat IPC: 0.544571 cumulative IPC: 0.607086 (Simulation time: 0 hr 26 min 55 sec) 
Finished CPU 0 instructions: 500000002 cycles: 823607187 cumulative IPC: 0.607086 (Simulation time: 0 hr 26 min 55 sec) 

CPU 0 Branch Prediction Accuracy: 99.5931% MPKI: 0.08288
Number of Branches: 10184133 Number of Mispredictions: 41440
Number of LOAD Instructions: 261155957
Number of LOAD Instructions (ROI): 261155957
Number of STORE Instructions: 57884062
Number of STORE Instructions (ROI): 57884062
Total Destination Memory Operands: 83293336
Total Destination Memory Operands (ROI): 83293336
Total Source Memory Operands: 261155957
Total Source Memory Operands (ROI): 261155957
Number of DEPENDED LOADS: 22256469
Number of DEPENDED LOADS (ROI): 22256469
Number of SQ_ADDED: 83293300
Number of SQ_ADDED (ROI): 83293300
Number of LQ_ADDED: 1780376723
Number of LQ_ADDED (ROI): 1780376723
Number of Instructions read from trace: 600000257

ChampSim completed all CPUs

Region of Interest Statistics

CPU 0 cumulative IPC: 0.607086 instructions: 500000002 cycles: 823607187
ITLB TOTAL     ACCESS:   94978994  HIT:   94978956  MISS:         38
ITLB LOAD      ACCESS:   94978994  HIT:   94978956  MISS:         38
ITLB RFO       ACCESS:          0  HIT:          0  MISS:          0
ITLB PREFETCH  ACCESS:          0  HIT:          0  MISS:          0
ITLB WRITEBACK ACCESS:          0  HIT:          0  MISS:          0
ITLB PREFETCH  REQUESTED:          0  ISSUED:          0  USEFUL:          0  USELESS:          0
ITLB TOTAL MSHR MERGED:         93
ITLB LOAD MSHR MERGED:         93
ITLB RFO MSHR MERGED:          0
ITLB PREFETCH MSHR MERGED:          0
ITLB WRITEBACK MSHR MERGED:          0
ITLB TOTAL ACCESSES:   94979087 HITS:   94978956 MISSES:        131
ITLB LOAD ACCESSES:   94979087 HITS:   94978956 MISSES:        131
ITLB RFO ACCESSES:          0 HITS:          0 MISSES:          0
ITLB PREFETCH ACCESSES:          0 HITS:          0 MISSES:          0
ITLB WRITEBACK ACCESSES:          0 HITS:          0 MISSES:          0
ITLB RQ ACCESS:  500000001
ITLB RQ TO_CACHE:   94979088
ITLB RQ MERGED:  405020913
ITLB RQ FORWARD:          0
ITLB WQ ACCESS:          0
ITLB WQ TO_CACHE:          0
ITLB WQ MERGED:          0
ITLB WQ FORWARD:          0
DTLB TOTAL     ACCESS:  149267889  HIT:  148670929  MISS:     596960
DTLB LOAD      ACCESS:  107391842  HIT:  106794893  MISS:     596949
DTLB RFO       ACCESS:   41876047  HIT:   41876036  MISS:         11
DTLB PREFETCH  ACCESS:          0  HIT:          0  MISS:          0
DTLB WRITEBACK ACCESS:          0  HIT:          0  MISS:          0
DTLB PREFETCH  REQUESTED:          0  ISSUED:          0  USEFUL:          0  USELESS:          0
DTLB TOTAL MSHR MERGED:     134061
DTLB LOAD MSHR MERGED:     134061
DTLB RFO MSHR MERGED:          0
DTLB PREFETCH MSHR MERGED:          0
DTLB WRITEBACK MSHR MERGED:          0
DTLB TOTAL ACCESSES:  149401950 HITS:  148670929 MISSES:     731021
DTLB LOAD ACCESSES:  107525903 HITS:  106794893 MISSES:     731010
DTLB RFO ACCESSES:   41876047 HITS:   41876036 MISSES:         11
DTLB PREFETCH ACCESSES:          0 HITS:          0 MISSES:          0
DTLB WRITEBACK ACCESSES:          0 HITS:          0 MISSES:          0
DTLB RQ ACCESS:  259759428
DTLB RQ TO_CACHE:  149401950
DTLB RQ MERGED:  110357478
DTLB RQ FORWARD:          0
DTLB WQ ACCESS:          0
DTLB WQ TO_CACHE:          0
DTLB WQ MERGED:          0
DTLB WQ FORWARD:          0
L1D TOTAL     ACCESS:  262110729  HIT:  246581152  MISS:   15529577
L1D LOAD      ACCESS:  118110798  HIT:  112703151  MISS:    5407647
L1D RFO       ACCESS:   68946741  HIT:   68932335  MISS:      14406
L1D PREFETCH  ACCESS:   75053190  HIT:   64945666  MISS:   10107524
L1D WRITEBACK ACCESS:          0  HIT:          0  MISS:          0
L1D PREFETCH  REQUESTED:  120681023  ISSUED:  119536378  USEFUL:    8105004  USELESS:    2002542
L1D TOTAL MSHR MERGED:   16211084
L1D LOAD MSHR MERGED:    4952180
L1D RFO MSHR MERGED:      21834
L1D PREFETCH MSHR MERGED:   11237070
L1D WRITEBACK MSHR MERGED:          0
L1D TOTAL ACCESSES:  278431968 HITS:  246691307 MISSES:   31740661
L1D LOAD ACCESSES:  120688551 HITS:  112710679 MISSES:    7977872
L1D RFO ACCESSES:   68968574 HITS:   68932335 MISSES:      36239
L1D PREFETCH ACCESSES:   88774843 HITS:   65048293 MISSES:   23726550
L1D WRITEBACK ACCESSES:          0 HITS:          0 MISSES:          0
L1D RQ ACCESS:  190685112
L1D RQ TO_CACHE:  120681023
L1D RQ MERGED:   69996561
L1D RQ FORWARD:          0
L1D WQ ACCESS:   69074336
L1D WQ TO_CACHE:   68968576
L1D WQ MERGED:     105760
L1D WQ FORWARD:     110155
L1I TOTAL     ACCESS:  121833960  HIT:  121832887  MISS:       1073
L1I LOAD      ACCESS:  121833960  HIT:  121832887  MISS:       1073
L1I RFO       ACCESS:          0  HIT:          0  MISS:          0
L1I PREFETCH  ACCESS:          0  HIT:          0  MISS:          0
L1I WRITEBACK ACCESS:          0  HIT:          0  MISS:          0
L1I PREFETCH  REQUESTED:          0  ISSUED:          0  USEFUL:          0  USELESS:          0
L1I TOTAL MSHR MERGED:       1082
L1I LOAD MSHR MERGED:       1082
L1I RFO MSHR MERGED:          0
L1I PREFETCH MSHR MERGED:          0
L1I WRITEBACK MSHR MERGED:          0
L1I TOTAL ACCESSES:  121835042 HITS:  121832887 MISSES:       2155
L1I LOAD ACCESSES:  121835042 HITS:  121832887 MISSES:       2155
L1I RFO ACCESSES:          0 HITS:          0 MISSES:          0
L1I PREFETCH ACCESSES:          0 HITS:          0 MISSES:          0
L1I WRITEBACK ACCESSES:          0 HITS:          0 MISSES:          0
L1I RQ ACCESS:  500000000
L1I RQ TO_CACHE:  121835042
L1I RQ MERGED:  378164958
L1I RQ FORWARD:          0
L1I WQ ACCESS:          0
L1I WQ TO_CACHE:          0
L1I WQ MERGED:          0
L1I WQ FORWARD:          0
L2C TOTAL     ACCESS:   22470109  HIT:    9018198  MISS:   13451911
L2C LOAD      ACCESS:    3026732  HIT:     342529  MISS:    2684203
L2C RFO       ACCESS:      14405  HIT:      13990  MISS:        415
L2C PREFETCH  ACCESS:   12798991  HIT:    2033508  MISS:   10765483
L2C WRITEBACK ACCESS:    6629981  HIT:    6628171  MISS:       1810
L2C PREFETCH  REQUESTED:     485976  ISSUED:     485976  USEFUL:     132616  USELESS:   10633671
L2C TOTAL MSHR MERGED:      45744
L2C LOAD MSHR MERGED:      16981
L2C RFO MSHR MERGED:          0
L2C PREFETCH MSHR MERGED:      28763
L2C WRITEBACK MSHR MERGED:          0
L2C TOTAL ACCESSES:   22618547 HITS:    9018240 MISSES:   13600307
L2C LOAD ACCESSES:    3026765 HITS:     342562 MISSES:    2684203
L2C RFO ACCESSES:      14405 HITS:      13990 MISSES:        415
L2C PREFETCH ACCESSES:   12947396 HITS:    2033517 MISSES:   10913879
L2C WRITEBACK ACCESSES:    6629981 HITS:    6628171 MISSES:       1810
L2C RQ ACCESS:    3041170
L2C RQ TO_CACHE:    3041137
L2C RQ MERGED:          0
L2C RQ FORWARD:          0
L2C WQ ACCESS:    6629981
L2C WQ TO_CACHE:    6629981
L2C WQ MERGED:          0
L2C WQ FORWARD:         42
LLC TOTAL     ACCESS:   20129679  HIT:    6357974  MISS:   13771705
LLC LOAD      ACCESS:    2667222  HIT:      84438  MISS:    2582784
LLC RFO       ACCESS:        415  HIT:          9  MISS:        406
LLC PREFETCH  ACCESS:   10870737  HIT:     699638  MISS:   10171099
LLC WRITEBACK ACCESS:    6591305  HIT:    5573889  MISS:    1017416
LLC PREFETCH  REQUESTED:          0  ISSUED:          0  USEFUL:      68250  USELESS:   10103714
LLC TOTAL MSHR MERGED:      13487
LLC LOAD MSHR MERGED:       7415
LLC RFO MSHR MERGED:          0
LLC PREFETCH MSHR MERGED:       6072
LLC WRITEBACK MSHR MERGED:          0
LLC TOTAL ACCESSES:   20143168 HITS:    6357975 MISSES:   13785193
LLC LOAD ACCESSES:    2667222 HITS:      84438 MISSES:    2582784
LLC RFO ACCESSES:        415 HITS:          9 MISSES:        406
LLC PREFETCH ACCESSES:   10884226 HITS:     699639 MISSES:   10184587
LLC WRITEBACK ACCESSES:    6591305 HITS:    5573889 MISSES:    1017416
LLC 0 RQ ACCESS:    2667637
LLC 0 RQ TO_CACHE:    2667637
LLC 0 RQ MERGED:          0
LLC 0 RQ FORWARD:          0
LLC WQ ACCESS:    6591306
LLC WQ TO_CACHE:    6591306
LLC WQ MERGED:          0
LLC WQ FORWARD:          1
Major fault: 0 Minor fault: 183991
CPU 0 L1D next line prefetcher final stats
CPU 0 L2C PC-based stride prefetcher final stats
All Misses: 16064366
All Hits: 6996359
SD Algo Stats - Switches: 288 SRR-Repls: 1528110 BRR-Repls: 1112547

DRAM Statistics
 CHANNEL 0
 RQ ROW_BUFFER_HIT:    7186699  ROW_BUFFER_MISS:    5567590
 DBUS_CONGESTED:   11557783
 WQ ROW_BUFFER_HIT:    2379966  ROW_BUFFER_MISS:    4205231  FULL:          0

 AVG_CONGESTED_CYCLE: 13
LOADS RETIRED: 204440772
INSTR RETIRED: 500000000
