
*** ChampSim Multicore Out-of-Order Simulator ***

Warmup Instructions: 100000000
Simulation Instructions: 500000000
Number of CPUs: 1
LLC sets: 2048
LLC ways: 16
Clean RRIP Policies: 2301132223011322 Dirty RRIP Policies: 1311231213112312 PSEL Width: 10 Track Set: 4294967295 PSEL Mask: 1 Demote Mask: 1434142114341421DS Algo: 0Window size: 0
Off-chip DRAM Size: 4096 MB Channels: 1 Width: 64-bit Data Rate: 1600 MT/s

CPU 0 runs /mnt/beegfs/iconst01/spec2017/Parest.trace.gz
NOT SORTED
TRACE STRING: /mnt/beegfs/iconst01/spec2017/Parest.trace.gz
SORTED
TRACE STRING: /mnt/beegfs/iconst01/spec2017/Parest.trace.gz
INITIAL
TRACE STRING: /mnt/beegfs/iconst01/spec2017/Parest.trace.gz

champsim_seed used: 623

CPU 0 L1D next line prefetcher
CPU 0 L2C IP-based stride prefetcher
Initialize DRRIP state
Assign rand_sets[0]: 454  LLC: 2048
rand_sets[0]: 454
Assign rand_sets[1]: 1662  LLC: 2048
rand_sets[1]: 1662
Assign rand_sets[2]: 1921  LLC: 2048
rand_sets[2]: 1921
Assign rand_sets[3]: 1131  LLC: 2048
rand_sets[3]: 1131
Assign rand_sets[4]: 331  LLC: 2048
rand_sets[4]: 331
Assign rand_sets[5]: 1531  LLC: 2048
rand_sets[5]: 1531
Assign rand_sets[6]: 482  LLC: 2048
rand_sets[6]: 482
Assign rand_sets[7]: 1275  LLC: 2048
rand_sets[7]: 1275
Assign rand_sets[8]: 1876  LLC: 2048
rand_sets[8]: 1876
Assign rand_sets[9]: 2038  LLC: 2048
rand_sets[9]: 2038
Assign rand_sets[10]: 701  LLC: 2048
rand_sets[10]: 701
Assign rand_sets[11]: 479  LLC: 2048
rand_sets[11]: 479
Assign rand_sets[12]: 892  LLC: 2048
rand_sets[12]: 892
Assign rand_sets[13]: 1820  LLC: 2048
rand_sets[13]: 1820
Assign rand_sets[14]: 1505  LLC: 2048
rand_sets[14]: 1505
Assign rand_sets[15]: 1159  LLC: 2048
rand_sets[15]: 1159
Assign rand_sets[16]: 513  LLC: 2048
rand_sets[16]: 513
Assign rand_sets[17]: 703  LLC: 2048
rand_sets[17]: 703
Assign rand_sets[18]: 561  LLC: 2048
rand_sets[18]: 561
Assign rand_sets[19]: 990  LLC: 2048
rand_sets[19]: 990
Assign rand_sets[20]: 342  LLC: 2048
rand_sets[20]: 342
Assign rand_sets[21]: 882  LLC: 2048
rand_sets[21]: 882
Assign rand_sets[22]: 15  LLC: 2048
rand_sets[22]: 15
Assign rand_sets[23]: 71  LLC: 2048
rand_sets[23]: 71
Assign rand_sets[24]: 1127  LLC: 2048
rand_sets[24]: 1127
Assign rand_sets[25]: 1382  LLC: 2048
rand_sets[25]: 1382
Assign rand_sets[26]: 647  LLC: 2048
rand_sets[26]: 647
Assign rand_sets[27]: 857  LLC: 2048
rand_sets[27]: 857
Assign rand_sets[28]: 1450  LLC: 2048
rand_sets[28]: 1450
Assign rand_sets[29]: 1160  LLC: 2048
rand_sets[29]: 1160
Assign rand_sets[30]: 1852  LLC: 2048
rand_sets[30]: 1852
Assign rand_sets[31]: 1881  LLC: 2048
rand_sets[31]: 1881
Assign rand_sets[32]: 1770  LLC: 2048
rand_sets[32]: 1770
Assign rand_sets[33]: 1622  LLC: 2048
rand_sets[33]: 1622
Assign rand_sets[34]: 275  LLC: 2048
rand_sets[34]: 275
Assign rand_sets[35]: 635  LLC: 2048
rand_sets[35]: 635
Assign rand_sets[36]: 466  LLC: 2048
rand_sets[36]: 466
Assign rand_sets[37]: 1413  LLC: 2048
rand_sets[37]: 1413
Assign rand_sets[38]: 417  LLC: 2048
rand_sets[38]: 417
Assign rand_sets[39]: 472  LLC: 2048
rand_sets[39]: 472
Assign rand_sets[40]: 1340  LLC: 2048
rand_sets[40]: 1340
Assign rand_sets[41]: 852  LLC: 2048
rand_sets[41]: 852
Assign rand_sets[42]: 1365  LLC: 2048
rand_sets[42]: 1365
Assign rand_sets[43]: 47  LLC: 2048
rand_sets[43]: 47
Assign rand_sets[44]: 823  LLC: 2048
rand_sets[44]: 823
Assign rand_sets[45]: 686  LLC: 2048
rand_sets[45]: 686
Assign rand_sets[46]: 1637  LLC: 2048
rand_sets[46]: 1637
Assign rand_sets[47]: 1115  LLC: 2048
rand_sets[47]: 1115
Assign rand_sets[48]: 986  LLC: 2048
rand_sets[48]: 986
Assign rand_sets[49]: 258  LLC: 2048
rand_sets[49]: 258
Assign rand_sets[50]: 633  LLC: 2048
rand_sets[50]: 633
Assign rand_sets[51]: 920  LLC: 2048
rand_sets[51]: 920
Assign rand_sets[52]: 204  LLC: 2048
rand_sets[52]: 204
Assign rand_sets[53]: 227  LLC: 2048
rand_sets[53]: 227
Assign rand_sets[54]: 1818  LLC: 2048
rand_sets[54]: 1818
Assign rand_sets[55]: 886  LLC: 2048
rand_sets[55]: 886
Assign rand_sets[56]: 1422  LLC: 2048
rand_sets[56]: 1422
Assign rand_sets[57]: 607  LLC: 2048
rand_sets[57]: 607
Assign rand_sets[58]: 217  LLC: 2048
rand_sets[58]: 217
Assign rand_sets[59]: 1945  LLC: 2048
rand_sets[59]: 1945
Assign rand_sets[60]: 143  LLC: 2048
rand_sets[60]: 143
Assign rand_sets[61]: 1311  LLC: 2048
rand_sets[61]: 1311
Assign rand_sets[62]: 319  LLC: 2048
rand_sets[62]: 319
Assign rand_sets[63]: 1846  LLC: 2048
rand_sets[63]: 1846
 CLEAN-RRIP-POLICY-1: 2-3-0-1-1-3-2-2- CLEAN-RRIP-POLICY-2: 2-3-0-1-1-3-2-2-
 DIRTY-RRIP-POLICY-1: 1-3-1-1-2-3-1-2- DIRTY-RRIP-POLICY-2: 1-3-1-1-2-3-1-2-
 PSEL width: 10
Heartbeat CPU 0 instructions: 10000001 cycles: 4387360 heartbeat IPC: 2.27928 cumulative IPC: 2.27928 (Simulation time: 0 hr 0 min 14 sec) 
Heartbeat CPU 0 instructions: 20000000 cycles: 8781653 heartbeat IPC: 2.27568 cumulative IPC: 2.27748 (Simulation time: 0 hr 0 min 28 sec) 
Heartbeat CPU 0 instructions: 30000003 cycles: 13213891 heartbeat IPC: 2.2562 cumulative IPC: 2.27034 (Simulation time: 0 hr 0 min 42 sec) 
Heartbeat CPU 0 instructions: 40000000 cycles: 17644932 heartbeat IPC: 2.25681 cumulative IPC: 2.26694 (Simulation time: 0 hr 0 min 56 sec) 
Heartbeat CPU 0 instructions: 50000000 cycles: 22053530 heartbeat IPC: 2.26829 cumulative IPC: 2.26721 (Simulation time: 0 hr 1 min 9 sec) 
Heartbeat CPU 0 instructions: 60000000 cycles: 26459840 heartbeat IPC: 2.26947 cumulative IPC: 2.26759 (Simulation time: 0 hr 1 min 23 sec) 
Heartbeat CPU 0 instructions: 70000000 cycles: 30861529 heartbeat IPC: 2.27186 cumulative IPC: 2.2682 (Simulation time: 0 hr 1 min 37 sec) 
Heartbeat CPU 0 instructions: 80000000 cycles: 35257939 heartbeat IPC: 2.27458 cumulative IPC: 2.26899 (Simulation time: 0 hr 1 min 51 sec) 
Heartbeat CPU 0 instructions: 90000000 cycles: 39652637 heartbeat IPC: 2.27547 cumulative IPC: 2.26971 (Simulation time: 0 hr 2 min 5 sec) 
Heartbeat CPU 0 instructions: 100000000 cycles: 44050555 heartbeat IPC: 2.2738 cumulative IPC: 2.27012 (Simulation time: 0 hr 2 min 19 sec) 

Warmup complete CPU 0 instructions: 100000002 cycles: 44050565 (Simulation time: 0 hr 2 min 19 sec) 

Heartbeat CPU 0 instructions: 110000003 cycles: 55132445 heartbeat IPC: 0.902373 cumulative IPC: 0.902374 (Simulation time: 0 hr 2 min 38 sec) 
Heartbeat CPU 0 instructions: 120000000 cycles: 65438444 heartbeat IPC: 0.970308 cumulative IPC: 0.935109 (Simulation time: 0 hr 2 min 56 sec) 
Heartbeat CPU 0 instructions: 130000001 cycles: 75698547 heartbeat IPC: 0.974649 cumulative IPC: 0.947928 (Simulation time: 0 hr 3 min 14 sec) 
Heartbeat CPU 0 instructions: 140000000 cycles: 86030526 heartbeat IPC: 0.967869 cumulative IPC: 0.952836 (Simulation time: 0 hr 3 min 33 sec) 
Heartbeat CPU 0 instructions: 150000000 cycles: 98357437 heartbeat IPC: 0.811233 cumulative IPC: 0.920694 (Simulation time: 0 hr 3 min 52 sec) 
Heartbeat CPU 0 instructions: 160000000 cycles: 110015223 heartbeat IPC: 0.857796 cumulative IPC: 0.909578 (Simulation time: 0 hr 4 min 10 sec) 
Heartbeat CPU 0 instructions: 170000000 cycles: 121393010 heartbeat IPC: 0.878906 cumulative IPC: 0.905066 (Simulation time: 0 hr 4 min 29 sec) 
Heartbeat CPU 0 instructions: 180000000 cycles: 132711253 heartbeat IPC: 0.883529 cumulative IPC: 0.902316 (Simulation time: 0 hr 4 min 48 sec) 
Heartbeat CPU 0 instructions: 190000002 cycles: 143976307 heartbeat IPC: 0.887701 cumulative IPC: 0.900669 (Simulation time: 0 hr 5 min 6 sec) 
Heartbeat CPU 0 instructions: 200000000 cycles: 154548903 heartbeat IPC: 0.945841 cumulative IPC: 0.904991 (Simulation time: 0 hr 5 min 25 sec) 
Heartbeat CPU 0 instructions: 210000000 cycles: 165665965 heartbeat IPC: 0.899518 cumulative IPC: 0.904491 (Simulation time: 0 hr 5 min 43 sec) 
Heartbeat CPU 0 instructions: 220000000 cycles: 175881682 heartbeat IPC: 0.978884 cumulative IPC: 0.910255 (Simulation time: 0 hr 6 min 2 sec) 
Heartbeat CPU 0 instructions: 230000001 cycles: 188298827 heartbeat IPC: 0.805338 cumulative IPC: 0.901224 (Simulation time: 0 hr 6 min 21 sec) 
Heartbeat CPU 0 instructions: 240000000 cycles: 200164647 heartbeat IPC: 0.842757 cumulative IPC: 0.89678 (Simulation time: 0 hr 6 min 40 sec) 
Heartbeat CPU 0 instructions: 250000002 cycles: 211641807 heartbeat IPC: 0.871296 cumulative IPC: 0.895035 (Simulation time: 0 hr 6 min 58 sec) 
Heartbeat CPU 0 instructions: 260000000 cycles: 222883948 heartbeat IPC: 0.88951 cumulative IPC: 0.894688 (Simulation time: 0 hr 7 min 17 sec) 
Heartbeat CPU 0 instructions: 270000001 cycles: 233944008 heartbeat IPC: 0.904154 cumulative IPC: 0.895239 (Simulation time: 0 hr 7 min 35 sec) 
Heartbeat CPU 0 instructions: 280000000 cycles: 245274518 heartbeat IPC: 0.882573 cumulative IPC: 0.894526 (Simulation time: 0 hr 7 min 54 sec) 
Heartbeat CPU 0 instructions: 290000002 cycles: 255686418 heartbeat IPC: 0.96044 cumulative IPC: 0.897768 (Simulation time: 0 hr 8 min 12 sec) 
Heartbeat CPU 0 instructions: 300000000 cycles: 266707972 heartbeat IPC: 0.907313 cumulative IPC: 0.898241 (Simulation time: 0 hr 8 min 30 sec) 
Heartbeat CPU 0 instructions: 310000000 cycles: 277008052 heartbeat IPC: 0.970866 cumulative IPC: 0.901452 (Simulation time: 0 hr 8 min 48 sec) 
Heartbeat CPU 0 instructions: 320000000 cycles: 287288078 heartbeat IPC: 0.97276 cumulative IPC: 0.904466 (Simulation time: 0 hr 9 min 7 sec) 
Heartbeat CPU 0 instructions: 330000003 cycles: 297721449 heartbeat IPC: 0.958463 cumulative IPC: 0.906687 (Simulation time: 0 hr 9 min 25 sec) 
Heartbeat CPU 0 instructions: 340000000 cycles: 308834594 heartbeat IPC: 0.899835 cumulative IPC: 0.906399 (Simulation time: 0 hr 9 min 43 sec) 
Heartbeat CPU 0 instructions: 350000000 cycles: 320681474 heartbeat IPC: 0.844104 cumulative IPC: 0.903731 (Simulation time: 0 hr 10 min 2 sec) 
Heartbeat CPU 0 instructions: 360000000 cycles: 332187887 heartbeat IPC: 0.869081 cumulative IPC: 0.902348 (Simulation time: 0 hr 10 min 20 sec) 
Heartbeat CPU 0 instructions: 370000000 cycles: 343374907 heartbeat IPC: 0.893893 cumulative IPC: 0.902032 (Simulation time: 0 hr 10 min 38 sec) 
Heartbeat CPU 0 instructions: 380000000 cycles: 354281615 heartbeat IPC: 0.916867 cumulative IPC: 0.902553 (Simulation time: 0 hr 10 min 57 sec) 
Heartbeat CPU 0 instructions: 390000002 cycles: 364894102 heartbeat IPC: 0.942286 cumulative IPC: 0.903867 (Simulation time: 0 hr 11 min 15 sec) 
Heartbeat CPU 0 instructions: 400000000 cycles: 375951507 heartbeat IPC: 0.904371 cumulative IPC: 0.903884 (Simulation time: 0 hr 11 min 33 sec) 
Heartbeat CPU 0 instructions: 410000000 cycles: 386200740 heartbeat IPC: 0.975683 cumulative IPC: 0.906035 (Simulation time: 0 hr 11 min 51 sec) 
Heartbeat CPU 0 instructions: 420000000 cycles: 397646383 heartbeat IPC: 0.873695 cumulative IPC: 0.904988 (Simulation time: 0 hr 12 min 10 sec) 
Heartbeat CPU 0 instructions: 430000000 cycles: 409889285 heartbeat IPC: 0.8168 cumulative IPC: 0.902037 (Simulation time: 0 hr 12 min 28 sec) 
Heartbeat CPU 0 instructions: 440000000 cycles: 421338579 heartbeat IPC: 0.873416 cumulative IPC: 0.901168 (Simulation time: 0 hr 12 min 47 sec) 
Heartbeat CPU 0 instructions: 450000000 cycles: 432703271 heartbeat IPC: 0.879918 cumulative IPC: 0.900547 (Simulation time: 0 hr 13 min 5 sec) 
Heartbeat CPU 0 instructions: 460000000 cycles: 444026789 heartbeat IPC: 0.883118 cumulative IPC: 0.900054 (Simulation time: 0 hr 13 min 23 sec) 
Heartbeat CPU 0 instructions: 470000002 cycles: 455280248 heartbeat IPC: 0.888616 cumulative IPC: 0.899741 (Simulation time: 0 hr 13 min 42 sec) 
Heartbeat CPU 0 instructions: 480000000 cycles: 465817119 heartbeat IPC: 0.949048 cumulative IPC: 0.900972 (Simulation time: 0 hr 14 min 0 sec) 
Heartbeat CPU 0 instructions: 490000002 cycles: 476890641 heartbeat IPC: 0.903055 cumulative IPC: 0.901026 (Simulation time: 0 hr 14 min 18 sec) 
Heartbeat CPU 0 instructions: 500000000 cycles: 487500703 heartbeat IPC: 0.942501 cumulative IPC: 0.902018 (Simulation time: 0 hr 14 min 36 sec) 
Heartbeat CPU 0 instructions: 510000000 cycles: 497722251 heartbeat IPC: 0.978325 cumulative IPC: 0.903737 (Simulation time: 0 hr 14 min 54 sec) 
Heartbeat CPU 0 instructions: 520000000 cycles: 508215163 heartbeat IPC: 0.953024 cumulative IPC: 0.904851 (Simulation time: 0 hr 15 min 13 sec) 
Heartbeat CPU 0 instructions: 530000001 cycles: 519572380 heartbeat IPC: 0.880497 cumulative IPC: 0.90427 (Simulation time: 0 hr 15 min 31 sec) 
Heartbeat CPU 0 instructions: 540000000 cycles: 531355368 heartbeat IPC: 0.848681 cumulative IPC: 0.902926 (Simulation time: 0 hr 15 min 49 sec) 
Heartbeat CPU 0 instructions: 550000003 cycles: 543076785 heartbeat IPC: 0.853139 cumulative IPC: 0.901756 (Simulation time: 0 hr 16 min 8 sec) 
Heartbeat CPU 0 instructions: 560000000 cycles: 554382782 heartbeat IPC: 0.884486 cumulative IPC: 0.901374 (Simulation time: 0 hr 16 min 26 sec) 
Heartbeat CPU 0 instructions: 570000002 cycles: 565356464 heartbeat IPC: 0.911271 cumulative IPC: 0.901582 (Simulation time: 0 hr 16 min 44 sec) 
Heartbeat CPU 0 instructions: 580000000 cycles: 576239648 heartbeat IPC: 0.918849 cumulative IPC: 0.901935 (Simulation time: 0 hr 17 min 3 sec) 
Heartbeat CPU 0 instructions: 590000002 cycles: 587289763 heartbeat IPC: 0.904968 cumulative IPC: 0.901997 (Simulation time: 0 hr 17 min 21 sec) 
Heartbeat CPU 0 instructions: 600000000 cycles: 597863573 heartbeat IPC: 0.945733 cumulative IPC: 0.902832 (Simulation time: 0 hr 17 min 39 sec) 
Finished CPU 0 instructions: 500000000 cycles: 553813022 cumulative IPC: 0.902832 (Simulation time: 0 hr 17 min 39 sec) 

CPU 0 Branch Prediction Accuracy: 97.8526% MPKI: 2.66709
Number of Branches: 62099103 Number of Mispredictions: 1333545
Number of LOAD Instructions: 210576465
Number of LOAD Instructions (ROI): 210576465
Number of STORE Instructions: 16915507
Number of STORE Instructions (ROI): 16915507
Total Destination Memory Operands: 16918869
Total Destination Memory Operands (ROI): 16918869
Total Source Memory Operands: 210576465
Total Source Memory Operands (ROI): 210576465
Number of DEPENDED LOADS: 364189
Number of DEPENDED LOADS (ROI): 364189
Number of SQ_ADDED: 16918826
Number of SQ_ADDED (ROI): 16918826
Number of LQ_ADDED: 210632106
Number of LQ_ADDED (ROI): 210632106
Number of Instructions read from trace: 600000257

ChampSim completed all CPUs

Region of Interest Statistics

CPU 0 cumulative IPC: 0.902832 instructions: 500000000 cycles: 553813022
ITLB TOTAL     ACCESS:   76537611  HIT:   76537573  MISS:         38
ITLB LOAD      ACCESS:   76537611  HIT:   76537573  MISS:         38
ITLB RFO       ACCESS:          0  HIT:          0  MISS:          0
ITLB PREFETCH  ACCESS:          0  HIT:          0  MISS:          0
ITLB WRITEBACK ACCESS:          0  HIT:          0  MISS:          0
ITLB PREFETCH  REQUESTED:          0  ISSUED:          0  USEFUL:          0  USELESS:          0
ITLB TOTAL MSHR MERGED:         37
ITLB LOAD MSHR MERGED:         37
ITLB RFO MSHR MERGED:          0
ITLB PREFETCH MSHR MERGED:          0
ITLB WRITEBACK MSHR MERGED:          0
ITLB TOTAL ACCESSES:   76537648 HITS:   76537573 MISSES:         75
ITLB LOAD ACCESSES:   76537648 HITS:   76537573 MISSES:         75
ITLB RFO ACCESSES:          0 HITS:          0 MISSES:          0
ITLB PREFETCH ACCESSES:          0 HITS:          0 MISSES:          0
ITLB WRITEBACK ACCESSES:          0 HITS:          0 MISSES:          0
ITLB RQ ACCESS:  500000188
ITLB RQ TO_CACHE:   76537649
ITLB RQ MERGED:  423462539
ITLB RQ FORWARD:          0
ITLB WQ ACCESS:          0
ITLB WQ TO_CACHE:          0
ITLB WQ MERGED:          0
ITLB WQ FORWARD:          0
DTLB TOTAL     ACCESS:  136846800  HIT:  136644011  MISS:     202789
DTLB LOAD      ACCESS:  128782872  HIT:  128582804  MISS:     200068
DTLB RFO       ACCESS:    8063928  HIT:    8061207  MISS:       2721
DTLB PREFETCH  ACCESS:          0  HIT:          0  MISS:          0
DTLB WRITEBACK ACCESS:          0  HIT:          0  MISS:          0
DTLB PREFETCH  REQUESTED:          0  ISSUED:          0  USEFUL:          0  USELESS:          0
DTLB TOTAL MSHR MERGED:     438498
DTLB LOAD MSHR MERGED:     435175
DTLB RFO MSHR MERGED:       3323
DTLB PREFETCH MSHR MERGED:          0
DTLB WRITEBACK MSHR MERGED:          0
DTLB TOTAL ACCESSES:  137285298 HITS:  136644011 MISSES:     641287
DTLB LOAD ACCESSES:  129218047 HITS:  128582804 MISSES:     635243
DTLB RFO ACCESSES:    8067251 HITS:    8061207 MISSES:       6044
DTLB PREFETCH ACCESSES:          0 HITS:          0 MISSES:          0
DTLB WRITEBACK ACCESSES:          0 HITS:          0 MISSES:          0
DTLB RQ ACCESS:  189401291
DTLB RQ TO_CACHE:  137285298
DTLB RQ MERGED:   52115993
DTLB RQ FORWARD:          0
DTLB WQ ACCESS:          0
DTLB WQ TO_CACHE:          0
DTLB WQ MERGED:          0
DTLB WQ FORWARD:          0
L1D TOTAL     ACCESS:  125736823  HIT:  108180175  MISS:   17556648
L1D LOAD      ACCESS:   72614912  HIT:   62256478  MISS:   10358434
L1D RFO       ACCESS:   14017436  HIT:   13864601  MISS:     152835
L1D PREFETCH  ACCESS:   39104475  HIT:   32059096  MISS:    7045379
L1D WRITEBACK ACCESS:          0  HIT:          0  MISS:          0
L1D PREFETCH  REQUESTED:   85857270  ISSUED:   84531283  USEFUL:    5786216  USELESS:    1259174
L1D TOTAL MSHR MERGED:   32433763
L1D LOAD MSHR MERGED:   18575749
L1D RFO MSHR MERGED:     269269
L1D PREFETCH MSHR MERGED:   13588745
L1D WRITEBACK MSHR MERGED:          0
L1D TOTAL ACCESSES:  158171145 HITS:  108180735 MISSES:   49990410
L1D LOAD ACCESSES:   85857283 HITS:   62256491 MISSES:   23600792
L1D RFO ACCESSES:   14286683 HITS:   13864601 MISSES:     422082
L1D PREFETCH ACCESSES:   58027179 HITS:   32059643 MISSES:   25967536
L1D WRITEBACK ACCESSES:          0 HITS:          0 MISSES:          0
L1D RQ ACCESS:  175112269
L1D RQ TO_CACHE:   85857270
L1D RQ MERGED:   89254986
L1D RQ FORWARD:          0
L1D WQ ACCESS:   14289037
L1D WQ TO_CACHE:   14286683
L1D WQ MERGED:       2354
L1D WQ FORWARD:        560
L1I TOTAL     ACCESS:   93564573  HIT:   93562777  MISS:       1796
L1I LOAD      ACCESS:   93564573  HIT:   93562777  MISS:       1796
L1I RFO       ACCESS:          0  HIT:          0  MISS:          0
L1I PREFETCH  ACCESS:          0  HIT:          0  MISS:          0
L1I WRITEBACK ACCESS:          0  HIT:          0  MISS:          0
L1I PREFETCH  REQUESTED:          0  ISSUED:          0  USEFUL:          0  USELESS:          0
L1I TOTAL MSHR MERGED:       2318
L1I LOAD MSHR MERGED:       2318
L1I RFO MSHR MERGED:          0
L1I PREFETCH MSHR MERGED:          0
L1I WRITEBACK MSHR MERGED:          0
L1I TOTAL ACCESSES:   93566891 HITS:   93562777 MISSES:       4114
L1I LOAD ACCESSES:   93566891 HITS:   93562777 MISSES:       4114
L1I RFO ACCESSES:          0 HITS:          0 MISSES:          0
L1I PREFETCH ACCESSES:          0 HITS:          0 MISSES:          0
L1I WRITEBACK ACCESSES:          0 HITS:          0 MISSES:          0
L1I RQ ACCESS:  500000187
L1I RQ TO_CACHE:   93566891
L1I RQ MERGED:  406433296
L1I RQ FORWARD:          0
L1I WQ ACCESS:          0
L1I WQ TO_CACHE:          0
L1I WQ MERGED:          0
L1I WQ FORWARD:          0
L2C TOTAL     ACCESS:   20883184  HIT:    8655760  MISS:   12227424
L2C LOAD      ACCESS:    5026816  HIT:    2130217  MISS:    2896599
L2C RFO       ACCESS:     152813  HIT:       6508  MISS:     146305
L2C PREFETCH  ACCESS:   13930797  HIT:    4746388  MISS:    9184409
L2C WRITEBACK ACCESS:    1772758  HIT:    1772647  MISS:        111
L2C PREFETCH  REQUESTED:    1787750  ISSUED:    1787750  USEFUL:    1066975  USELESS:    8119073
L2C TOTAL MSHR MERGED:      79763
L2C LOAD MSHR MERGED:      17131
L2C RFO MSHR MERGED:          0
L2C PREFETCH MSHR MERGED:      62632
L2C WRITEBACK MSHR MERGED:          0
L2C TOTAL ACCESSES:   21022569 HITS:    8655792 MISSES:   12366777
L2C LOAD ACCESSES:    5026839 HITS:    2130240 MISSES:    2896599
L2C RFO ACCESSES:     152813 HITS:       6508 MISSES:     146305
L2C PREFETCH ACCESSES:   14070159 HITS:    4746397 MISSES:    9323762
L2C WRITEBACK ACCESSES:    1772758 HITS:    1772647 MISSES:        111
L2C RQ ACCESS:    5179652
L2C RQ TO_CACHE:    5179629
L2C RQ MERGED:          0
L2C RQ FORWARD:          0
L2C WQ ACCESS:    1772758
L2C WQ TO_CACHE:    1772758
L2C WQ MERGED:          0
L2C WQ FORWARD:         32
LLC TOTAL     ACCESS:   12542649  HIT:    3727506  MISS:    8815143
LLC LOAD      ACCESS:    2879459  HIT:    1126100  MISS:    1753359
LLC RFO       ACCESS:     146305  HIT:      12222  MISS:     134083
LLC PREFETCH  ACCESS:    9230909  HIT:    2441447  MISS:    6789462
LLC WRITEBACK ACCESS:     285976  HIT:     147737  MISS:     138239
LLC PREFETCH  REQUESTED:          0  ISSUED:          0  USEFUL:    1017258  USELESS:    5775605
LLC TOTAL MSHR MERGED:      17195
LLC LOAD MSHR MERGED:       5247
LLC RFO MSHR MERGED:          0
LLC PREFETCH MSHR MERGED:      11948
LLC WRITEBACK MSHR MERGED:          0
LLC TOTAL ACCESSES:   12559868 HITS:    3727530 MISSES:    8832338
LLC LOAD ACCESSES:    2879468 HITS:    1126109 MISSES:    1753359
LLC RFO ACCESSES:     146305 HITS:      12222 MISSES:     134083
LLC PREFETCH ACCESSES:    9248119 HITS:    2441462 MISSES:    6806657
LLC WRITEBACK ACCESSES:     285976 HITS:     147737 MISSES:     138239
LLC 0 RQ ACCESS:    3025773
LLC 0 RQ TO_CACHE:    3025764
LLC 0 RQ MERGED:          0
LLC 0 RQ FORWARD:          0
LLC WQ ACCESS:     285976
LLC WQ TO_CACHE:     285976
LLC WQ MERGED:          0
LLC WQ FORWARD:         24
Major fault: 0 Minor fault: 6524
CPU 0 L1D next line prefetcher final stats
CPU 0 L2C PC-based stride prefetcher final stats
All Misses: 10610169
All Hits: 4457521
SD Algo Stats - Switches: 0 SRR-Repls: 1873231 BRR-Repls: 0

DRAM Statistics
 CHANNEL 0
 RQ ROW_BUFFER_HIT:    7740832  ROW_BUFFER_MISS:     916750
 DBUS_CONGESTED:    3862471
 WQ ROW_BUFFER_HIT:      85242  ROW_BUFFER_MISS:     139478  FULL:          0

 AVG_CONGESTED_CYCLE: 12
LOADS RETIRED: 175418235
INSTR RETIRED: 500000000
