
*** ChampSim Multicore Out-of-Order Simulator ***

Warmup Instructions: 100000000
Simulation Instructions: 500000000
Number of CPUs: 1
LLC sets: 2048
LLC ways: 16
Clean RRIP Policies: 2213230222132302 Dirty RRIP Policies: 1203130212031302 PSEL Width: 10 Track Set: 4294967295 PSEL Mask: 1 Demote Mask: 1030103010301030DS Algo: 0Window size: 0
Off-chip DRAM Size: 4096 MB Channels: 1 Width: 64-bit Data Rate: 1600 MT/s

CPU 0 runs /mnt/beegfs/iconst01/spec2017/Gcc.trace.gz
NOT SORTED
TRACE STRING: /mnt/beegfs/iconst01/spec2017/Gcc.trace.gz
SORTED
TRACE STRING: /mnt/beegfs/iconst01/spec2017/Gcc.trace.gz
INITIAL
TRACE STRING: /mnt/beegfs/iconst01/spec2017/Gcc.trace.gz

champsim_seed used: 269

CPU 0 L1D next line prefetcher
CPU 0 L2C IP-based stride prefetcher
Initialize DRRIP state
Assign rand_sets[0]: 454  LLC: 2048
rand_sets[0]: 454
Assign rand_sets[1]: 1662  LLC: 2048
rand_sets[1]: 1662
Assign rand_sets[2]: 1921  LLC: 2048
rand_sets[2]: 1921
Assign rand_sets[3]: 1131  LLC: 2048
rand_sets[3]: 1131
Assign rand_sets[4]: 331  LLC: 2048
rand_sets[4]: 331
Assign rand_sets[5]: 1531  LLC: 2048
rand_sets[5]: 1531
Assign rand_sets[6]: 482  LLC: 2048
rand_sets[6]: 482
Assign rand_sets[7]: 1275  LLC: 2048
rand_sets[7]: 1275
Assign rand_sets[8]: 1876  LLC: 2048
rand_sets[8]: 1876
Assign rand_sets[9]: 2038  LLC: 2048
rand_sets[9]: 2038
Assign rand_sets[10]: 701  LLC: 2048
rand_sets[10]: 701
Assign rand_sets[11]: 479  LLC: 2048
rand_sets[11]: 479
Assign rand_sets[12]: 892  LLC: 2048
rand_sets[12]: 892
Assign rand_sets[13]: 1820  LLC: 2048
rand_sets[13]: 1820
Assign rand_sets[14]: 1505  LLC: 2048
rand_sets[14]: 1505
Assign rand_sets[15]: 1159  LLC: 2048
rand_sets[15]: 1159
Assign rand_sets[16]: 513  LLC: 2048
rand_sets[16]: 513
Assign rand_sets[17]: 703  LLC: 2048
rand_sets[17]: 703
Assign rand_sets[18]: 561  LLC: 2048
rand_sets[18]: 561
Assign rand_sets[19]: 990  LLC: 2048
rand_sets[19]: 990
Assign rand_sets[20]: 342  LLC: 2048
rand_sets[20]: 342
Assign rand_sets[21]: 882  LLC: 2048
rand_sets[21]: 882
Assign rand_sets[22]: 15  LLC: 2048
rand_sets[22]: 15
Assign rand_sets[23]: 71  LLC: 2048
rand_sets[23]: 71
Assign rand_sets[24]: 1127  LLC: 2048
rand_sets[24]: 1127
Assign rand_sets[25]: 1382  LLC: 2048
rand_sets[25]: 1382
Assign rand_sets[26]: 647  LLC: 2048
rand_sets[26]: 647
Assign rand_sets[27]: 857  LLC: 2048
rand_sets[27]: 857
Assign rand_sets[28]: 1450  LLC: 2048
rand_sets[28]: 1450
Assign rand_sets[29]: 1160  LLC: 2048
rand_sets[29]: 1160
Assign rand_sets[30]: 1852  LLC: 2048
rand_sets[30]: 1852
Assign rand_sets[31]: 1881  LLC: 2048
rand_sets[31]: 1881
Assign rand_sets[32]: 1770  LLC: 2048
rand_sets[32]: 1770
Assign rand_sets[33]: 1622  LLC: 2048
rand_sets[33]: 1622
Assign rand_sets[34]: 275  LLC: 2048
rand_sets[34]: 275
Assign rand_sets[35]: 635  LLC: 2048
rand_sets[35]: 635
Assign rand_sets[36]: 466  LLC: 2048
rand_sets[36]: 466
Assign rand_sets[37]: 1413  LLC: 2048
rand_sets[37]: 1413
Assign rand_sets[38]: 417  LLC: 2048
rand_sets[38]: 417
Assign rand_sets[39]: 472  LLC: 2048
rand_sets[39]: 472
Assign rand_sets[40]: 1340  LLC: 2048
rand_sets[40]: 1340
Assign rand_sets[41]: 852  LLC: 2048
rand_sets[41]: 852
Assign rand_sets[42]: 1365  LLC: 2048
rand_sets[42]: 1365
Assign rand_sets[43]: 47  LLC: 2048
rand_sets[43]: 47
Assign rand_sets[44]: 823  LLC: 2048
rand_sets[44]: 823
Assign rand_sets[45]: 686  LLC: 2048
rand_sets[45]: 686
Assign rand_sets[46]: 1637  LLC: 2048
rand_sets[46]: 1637
Assign rand_sets[47]: 1115  LLC: 2048
rand_sets[47]: 1115
Assign rand_sets[48]: 986  LLC: 2048
rand_sets[48]: 986
Assign rand_sets[49]: 258  LLC: 2048
rand_sets[49]: 258
Assign rand_sets[50]: 633  LLC: 2048
rand_sets[50]: 633
Assign rand_sets[51]: 920  LLC: 2048
rand_sets[51]: 920
Assign rand_sets[52]: 204  LLC: 2048
rand_sets[52]: 204
Assign rand_sets[53]: 227  LLC: 2048
rand_sets[53]: 227
Assign rand_sets[54]: 1818  LLC: 2048
rand_sets[54]: 1818
Assign rand_sets[55]: 886  LLC: 2048
rand_sets[55]: 886
Assign rand_sets[56]: 1422  LLC: 2048
rand_sets[56]: 1422
Assign rand_sets[57]: 607  LLC: 2048
rand_sets[57]: 607
Assign rand_sets[58]: 217  LLC: 2048
rand_sets[58]: 217
Assign rand_sets[59]: 1945  LLC: 2048
rand_sets[59]: 1945
Assign rand_sets[60]: 143  LLC: 2048
rand_sets[60]: 143
Assign rand_sets[61]: 1311  LLC: 2048
rand_sets[61]: 1311
Assign rand_sets[62]: 319  LLC: 2048
rand_sets[62]: 319
Assign rand_sets[63]: 1846  LLC: 2048
rand_sets[63]: 1846
 CLEAN-RRIP-POLICY-1: 2-2-1-3-2-3-0-2- CLEAN-RRIP-POLICY-2: 2-2-1-3-2-3-0-2-
 DIRTY-RRIP-POLICY-1: 1-2-0-3-1-3-0-2- DIRTY-RRIP-POLICY-2: 1-2-0-3-1-3-0-2-
 PSEL width: 10
Heartbeat CPU 0 instructions: 10000001 cycles: 7315979 heartbeat IPC: 1.36687 cumulative IPC: 1.36687 (Simulation time: 0 hr 0 min 14 sec) 
Heartbeat CPU 0 instructions: 20000000 cycles: 14307681 heartbeat IPC: 1.43027 cumulative IPC: 1.39785 (Simulation time: 0 hr 0 min 28 sec) 
Heartbeat CPU 0 instructions: 30000001 cycles: 21020588 heartbeat IPC: 1.48967 cumulative IPC: 1.42717 (Simulation time: 0 hr 0 min 43 sec) 
Heartbeat CPU 0 instructions: 40000000 cycles: 27481383 heartbeat IPC: 1.5478 cumulative IPC: 1.45553 (Simulation time: 0 hr 0 min 59 sec) 
Heartbeat CPU 0 instructions: 50000001 cycles: 33583123 heartbeat IPC: 1.63888 cumulative IPC: 1.48884 (Simulation time: 0 hr 1 min 14 sec) 
Heartbeat CPU 0 instructions: 60000000 cycles: 40064346 heartbeat IPC: 1.54292 cumulative IPC: 1.49759 (Simulation time: 0 hr 1 min 29 sec) 
Heartbeat CPU 0 instructions: 70000000 cycles: 47103409 heartbeat IPC: 1.42064 cumulative IPC: 1.48609 (Simulation time: 0 hr 1 min 43 sec) 
Heartbeat CPU 0 instructions: 80000000 cycles: 54193669 heartbeat IPC: 1.41039 cumulative IPC: 1.47619 (Simulation time: 0 hr 1 min 57 sec) 
Heartbeat CPU 0 instructions: 90000003 cycles: 61198381 heartbeat IPC: 1.42761 cumulative IPC: 1.47063 (Simulation time: 0 hr 2 min 11 sec) 
Heartbeat CPU 0 instructions: 100000000 cycles: 68365933 heartbeat IPC: 1.39518 cumulative IPC: 1.46272 (Simulation time: 0 hr 2 min 25 sec) 

Warmup complete CPU 0 instructions: 100000004 cycles: 68365934 (Simulation time: 0 hr 2 min 25 sec) 

Heartbeat CPU 0 instructions: 110000003 cycles: 95978271 heartbeat IPC: 0.362157 cumulative IPC: 0.362157 (Simulation time: 0 hr 2 min 52 sec) 
Heartbeat CPU 0 instructions: 120000000 cycles: 123433065 heartbeat IPC: 0.364235 cumulative IPC: 0.363193 (Simulation time: 0 hr 3 min 19 sec) 
Heartbeat CPU 0 instructions: 130000000 cycles: 148403470 heartbeat IPC: 0.400474 cumulative IPC: 0.374824 (Simulation time: 0 hr 3 min 46 sec) 
Heartbeat CPU 0 instructions: 140000000 cycles: 177947524 heartbeat IPC: 0.338478 cumulative IPC: 0.365025 (Simulation time: 0 hr 4 min 13 sec) 
Heartbeat CPU 0 instructions: 150000000 cycles: 207810395 heartbeat IPC: 0.334864 cumulative IPC: 0.358566 (Simulation time: 0 hr 4 min 40 sec) 
Heartbeat CPU 0 instructions: 160000000 cycles: 235226224 heartbeat IPC: 0.364753 cumulative IPC: 0.359582 (Simulation time: 0 hr 5 min 6 sec) 
Heartbeat CPU 0 instructions: 170000001 cycles: 263205860 heartbeat IPC: 0.357403 cumulative IPC: 0.359269 (Simulation time: 0 hr 5 min 34 sec) 
Heartbeat CPU 0 instructions: 180000000 cycles: 291647604 heartbeat IPC: 0.351596 cumulative IPC: 0.358292 (Simulation time: 0 hr 6 min 1 sec) 
Heartbeat CPU 0 instructions: 190000002 cycles: 319639007 heartbeat IPC: 0.357253 cumulative IPC: 0.358176 (Simulation time: 0 hr 6 min 28 sec) 
Heartbeat CPU 0 instructions: 200000000 cycles: 347989875 heartbeat IPC: 0.352723 cumulative IPC: 0.357623 (Simulation time: 0 hr 6 min 56 sec) 
Heartbeat CPU 0 instructions: 210000002 cycles: 375835185 heartbeat IPC: 0.359127 cumulative IPC: 0.357759 (Simulation time: 0 hr 7 min 23 sec) 
Heartbeat CPU 0 instructions: 220000000 cycles: 405037279 heartbeat IPC: 0.342441 cumulative IPC: 0.356431 (Simulation time: 0 hr 7 min 49 sec) 
Heartbeat CPU 0 instructions: 230000000 cycles: 432552422 heartbeat IPC: 0.363436 cumulative IPC: 0.35696 (Simulation time: 0 hr 8 min 15 sec) 
Heartbeat CPU 0 instructions: 240000000 cycles: 458466551 heartbeat IPC: 0.38589 cumulative IPC: 0.358882 (Simulation time: 0 hr 8 min 41 sec) 
Heartbeat CPU 0 instructions: 250000000 cycles: 488576261 heartbeat IPC: 0.332119 cumulative IPC: 0.356964 (Simulation time: 0 hr 9 min 9 sec) 
Heartbeat CPU 0 instructions: 260000000 cycles: 515659370 heartbeat IPC: 0.369234 cumulative IPC: 0.357707 (Simulation time: 0 hr 9 min 36 sec) 
Heartbeat CPU 0 instructions: 270000003 cycles: 544065839 heartbeat IPC: 0.352033 cumulative IPC: 0.357368 (Simulation time: 0 hr 10 min 4 sec) 
Heartbeat CPU 0 instructions: 280000000 cycles: 572240202 heartbeat IPC: 0.354932 cumulative IPC: 0.357232 (Simulation time: 0 hr 10 min 32 sec) 
Heartbeat CPU 0 instructions: 290000000 cycles: 601165693 heartbeat IPC: 0.345716 cumulative IPC: 0.356607 (Simulation time: 0 hr 11 min 0 sec) 
Heartbeat CPU 0 instructions: 300000000 cycles: 631186979 heartbeat IPC: 0.333097 cumulative IPC: 0.355353 (Simulation time: 0 hr 11 min 26 sec) 
Heartbeat CPU 0 instructions: 310000001 cycles: 660620854 heartbeat IPC: 0.339745 cumulative IPC: 0.354577 (Simulation time: 0 hr 11 min 53 sec) 
Heartbeat CPU 0 instructions: 320000000 cycles: 688839793 heartbeat IPC: 0.354372 cumulative IPC: 0.354568 (Simulation time: 0 hr 12 min 20 sec) 
Heartbeat CPU 0 instructions: 330000000 cycles: 717480726 heartbeat IPC: 0.349151 cumulative IPC: 0.354329 (Simulation time: 0 hr 12 min 46 sec) 
Heartbeat CPU 0 instructions: 340000000 cycles: 746743990 heartbeat IPC: 0.341725 cumulative IPC: 0.353785 (Simulation time: 0 hr 13 min 13 sec) 
Heartbeat CPU 0 instructions: 350000003 cycles: 773799228 heartbeat IPC: 0.369614 cumulative IPC: 0.354392 (Simulation time: 0 hr 13 min 40 sec) 
Heartbeat CPU 0 instructions: 360000000 cycles: 801941247 heartbeat IPC: 0.35534 cumulative IPC: 0.354428 (Simulation time: 0 hr 14 min 5 sec) 
Heartbeat CPU 0 instructions: 370000000 cycles: 830117004 heartbeat IPC: 0.354915 cumulative IPC: 0.354447 (Simulation time: 0 hr 14 min 31 sec) 
Heartbeat CPU 0 instructions: 380000000 cycles: 858607515 heartbeat IPC: 0.350994 cumulative IPC: 0.354322 (Simulation time: 0 hr 14 min 57 sec) 
Heartbeat CPU 0 instructions: 390000001 cycles: 886212589 heartbeat IPC: 0.362252 cumulative IPC: 0.35459 (Simulation time: 0 hr 15 min 22 sec) 
Heartbeat CPU 0 instructions: 400000000 cycles: 914842288 heartbeat IPC: 0.349288 cumulative IPC: 0.35441 (Simulation time: 0 hr 15 min 48 sec) 
Heartbeat CPU 0 instructions: 410000001 cycles: 942139996 heartbeat IPC: 0.366331 cumulative IPC: 0.354783 (Simulation time: 0 hr 16 min 13 sec) 
Heartbeat CPU 0 instructions: 420000000 cycles: 969452514 heartbeat IPC: 0.366132 cumulative IPC: 0.355127 (Simulation time: 0 hr 16 min 39 sec) 
Heartbeat CPU 0 instructions: 430000002 cycles: 997152573 heartbeat IPC: 0.36101 cumulative IPC: 0.355302 (Simulation time: 0 hr 17 min 4 sec) 
Heartbeat CPU 0 instructions: 440000000 cycles: 1026690640 heartbeat IPC: 0.338546 cumulative IPC: 0.354786 (Simulation time: 0 hr 17 min 30 sec) 
Heartbeat CPU 0 instructions: 450000002 cycles: 1055918171 heartbeat IPC: 0.342143 cumulative IPC: 0.354412 (Simulation time: 0 hr 17 min 56 sec) 
Heartbeat CPU 0 instructions: 460000000 cycles: 1083610194 heartbeat IPC: 0.361115 cumulative IPC: 0.354594 (Simulation time: 0 hr 18 min 21 sec) 
Heartbeat CPU 0 instructions: 470000000 cycles: 1111242123 heartbeat IPC: 0.3619 cumulative IPC: 0.354788 (Simulation time: 0 hr 18 min 47 sec) 
Heartbeat CPU 0 instructions: 480000000 cycles: 1139114232 heartbeat IPC: 0.358782 cumulative IPC: 0.354892 (Simulation time: 0 hr 19 min 12 sec) 
Heartbeat CPU 0 instructions: 490000000 cycles: 1166698839 heartbeat IPC: 0.362521 cumulative IPC: 0.355084 (Simulation time: 0 hr 19 min 38 sec) 
Heartbeat CPU 0 instructions: 500000000 cycles: 1195007249 heartbeat IPC: 0.353252 cumulative IPC: 0.355038 (Simulation time: 0 hr 20 min 3 sec) 
Heartbeat CPU 0 instructions: 510000000 cycles: 1229103999 heartbeat IPC: 0.293283 cumulative IPC: 0.353224 (Simulation time: 0 hr 20 min 32 sec) 
Heartbeat CPU 0 instructions: 520000000 cycles: 1257128479 heartbeat IPC: 0.356831 cumulative IPC: 0.353309 (Simulation time: 0 hr 20 min 59 sec) 
Heartbeat CPU 0 instructions: 530000001 cycles: 1286675441 heartbeat IPC: 0.338444 cumulative IPC: 0.352948 (Simulation time: 0 hr 21 min 26 sec) 
Heartbeat CPU 0 instructions: 540000000 cycles: 1314751436 heartbeat IPC: 0.356176 cumulative IPC: 0.353021 (Simulation time: 0 hr 21 min 52 sec) 
Heartbeat CPU 0 instructions: 550000001 cycles: 1343922942 heartbeat IPC: 0.3428 cumulative IPC: 0.352787 (Simulation time: 0 hr 22 min 20 sec) 
Heartbeat CPU 0 instructions: 560000000 cycles: 1369310980 heartbeat IPC: 0.393886 cumulative IPC: 0.353589 (Simulation time: 0 hr 22 min 46 sec) 
Heartbeat CPU 0 instructions: 570000000 cycles: 1398801418 heartbeat IPC: 0.339093 cumulative IPC: 0.353268 (Simulation time: 0 hr 23 min 13 sec) 
Heartbeat CPU 0 instructions: 580000000 cycles: 1426741984 heartbeat IPC: 0.357903 cumulative IPC: 0.353363 (Simulation time: 0 hr 23 min 40 sec) 
Heartbeat CPU 0 instructions: 590000001 cycles: 1451475574 heartbeat IPC: 0.404309 cumulative IPC: 0.354274 (Simulation time: 0 hr 24 min 5 sec) 
Heartbeat CPU 0 instructions: 600000000 cycles: 1477536070 heartbeat IPC: 0.383723 cumulative IPC: 0.354819 (Simulation time: 0 hr 24 min 31 sec) 
Finished CPU 0 instructions: 500000000 cycles: 1409170158 cumulative IPC: 0.354819 (Simulation time: 0 hr 24 min 31 sec) 

CPU 0 Branch Prediction Accuracy: 86.4311% MPKI: 26.2662
Number of Branches: 96788573 Number of Mispredictions: 13133102
Number of LOAD Instructions: 164682285
Number of LOAD Instructions (ROI): 164682285
Number of STORE Instructions: 78194750
Number of STORE Instructions (ROI): 78194750
Total Destination Memory Operands: 83268534
Total Destination Memory Operands (ROI): 83268534
Total Source Memory Operands: 164712438
Total Source Memory Operands (ROI): 164712438
Number of DEPENDED LOADS: 7057047
Number of DEPENDED LOADS (ROI): 7057047
Number of SQ_ADDED: 83268522
Number of SQ_ADDED (ROI): 83268522
Number of LQ_ADDED: 236725879
Number of LQ_ADDED (ROI): 236725879
Number of Instructions read from trace: 600000066

ChampSim completed all CPUs

Region of Interest Statistics

CPU 0 cumulative IPC: 0.354819 instructions: 500000000 cycles: 1409170158
ITLB TOTAL     ACCESS:  100518962  HIT:  100314516  MISS:     204446
ITLB LOAD      ACCESS:  100518962  HIT:  100314516  MISS:     204446
ITLB RFO       ACCESS:          0  HIT:          0  MISS:          0
ITLB PREFETCH  ACCESS:          0  HIT:          0  MISS:          0
ITLB WRITEBACK ACCESS:          0  HIT:          0  MISS:          0
ITLB PREFETCH  REQUESTED:          0  ISSUED:          0  USEFUL:          0  USELESS:          0
ITLB TOTAL MSHR MERGED:     172426
ITLB LOAD MSHR MERGED:     172426
ITLB RFO MSHR MERGED:          0
ITLB PREFETCH MSHR MERGED:          0
ITLB WRITEBACK MSHR MERGED:          0
ITLB TOTAL ACCESSES:  100691388 HITS:  100314516 MISSES:     376872
ITLB LOAD ACCESSES:  100691388 HITS:  100314516 MISSES:     376872
ITLB RFO ACCESSES:          0 HITS:          0 MISSES:          0
ITLB PREFETCH ACCESSES:          0 HITS:          0 MISSES:          0
ITLB WRITEBACK ACCESSES:          0 HITS:          0 MISSES:          0
ITLB RQ ACCESS:  500000057
ITLB RQ TO_CACHE:  100691388
ITLB RQ MERGED:  399308669
ITLB RQ FORWARD:          0
ITLB WQ ACCESS:          0
ITLB WQ TO_CACHE:          0
ITLB WQ MERGED:          0
ITLB WQ FORWARD:          0
DTLB TOTAL     ACCESS:  165339476  HIT:  164705123  MISS:     634353
DTLB LOAD      ACCESS:  106294243  HIT:  105724317  MISS:     569926
DTLB RFO       ACCESS:   59045233  HIT:   58980806  MISS:      64427
DTLB PREFETCH  ACCESS:          0  HIT:          0  MISS:          0
DTLB WRITEBACK ACCESS:          0  HIT:          0  MISS:          0
DTLB PREFETCH  REQUESTED:          0  ISSUED:          0  USEFUL:          0  USELESS:          0
DTLB TOTAL MSHR MERGED:      99971
DTLB LOAD MSHR MERGED:      59460
DTLB RFO MSHR MERGED:      40511
DTLB PREFETCH MSHR MERGED:          0
DTLB WRITEBACK MSHR MERGED:          0
DTLB TOTAL ACCESSES:  165439447 HITS:  164705123 MISSES:     734324
DTLB LOAD ACCESSES:  106353703 HITS:  105724317 MISSES:     629386
DTLB RFO ACCESSES:   59085744 HITS:   58980806 MISSES:     104938
DTLB PREFETCH ACCESSES:          0 HITS:          0 MISSES:          0
DTLB WRITEBACK ACCESSES:          0 HITS:          0 MISSES:          0
DTLB RQ ACCESS:  200313835
DTLB RQ TO_CACHE:  165439447
DTLB RQ MERGED:   34874388
DTLB RQ FORWARD:          0
DTLB WQ ACCESS:          0
DTLB WQ TO_CACHE:          0
DTLB WQ MERGED:          0
DTLB WQ FORWARD:          0
L1D TOTAL     ACCESS:  281855597  HIT:  273946214  MISS:    7909383
L1D LOAD      ACCESS:  110421595  HIT:  107144055  MISS:    3277540
L1D RFO       ACCESS:   67129688  HIT:   66239577  MISS:     890111
L1D PREFETCH  ACCESS:  104304314  HIT:  100562582  MISS:    3741732
L1D WRITEBACK ACCESS:          0  HIT:          0  MISS:          0
L1D PREFETCH  REQUESTED:  110819629  ISSUED:  109120324  USEFUL:    1662343  USELESS:    2079353
L1D TOTAL MSHR MERGED:    2853485
L1D LOAD MSHR MERGED:     495041
L1D RFO MSHR MERGED:    1855807
L1D PREFETCH MSHR MERGED:     502637
L1D WRITEBACK MSHR MERGED:          0
L1D TOTAL ACCESSES:  284736508 HITS:  273973640 MISSES:   10762868
L1D LOAD ACCESSES:  110821052 HITS:  107145478 MISSES:    3675574
L1D RFO ACCESSES:   68974178 HITS:   66239577 MISSES:    2734601
L1D PREFETCH ACCESSES:  104941278 HITS:  100588585 MISSES:    4352693
L1D WRITEBACK ACCESSES:          0 HITS:          0 MISSES:          0
L1D RQ ACCESS:  130761232
L1D RQ TO_CACHE:  110819632
L1D RQ MERGED:   19940177
L1D RQ FORWARD:          0
L1D WQ ACCESS:   69552603
L1D WQ TO_CACHE:   68974179
L1D WQ MERGED:     578424
L1D WQ FORWARD:      27426
L1I TOTAL     ACCESS:  126566237  HIT:  122327683  MISS:    4238554
L1I LOAD      ACCESS:  126566237  HIT:  122327683  MISS:    4238554
L1I RFO       ACCESS:          0  HIT:          0  MISS:          0
L1I PREFETCH  ACCESS:          0  HIT:          0  MISS:          0
L1I WRITEBACK ACCESS:          0  HIT:          0  MISS:          0
L1I PREFETCH  REQUESTED:          0  ISSUED:          0  USEFUL:          0  USELESS:          0
L1I TOTAL MSHR MERGED:    1834670
L1I LOAD MSHR MERGED:    1834670
L1I RFO MSHR MERGED:          0
L1I PREFETCH MSHR MERGED:          0
L1I WRITEBACK MSHR MERGED:          0
L1I TOTAL ACCESSES:  128400910 HITS:  122327683 MISSES:    6073227
L1I LOAD ACCESSES:  128400910 HITS:  122327683 MISSES:    6073227
L1I RFO ACCESSES:          0 HITS:          0 MISSES:          0
L1I PREFETCH ACCESSES:          0 HITS:          0 MISSES:          0
L1I WRITEBACK ACCESSES:          0 HITS:          0 MISSES:          0
L1I RQ ACCESS:  500000057
L1I RQ TO_CACHE:  128400910
L1I RQ MERGED:  371599147
L1I RQ FORWARD:          0
L1I WQ ACCESS:          0
L1I WQ TO_CACHE:          0
L1I WQ MERGED:          0
L1I WQ FORWARD:          0
L2C TOTAL     ACCESS:   14905466  HIT:   11158960  MISS:    3746506
L2C LOAD      ACCESS:    7418880  HIT:    5098933  MISS:    2319947
L2C RFO       ACCESS:     878696  HIT:     409896  MISS:     468800
L2C PREFETCH  ACCESS:    4568635  HIT:    3628132  MISS:     940503
L2C WRITEBACK ACCESS:    2039255  HIT:    2021999  MISS:      17256
L2C PREFETCH  REQUESTED:     842808  ISSUED:     842808  USEFUL:     203423  USELESS:     736786
L2C TOTAL MSHR MERGED:       6912
L2C LOAD MSHR MERGED:        749
L2C RFO MSHR MERGED:          0
L2C PREFETCH MSHR MERGED:       6163
L2C WRITEBACK MSHR MERGED:          0
L2C TOTAL ACCESSES:   14913257 HITS:   11159409 MISSES:    3753848
L2C LOAD ACCESSES:    7419087 HITS:    5099140 MISSES:    2319947
L2C RFO ACCESSES:     878794 HITS:     409994 MISSES:     468800
L2C PREFETCH ACCESSES:    4576121 HITS:    3628276 MISSES:     947845
L2C WRITEBACK ACCESSES:    2039255 HITS:    2021999 MISSES:      17256
L2C RQ ACCESS:    8297884
L2C RQ TO_CACHE:    8297579
L2C RQ MERGED:          0
L2C RQ FORWARD:          0
L2C WQ ACCESS:    2039255
L2C WQ TO_CACHE:    2039255
L2C WQ MERGED:          0
L2C WQ FORWARD:        449
LLC TOTAL     ACCESS:    4609858  HIT:    4003185  MISS:     606673
LLC LOAD      ACCESS:    2319183  HIT:    2070125  MISS:     249058
LLC RFO       ACCESS:     468790  HIT:     422190  MISS:      46600
LLC PREFETCH  ACCESS:     941580  HIT:     672832  MISS:     268748
LLC WRITEBACK ACCESS:     880305  HIT:     838038  MISS:      42267
LLC PREFETCH  REQUESTED:          0  ISSUED:          0  USEFUL:      13970  USELESS:     255016
LLC TOTAL MSHR MERGED:         87
LLC LOAD MSHR MERGED:         27
LLC RFO MSHR MERGED:          0
LLC PREFETCH MSHR MERGED:         60
LLC WRITEBACK MSHR MERGED:          0
LLC TOTAL ACCESSES:    4609980 HITS:    4003220 MISSES:     606760
LLC LOAD ACCESSES:    2319198 HITS:    2070140 MISSES:     249058
LLC RFO ACCESSES:     468800 HITS:     422200 MISSES:      46600
LLC PREFETCH ACCESSES:     941677 HITS:     672842 MISSES:     268835
LLC WRITEBACK ACCESSES:     880305 HITS:     838038 MISSES:      42267
LLC 0 RQ ACCESS:    2787998
LLC 0 RQ TO_CACHE:    2787973
LLC 0 RQ MERGED:          0
LLC 0 RQ FORWARD:          0
LLC WQ ACCESS:     880305
LLC WQ TO_CACHE:     880305
LLC WQ MERGED:          0
LLC WQ FORWARD:         35
Major fault: 0 Minor fault: 12862
CPU 0 L1D next line prefetcher final stats
CPU 0 L2C PC-based stride prefetcher final stats
All Misses: 727027
All Hits: 4699837
SD Algo Stats - Switches: 0 SRR-Repls: 295086 BRR-Repls: 0

DRAM Statistics
 CHANNEL 0
 RQ ROW_BUFFER_HIT:     115694  ROW_BUFFER_MISS:     448157
 DBUS_CONGESTED:     305524
 WQ ROW_BUFFER_HIT:       9281  ROW_BUFFER_MISS:     141022  FULL:          0

 AVG_CONGESTED_CYCLE: 13
LOADS RETIRED: 136549171
INSTR RETIRED: 500000000
