
*** ChampSim Multicore Out-of-Order Simulator ***

Warmup Instructions: 100000000
Simulation Instructions: 500000000
Number of CPUs: 1
LLC sets: 2048
LLC ways: 16
Clean RRIP Policies: 203130002031300 Dirty RRIP Policies: 2213132022131320 PSEL Width: 10 Track Set: 4294967295 PSEL Mask: 1 Demote Mask: 4122014341220143DS Algo: 0Window size: 0
Off-chip DRAM Size: 4096 MB Channels: 1 Width: 64-bit Data Rate: 1600 MT/s

CPU 0 runs /mnt/beegfs/iconst01/spec2017/Gcc.trace.gz
NOT SORTED
TRACE STRING: /mnt/beegfs/iconst01/spec2017/Gcc.trace.gz
SORTED
TRACE STRING: /mnt/beegfs/iconst01/spec2017/Gcc.trace.gz
INITIAL
TRACE STRING: /mnt/beegfs/iconst01/spec2017/Gcc.trace.gz

champsim_seed used: 269

CPU 0 L1D next line prefetcher
CPU 0 L2C IP-based stride prefetcher
Initialize DRRIP state
Assign rand_sets[0]: 454  LLC: 2048
rand_sets[0]: 454
Assign rand_sets[1]: 1662  LLC: 2048
rand_sets[1]: 1662
Assign rand_sets[2]: 1921  LLC: 2048
rand_sets[2]: 1921
Assign rand_sets[3]: 1131  LLC: 2048
rand_sets[3]: 1131
Assign rand_sets[4]: 331  LLC: 2048
rand_sets[4]: 331
Assign rand_sets[5]: 1531  LLC: 2048
rand_sets[5]: 1531
Assign rand_sets[6]: 482  LLC: 2048
rand_sets[6]: 482
Assign rand_sets[7]: 1275  LLC: 2048
rand_sets[7]: 1275
Assign rand_sets[8]: 1876  LLC: 2048
rand_sets[8]: 1876
Assign rand_sets[9]: 2038  LLC: 2048
rand_sets[9]: 2038
Assign rand_sets[10]: 701  LLC: 2048
rand_sets[10]: 701
Assign rand_sets[11]: 479  LLC: 2048
rand_sets[11]: 479
Assign rand_sets[12]: 892  LLC: 2048
rand_sets[12]: 892
Assign rand_sets[13]: 1820  LLC: 2048
rand_sets[13]: 1820
Assign rand_sets[14]: 1505  LLC: 2048
rand_sets[14]: 1505
Assign rand_sets[15]: 1159  LLC: 2048
rand_sets[15]: 1159
Assign rand_sets[16]: 513  LLC: 2048
rand_sets[16]: 513
Assign rand_sets[17]: 703  LLC: 2048
rand_sets[17]: 703
Assign rand_sets[18]: 561  LLC: 2048
rand_sets[18]: 561
Assign rand_sets[19]: 990  LLC: 2048
rand_sets[19]: 990
Assign rand_sets[20]: 342  LLC: 2048
rand_sets[20]: 342
Assign rand_sets[21]: 882  LLC: 2048
rand_sets[21]: 882
Assign rand_sets[22]: 15  LLC: 2048
rand_sets[22]: 15
Assign rand_sets[23]: 71  LLC: 2048
rand_sets[23]: 71
Assign rand_sets[24]: 1127  LLC: 2048
rand_sets[24]: 1127
Assign rand_sets[25]: 1382  LLC: 2048
rand_sets[25]: 1382
Assign rand_sets[26]: 647  LLC: 2048
rand_sets[26]: 647
Assign rand_sets[27]: 857  LLC: 2048
rand_sets[27]: 857
Assign rand_sets[28]: 1450  LLC: 2048
rand_sets[28]: 1450
Assign rand_sets[29]: 1160  LLC: 2048
rand_sets[29]: 1160
Assign rand_sets[30]: 1852  LLC: 2048
rand_sets[30]: 1852
Assign rand_sets[31]: 1881  LLC: 2048
rand_sets[31]: 1881
Assign rand_sets[32]: 1770  LLC: 2048
rand_sets[32]: 1770
Assign rand_sets[33]: 1622  LLC: 2048
rand_sets[33]: 1622
Assign rand_sets[34]: 275  LLC: 2048
rand_sets[34]: 275
Assign rand_sets[35]: 635  LLC: 2048
rand_sets[35]: 635
Assign rand_sets[36]: 466  LLC: 2048
rand_sets[36]: 466
Assign rand_sets[37]: 1413  LLC: 2048
rand_sets[37]: 1413
Assign rand_sets[38]: 417  LLC: 2048
rand_sets[38]: 417
Assign rand_sets[39]: 472  LLC: 2048
rand_sets[39]: 472
Assign rand_sets[40]: 1340  LLC: 2048
rand_sets[40]: 1340
Assign rand_sets[41]: 852  LLC: 2048
rand_sets[41]: 852
Assign rand_sets[42]: 1365  LLC: 2048
rand_sets[42]: 1365
Assign rand_sets[43]: 47  LLC: 2048
rand_sets[43]: 47
Assign rand_sets[44]: 823  LLC: 2048
rand_sets[44]: 823
Assign rand_sets[45]: 686  LLC: 2048
rand_sets[45]: 686
Assign rand_sets[46]: 1637  LLC: 2048
rand_sets[46]: 1637
Assign rand_sets[47]: 1115  LLC: 2048
rand_sets[47]: 1115
Assign rand_sets[48]: 986  LLC: 2048
rand_sets[48]: 986
Assign rand_sets[49]: 258  LLC: 2048
rand_sets[49]: 258
Assign rand_sets[50]: 633  LLC: 2048
rand_sets[50]: 633
Assign rand_sets[51]: 920  LLC: 2048
rand_sets[51]: 920
Assign rand_sets[52]: 204  LLC: 2048
rand_sets[52]: 204
Assign rand_sets[53]: 227  LLC: 2048
rand_sets[53]: 227
Assign rand_sets[54]: 1818  LLC: 2048
rand_sets[54]: 1818
Assign rand_sets[55]: 886  LLC: 2048
rand_sets[55]: 886
Assign rand_sets[56]: 1422  LLC: 2048
rand_sets[56]: 1422
Assign rand_sets[57]: 607  LLC: 2048
rand_sets[57]: 607
Assign rand_sets[58]: 217  LLC: 2048
rand_sets[58]: 217
Assign rand_sets[59]: 1945  LLC: 2048
rand_sets[59]: 1945
Assign rand_sets[60]: 143  LLC: 2048
rand_sets[60]: 143
Assign rand_sets[61]: 1311  LLC: 2048
rand_sets[61]: 1311
Assign rand_sets[62]: 319  LLC: 2048
rand_sets[62]: 319
Assign rand_sets[63]: 1846  LLC: 2048
rand_sets[63]: 1846
 CLEAN-RRIP-POLICY-1: 0-2-0-3-1-3-0-0- CLEAN-RRIP-POLICY-2: 0-2-0-3-1-3-0-0-
 DIRTY-RRIP-POLICY-1: 2-2-1-3-1-3-2-0- DIRTY-RRIP-POLICY-2: 2-2-1-3-1-3-2-0-
 PSEL width: 10
Heartbeat CPU 0 instructions: 10000001 cycles: 7315983 heartbeat IPC: 1.36687 cumulative IPC: 1.36687 (Simulation time: 0 hr 0 min 15 sec) 
Heartbeat CPU 0 instructions: 20000000 cycles: 14307602 heartbeat IPC: 1.43028 cumulative IPC: 1.39786 (Simulation time: 0 hr 0 min 29 sec) 
Heartbeat CPU 0 instructions: 30000001 cycles: 21020929 heartbeat IPC: 1.48957 cumulative IPC: 1.42715 (Simulation time: 0 hr 0 min 45 sec) 
Heartbeat CPU 0 instructions: 40000000 cycles: 27481936 heartbeat IPC: 1.54775 cumulative IPC: 1.4555 (Simulation time: 0 hr 1 min 1 sec) 
Heartbeat CPU 0 instructions: 50000001 cycles: 33583899 heartbeat IPC: 1.63882 cumulative IPC: 1.48881 (Simulation time: 0 hr 1 min 17 sec) 
Heartbeat CPU 0 instructions: 60000000 cycles: 40065262 heartbeat IPC: 1.54289 cumulative IPC: 1.49756 (Simulation time: 0 hr 1 min 32 sec) 
Heartbeat CPU 0 instructions: 70000000 cycles: 47104890 heartbeat IPC: 1.42053 cumulative IPC: 1.48605 (Simulation time: 0 hr 1 min 47 sec) 
Heartbeat CPU 0 instructions: 80000000 cycles: 54195929 heartbeat IPC: 1.41023 cumulative IPC: 1.47613 (Simulation time: 0 hr 2 min 2 sec) 
Heartbeat CPU 0 instructions: 90000003 cycles: 61201718 heartbeat IPC: 1.42739 cumulative IPC: 1.47055 (Simulation time: 0 hr 2 min 17 sec) 
Heartbeat CPU 0 instructions: 100000000 cycles: 68370584 heartbeat IPC: 1.39492 cumulative IPC: 1.46262 (Simulation time: 0 hr 2 min 31 sec) 

Warmup complete CPU 0 instructions: 100000004 cycles: 68370585 (Simulation time: 0 hr 2 min 31 sec) 

Heartbeat CPU 0 instructions: 110000003 cycles: 96301121 heartbeat IPC: 0.358031 cumulative IPC: 0.358031 (Simulation time: 0 hr 3 min 0 sec) 
Heartbeat CPU 0 instructions: 120000000 cycles: 123878629 heartbeat IPC: 0.362614 cumulative IPC: 0.360308 (Simulation time: 0 hr 3 min 28 sec) 
Heartbeat CPU 0 instructions: 130000000 cycles: 148975350 heartbeat IPC: 0.398458 cumulative IPC: 0.372186 (Simulation time: 0 hr 3 min 57 sec) 
Heartbeat CPU 0 instructions: 140000000 cycles: 178969701 heartbeat IPC: 0.333396 cumulative IPC: 0.361667 (Simulation time: 0 hr 4 min 25 sec) 
Heartbeat CPU 0 instructions: 150000000 cycles: 209139152 heartbeat IPC: 0.331461 cumulative IPC: 0.355193 (Simulation time: 0 hr 4 min 54 sec) 
Heartbeat CPU 0 instructions: 160000000 cycles: 236651795 heartbeat IPC: 0.363469 cumulative IPC: 0.356546 (Simulation time: 0 hr 5 min 21 sec) 
Heartbeat CPU 0 instructions: 170000001 cycles: 264887534 heartbeat IPC: 0.354161 cumulative IPC: 0.356203 (Simulation time: 0 hr 5 min 51 sec) 
Heartbeat CPU 0 instructions: 180000000 cycles: 293517324 heartbeat IPC: 0.349286 cumulative IPC: 0.355324 (Simulation time: 0 hr 6 min 20 sec) 
Heartbeat CPU 0 instructions: 190000002 cycles: 321799354 heartbeat IPC: 0.353581 cumulative IPC: 0.355129 (Simulation time: 0 hr 6 min 48 sec) 
Heartbeat CPU 0 instructions: 200000000 cycles: 350331751 heartbeat IPC: 0.350479 cumulative IPC: 0.354659 (Simulation time: 0 hr 7 min 17 sec) 
Heartbeat CPU 0 instructions: 210000002 cycles: 378390481 heartbeat IPC: 0.356395 cumulative IPC: 0.354816 (Simulation time: 0 hr 7 min 46 sec) 
Heartbeat CPU 0 instructions: 220000000 cycles: 407967375 heartbeat IPC: 0.338102 cumulative IPC: 0.35336 (Simulation time: 0 hr 8 min 13 sec) 
Heartbeat CPU 0 instructions: 230000000 cycles: 435735679 heartbeat IPC: 0.360123 cumulative IPC: 0.353871 (Simulation time: 0 hr 8 min 41 sec) 
Heartbeat CPU 0 instructions: 240000000 cycles: 461784939 heartbeat IPC: 0.383888 cumulative IPC: 0.355859 (Simulation time: 0 hr 9 min 8 sec) 
Heartbeat CPU 0 instructions: 250000000 cycles: 492064238 heartbeat IPC: 0.330259 cumulative IPC: 0.354029 (Simulation time: 0 hr 9 min 38 sec) 
Heartbeat CPU 0 instructions: 260000000 cycles: 519273916 heartbeat IPC: 0.367516 cumulative IPC: 0.354843 (Simulation time: 0 hr 10 min 6 sec) 
Heartbeat CPU 0 instructions: 270000003 cycles: 547908724 heartbeat IPC: 0.349225 cumulative IPC: 0.354508 (Simulation time: 0 hr 10 min 35 sec) 
Heartbeat CPU 0 instructions: 280000000 cycles: 576326463 heartbeat IPC: 0.351893 cumulative IPC: 0.354361 (Simulation time: 0 hr 11 min 5 sec) 
Heartbeat CPU 0 instructions: 290000000 cycles: 605379414 heartbeat IPC: 0.344199 cumulative IPC: 0.353812 (Simulation time: 0 hr 11 min 34 sec) 
Heartbeat CPU 0 instructions: 300000000 cycles: 635933633 heartbeat IPC: 0.327287 cumulative IPC: 0.352384 (Simulation time: 0 hr 12 min 3 sec) 
Heartbeat CPU 0 instructions: 310000001 cycles: 665728544 heartbeat IPC: 0.335628 cumulative IPC: 0.351548 (Simulation time: 0 hr 12 min 31 sec) 
Heartbeat CPU 0 instructions: 320000000 cycles: 694399308 heartbeat IPC: 0.348787 cumulative IPC: 0.351422 (Simulation time: 0 hr 12 min 59 sec) 
Heartbeat CPU 0 instructions: 330000000 cycles: 723368180 heartbeat IPC: 0.345198 cumulative IPC: 0.351146 (Simulation time: 0 hr 13 min 27 sec) 
Heartbeat CPU 0 instructions: 340000000 cycles: 752980922 heartbeat IPC: 0.337692 cumulative IPC: 0.350564 (Simulation time: 0 hr 13 min 56 sec) 
Heartbeat CPU 0 instructions: 350000003 cycles: 780225191 heartbeat IPC: 0.36705 cumulative IPC: 0.351195 (Simulation time: 0 hr 14 min 23 sec) 
Heartbeat CPU 0 instructions: 360000000 cycles: 809037364 heartbeat IPC: 0.347075 cumulative IPC: 0.351035 (Simulation time: 0 hr 14 min 51 sec) 
Heartbeat CPU 0 instructions: 370000000 cycles: 837679673 heartbeat IPC: 0.349134 cumulative IPC: 0.350964 (Simulation time: 0 hr 15 min 18 sec) 
Heartbeat CPU 0 instructions: 380000000 cycles: 866540757 heartbeat IPC: 0.346487 cumulative IPC: 0.350802 (Simulation time: 0 hr 15 min 45 sec) 
Heartbeat CPU 0 instructions: 390000001 cycles: 894408812 heartbeat IPC: 0.358834 cumulative IPC: 0.351073 (Simulation time: 0 hr 16 min 12 sec) 
Heartbeat CPU 0 instructions: 400000000 cycles: 923331461 heartbeat IPC: 0.34575 cumulative IPC: 0.350893 (Simulation time: 0 hr 16 min 40 sec) 
Heartbeat CPU 0 instructions: 410000001 cycles: 950814837 heartbeat IPC: 0.363856 cumulative IPC: 0.351297 (Simulation time: 0 hr 17 min 7 sec) 
Heartbeat CPU 0 instructions: 420000000 cycles: 978272249 heartbeat IPC: 0.3642 cumulative IPC: 0.351686 (Simulation time: 0 hr 17 min 34 sec) 
Heartbeat CPU 0 instructions: 430000002 cycles: 1006148150 heartbeat IPC: 0.358733 cumulative IPC: 0.351896 (Simulation time: 0 hr 18 min 1 sec) 
Heartbeat CPU 0 instructions: 440000000 cycles: 1036043380 heartbeat IPC: 0.334501 cumulative IPC: 0.351358 (Simulation time: 0 hr 18 min 28 sec) 
Heartbeat CPU 0 instructions: 450000002 cycles: 1065633931 heartbeat IPC: 0.337946 cumulative IPC: 0.35096 (Simulation time: 0 hr 18 min 56 sec) 
Heartbeat CPU 0 instructions: 460000000 cycles: 1093517275 heartbeat IPC: 0.358637 cumulative IPC: 0.351169 (Simulation time: 0 hr 19 min 23 sec) 
Heartbeat CPU 0 instructions: 470000000 cycles: 1121255120 heartbeat IPC: 0.360518 cumulative IPC: 0.351416 (Simulation time: 0 hr 19 min 50 sec) 
Heartbeat CPU 0 instructions: 480000000 cycles: 1149238944 heartbeat IPC: 0.357349 cumulative IPC: 0.351569 (Simulation time: 0 hr 20 min 17 sec) 
Heartbeat CPU 0 instructions: 490000000 cycles: 1176927818 heartbeat IPC: 0.361156 cumulative IPC: 0.351809 (Simulation time: 0 hr 20 min 44 sec) 
Heartbeat CPU 0 instructions: 500000000 cycles: 1205355667 heartbeat IPC: 0.351768 cumulative IPC: 0.351808 (Simulation time: 0 hr 21 min 11 sec) 
Heartbeat CPU 0 instructions: 510000000 cycles: 1240043598 heartbeat IPC: 0.288285 cumulative IPC: 0.349927 (Simulation time: 0 hr 21 min 41 sec) 
Heartbeat CPU 0 instructions: 520000000 cycles: 1268182853 heartbeat IPC: 0.355375 cumulative IPC: 0.350055 (Simulation time: 0 hr 22 min 10 sec) 
Heartbeat CPU 0 instructions: 530000001 cycles: 1298258963 heartbeat IPC: 0.33249 cumulative IPC: 0.349625 (Simulation time: 0 hr 22 min 38 sec) 
Heartbeat CPU 0 instructions: 540000000 cycles: 1326780329 heartbeat IPC: 0.350614 cumulative IPC: 0.349648 (Simulation time: 0 hr 23 min 6 sec) 
Heartbeat CPU 0 instructions: 550000001 cycles: 1356182928 heartbeat IPC: 0.340106 cumulative IPC: 0.34943 (Simulation time: 0 hr 23 min 36 sec) 
Heartbeat CPU 0 instructions: 560000000 cycles: 1381772791 heartbeat IPC: 0.39078 cumulative IPC: 0.350235 (Simulation time: 0 hr 24 min 3 sec) 
Heartbeat CPU 0 instructions: 570000000 cycles: 1411865045 heartbeat IPC: 0.332311 cumulative IPC: 0.349834 (Simulation time: 0 hr 24 min 32 sec) 
Heartbeat CPU 0 instructions: 580000000 cycles: 1440248870 heartbeat IPC: 0.352313 cumulative IPC: 0.349885 (Simulation time: 0 hr 25 min 0 sec) 
Heartbeat CPU 0 instructions: 590000001 cycles: 1465153490 heartbeat IPC: 0.401532 cumulative IPC: 0.350806 (Simulation time: 0 hr 25 min 27 sec) 
Heartbeat CPU 0 instructions: 600000000 cycles: 1491499203 heartbeat IPC: 0.379568 cumulative IPC: 0.351339 (Simulation time: 0 hr 25 min 54 sec) 
Finished CPU 0 instructions: 500000000 cycles: 1423128640 cumulative IPC: 0.351339 (Simulation time: 0 hr 25 min 54 sec) 

CPU 0 Branch Prediction Accuracy: 86.4311% MPKI: 26.2662
Number of Branches: 96788573 Number of Mispredictions: 13133102
Number of LOAD Instructions: 164682285
Number of LOAD Instructions (ROI): 164682285
Number of STORE Instructions: 78194750
Number of STORE Instructions (ROI): 78194750
Total Destination Memory Operands: 83268534
Total Destination Memory Operands (ROI): 83268534
Total Source Memory Operands: 164712438
Total Source Memory Operands (ROI): 164712438
Number of DEPENDED LOADS: 7057611
Number of DEPENDED LOADS (ROI): 7057611
Number of SQ_ADDED: 83268522
Number of SQ_ADDED (ROI): 83268522
Number of LQ_ADDED: 236884319
Number of LQ_ADDED (ROI): 236884319
Number of Instructions read from trace: 600000066

ChampSim completed all CPUs

Region of Interest Statistics

CPU 0 cumulative IPC: 0.351339 instructions: 500000000 cycles: 1423128640
ITLB TOTAL     ACCESS:  100522100  HIT:  100317654  MISS:     204446
ITLB LOAD      ACCESS:  100522100  HIT:  100317654  MISS:     204446
ITLB RFO       ACCESS:          0  HIT:          0  MISS:          0
ITLB PREFETCH  ACCESS:          0  HIT:          0  MISS:          0
ITLB WRITEBACK ACCESS:          0  HIT:          0  MISS:          0
ITLB PREFETCH  REQUESTED:          0  ISSUED:          0  USEFUL:          0  USELESS:          0
ITLB TOTAL MSHR MERGED:     172423
ITLB LOAD MSHR MERGED:     172423
ITLB RFO MSHR MERGED:          0
ITLB PREFETCH MSHR MERGED:          0
ITLB WRITEBACK MSHR MERGED:          0
ITLB TOTAL ACCESSES:  100694523 HITS:  100317654 MISSES:     376869
ITLB LOAD ACCESSES:  100694523 HITS:  100317654 MISSES:     376869
ITLB RFO ACCESSES:          0 HITS:          0 MISSES:          0
ITLB PREFETCH ACCESSES:          0 HITS:          0 MISSES:          0
ITLB WRITEBACK ACCESSES:          0 HITS:          0 MISSES:          0
ITLB RQ ACCESS:  500000057
ITLB RQ TO_CACHE:  100694523
ITLB RQ MERGED:  399305534
ITLB RQ FORWARD:          0
ITLB WQ ACCESS:          0
ITLB WQ TO_CACHE:          0
ITLB WQ MERGED:          0
ITLB WQ FORWARD:          0
DTLB TOTAL     ACCESS:  165341400  HIT:  164707053  MISS:     634347
DTLB LOAD      ACCESS:  106295841  HIT:  105725858  MISS:     569983
DTLB RFO       ACCESS:   59045559  HIT:   58981195  MISS:      64364
DTLB PREFETCH  ACCESS:          0  HIT:          0  MISS:          0
DTLB WRITEBACK ACCESS:          0  HIT:          0  MISS:          0
DTLB PREFETCH  REQUESTED:          0  ISSUED:          0  USEFUL:          0  USELESS:          0
DTLB TOTAL MSHR MERGED:      99896
DTLB LOAD MSHR MERGED:      59426
DTLB RFO MSHR MERGED:      40470
DTLB PREFETCH MSHR MERGED:          0
DTLB WRITEBACK MSHR MERGED:          0
DTLB TOTAL ACCESSES:  165441296 HITS:  164707053 MISSES:     734243
DTLB LOAD ACCESSES:  106355267 HITS:  105725858 MISSES:     629409
DTLB RFO ACCESSES:   59086029 HITS:   58981195 MISSES:     104834
DTLB PREFETCH ACCESSES:          0 HITS:          0 MISSES:          0
DTLB WRITEBACK ACCESSES:          0 HITS:          0 MISSES:          0
DTLB RQ ACCESS:  200313297
DTLB RQ TO_CACHE:  165441296
DTLB RQ MERGED:   34872001
DTLB RQ FORWARD:          0
DTLB WQ ACCESS:          0
DTLB WQ TO_CACHE:          0
DTLB WQ MERGED:          0
DTLB WQ FORWARD:          0
L1D TOTAL     ACCESS:  281822855  HIT:  273913514  MISS:    7909341
L1D LOAD      ACCESS:  110419046  HIT:  107139794  MISS:    3279252
L1D RFO       ACCESS:   67110130  HIT:   66219036  MISS:     891094
L1D PREFETCH  ACCESS:  104293679  HIT:  100554684  MISS:    3738995
L1D WRITEBACK ACCESS:          0  HIT:          0  MISS:          0
L1D PREFETCH  REQUESTED:  110821891  ISSUED:  109122630  USEFUL:    1659703  USELESS:    2079256
L1D TOTAL MSHR MERGED:    2892144
L1D LOAD MSHR MERGED:     501661
L1D RFO MSHR MERGED:    1876136
L1D PREFETCH MSHR MERGED:     514347
L1D WRITEBACK MSHR MERGED:          0
L1D TOTAL ACCESSES:  284742509 HITS:  273941024 MISSES:   10801485
L1D LOAD ACCESSES:  110823400 HITS:  107141303 MISSES:    3682097
L1D RFO ACCESSES:   68973933 HITS:   66219036 MISSES:    2754897
L1D PREFETCH ACCESSES:  104945176 HITS:  100580685 MISSES:    4364491
L1D WRITEBACK ACCESSES:          0 HITS:          0 MISSES:          0
L1D RQ ACCESS:  130760694
L1D RQ TO_CACHE:  110821894
L1D RQ MERGED:   19937291
L1D RQ FORWARD:          0
L1D WQ ACCESS:   69552603
L1D WQ TO_CACHE:   68973934
L1D WQ MERGED:     578669
L1D WQ FORWARD:      27510
L1I TOTAL     ACCESS:  126569030  HIT:  122330478  MISS:    4238552
L1I LOAD      ACCESS:  126569030  HIT:  122330478  MISS:    4238552
L1I RFO       ACCESS:          0  HIT:          0  MISS:          0
L1I PREFETCH  ACCESS:          0  HIT:          0  MISS:          0
L1I WRITEBACK ACCESS:          0  HIT:          0  MISS:          0
L1I PREFETCH  REQUESTED:          0  ISSUED:          0  USEFUL:          0  USELESS:          0
L1I TOTAL MSHR MERGED:    1835113
L1I LOAD MSHR MERGED:    1835113
L1I RFO MSHR MERGED:          0
L1I PREFETCH MSHR MERGED:          0
L1I WRITEBACK MSHR MERGED:          0
L1I TOTAL ACCESSES:  128404146 HITS:  122330478 MISSES:    6073668
L1I LOAD ACCESSES:  128404146 HITS:  122330478 MISSES:    6073668
L1I RFO ACCESSES:          0 HITS:          0 MISSES:          0
L1I PREFETCH ACCESSES:          0 HITS:          0 MISSES:          0
L1I WRITEBACK ACCESSES:          0 HITS:          0 MISSES:          0
L1I RQ ACCESS:  500000057
L1I RQ TO_CACHE:  128404146
L1I RQ MERGED:  371595911
L1I RQ FORWARD:          0
L1I WQ ACCESS:          0
L1I WQ TO_CACHE:          0
L1I WQ MERGED:          0
L1I WQ FORWARD:          0
L2C TOTAL     ACCESS:   14904851  HIT:   11158363  MISS:    3746488
L2C LOAD      ACCESS:    7418781  HIT:    5098658  MISS:    2320123
L2C RFO       ACCESS:     878664  HIT:     409903  MISS:     468761
L2C PREFETCH  ACCESS:    4568180  HIT:    3627830  MISS:     940350
L2C WRITEBACK ACCESS:    2039226  HIT:    2021972  MISS:      17254
L2C PREFETCH  REQUESTED:     842729  ISSUED:     842729  USEFUL:     203221  USELESS:     736835
L2C TOTAL MSHR MERGED:       7365
L2C LOAD MSHR MERGED:        918
L2C RFO MSHR MERGED:          1
L2C PREFETCH MSHR MERGED:       6446
L2C WRITEBACK MSHR MERGED:          0
L2C TOTAL ACCESSES:   14913117 HITS:   11158812 MISSES:    3754305
L2C LOAD ACCESSES:    7418988 HITS:    5098865 MISSES:    2320123
L2C RFO ACCESSES:     878761 HITS:     410000 MISSES:     468761
L2C PREFETCH ACCESSES:    4576142 HITS:    3627975 MISSES:     948167
L2C WRITEBACK ACCESSES:    2039226 HITS:    2021972 MISSES:      17254
L2C RQ ACCESS:    8297752
L2C RQ TO_CACHE:    8297448
L2C RQ MERGED:          0
L2C RQ FORWARD:          0
L2C WQ ACCESS:    2039226
L2C WQ TO_CACHE:    2039226
L2C WQ MERGED:          0
L2C WQ FORWARD:        449
LLC TOTAL     ACCESS:    4609848  HIT:    3769374  MISS:     840474
LLC LOAD      ACCESS:    2319191  HIT:    1960341  MISS:     358850
LLC RFO       ACCESS:     468751  HIT:     382765  MISS:      85986
LLC PREFETCH  ACCESS:     941619  HIT:     631117  MISS:     310502
LLC WRITEBACK ACCESS:     880287  HIT:     795151  MISS:      85136
LLC PREFETCH  REQUESTED:          0  ISSUED:          0  USEFUL:      15815  USELESS:     294389
LLC TOTAL MSHR MERGED:         84
LLC LOAD MSHR MERGED:         27
LLC RFO MSHR MERGED:          0
LLC PREFETCH MSHR MERGED:         57
LLC WRITEBACK MSHR MERGED:          0
LLC TOTAL ACCESSES:    4609964 HITS:    3769406 MISSES:     840558
LLC LOAD ACCESSES:    2319205 HITS:    1960355 MISSES:     358850
LLC RFO ACCESSES:     468760 HITS:     382774 MISSES:      85986
LLC PREFETCH ACCESSES:     941712 HITS:     631126 MISSES:     310586
LLC WRITEBACK ACCESSES:     880287 HITS:     795151 MISSES:      85136
LLC 0 RQ ACCESS:    2787965
LLC 0 RQ TO_CACHE:    2787942
LLC 0 RQ MERGED:          0
LLC 0 RQ FORWARD:          0
LLC WQ ACCESS:     880287
LLC WQ TO_CACHE:     880287
LLC WQ MERGED:          0
LLC WQ FORWARD:         32
Major fault: 0 Minor fault: 12862
CPU 0 L1D next line prefetcher final stats
CPU 0 L2C PC-based stride prefetcher final stats
All Misses: 989449
All Hits: 4437403
SD Algo Stats - Switches: 0 SRR-Repls: 411499 BRR-Repls: 0

DRAM Statistics
 CHANNEL 0
 RQ ROW_BUFFER_HIT:     167163  ROW_BUFFER_MISS:     584950
 DBUS_CONGESTED:     395924
 WQ ROW_BUFFER_HIT:      16786  ROW_BUFFER_MISS:     202887  FULL:          0

 AVG_CONGESTED_CYCLE: 13
LOADS RETIRED: 136549171
INSTR RETIRED: 500000000
