
*** ChampSim Multicore Out-of-Order Simulator ***

Warmup Instructions: 100000000
Simulation Instructions: 500000000
Number of CPUs: 1
LLC sets: 2048
LLC ways: 16
Clean RRIP Policies: 22232100222321 Dirty RRIP Policies: 1012132110121321 PSEL Width: 10 Track Set: 4294967295 PSEL Mask: 1 Demote Mask: 2014204320142043DS Algo: 0Window size: 0
Off-chip DRAM Size: 4096 MB Channels: 1 Width: 64-bit Data Rate: 1600 MT/s

CPU 0 runs /mnt/beegfs/iconst01/spec2017/Fotonik3d.trace.gz
NOT SORTED
TRACE STRING: /mnt/beegfs/iconst01/spec2017/Fotonik3d.trace.gz
SORTED
TRACE STRING: /mnt/beegfs/iconst01/spec2017/Fotonik3d.trace.gz
INITIAL
TRACE STRING: /mnt/beegfs/iconst01/spec2017/Fotonik3d.trace.gz

champsim_seed used: 881

CPU 0 L1D next line prefetcher
CPU 0 L2C IP-based stride prefetcher
Initialize DRRIP state
Assign rand_sets[0]: 454  LLC: 2048
rand_sets[0]: 454
Assign rand_sets[1]: 1662  LLC: 2048
rand_sets[1]: 1662
Assign rand_sets[2]: 1921  LLC: 2048
rand_sets[2]: 1921
Assign rand_sets[3]: 1131  LLC: 2048
rand_sets[3]: 1131
Assign rand_sets[4]: 331  LLC: 2048
rand_sets[4]: 331
Assign rand_sets[5]: 1531  LLC: 2048
rand_sets[5]: 1531
Assign rand_sets[6]: 482  LLC: 2048
rand_sets[6]: 482
Assign rand_sets[7]: 1275  LLC: 2048
rand_sets[7]: 1275
Assign rand_sets[8]: 1876  LLC: 2048
rand_sets[8]: 1876
Assign rand_sets[9]: 2038  LLC: 2048
rand_sets[9]: 2038
Assign rand_sets[10]: 701  LLC: 2048
rand_sets[10]: 701
Assign rand_sets[11]: 479  LLC: 2048
rand_sets[11]: 479
Assign rand_sets[12]: 892  LLC: 2048
rand_sets[12]: 892
Assign rand_sets[13]: 1820  LLC: 2048
rand_sets[13]: 1820
Assign rand_sets[14]: 1505  LLC: 2048
rand_sets[14]: 1505
Assign rand_sets[15]: 1159  LLC: 2048
rand_sets[15]: 1159
Assign rand_sets[16]: 513  LLC: 2048
rand_sets[16]: 513
Assign rand_sets[17]: 703  LLC: 2048
rand_sets[17]: 703
Assign rand_sets[18]: 561  LLC: 2048
rand_sets[18]: 561
Assign rand_sets[19]: 990  LLC: 2048
rand_sets[19]: 990
Assign rand_sets[20]: 342  LLC: 2048
rand_sets[20]: 342
Assign rand_sets[21]: 882  LLC: 2048
rand_sets[21]: 882
Assign rand_sets[22]: 15  LLC: 2048
rand_sets[22]: 15
Assign rand_sets[23]: 71  LLC: 2048
rand_sets[23]: 71
Assign rand_sets[24]: 1127  LLC: 2048
rand_sets[24]: 1127
Assign rand_sets[25]: 1382  LLC: 2048
rand_sets[25]: 1382
Assign rand_sets[26]: 647  LLC: 2048
rand_sets[26]: 647
Assign rand_sets[27]: 857  LLC: 2048
rand_sets[27]: 857
Assign rand_sets[28]: 1450  LLC: 2048
rand_sets[28]: 1450
Assign rand_sets[29]: 1160  LLC: 2048
rand_sets[29]: 1160
Assign rand_sets[30]: 1852  LLC: 2048
rand_sets[30]: 1852
Assign rand_sets[31]: 1881  LLC: 2048
rand_sets[31]: 1881
Assign rand_sets[32]: 1770  LLC: 2048
rand_sets[32]: 1770
Assign rand_sets[33]: 1622  LLC: 2048
rand_sets[33]: 1622
Assign rand_sets[34]: 275  LLC: 2048
rand_sets[34]: 275
Assign rand_sets[35]: 635  LLC: 2048
rand_sets[35]: 635
Assign rand_sets[36]: 466  LLC: 2048
rand_sets[36]: 466
Assign rand_sets[37]: 1413  LLC: 2048
rand_sets[37]: 1413
Assign rand_sets[38]: 417  LLC: 2048
rand_sets[38]: 417
Assign rand_sets[39]: 472  LLC: 2048
rand_sets[39]: 472
Assign rand_sets[40]: 1340  LLC: 2048
rand_sets[40]: 1340
Assign rand_sets[41]: 852  LLC: 2048
rand_sets[41]: 852
Assign rand_sets[42]: 1365  LLC: 2048
rand_sets[42]: 1365
Assign rand_sets[43]: 47  LLC: 2048
rand_sets[43]: 47
Assign rand_sets[44]: 823  LLC: 2048
rand_sets[44]: 823
Assign rand_sets[45]: 686  LLC: 2048
rand_sets[45]: 686
Assign rand_sets[46]: 1637  LLC: 2048
rand_sets[46]: 1637
Assign rand_sets[47]: 1115  LLC: 2048
rand_sets[47]: 1115
Assign rand_sets[48]: 986  LLC: 2048
rand_sets[48]: 986
Assign rand_sets[49]: 258  LLC: 2048
rand_sets[49]: 258
Assign rand_sets[50]: 633  LLC: 2048
rand_sets[50]: 633
Assign rand_sets[51]: 920  LLC: 2048
rand_sets[51]: 920
Assign rand_sets[52]: 204  LLC: 2048
rand_sets[52]: 204
Assign rand_sets[53]: 227  LLC: 2048
rand_sets[53]: 227
Assign rand_sets[54]: 1818  LLC: 2048
rand_sets[54]: 1818
Assign rand_sets[55]: 886  LLC: 2048
rand_sets[55]: 886
Assign rand_sets[56]: 1422  LLC: 2048
rand_sets[56]: 1422
Assign rand_sets[57]: 607  LLC: 2048
rand_sets[57]: 607
Assign rand_sets[58]: 217  LLC: 2048
rand_sets[58]: 217
Assign rand_sets[59]: 1945  LLC: 2048
rand_sets[59]: 1945
Assign rand_sets[60]: 143  LLC: 2048
rand_sets[60]: 143
Assign rand_sets[61]: 1311  LLC: 2048
rand_sets[61]: 1311
Assign rand_sets[62]: 319  LLC: 2048
rand_sets[62]: 319
Assign rand_sets[63]: 1846  LLC: 2048
rand_sets[63]: 1846
 CLEAN-RRIP-POLICY-1: 0-0-2-2-2-3-2-1- CLEAN-RRIP-POLICY-2: 0-0-2-2-2-3-2-1-
 DIRTY-RRIP-POLICY-1: 1-0-1-2-1-3-2-1- DIRTY-RRIP-POLICY-2: 1-0-1-2-1-3-2-1-
 PSEL width: 10
Heartbeat CPU 0 instructions: 10000002 cycles: 7306863 heartbeat IPC: 1.36858 cumulative IPC: 1.36858 (Simulation time: 0 hr 0 min 24 sec) 
Heartbeat CPU 0 instructions: 20000000 cycles: 14613962 heartbeat IPC: 1.36853 cumulative IPC: 1.36855 (Simulation time: 0 hr 0 min 48 sec) 
Heartbeat CPU 0 instructions: 30000001 cycles: 21920929 heartbeat IPC: 1.36856 cumulative IPC: 1.36856 (Simulation time: 0 hr 1 min 12 sec) 
Heartbeat CPU 0 instructions: 40000000 cycles: 29227774 heartbeat IPC: 1.36858 cumulative IPC: 1.36856 (Simulation time: 0 hr 1 min 37 sec) 
Heartbeat CPU 0 instructions: 50000001 cycles: 36534567 heartbeat IPC: 1.36859 cumulative IPC: 1.36857 (Simulation time: 0 hr 2 min 2 sec) 
Heartbeat CPU 0 instructions: 60000000 cycles: 43841634 heartbeat IPC: 1.36854 cumulative IPC: 1.36856 (Simulation time: 0 hr 2 min 26 sec) 
Heartbeat CPU 0 instructions: 70000002 cycles: 51148482 heartbeat IPC: 1.36858 cumulative IPC: 1.36856 (Simulation time: 0 hr 2 min 51 sec) 
Heartbeat CPU 0 instructions: 80000000 cycles: 58455290 heartbeat IPC: 1.36859 cumulative IPC: 1.36857 (Simulation time: 0 hr 3 min 15 sec) 
Heartbeat CPU 0 instructions: 90000003 cycles: 65765957 heartbeat IPC: 1.36786 cumulative IPC: 1.36849 (Simulation time: 0 hr 3 min 40 sec) 
Heartbeat CPU 0 instructions: 100000000 cycles: 73076643 heartbeat IPC: 1.36786 cumulative IPC: 1.36843 (Simulation time: 0 hr 4 min 5 sec) 

Warmup complete CPU 0 instructions: 100000002 cycles: 73076655 (Simulation time: 0 hr 4 min 5 sec) 

Heartbeat CPU 0 instructions: 110000001 cycles: 85620598 heartbeat IPC: 0.797197 cumulative IPC: 0.797197 (Simulation time: 0 hr 4 min 34 sec) 
Heartbeat CPU 0 instructions: 120000000 cycles: 98125068 heartbeat IPC: 0.799714 cumulative IPC: 0.798454 (Simulation time: 0 hr 5 min 3 sec) 
Heartbeat CPU 0 instructions: 130000000 cycles: 110685014 heartbeat IPC: 0.796182 cumulative IPC: 0.797695 (Simulation time: 0 hr 5 min 33 sec) 
Heartbeat CPU 0 instructions: 140000000 cycles: 123203657 heartbeat IPC: 0.798809 cumulative IPC: 0.797973 (Simulation time: 0 hr 6 min 2 sec) 
Heartbeat CPU 0 instructions: 150000000 cycles: 135668043 heartbeat IPC: 0.802286 cumulative IPC: 0.798832 (Simulation time: 0 hr 6 min 32 sec) 
Heartbeat CPU 0 instructions: 160000000 cycles: 148181575 heartbeat IPC: 0.799135 cumulative IPC: 0.798882 (Simulation time: 0 hr 7 min 1 sec) 
Heartbeat CPU 0 instructions: 170000001 cycles: 160707575 heartbeat IPC: 0.79834 cumulative IPC: 0.798805 (Simulation time: 0 hr 7 min 31 sec) 
Heartbeat CPU 0 instructions: 180000000 cycles: 173235184 heartbeat IPC: 0.798237 cumulative IPC: 0.798734 (Simulation time: 0 hr 8 min 0 sec) 
Heartbeat CPU 0 instructions: 190000000 cycles: 185775525 heartbeat IPC: 0.797426 cumulative IPC: 0.798588 (Simulation time: 0 hr 8 min 29 sec) 
Heartbeat CPU 0 instructions: 200000000 cycles: 198279108 heartbeat IPC: 0.799771 cumulative IPC: 0.798706 (Simulation time: 0 hr 8 min 59 sec) 
Heartbeat CPU 0 instructions: 210000002 cycles: 210836092 heartbeat IPC: 0.79637 cumulative IPC: 0.798493 (Simulation time: 0 hr 9 min 28 sec) 
Heartbeat CPU 0 instructions: 220000000 cycles: 223425166 heartbeat IPC: 0.794339 cumulative IPC: 0.798146 (Simulation time: 0 hr 9 min 58 sec) 
Heartbeat CPU 0 instructions: 230000002 cycles: 235928953 heartbeat IPC: 0.799758 cumulative IPC: 0.798269 (Simulation time: 0 hr 10 min 27 sec) 
Heartbeat CPU 0 instructions: 240000000 cycles: 249048016 heartbeat IPC: 0.762249 cumulative IPC: 0.795584 (Simulation time: 0 hr 10 min 57 sec) 
Heartbeat CPU 0 instructions: 250000002 cycles: 266116223 heartbeat IPC: 0.585885 cumulative IPC: 0.777043 (Simulation time: 0 hr 11 min 28 sec) 
Heartbeat CPU 0 instructions: 260000000 cycles: 283210816 heartbeat IPC: 0.58498 cumulative IPC: 0.761418 (Simulation time: 0 hr 12 min 0 sec) 
Heartbeat CPU 0 instructions: 270000000 cycles: 300354036 heartbeat IPC: 0.583321 cumulative IPC: 0.747985 (Simulation time: 0 hr 12 min 31 sec) 
Heartbeat CPU 0 instructions: 280000000 cycles: 317486166 heartbeat IPC: 0.583699 cumulative IPC: 0.736469 (Simulation time: 0 hr 13 min 2 sec) 
Heartbeat CPU 0 instructions: 290000001 cycles: 345460955 heartbeat IPC: 0.357465 cumulative IPC: 0.697544 (Simulation time: 0 hr 13 min 41 sec) 
Heartbeat CPU 0 instructions: 300000000 cycles: 382216456 heartbeat IPC: 0.272068 cumulative IPC: 0.646957 (Simulation time: 0 hr 14 min 25 sec) 
Heartbeat CPU 0 instructions: 310000000 cycles: 398682246 heartbeat IPC: 0.60732 cumulative IPC: 0.644952 (Simulation time: 0 hr 14 min 56 sec) 
Heartbeat CPU 0 instructions: 320000000 cycles: 415174186 heartbeat IPC: 0.606357 cumulative IPC: 0.643091 (Simulation time: 0 hr 15 min 27 sec) 
Heartbeat CPU 0 instructions: 330000003 cycles: 431703474 heartbeat IPC: 0.604987 cumulative IPC: 0.641335 (Simulation time: 0 hr 15 min 57 sec) 
Heartbeat CPU 0 instructions: 340000000 cycles: 448173742 heartbeat IPC: 0.607154 cumulative IPC: 0.639834 (Simulation time: 0 hr 16 min 27 sec) 
Heartbeat CPU 0 instructions: 350000001 cycles: 463029671 heartbeat IPC: 0.673132 cumulative IPC: 0.641103 (Simulation time: 0 hr 16 min 55 sec) 
Heartbeat CPU 0 instructions: 360000000 cycles: 475110734 heartbeat IPC: 0.827742 cumulative IPC: 0.646711 (Simulation time: 0 hr 17 min 21 sec) 
Heartbeat CPU 0 instructions: 370000002 cycles: 487012627 heartbeat IPC: 0.840203 cumulative IPC: 0.652275 (Simulation time: 0 hr 17 min 48 sec) 
Heartbeat CPU 0 instructions: 380000000 cycles: 499033015 heartbeat IPC: 0.83192 cumulative IPC: 0.657344 (Simulation time: 0 hr 18 min 14 sec) 
Heartbeat CPU 0 instructions: 390000003 cycles: 512558128 heartbeat IPC: 0.739366 cumulative IPC: 0.659869 (Simulation time: 0 hr 18 min 41 sec) 
Heartbeat CPU 0 instructions: 400000000 cycles: 524912364 heartbeat IPC: 0.809439 cumulative IPC: 0.663958 (Simulation time: 0 hr 19 min 8 sec) 
Heartbeat CPU 0 instructions: 410000003 cycles: 537056876 heartbeat IPC: 0.823417 cumulative IPC: 0.668132 (Simulation time: 0 hr 19 min 35 sec) 
Heartbeat CPU 0 instructions: 420000000 cycles: 549783279 heartbeat IPC: 0.785768 cumulative IPC: 0.671272 (Simulation time: 0 hr 20 min 1 sec) 
Heartbeat CPU 0 instructions: 430000003 cycles: 568382342 heartbeat IPC: 0.537662 cumulative IPC: 0.666255 (Simulation time: 0 hr 20 min 26 sec) 
Heartbeat CPU 0 instructions: 440000000 cycles: 587008265 heartbeat IPC: 0.536886 cumulative IPC: 0.661567 (Simulation time: 0 hr 20 min 50 sec) 
Heartbeat CPU 0 instructions: 450000003 cycles: 605602784 heartbeat IPC: 0.537793 cumulative IPC: 0.657245 (Simulation time: 0 hr 21 min 14 sec) 
Heartbeat CPU 0 instructions: 460000000 cycles: 624206337 heartbeat IPC: 0.537532 cumulative IPC: 0.653204 (Simulation time: 0 hr 21 min 38 sec) 
Heartbeat CPU 0 instructions: 470000003 cycles: 642811296 heartbeat IPC: 0.537491 cumulative IPC: 0.649425 (Simulation time: 0 hr 22 min 2 sec) 
Heartbeat CPU 0 instructions: 480000000 cycles: 661388368 heartbeat IPC: 0.538298 cumulative IPC: 0.645916 (Simulation time: 0 hr 22 min 26 sec) 
Heartbeat CPU 0 instructions: 490000003 cycles: 679971757 heartbeat IPC: 0.538115 cumulative IPC: 0.642615 (Simulation time: 0 hr 22 min 51 sec) 
Heartbeat CPU 0 instructions: 500000000 cycles: 698561050 heartbeat IPC: 0.537944 cumulative IPC: 0.639504 (Simulation time: 0 hr 23 min 15 sec) 
Heartbeat CPU 0 instructions: 510000003 cycles: 717152637 heartbeat IPC: 0.537878 cumulative IPC: 0.636571 (Simulation time: 0 hr 23 min 39 sec) 
Heartbeat CPU 0 instructions: 520000000 cycles: 735743445 heartbeat IPC: 0.5379 cumulative IPC: 0.633803 (Simulation time: 0 hr 24 min 3 sec) 
Heartbeat CPU 0 instructions: 530000001 cycles: 754349610 heartbeat IPC: 0.537456 cumulative IPC: 0.631171 (Simulation time: 0 hr 24 min 27 sec) 
Heartbeat CPU 0 instructions: 540000000 cycles: 772884163 heartbeat IPC: 0.539533 cumulative IPC: 0.628744 (Simulation time: 0 hr 24 min 51 sec) 
Heartbeat CPU 0 instructions: 550000001 cycles: 791411967 heartbeat IPC: 0.539729 cumulative IPC: 0.626448 (Simulation time: 0 hr 25 min 16 sec) 
Heartbeat CPU 0 instructions: 560000000 cycles: 809933370 heartbeat IPC: 0.539916 cumulative IPC: 0.624273 (Simulation time: 0 hr 25 min 40 sec) 
Heartbeat CPU 0 instructions: 570000001 cycles: 828456206 heartbeat IPC: 0.539874 cumulative IPC: 0.622204 (Simulation time: 0 hr 26 min 4 sec) 
Heartbeat CPU 0 instructions: 580000000 cycles: 847013029 heartbeat IPC: 0.538885 cumulative IPC: 0.620206 (Simulation time: 0 hr 26 min 28 sec) 
Heartbeat CPU 0 instructions: 590000001 cycles: 865550008 heartbeat IPC: 0.539462 cumulative IPC: 0.618317 (Simulation time: 0 hr 26 min 52 sec) 
Heartbeat CPU 0 instructions: 600000000 cycles: 884099431 heartbeat IPC: 0.5391 cumulative IPC: 0.616506 (Simulation time: 0 hr 27 min 16 sec) 
Finished CPU 0 instructions: 500000002 cycles: 811022790 cumulative IPC: 0.616506 (Simulation time: 0 hr 27 min 16 sec) 

CPU 0 Branch Prediction Accuracy: 99.5931% MPKI: 0.08288
Number of Branches: 10184133 Number of Mispredictions: 41440
Number of LOAD Instructions: 261155957
Number of LOAD Instructions (ROI): 261155957
Number of STORE Instructions: 57884062
Number of STORE Instructions (ROI): 57884062
Total Destination Memory Operands: 83293336
Total Destination Memory Operands (ROI): 83293336
Total Source Memory Operands: 261155957
Total Source Memory Operands (ROI): 261155957
Number of DEPENDED LOADS: 22257208
Number of DEPENDED LOADS (ROI): 22257208
Number of SQ_ADDED: 83293300
Number of SQ_ADDED (ROI): 83293300
Number of LQ_ADDED: 1777952972
Number of LQ_ADDED (ROI): 1777952972
Number of Instructions read from trace: 600000257

ChampSim completed all CPUs

Region of Interest Statistics

CPU 0 cumulative IPC: 0.616506 instructions: 500000002 cycles: 811022790
ITLB TOTAL     ACCESS:   94678223  HIT:   94678185  MISS:         38
ITLB LOAD      ACCESS:   94678223  HIT:   94678185  MISS:         38
ITLB RFO       ACCESS:          0  HIT:          0  MISS:          0
ITLB PREFETCH  ACCESS:          0  HIT:          0  MISS:          0
ITLB WRITEBACK ACCESS:          0  HIT:          0  MISS:          0
ITLB PREFETCH  REQUESTED:          0  ISSUED:          0  USEFUL:          0  USELESS:          0
ITLB TOTAL MSHR MERGED:         93
ITLB LOAD MSHR MERGED:         93
ITLB RFO MSHR MERGED:          0
ITLB PREFETCH MSHR MERGED:          0
ITLB WRITEBACK MSHR MERGED:          0
ITLB TOTAL ACCESSES:   94678316 HITS:   94678185 MISSES:        131
ITLB LOAD ACCESSES:   94678316 HITS:   94678185 MISSES:        131
ITLB RFO ACCESSES:          0 HITS:          0 MISSES:          0
ITLB PREFETCH ACCESSES:          0 HITS:          0 MISSES:          0
ITLB WRITEBACK ACCESSES:          0 HITS:          0 MISSES:          0
ITLB RQ ACCESS:  500000001
ITLB RQ TO_CACHE:   94678317
ITLB RQ MERGED:  405321684
ITLB RQ FORWARD:          0
ITLB WQ ACCESS:          0
ITLB WQ TO_CACHE:          0
ITLB WQ MERGED:          0
ITLB WQ FORWARD:          0
DTLB TOTAL     ACCESS:  149171583  HIT:  148574623  MISS:     596960
DTLB LOAD      ACCESS:  107296901  HIT:  106699952  MISS:     596949
DTLB RFO       ACCESS:   41874682  HIT:   41874671  MISS:         11
DTLB PREFETCH  ACCESS:          0  HIT:          0  MISS:          0
DTLB WRITEBACK ACCESS:          0  HIT:          0  MISS:          0
DTLB PREFETCH  REQUESTED:          0  ISSUED:          0  USEFUL:          0  USELESS:          0
DTLB TOTAL MSHR MERGED:     134326
DTLB LOAD MSHR MERGED:     134326
DTLB RFO MSHR MERGED:          0
DTLB PREFETCH MSHR MERGED:          0
DTLB WRITEBACK MSHR MERGED:          0
DTLB TOTAL ACCESSES:  149305909 HITS:  148574623 MISSES:     731286
DTLB LOAD ACCESSES:  107431227 HITS:  106699952 MISSES:     731275
DTLB RFO ACCESSES:   41874682 HITS:   41874671 MISSES:         11
DTLB PREFETCH ACCESSES:          0 HITS:          0 MISSES:          0
DTLB WRITEBACK ACCESSES:          0 HITS:          0 MISSES:          0
DTLB RQ ACCESS:  259758687
DTLB RQ TO_CACHE:  149305909
DTLB RQ MERGED:  110452778
DTLB RQ FORWARD:          0
DTLB WQ ACCESS:          0
DTLB WQ TO_CACHE:          0
DTLB WQ MERGED:          0
DTLB WQ FORWARD:          0
L1D TOTAL     ACCESS:  261423221  HIT:  245975210  MISS:   15448011
L1D LOAD      ACCESS:  118066072  HIT:  112604366  MISS:    5461706
L1D RFO       ACCESS:   68946797  HIT:   68932390  MISS:      14407
L1D PREFETCH  ACCESS:   74410352  HIT:   64438454  MISS:    9971898
L1D WRITEBACK ACCESS:          0  HIT:          0  MISS:          0
L1D PREFETCH  REQUESTED:  120650350  ISSUED:  119308643  USEFUL:    8050896  USELESS:    1921024
L1D TOTAL MSHR MERGED:   16348862
L1D LOAD MSHR MERGED:    4973060
L1D RFO MSHR MERGED:      21781
L1D PREFETCH MSHR MERGED:   11354021
L1D WRITEBACK MSHR MERGED:          0
L1D TOTAL ACCESSES:  277882049 HITS:  246085176 MISSES:   31796873
L1D LOAD ACCESSES:  120657875 HITS:  112611891 MISSES:    8045984
L1D RFO ACCESSES:   68968577 HITS:   68932390 MISSES:      36187
L1D PREFETCH ACCESSES:   88255597 HITS:   64540895 MISSES:   23714702
L1D WRITEBACK ACCESSES:          0 HITS:          0 MISSES:          0
L1D RQ ACCESS:  190684371
L1D RQ TO_CACHE:  120650350
L1D RQ MERGED:   70026496
L1D RQ FORWARD:          0
L1D WQ ACCESS:   69074336
L1D WQ TO_CACHE:   68968579
L1D WQ MERGED:     105757
L1D WQ FORWARD:     109966
L1I TOTAL     ACCESS:  121588952  HIT:  121587879  MISS:       1073
L1I LOAD      ACCESS:  121588952  HIT:  121587879  MISS:       1073
L1I RFO       ACCESS:          0  HIT:          0  MISS:          0
L1I PREFETCH  ACCESS:          0  HIT:          0  MISS:          0
L1I WRITEBACK ACCESS:          0  HIT:          0  MISS:          0
L1I PREFETCH  REQUESTED:          0  ISSUED:          0  USEFUL:          0  USELESS:          0
L1I TOTAL MSHR MERGED:       1113
L1I LOAD MSHR MERGED:       1113
L1I RFO MSHR MERGED:          0
L1I PREFETCH MSHR MERGED:          0
L1I WRITEBACK MSHR MERGED:          0
L1I TOTAL ACCESSES:  121590065 HITS:  121587879 MISSES:       2186
L1I LOAD ACCESSES:  121590065 HITS:  121587879 MISSES:       2186
L1I RFO ACCESSES:          0 HITS:          0 MISSES:          0
L1I PREFETCH ACCESSES:          0 HITS:          0 MISSES:          0
L1I WRITEBACK ACCESSES:          0 HITS:          0 MISSES:          0
L1I RQ ACCESS:  500000000
L1I RQ TO_CACHE:  121590065
L1I RQ MERGED:  378409935
L1I RQ FORWARD:          0
L1I WQ ACCESS:          0
L1I WQ TO_CACHE:          0
L1I WQ MERGED:          0
L1I WQ FORWARD:          0
L2C TOTAL     ACCESS:   22503949  HIT:    9135393  MISS:   13368556
L2C LOAD      ACCESS:    3073967  HIT:     405857  MISS:    2668110
L2C RFO       ACCESS:      14406  HIT:      13993  MISS:        413
L2C PREFETCH  ACCESS:   12785623  HIT:    2087403  MISS:   10698220
L2C WRITEBACK ACCESS:    6629953  HIT:    6628140  MISS:       1813
L2C PREFETCH  REQUESTED:     662024  ISSUED:     662024  USEFUL:     178722  USELESS:   10520295
L2C TOTAL MSHR MERGED:      68339
L2C LOAD MSHR MERGED:      22062
L2C RFO MSHR MERGED:          0
L2C PREFETCH MSHR MERGED:      46277
L2C WRITEBACK MSHR MERGED:          0
L2C TOTAL ACCESSES:   22702275 HITS:    9135433 MISSES:   13566842
L2C LOAD ACCESSES:    3073997 HITS:     405887 MISSES:    2668110
L2C RFO ACCESSES:      14406 HITS:      13993 MISSES:        413
L2C PREFETCH ACCESSES:   12983919 HITS:    2087413 MISSES:   10896506
L2C WRITEBACK ACCESSES:    6629953 HITS:    6628140 MISSES:       1813
L2C RQ ACCESS:    3088403
L2C RQ TO_CACHE:    3088373
L2C RQ MERGED:          0
L2C RQ FORWARD:          0
L2C WQ ACCESS:    6629953
L2C WQ TO_CACHE:    6629953
L2C WQ MERGED:          0
L2C WQ FORWARD:         40
LLC TOTAL     ACCESS:   20067254  HIT:    7181504  MISS:   12885750
LLC LOAD      ACCESS:    2646047  HIT:     377256  MISS:    2268791
LLC RFO       ACCESS:        413  HIT:         18  MISS:        395
LLC PREFETCH  ACCESS:   10829539  HIT:     584562  MISS:   10244977
LLC WRITEBACK ACCESS:    6591255  HIT:    6219668  MISS:     371587
LLC PREFETCH  REQUESTED:          0  ISSUED:          0  USEFUL:      67649  USELESS:   10182713
LLC TOTAL MSHR MERGED:      19375
LLC LOAD MSHR MERGED:       8892
LLC RFO MSHR MERGED:          0
LLC PREFETCH MSHR MERGED:      10483
LLC WRITEBACK MSHR MERGED:          0
LLC TOTAL ACCESSES:   20086632 HITS:    7181506 MISSES:   12905126
LLC LOAD ACCESSES:    2646048 HITS:     377257 MISSES:    2268791
LLC RFO ACCESSES:        413 HITS:         18 MISSES:        395
LLC PREFETCH ACCESSES:   10848916 HITS:     584563 MISSES:   10264353
LLC WRITEBACK ACCESSES:    6591255 HITS:    6219668 MISSES:     371587
LLC 0 RQ ACCESS:    2646461
LLC 0 RQ TO_CACHE:    2646460
LLC 0 RQ MERGED:          0
LLC 0 RQ FORWARD:          0
LLC WQ ACCESS:    6591256
LLC WQ TO_CACHE:    6591256
LLC WQ MERGED:          0
LLC WQ FORWARD:          2
Major fault: 0 Minor fault: 183991
CPU 0 L1D next line prefetcher final stats
CPU 0 L2C PC-based stride prefetcher final stats
All Misses: 15143097
All Hits: 7855203
SD Algo Stats - Switches: 0 SRR-Repls: 2336160 BRR-Repls: 0

DRAM Statistics
 CHANNEL 0
 RQ ROW_BUFFER_HIT:    7025609  ROW_BUFFER_MISS:    5488553
 DBUS_CONGESTED:   11293546
 WQ ROW_BUFFER_HIT:    1442245  ROW_BUFFER_MISS:    5134914  FULL:          0

 AVG_CONGESTED_CYCLE: 13
LOADS RETIRED: 204440772
INSTR RETIRED: 500000000
