
*** ChampSim Multicore Out-of-Order Simulator ***

Warmup Instructions: 100000000
Simulation Instructions: 500000000
Number of CPUs: 1
LLC sets: 2048
LLC ways: 16
Clean RRIP Policies: 121232001212320 Dirty RRIP Policies: 111132001111320 PSEL Width: 10 Track Set: 4294967295 PSEL Mask: 1 Demote Mask: 4224121342241213DS Algo: 0Window size: 0
Off-chip DRAM Size: 4096 MB Channels: 1 Width: 64-bit Data Rate: 1600 MT/s

CPU 0 runs /mnt/beegfs/iconst01/spec2017/Xz.trace.gz
NOT SORTED
TRACE STRING: /mnt/beegfs/iconst01/spec2017/Xz.trace.gz
SORTED
TRACE STRING: /mnt/beegfs/iconst01/spec2017/Xz.trace.gz
INITIAL
TRACE STRING: /mnt/beegfs/iconst01/spec2017/Xz.trace.gz

champsim_seed used: 210

CPU 0 L1D next line prefetcher
CPU 0 L2C IP-based stride prefetcher
Initialize DRRIP state
Assign rand_sets[0]: 454  LLC: 2048
rand_sets[0]: 454
Assign rand_sets[1]: 1662  LLC: 2048
rand_sets[1]: 1662
Assign rand_sets[2]: 1921  LLC: 2048
rand_sets[2]: 1921
Assign rand_sets[3]: 1131  LLC: 2048
rand_sets[3]: 1131
Assign rand_sets[4]: 331  LLC: 2048
rand_sets[4]: 331
Assign rand_sets[5]: 1531  LLC: 2048
rand_sets[5]: 1531
Assign rand_sets[6]: 482  LLC: 2048
rand_sets[6]: 482
Assign rand_sets[7]: 1275  LLC: 2048
rand_sets[7]: 1275
Assign rand_sets[8]: 1876  LLC: 2048
rand_sets[8]: 1876
Assign rand_sets[9]: 2038  LLC: 2048
rand_sets[9]: 2038
Assign rand_sets[10]: 701  LLC: 2048
rand_sets[10]: 701
Assign rand_sets[11]: 479  LLC: 2048
rand_sets[11]: 479
Assign rand_sets[12]: 892  LLC: 2048
rand_sets[12]: 892
Assign rand_sets[13]: 1820  LLC: 2048
rand_sets[13]: 1820
Assign rand_sets[14]: 1505  LLC: 2048
rand_sets[14]: 1505
Assign rand_sets[15]: 1159  LLC: 2048
rand_sets[15]: 1159
Assign rand_sets[16]: 513  LLC: 2048
rand_sets[16]: 513
Assign rand_sets[17]: 703  LLC: 2048
rand_sets[17]: 703
Assign rand_sets[18]: 561  LLC: 2048
rand_sets[18]: 561
Assign rand_sets[19]: 990  LLC: 2048
rand_sets[19]: 990
Assign rand_sets[20]: 342  LLC: 2048
rand_sets[20]: 342
Assign rand_sets[21]: 882  LLC: 2048
rand_sets[21]: 882
Assign rand_sets[22]: 15  LLC: 2048
rand_sets[22]: 15
Assign rand_sets[23]: 71  LLC: 2048
rand_sets[23]: 71
Assign rand_sets[24]: 1127  LLC: 2048
rand_sets[24]: 1127
Assign rand_sets[25]: 1382  LLC: 2048
rand_sets[25]: 1382
Assign rand_sets[26]: 647  LLC: 2048
rand_sets[26]: 647
Assign rand_sets[27]: 857  LLC: 2048
rand_sets[27]: 857
Assign rand_sets[28]: 1450  LLC: 2048
rand_sets[28]: 1450
Assign rand_sets[29]: 1160  LLC: 2048
rand_sets[29]: 1160
Assign rand_sets[30]: 1852  LLC: 2048
rand_sets[30]: 1852
Assign rand_sets[31]: 1881  LLC: 2048
rand_sets[31]: 1881
Assign rand_sets[32]: 1770  LLC: 2048
rand_sets[32]: 1770
Assign rand_sets[33]: 1622  LLC: 2048
rand_sets[33]: 1622
Assign rand_sets[34]: 275  LLC: 2048
rand_sets[34]: 275
Assign rand_sets[35]: 635  LLC: 2048
rand_sets[35]: 635
Assign rand_sets[36]: 466  LLC: 2048
rand_sets[36]: 466
Assign rand_sets[37]: 1413  LLC: 2048
rand_sets[37]: 1413
Assign rand_sets[38]: 417  LLC: 2048
rand_sets[38]: 417
Assign rand_sets[39]: 472  LLC: 2048
rand_sets[39]: 472
Assign rand_sets[40]: 1340  LLC: 2048
rand_sets[40]: 1340
Assign rand_sets[41]: 852  LLC: 2048
rand_sets[41]: 852
Assign rand_sets[42]: 1365  LLC: 2048
rand_sets[42]: 1365
Assign rand_sets[43]: 47  LLC: 2048
rand_sets[43]: 47
Assign rand_sets[44]: 823  LLC: 2048
rand_sets[44]: 823
Assign rand_sets[45]: 686  LLC: 2048
rand_sets[45]: 686
Assign rand_sets[46]: 1637  LLC: 2048
rand_sets[46]: 1637
Assign rand_sets[47]: 1115  LLC: 2048
rand_sets[47]: 1115
Assign rand_sets[48]: 986  LLC: 2048
rand_sets[48]: 986
Assign rand_sets[49]: 258  LLC: 2048
rand_sets[49]: 258
Assign rand_sets[50]: 633  LLC: 2048
rand_sets[50]: 633
Assign rand_sets[51]: 920  LLC: 2048
rand_sets[51]: 920
Assign rand_sets[52]: 204  LLC: 2048
rand_sets[52]: 204
Assign rand_sets[53]: 227  LLC: 2048
rand_sets[53]: 227
Assign rand_sets[54]: 1818  LLC: 2048
rand_sets[54]: 1818
Assign rand_sets[55]: 886  LLC: 2048
rand_sets[55]: 886
Assign rand_sets[56]: 1422  LLC: 2048
rand_sets[56]: 1422
Assign rand_sets[57]: 607  LLC: 2048
rand_sets[57]: 607
Assign rand_sets[58]: 217  LLC: 2048
rand_sets[58]: 217
Assign rand_sets[59]: 1945  LLC: 2048
rand_sets[59]: 1945
Assign rand_sets[60]: 143  LLC: 2048
rand_sets[60]: 143
Assign rand_sets[61]: 1311  LLC: 2048
rand_sets[61]: 1311
Assign rand_sets[62]: 319  LLC: 2048
rand_sets[62]: 319
Assign rand_sets[63]: 1846  LLC: 2048
rand_sets[63]: 1846
 CLEAN-RRIP-POLICY-1: 0-1-2-1-2-3-2-0- CLEAN-RRIP-POLICY-2: 0-1-2-1-2-3-2-0-
 DIRTY-RRIP-POLICY-1: 0-1-1-1-1-3-2-0- DIRTY-RRIP-POLICY-2: 0-1-1-1-1-3-2-0-
 PSEL width: 10
Heartbeat CPU 0 instructions: 10000000 cycles: 4305123 heartbeat IPC: 2.32281 cumulative IPC: 2.32281 (Simulation time: 0 hr 0 min 12 sec) 
Heartbeat CPU 0 instructions: 20000000 cycles: 8616742 heartbeat IPC: 2.31931 cumulative IPC: 2.32106 (Simulation time: 0 hr 0 min 24 sec) 
Heartbeat CPU 0 instructions: 30000003 cycles: 13160576 heartbeat IPC: 2.20079 cumulative IPC: 2.27954 (Simulation time: 0 hr 0 min 37 sec) 
Heartbeat CPU 0 instructions: 40000000 cycles: 17515148 heartbeat IPC: 2.29644 cumulative IPC: 2.28374 (Simulation time: 0 hr 0 min 49 sec) 
Heartbeat CPU 0 instructions: 50000001 cycles: 21878065 heartbeat IPC: 2.29204 cumulative IPC: 2.28539 (Simulation time: 0 hr 1 min 1 sec) 
Heartbeat CPU 0 instructions: 60000000 cycles: 26178408 heartbeat IPC: 2.3254 cumulative IPC: 2.29197 (Simulation time: 0 hr 1 min 13 sec) 
Heartbeat CPU 0 instructions: 70000001 cycles: 30244424 heartbeat IPC: 2.45941 cumulative IPC: 2.31448 (Simulation time: 0 hr 1 min 24 sec) 
Heartbeat CPU 0 instructions: 80000000 cycles: 34523498 heartbeat IPC: 2.33695 cumulative IPC: 2.31726 (Simulation time: 0 hr 1 min 36 sec) 
Heartbeat CPU 0 instructions: 90000001 cycles: 38740357 heartbeat IPC: 2.37143 cumulative IPC: 2.32316 (Simulation time: 0 hr 1 min 48 sec) 
Heartbeat CPU 0 instructions: 100000000 cycles: 42981065 heartbeat IPC: 2.3581 cumulative IPC: 2.32661 (Simulation time: 0 hr 1 min 59 sec) 

Warmup complete CPU 0 instructions: 100000001 cycles: 42981066 (Simulation time: 0 hr 1 min 59 sec) 

Heartbeat CPU 0 instructions: 110000000 cycles: 53299191 heartbeat IPC: 0.969168 cumulative IPC: 0.969168 (Simulation time: 0 hr 2 min 17 sec) 
Heartbeat CPU 0 instructions: 120000000 cycles: 64209277 heartbeat IPC: 0.916583 cumulative IPC: 0.942142 (Simulation time: 0 hr 2 min 35 sec) 
Heartbeat CPU 0 instructions: 130000001 cycles: 75075715 heartbeat IPC: 0.920265 cumulative IPC: 0.934735 (Simulation time: 0 hr 2 min 53 sec) 
Heartbeat CPU 0 instructions: 140000000 cycles: 84966724 heartbeat IPC: 1.01102 cumulative IPC: 0.952706 (Simulation time: 0 hr 3 min 10 sec) 
Heartbeat CPU 0 instructions: 150000001 cycles: 95528745 heartbeat IPC: 0.946789 cumulative IPC: 0.951517 (Simulation time: 0 hr 3 min 28 sec) 
Heartbeat CPU 0 instructions: 160000000 cycles: 105838126 heartbeat IPC: 0.96999 cumulative IPC: 0.954547 (Simulation time: 0 hr 3 min 45 sec) 
Heartbeat CPU 0 instructions: 170000000 cycles: 115755731 heartbeat IPC: 1.00831 cumulative IPC: 0.961873 (Simulation time: 0 hr 4 min 3 sec) 
Heartbeat CPU 0 instructions: 180000000 cycles: 126627479 heartbeat IPC: 0.919815 cumulative IPC: 0.956407 (Simulation time: 0 hr 4 min 21 sec) 
Heartbeat CPU 0 instructions: 190000001 cycles: 137182444 heartbeat IPC: 0.947422 cumulative IPC: 0.9554 (Simulation time: 0 hr 4 min 39 sec) 
Heartbeat CPU 0 instructions: 200000000 cycles: 148130871 heartbeat IPC: 0.913373 cumulative IPC: 0.951024 (Simulation time: 0 hr 4 min 57 sec) 
Heartbeat CPU 0 instructions: 210000002 cycles: 161096447 heartbeat IPC: 0.771273 cumulative IPC: 0.931293 (Simulation time: 0 hr 5 min 16 sec) 
Heartbeat CPU 0 instructions: 220000000 cycles: 174233960 heartbeat IPC: 0.761179 cumulative IPC: 0.914266 (Simulation time: 0 hr 5 min 36 sec) 
Heartbeat CPU 0 instructions: 230000000 cycles: 186945075 heartbeat IPC: 0.786713 cumulative IPC: 0.903003 (Simulation time: 0 hr 5 min 55 sec) 
Heartbeat CPU 0 instructions: 240000000 cycles: 199666727 heartbeat IPC: 0.786061 cumulative IPC: 0.893509 (Simulation time: 0 hr 6 min 14 sec) 
Heartbeat CPU 0 instructions: 250000000 cycles: 212161881 heartbeat IPC: 0.80031 cumulative IPC: 0.886625 (Simulation time: 0 hr 6 min 33 sec) 
Heartbeat CPU 0 instructions: 260000000 cycles: 224179771 heartbeat IPC: 0.832093 cumulative IPC: 0.883009 (Simulation time: 0 hr 6 min 52 sec) 
Heartbeat CPU 0 instructions: 270000003 cycles: 236606233 heartbeat IPC: 0.804735 cumulative IPC: 0.877985 (Simulation time: 0 hr 7 min 11 sec) 
Heartbeat CPU 0 instructions: 280000000 cycles: 248633482 heartbeat IPC: 0.831445 cumulative IPC: 0.875263 (Simulation time: 0 hr 7 min 30 sec) 
Heartbeat CPU 0 instructions: 290000002 cycles: 260732904 heartbeat IPC: 0.826486 cumulative IPC: 0.872553 (Simulation time: 0 hr 7 min 49 sec) 
Heartbeat CPU 0 instructions: 300000000 cycles: 273716251 heartbeat IPC: 0.770217 cumulative IPC: 0.866795 (Simulation time: 0 hr 8 min 8 sec) 
Heartbeat CPU 0 instructions: 310000000 cycles: 286485517 heartbeat IPC: 0.78313 cumulative IPC: 0.862407 (Simulation time: 0 hr 8 min 27 sec) 
Heartbeat CPU 0 instructions: 320000000 cycles: 299796329 heartbeat IPC: 0.751269 cumulative IPC: 0.856647 (Simulation time: 0 hr 8 min 47 sec) 
Heartbeat CPU 0 instructions: 330000003 cycles: 312332235 heartbeat IPC: 0.797709 cumulative IPC: 0.853904 (Simulation time: 0 hr 9 min 6 sec) 
Heartbeat CPU 0 instructions: 340000000 cycles: 325083727 heartbeat IPC: 0.784222 cumulative IPC: 0.850754 (Simulation time: 0 hr 9 min 25 sec) 
Heartbeat CPU 0 instructions: 350000001 cycles: 336483821 heartbeat IPC: 0.877186 cumulative IPC: 0.851781 (Simulation time: 0 hr 9 min 43 sec) 
Heartbeat CPU 0 instructions: 360000000 cycles: 348851450 heartbeat IPC: 0.808562 cumulative IPC: 0.850033 (Simulation time: 0 hr 10 min 2 sec) 
Heartbeat CPU 0 instructions: 370000001 cycles: 360602948 heartbeat IPC: 0.850955 cumulative IPC: 0.850067 (Simulation time: 0 hr 10 min 21 sec) 
Heartbeat CPU 0 instructions: 380000000 cycles: 371946107 heartbeat IPC: 0.881589 cumulative IPC: 0.851154 (Simulation time: 0 hr 10 min 39 sec) 
Heartbeat CPU 0 instructions: 390000003 cycles: 382989036 heartbeat IPC: 0.905557 cumulative IPC: 0.852921 (Simulation time: 0 hr 10 min 58 sec) 
Heartbeat CPU 0 instructions: 400000000 cycles: 393499414 heartbeat IPC: 0.95144 cumulative IPC: 0.855875 (Simulation time: 0 hr 11 min 16 sec) 
Heartbeat CPU 0 instructions: 410000000 cycles: 404381972 heartbeat IPC: 0.918902 cumulative IPC: 0.857773 (Simulation time: 0 hr 11 min 34 sec) 
Heartbeat CPU 0 instructions: 420000000 cycles: 413903042 heartbeat IPC: 1.0503 cumulative IPC: 0.862715 (Simulation time: 0 hr 11 min 52 sec) 
Heartbeat CPU 0 instructions: 430000002 cycles: 423056433 heartbeat IPC: 1.09249 cumulative IPC: 0.868249 (Simulation time: 0 hr 12 min 9 sec) 
Heartbeat CPU 0 instructions: 440000000 cycles: 433697840 heartbeat IPC: 0.939725 cumulative IPC: 0.870196 (Simulation time: 0 hr 12 min 27 sec) 
Heartbeat CPU 0 instructions: 450000002 cycles: 445223203 heartbeat IPC: 0.867652 cumulative IPC: 0.870123 (Simulation time: 0 hr 12 min 46 sec) 
Heartbeat CPU 0 instructions: 460000000 cycles: 457258007 heartbeat IPC: 0.830923 cumulative IPC: 0.868984 (Simulation time: 0 hr 13 min 4 sec) 
Heartbeat CPU 0 instructions: 470000003 cycles: 467678189 heartbeat IPC: 0.959676 cumulative IPC: 0.871209 (Simulation time: 0 hr 13 min 22 sec) 
Heartbeat CPU 0 instructions: 480000000 cycles: 478527033 heartbeat IPC: 0.921757 cumulative IPC: 0.872468 (Simulation time: 0 hr 13 min 40 sec) 
Heartbeat CPU 0 instructions: 490000000 cycles: 488684984 heartbeat IPC: 0.984451 cumulative IPC: 0.87502 (Simulation time: 0 hr 13 min 57 sec) 
Heartbeat CPU 0 instructions: 500000000 cycles: 500979243 heartbeat IPC: 0.813388 cumulative IPC: 0.873366 (Simulation time: 0 hr 14 min 16 sec) 
Heartbeat CPU 0 instructions: 510000002 cycles: 513907305 heartbeat IPC: 0.773511 cumulative IPC: 0.870625 (Simulation time: 0 hr 14 min 35 sec) 
Heartbeat CPU 0 instructions: 520000000 cycles: 526164931 heartbeat IPC: 0.815818 cumulative IPC: 0.869234 (Simulation time: 0 hr 14 min 54 sec) 
Heartbeat CPU 0 instructions: 530000001 cycles: 538440180 heartbeat IPC: 0.814647 cumulative IPC: 0.867882 (Simulation time: 0 hr 15 min 13 sec) 
Heartbeat CPU 0 instructions: 540000000 cycles: 550495697 heartbeat IPC: 0.829496 cumulative IPC: 0.86697 (Simulation time: 0 hr 15 min 31 sec) 
Heartbeat CPU 0 instructions: 550000001 cycles: 562324974 heartbeat IPC: 0.84536 cumulative IPC: 0.866478 (Simulation time: 0 hr 15 min 49 sec) 
Heartbeat CPU 0 instructions: 560000000 cycles: 574321150 heartbeat IPC: 0.833599 cumulative IPC: 0.865736 (Simulation time: 0 hr 16 min 8 sec) 
Heartbeat CPU 0 instructions: 570000000 cycles: 586139684 heartbeat IPC: 0.846129 cumulative IPC: 0.865309 (Simulation time: 0 hr 16 min 26 sec) 
Heartbeat CPU 0 instructions: 580000000 cycles: 597212681 heartbeat IPC: 0.903098 cumulative IPC: 0.866064 (Simulation time: 0 hr 16 min 44 sec) 
Heartbeat CPU 0 instructions: 590000003 cycles: 609060590 heartbeat IPC: 0.844031 cumulative IPC: 0.865603 (Simulation time: 0 hr 17 min 2 sec) 
Heartbeat CPU 0 instructions: 600000000 cycles: 619960059 heartbeat IPC: 0.917476 cumulative IPC: 0.866583 (Simulation time: 0 hr 17 min 19 sec) 
Finished CPU 0 instructions: 500000001 cycles: 576979001 cumulative IPC: 0.866583 (Simulation time: 0 hr 17 min 19 sec) 

CPU 0 Branch Prediction Accuracy: 93.0095% MPKI: 10.0046
Number of Branches: 71558147 Number of Mispredictions: 5002285
Number of LOAD Instructions: 145708893
Number of LOAD Instructions (ROI): 145708893
Number of STORE Instructions: 40463820
Number of STORE Instructions (ROI): 40463820
Total Destination Memory Operands: 45240498
Total Destination Memory Operands (ROI): 45240498
Total Source Memory Operands: 145708893
Total Source Memory Operands (ROI): 145708893
Number of DEPENDED LOADS: 10677248
Number of DEPENDED LOADS (ROI): 10677248
Number of SQ_ADDED: 45240498
Number of SQ_ADDED (ROI): 45240498
Number of LQ_ADDED: 193408866
Number of LQ_ADDED (ROI): 193408866
Number of Instructions read from trace: 600000002

ChampSim completed all CPUs

Region of Interest Statistics

CPU 0 cumulative IPC: 0.866583 instructions: 500000001 cycles: 576979001
ITLB TOTAL     ACCESS:   77981864  HIT:   77981863  MISS:          1
ITLB LOAD      ACCESS:   77981864  HIT:   77981863  MISS:          1
ITLB RFO       ACCESS:          0  HIT:          0  MISS:          0
ITLB PREFETCH  ACCESS:          0  HIT:          0  MISS:          0
ITLB WRITEBACK ACCESS:          0  HIT:          0  MISS:          0
ITLB PREFETCH  REQUESTED:          0  ISSUED:          0  USEFUL:          0  USELESS:          0
ITLB TOTAL MSHR MERGED:          0
ITLB LOAD MSHR MERGED:          0
ITLB RFO MSHR MERGED:          0
ITLB PREFETCH MSHR MERGED:          0
ITLB WRITEBACK MSHR MERGED:          0
ITLB TOTAL ACCESSES:   77981864 HITS:   77981863 MISSES:          1
ITLB LOAD ACCESSES:   77981864 HITS:   77981863 MISSES:          1
ITLB RFO ACCESSES:          0 HITS:          0 MISSES:          0
ITLB PREFETCH ACCESSES:          0 HITS:          0 MISSES:          0
ITLB WRITEBACK ACCESSES:          0 HITS:          0 MISSES:          0
ITLB RQ ACCESS:  499999995
ITLB RQ TO_CACHE:   77981864
ITLB RQ MERGED:  422018131
ITLB RQ FORWARD:          0
ITLB WQ ACCESS:          0
ITLB WQ TO_CACHE:          0
ITLB WQ MERGED:          0
ITLB WQ FORWARD:          0
DTLB TOTAL     ACCESS:   98680319  HIT:   97798983  MISS:     881336
DTLB LOAD      ACCESS:   70901855  HIT:   70040322  MISS:     861533
DTLB RFO       ACCESS:   27778464  HIT:   27758661  MISS:      19803
DTLB PREFETCH  ACCESS:          0  HIT:          0  MISS:          0
DTLB WRITEBACK ACCESS:          0  HIT:          0  MISS:          0
DTLB PREFETCH  REQUESTED:          0  ISSUED:          0  USEFUL:          0  USELESS:          0
DTLB TOTAL MSHR MERGED:      87148
DTLB LOAD MSHR MERGED:      65362
DTLB RFO MSHR MERGED:      21786
DTLB PREFETCH MSHR MERGED:          0
DTLB WRITEBACK MSHR MERGED:          0
DTLB TOTAL ACCESSES:   98767467 HITS:   97798983 MISSES:     968484
DTLB LOAD ACCESSES:   70967217 HITS:   70040322 MISSES:     926895
DTLB RFO ACCESSES:   27800250 HITS:   27758661 MISSES:      41589
DTLB PREFETCH ACCESSES:          0 HITS:          0 MISSES:          0
DTLB WRITEBACK ACCESSES:          0 HITS:          0 MISSES:          0
DTLB RQ ACCESS:  150267738
DTLB RQ TO_CACHE:   98767467
DTLB RQ MERGED:   51500271
DTLB RQ FORWARD:          0
DTLB WQ ACCESS:          0
DTLB WQ TO_CACHE:          0
DTLB WQ MERGED:          0
DTLB WQ FORWARD:          0
L1D TOTAL     ACCESS:  173292063  HIT:  169123508  MISS:    4168555
L1D LOAD      ACCESS:   75275938  HIT:   73394185  MISS:    1881753
L1D RFO       ACCESS:   36777637  HIT:   36570946  MISS:     206691
L1D PREFETCH  ACCESS:   61238488  HIT:   59158377  MISS:    2080111
L1D WRITEBACK ACCESS:          0  HIT:          0  MISS:          0
L1D PREFETCH  REQUESTED:   75386929  ISSUED:   74822677  USEFUL:     414591  USELESS:    1665509
L1D TOTAL MSHR MERGED:     414380
L1D LOAD MSHR MERGED:     120220
L1D RFO MSHR MERGED:     133384
L1D PREFETCH MSHR MERGED:     160776
L1D WRITEBACK MSHR MERGED:          0
L1D TOTAL ACCESSES:  173858176 HITS:  169275241 MISSES:    4582935
L1D LOAD ACCESSES:   75389745 HITS:   73397001 MISSES:    1992744
L1D RFO ACCESSES:   36909540 HITS:   36570946 MISSES:     338594
L1D PREFETCH ACCESSES:   61558891 HITS:   59307294 MISSES:    2251597
L1D WRITEBACK ACCESSES:          0 HITS:          0 MISSES:          0
L1D RQ ACCESS:  112605335
L1D RQ TO_CACHE:   75386929
L1D RQ MERGED:   37215590
L1D RQ FORWARD:          0
L1D WQ ACCESS:   37662403
L1D WQ TO_CACHE:   36909540
L1D WQ MERGED:     752863
L1D WQ FORWARD:     151733
L1I TOTAL     ACCESS:  100690596  HIT:  100690571  MISS:         25
L1I LOAD      ACCESS:  100690596  HIT:  100690571  MISS:         25
L1I RFO       ACCESS:          0  HIT:          0  MISS:          0
L1I PREFETCH  ACCESS:          0  HIT:          0  MISS:          0
L1I WRITEBACK ACCESS:          0  HIT:          0  MISS:          0
L1I PREFETCH  REQUESTED:          0  ISSUED:          0  USEFUL:          0  USELESS:          0
L1I TOTAL MSHR MERGED:         10
L1I LOAD MSHR MERGED:         10
L1I RFO MSHR MERGED:          0
L1I PREFETCH MSHR MERGED:          0
L1I WRITEBACK MSHR MERGED:          0
L1I TOTAL ACCESSES:  100690606 HITS:  100690571 MISSES:         35
L1I LOAD ACCESSES:  100690606 HITS:  100690571 MISSES:         35
L1I RFO ACCESSES:          0 HITS:          0 MISSES:          0
L1I PREFETCH ACCESSES:          0 HITS:          0 MISSES:          0
L1I WRITEBACK ACCESSES:          0 HITS:          0 MISSES:          0
L1I RQ ACCESS:  499999995
L1I RQ TO_CACHE:  100690606
L1I RQ MERGED:  399309389
L1I RQ FORWARD:          0
L1I WQ ACCESS:          0
L1I WQ TO_CACHE:          0
L1I WQ MERGED:          0
L1I WQ FORWARD:          0
L2C TOTAL     ACCESS:    5852164  HIT:    4009034  MISS:    1843130
L2C LOAD      ACCESS:    1872424  HIT:    1061390  MISS:     811034
L2C RFO       ACCESS:     205203  HIT:     100564  MISS:     104639
L2C PREFETCH  ACCESS:    2168920  HIT:    1245884  MISS:     923036
L2C WRITEBACK ACCESS:    1605617  HIT:    1601196  MISS:       4421
L2C PREFETCH  REQUESTED:      91697  ISSUED:      91697  USEFUL:      86365  USELESS:     836694
L2C TOTAL MSHR MERGED:       1337
L2C LOAD MSHR MERGED:        343
L2C RFO MSHR MERGED:          0
L2C PREFETCH MSHR MERGED:        994
L2C WRITEBACK MSHR MERGED:          0
L2C TOTAL ACCESSES:    5853888 HITS:    4009203 MISSES:    1844685
L2C LOAD ACCESSES:    1872549 HITS:    1061515 MISSES:     811034
L2C RFO ACCESSES:     205210 HITS:     100571 MISSES:     104639
L2C PREFETCH ACCESSES:    2170512 HITS:    1245921 MISSES:     924591
L2C WRITEBACK ACCESSES:    1605617 HITS:    1601196 MISSES:       4421
L2C RQ ACCESS:    2077759
L2C RQ TO_CACHE:    2077627
L2C RQ MERGED:          0
L2C RQ FORWARD:          0
L2C WQ ACCESS:    1605617
L2C WQ TO_CACHE:    1605617
L2C WQ MERGED:          0
L2C WQ FORWARD:        169
LLC TOTAL     ACCESS:    2673551  HIT:    1750076  MISS:     923475
LLC LOAD      ACCESS:     810682  HIT:     483975  MISS:     326707
LLC RFO       ACCESS:     104639  HIT:      55004  MISS:      49635
LLC PREFETCH  ACCESS:     923565  HIT:     510141  MISS:     413424
LLC WRITEBACK ACCESS:     834665  HIT:     700956  MISS:     133709
LLC PREFETCH  REQUESTED:          0  ISSUED:          0  USEFUL:      42702  USELESS:     372095
LLC TOTAL MSHR MERGED:         22
LLC LOAD MSHR MERGED:          8
LLC RFO MSHR MERGED:          0
LLC PREFETCH MSHR MERGED:         14
LLC WRITEBACK MSHR MERGED:          0
LLC TOTAL ACCESSES:    2673584 HITS:    1750087 MISSES:     923497
LLC LOAD ACCESSES:     810691 HITS:     483984 MISSES:     326707
LLC RFO ACCESSES:     104639 HITS:      55004 MISSES:      49635
LLC PREFETCH ACCESSES:     923589 HITS:     510143 MISSES:     413446
LLC WRITEBACK ACCESSES:     834665 HITS:     700956 MISSES:     133709
LLC 0 RQ ACCESS:     915330
LLC 0 RQ TO_CACHE:     915321
LLC 0 RQ MERGED:          0
LLC 0 RQ FORWARD:          0
LLC WQ ACCESS:     834665
LLC WQ TO_CACHE:     834665
LLC WQ MERGED:          0
LLC WQ FORWARD:         11
Major fault: 0 Minor fault: 11278
CPU 0 L1D next line prefetcher final stats
CPU 0 L2C PC-based stride prefetcher final stats
All Misses: 1051847
All Hits: 2002721
SD Algo Stats - Switches: 0 SRR-Repls: 362116 BRR-Repls: 0

DRAM Statistics
 CHANNEL 0
 RQ ROW_BUFFER_HIT:      43710  ROW_BUFFER_MISS:     745188
 DBUS_CONGESTED:     672598
 WQ ROW_BUFFER_HIT:      40371  ROW_BUFFER_MISS:     378178  FULL:          0

 AVG_CONGESTED_CYCLE: 13
LOADS RETIRED: 121769268
INSTR RETIRED: 500000000
