
*** ChampSim Multicore Out-of-Order Simulator ***

Warmup Instructions: 100000000
Simulation Instructions: 500000000
Number of CPUs: 1
LLC sets: 2048
LLC ways: 16
Clean RRIP Policies: 1213220112132201 Dirty RRIP Policies: 2213222122132221 PSEL Width: 10 Track Set: 4294967295 PSEL Mask: 1 Demote Mask: 1340014213400142DS Algo: 0Window size: 0
Off-chip DRAM Size: 4096 MB Channels: 1 Width: 64-bit Data Rate: 1600 MT/s

CPU 0 runs /mnt/beegfs/iconst01/spec2017/cactuBSSN.trace.gz
NOT SORTED
TRACE STRING: /mnt/beegfs/iconst01/spec2017/cactuBSSN.trace.gz
SORTED
TRACE STRING: /mnt/beegfs/iconst01/spec2017/cactuBSSN.trace.gz
INITIAL
TRACE STRING: /mnt/beegfs/iconst01/spec2017/cactuBSSN.trace.gz

champsim_seed used: 838

CPU 0 L1D next line prefetcher
CPU 0 L2C IP-based stride prefetcher
Initialize DRRIP state
Assign rand_sets[0]: 454  LLC: 2048
rand_sets[0]: 454
Assign rand_sets[1]: 1662  LLC: 2048
rand_sets[1]: 1662
Assign rand_sets[2]: 1921  LLC: 2048
rand_sets[2]: 1921
Assign rand_sets[3]: 1131  LLC: 2048
rand_sets[3]: 1131
Assign rand_sets[4]: 331  LLC: 2048
rand_sets[4]: 331
Assign rand_sets[5]: 1531  LLC: 2048
rand_sets[5]: 1531
Assign rand_sets[6]: 482  LLC: 2048
rand_sets[6]: 482
Assign rand_sets[7]: 1275  LLC: 2048
rand_sets[7]: 1275
Assign rand_sets[8]: 1876  LLC: 2048
rand_sets[8]: 1876
Assign rand_sets[9]: 2038  LLC: 2048
rand_sets[9]: 2038
Assign rand_sets[10]: 701  LLC: 2048
rand_sets[10]: 701
Assign rand_sets[11]: 479  LLC: 2048
rand_sets[11]: 479
Assign rand_sets[12]: 892  LLC: 2048
rand_sets[12]: 892
Assign rand_sets[13]: 1820  LLC: 2048
rand_sets[13]: 1820
Assign rand_sets[14]: 1505  LLC: 2048
rand_sets[14]: 1505
Assign rand_sets[15]: 1159  LLC: 2048
rand_sets[15]: 1159
Assign rand_sets[16]: 513  LLC: 2048
rand_sets[16]: 513
Assign rand_sets[17]: 703  LLC: 2048
rand_sets[17]: 703
Assign rand_sets[18]: 561  LLC: 2048
rand_sets[18]: 561
Assign rand_sets[19]: 990  LLC: 2048
rand_sets[19]: 990
Assign rand_sets[20]: 342  LLC: 2048
rand_sets[20]: 342
Assign rand_sets[21]: 882  LLC: 2048
rand_sets[21]: 882
Assign rand_sets[22]: 15  LLC: 2048
rand_sets[22]: 15
Assign rand_sets[23]: 71  LLC: 2048
rand_sets[23]: 71
Assign rand_sets[24]: 1127  LLC: 2048
rand_sets[24]: 1127
Assign rand_sets[25]: 1382  LLC: 2048
rand_sets[25]: 1382
Assign rand_sets[26]: 647  LLC: 2048
rand_sets[26]: 647
Assign rand_sets[27]: 857  LLC: 2048
rand_sets[27]: 857
Assign rand_sets[28]: 1450  LLC: 2048
rand_sets[28]: 1450
Assign rand_sets[29]: 1160  LLC: 2048
rand_sets[29]: 1160
Assign rand_sets[30]: 1852  LLC: 2048
rand_sets[30]: 1852
Assign rand_sets[31]: 1881  LLC: 2048
rand_sets[31]: 1881
Assign rand_sets[32]: 1770  LLC: 2048
rand_sets[32]: 1770
Assign rand_sets[33]: 1622  LLC: 2048
rand_sets[33]: 1622
Assign rand_sets[34]: 275  LLC: 2048
rand_sets[34]: 275
Assign rand_sets[35]: 635  LLC: 2048
rand_sets[35]: 635
Assign rand_sets[36]: 466  LLC: 2048
rand_sets[36]: 466
Assign rand_sets[37]: 1413  LLC: 2048
rand_sets[37]: 1413
Assign rand_sets[38]: 417  LLC: 2048
rand_sets[38]: 417
Assign rand_sets[39]: 472  LLC: 2048
rand_sets[39]: 472
Assign rand_sets[40]: 1340  LLC: 2048
rand_sets[40]: 1340
Assign rand_sets[41]: 852  LLC: 2048
rand_sets[41]: 852
Assign rand_sets[42]: 1365  LLC: 2048
rand_sets[42]: 1365
Assign rand_sets[43]: 47  LLC: 2048
rand_sets[43]: 47
Assign rand_sets[44]: 823  LLC: 2048
rand_sets[44]: 823
Assign rand_sets[45]: 686  LLC: 2048
rand_sets[45]: 686
Assign rand_sets[46]: 1637  LLC: 2048
rand_sets[46]: 1637
Assign rand_sets[47]: 1115  LLC: 2048
rand_sets[47]: 1115
Assign rand_sets[48]: 986  LLC: 2048
rand_sets[48]: 986
Assign rand_sets[49]: 258  LLC: 2048
rand_sets[49]: 258
Assign rand_sets[50]: 633  LLC: 2048
rand_sets[50]: 633
Assign rand_sets[51]: 920  LLC: 2048
rand_sets[51]: 920
Assign rand_sets[52]: 204  LLC: 2048
rand_sets[52]: 204
Assign rand_sets[53]: 227  LLC: 2048
rand_sets[53]: 227
Assign rand_sets[54]: 1818  LLC: 2048
rand_sets[54]: 1818
Assign rand_sets[55]: 886  LLC: 2048
rand_sets[55]: 886
Assign rand_sets[56]: 1422  LLC: 2048
rand_sets[56]: 1422
Assign rand_sets[57]: 607  LLC: 2048
rand_sets[57]: 607
Assign rand_sets[58]: 217  LLC: 2048
rand_sets[58]: 217
Assign rand_sets[59]: 1945  LLC: 2048
rand_sets[59]: 1945
Assign rand_sets[60]: 143  LLC: 2048
rand_sets[60]: 143
Assign rand_sets[61]: 1311  LLC: 2048
rand_sets[61]: 1311
Assign rand_sets[62]: 319  LLC: 2048
rand_sets[62]: 319
Assign rand_sets[63]: 1846  LLC: 2048
rand_sets[63]: 1846
 CLEAN-RRIP-POLICY-1: 1-2-1-3-2-2-0-1- CLEAN-RRIP-POLICY-2: 1-2-1-3-2-2-0-1-
 DIRTY-RRIP-POLICY-1: 2-2-1-3-2-2-2-1- DIRTY-RRIP-POLICY-2: 2-2-1-3-2-2-2-1-
 PSEL width: 10
Heartbeat CPU 0 instructions: 10000000 cycles: 6588007 heartbeat IPC: 1.51791 cumulative IPC: 1.51791 (Simulation time: 0 hr 0 min 25 sec) 
Heartbeat CPU 0 instructions: 20000000 cycles: 13179596 heartbeat IPC: 1.51708 cumulative IPC: 1.5175 (Simulation time: 0 hr 0 min 50 sec) 
Heartbeat CPU 0 instructions: 30000003 cycles: 19772935 heartbeat IPC: 1.51668 cumulative IPC: 1.51723 (Simulation time: 0 hr 1 min 15 sec) 
Heartbeat CPU 0 instructions: 40000000 cycles: 26364696 heartbeat IPC: 1.51704 cumulative IPC: 1.51718 (Simulation time: 0 hr 1 min 40 sec) 
Heartbeat CPU 0 instructions: 50000001 cycles: 32957331 heartbeat IPC: 1.51684 cumulative IPC: 1.51711 (Simulation time: 0 hr 2 min 5 sec) 
Heartbeat CPU 0 instructions: 60000000 cycles: 39556154 heartbeat IPC: 1.51542 cumulative IPC: 1.51683 (Simulation time: 0 hr 2 min 31 sec) 
Heartbeat CPU 0 instructions: 70000003 cycles: 46154506 heartbeat IPC: 1.51553 cumulative IPC: 1.51665 (Simulation time: 0 hr 2 min 56 sec) 
Heartbeat CPU 0 instructions: 80000000 cycles: 52752525 heartbeat IPC: 1.51561 cumulative IPC: 1.51652 (Simulation time: 0 hr 3 min 22 sec) 
Heartbeat CPU 0 instructions: 90000002 cycles: 59348154 heartbeat IPC: 1.51616 cumulative IPC: 1.51648 (Simulation time: 0 hr 3 min 47 sec) 
Heartbeat CPU 0 instructions: 100000000 cycles: 65943159 heartbeat IPC: 1.5163 cumulative IPC: 1.51646 (Simulation time: 0 hr 4 min 13 sec) 

Warmup complete CPU 0 instructions: 100000002 cycles: 65943160 (Simulation time: 0 hr 4 min 13 sec) 

Heartbeat CPU 0 instructions: 110000000 cycles: 79173915 heartbeat IPC: 0.755815 cumulative IPC: 0.755815 (Simulation time: 0 hr 4 min 44 sec) 
Heartbeat CPU 0 instructions: 120000000 cycles: 92373701 heartbeat IPC: 0.757588 cumulative IPC: 0.7567 (Simulation time: 0 hr 5 min 15 sec) 
Heartbeat CPU 0 instructions: 130000001 cycles: 105638865 heartbeat IPC: 0.753854 cumulative IPC: 0.755749 (Simulation time: 0 hr 5 min 47 sec) 
Heartbeat CPU 0 instructions: 140000000 cycles: 118812443 heartbeat IPC: 0.759095 cumulative IPC: 0.756583 (Simulation time: 0 hr 6 min 18 sec) 
Heartbeat CPU 0 instructions: 150000001 cycles: 131998807 heartbeat IPC: 0.758359 cumulative IPC: 0.756938 (Simulation time: 0 hr 6 min 49 sec) 
Heartbeat CPU 0 instructions: 160000000 cycles: 145217280 heartbeat IPC: 0.756517 cumulative IPC: 0.756867 (Simulation time: 0 hr 7 min 20 sec) 
Heartbeat CPU 0 instructions: 170000000 cycles: 158423039 heartbeat IPC: 0.757245 cumulative IPC: 0.756921 (Simulation time: 0 hr 7 min 52 sec) 
Heartbeat CPU 0 instructions: 180000000 cycles: 171616146 heartbeat IPC: 0.757972 cumulative IPC: 0.757052 (Simulation time: 0 hr 8 min 23 sec) 
Heartbeat CPU 0 instructions: 190000000 cycles: 184773911 heartbeat IPC: 0.760008 cumulative IPC: 0.75738 (Simulation time: 0 hr 8 min 54 sec) 
Heartbeat CPU 0 instructions: 200000000 cycles: 198023382 heartbeat IPC: 0.754747 cumulative IPC: 0.757116 (Simulation time: 0 hr 9 min 26 sec) 
Heartbeat CPU 0 instructions: 210000002 cycles: 211226378 heartbeat IPC: 0.757404 cumulative IPC: 0.757142 (Simulation time: 0 hr 9 min 57 sec) 
Heartbeat CPU 0 instructions: 220000000 cycles: 224399889 heartbeat IPC: 0.759099 cumulative IPC: 0.757305 (Simulation time: 0 hr 10 min 28 sec) 
Heartbeat CPU 0 instructions: 230000003 cycles: 237642650 heartbeat IPC: 0.75513 cumulative IPC: 0.757137 (Simulation time: 0 hr 10 min 59 sec) 
Heartbeat CPU 0 instructions: 240000000 cycles: 250822284 heartbeat IPC: 0.758746 cumulative IPC: 0.757252 (Simulation time: 0 hr 11 min 31 sec) 
Heartbeat CPU 0 instructions: 250000001 cycles: 264044168 heartbeat IPC: 0.756322 cumulative IPC: 0.757189 (Simulation time: 0 hr 12 min 2 sec) 
Heartbeat CPU 0 instructions: 260000000 cycles: 277245399 heartbeat IPC: 0.757505 cumulative IPC: 0.757209 (Simulation time: 0 hr 12 min 33 sec) 
Heartbeat CPU 0 instructions: 270000003 cycles: 290469456 heartbeat IPC: 0.756198 cumulative IPC: 0.75715 (Simulation time: 0 hr 13 min 4 sec) 
Heartbeat CPU 0 instructions: 280000000 cycles: 303661024 heartbeat IPC: 0.75806 cumulative IPC: 0.7572 (Simulation time: 0 hr 13 min 34 sec) 
Heartbeat CPU 0 instructions: 290000000 cycles: 316827462 heartbeat IPC: 0.759507 cumulative IPC: 0.757321 (Simulation time: 0 hr 14 min 5 sec) 
Heartbeat CPU 0 instructions: 300000000 cycles: 330067495 heartbeat IPC: 0.755285 cumulative IPC: 0.757219 (Simulation time: 0 hr 14 min 36 sec) 
Heartbeat CPU 0 instructions: 310000001 cycles: 343232239 heartbeat IPC: 0.759605 cumulative IPC: 0.757332 (Simulation time: 0 hr 15 min 6 sec) 
Heartbeat CPU 0 instructions: 320000000 cycles: 356417631 heartbeat IPC: 0.758415 cumulative IPC: 0.757381 (Simulation time: 0 hr 15 min 37 sec) 
Heartbeat CPU 0 instructions: 330000002 cycles: 369609381 heartbeat IPC: 0.75805 cumulative IPC: 0.757411 (Simulation time: 0 hr 16 min 7 sec) 
Heartbeat CPU 0 instructions: 340000000 cycles: 382838242 heartbeat IPC: 0.755923 cumulative IPC: 0.757348 (Simulation time: 0 hr 16 min 38 sec) 
Heartbeat CPU 0 instructions: 350000000 cycles: 396078445 heartbeat IPC: 0.755275 cumulative IPC: 0.757265 (Simulation time: 0 hr 17 min 8 sec) 
Heartbeat CPU 0 instructions: 360000000 cycles: 409296929 heartbeat IPC: 0.756516 cumulative IPC: 0.757236 (Simulation time: 0 hr 17 min 38 sec) 
Heartbeat CPU 0 instructions: 370000002 cycles: 422566299 heartbeat IPC: 0.753615 cumulative IPC: 0.757102 (Simulation time: 0 hr 18 min 8 sec) 
Heartbeat CPU 0 instructions: 380000000 cycles: 435767865 heartbeat IPC: 0.757486 cumulative IPC: 0.757115 (Simulation time: 0 hr 18 min 38 sec) 
Heartbeat CPU 0 instructions: 390000000 cycles: 448937940 heartbeat IPC: 0.759297 cumulative IPC: 0.75719 (Simulation time: 0 hr 19 min 7 sec) 
Heartbeat CPU 0 instructions: 400000000 cycles: 462130432 heartbeat IPC: 0.758007 cumulative IPC: 0.757218 (Simulation time: 0 hr 19 min 37 sec) 
Heartbeat CPU 0 instructions: 410000001 cycles: 475378664 heartbeat IPC: 0.754818 cumulative IPC: 0.75714 (Simulation time: 0 hr 20 min 7 sec) 
Heartbeat CPU 0 instructions: 420000000 cycles: 488551933 heartbeat IPC: 0.759113 cumulative IPC: 0.757201 (Simulation time: 0 hr 20 min 37 sec) 
Heartbeat CPU 0 instructions: 430000001 cycles: 501725071 heartbeat IPC: 0.759121 cumulative IPC: 0.757259 (Simulation time: 0 hr 21 min 7 sec) 
Heartbeat CPU 0 instructions: 440000000 cycles: 514891033 heartbeat IPC: 0.759534 cumulative IPC: 0.757326 (Simulation time: 0 hr 21 min 37 sec) 
Heartbeat CPU 0 instructions: 450000002 cycles: 528177172 heartbeat IPC: 0.752664 cumulative IPC: 0.757192 (Simulation time: 0 hr 22 min 7 sec) 
Heartbeat CPU 0 instructions: 460000000 cycles: 541389799 heartbeat IPC: 0.756852 cumulative IPC: 0.757183 (Simulation time: 0 hr 22 min 36 sec) 
Heartbeat CPU 0 instructions: 470000003 cycles: 554581424 heartbeat IPC: 0.758057 cumulative IPC: 0.757206 (Simulation time: 0 hr 23 min 6 sec) 
Heartbeat CPU 0 instructions: 480000000 cycles: 567817324 heartbeat IPC: 0.755521 cumulative IPC: 0.757162 (Simulation time: 0 hr 23 min 36 sec) 
Heartbeat CPU 0 instructions: 490000000 cycles: 581019334 heartbeat IPC: 0.75746 cumulative IPC: 0.75717 (Simulation time: 0 hr 24 min 6 sec) 
Heartbeat CPU 0 instructions: 500000000 cycles: 594202767 heartbeat IPC: 0.758528 cumulative IPC: 0.757203 (Simulation time: 0 hr 24 min 36 sec) 
Heartbeat CPU 0 instructions: 510000001 cycles: 607368844 heartbeat IPC: 0.759528 cumulative IPC: 0.75726 (Simulation time: 0 hr 25 min 6 sec) 
Heartbeat CPU 0 instructions: 520000000 cycles: 620647434 heartbeat IPC: 0.753092 cumulative IPC: 0.75716 (Simulation time: 0 hr 25 min 35 sec) 
Heartbeat CPU 0 instructions: 530000000 cycles: 633876488 heartbeat IPC: 0.755912 cumulative IPC: 0.757131 (Simulation time: 0 hr 26 min 5 sec) 
Heartbeat CPU 0 instructions: 540000000 cycles: 647081998 heartbeat IPC: 0.75726 cumulative IPC: 0.757134 (Simulation time: 0 hr 26 min 35 sec) 
Heartbeat CPU 0 instructions: 550000002 cycles: 660337131 heartbeat IPC: 0.754425 cumulative IPC: 0.757074 (Simulation time: 0 hr 27 min 5 sec) 
Heartbeat CPU 0 instructions: 560000000 cycles: 673513043 heartbeat IPC: 0.758961 cumulative IPC: 0.757115 (Simulation time: 0 hr 27 min 35 sec) 
Heartbeat CPU 0 instructions: 570000001 cycles: 686703232 heartbeat IPC: 0.758139 cumulative IPC: 0.757136 (Simulation time: 0 hr 28 min 5 sec) 
Heartbeat CPU 0 instructions: 580000000 cycles: 699897498 heartbeat IPC: 0.757905 cumulative IPC: 0.757152 (Simulation time: 0 hr 28 min 34 sec) 
Heartbeat CPU 0 instructions: 590000003 cycles: 713117683 heartbeat IPC: 0.756419 cumulative IPC: 0.757137 (Simulation time: 0 hr 29 min 4 sec) 
Heartbeat CPU 0 instructions: 600000000 cycles: 726365470 heartbeat IPC: 0.754843 cumulative IPC: 0.757091 (Simulation time: 0 hr 29 min 34 sec) 
Finished CPU 0 instructions: 500000000 cycles: 660422320 cumulative IPC: 0.757091 (Simulation time: 0 hr 29 min 34 sec) 

CPU 0 Branch Prediction Accuracy: 99.968% MPKI: 0.002246
Number of Branches: 3513331 Number of Mispredictions: 1123
Number of LOAD Instructions: 287251172
Number of LOAD Instructions (ROI): 287251172
Number of STORE Instructions: 51060820
Number of STORE Instructions (ROI): 51060820
Total Destination Memory Operands: 51166221
Total Destination Memory Operands (ROI): 51166221
Total Source Memory Operands: 287251172
Total Source Memory Operands (ROI): 287251172
Number of DEPENDED LOADS: 9555455
Number of DEPENDED LOADS (ROI): 9555455
Number of SQ_ADDED: 51166208
Number of SQ_ADDED (ROI): 51166208
Number of LQ_ADDED: 290419975
Number of LQ_ADDED (ROI): 290419975
Number of Instructions read from trace: 600000257

ChampSim completed all CPUs

Region of Interest Statistics

CPU 0 cumulative IPC: 0.757091 instructions: 500000000 cycles: 660422320
ITLB TOTAL     ACCESS:  108949585  HIT:  108949585  MISS:          0
ITLB LOAD      ACCESS:  108949585  HIT:  108949585  MISS:          0
ITLB RFO       ACCESS:          0  HIT:          0  MISS:          0
ITLB PREFETCH  ACCESS:          0  HIT:          0  MISS:          0
ITLB WRITEBACK ACCESS:          0  HIT:          0  MISS:          0
ITLB PREFETCH  REQUESTED:          0  ISSUED:          0  USEFUL:          0  USELESS:          0
ITLB TOTAL MSHR MERGED:          0
ITLB LOAD MSHR MERGED:          0
ITLB RFO MSHR MERGED:          0
ITLB PREFETCH MSHR MERGED:          0
ITLB WRITEBACK MSHR MERGED:          0
ITLB TOTAL ACCESSES:  108949585 HITS:  108949585 MISSES:          0
ITLB LOAD ACCESSES:  108949585 HITS:  108949585 MISSES:          0
ITLB RFO ACCESSES:          0 HITS:          0 MISSES:          0
ITLB PREFETCH ACCESSES:          0 HITS:          0 MISSES:          0
ITLB WRITEBACK ACCESSES:          0 HITS:          0 MISSES:          0
ITLB RQ ACCESS:  500000001
ITLB RQ TO_CACHE:  108949585
ITLB RQ MERGED:  391050416
ITLB RQ FORWARD:          0
ITLB WQ ACCESS:          0
ITLB WQ TO_CACHE:          0
ITLB WQ MERGED:          0
ITLB WQ FORWARD:          0
DTLB TOTAL     ACCESS:  171131132  HIT:  161114805  MISS:   10016327
DTLB LOAD      ACCESS:  143472062  HIT:  135595985  MISS:    7876077
DTLB RFO       ACCESS:   27659070  HIT:   25518820  MISS:    2140250
DTLB PREFETCH  ACCESS:          0  HIT:          0  MISS:          0
DTLB WRITEBACK ACCESS:          0  HIT:          0  MISS:          0
DTLB PREFETCH  REQUESTED:          0  ISSUED:          0  USEFUL:          0  USELESS:          0
DTLB TOTAL MSHR MERGED:     360486
DTLB LOAD MSHR MERGED:     360486
DTLB RFO MSHR MERGED:          0
DTLB PREFETCH MSHR MERGED:          0
DTLB WRITEBACK MSHR MERGED:          0
DTLB TOTAL ACCESSES:  171491618 HITS:  161114805 MISSES:   10376813
DTLB LOAD ACCESSES:  143832548 HITS:  135595985 MISSES:    8236563
DTLB RFO ACCESSES:   27659070 HITS:   25518820 MISSES:    2140250
DTLB PREFETCH ACCESSES:          0 HITS:          0 MISSES:          0
DTLB WRITEBACK ACCESSES:          0 HITS:          0 MISSES:          0
DTLB RQ ACCESS:  274072362
DTLB RQ TO_CACHE:  171491618
DTLB RQ MERGED:  102580744
DTLB RQ FORWARD:          0
DTLB WQ ACCESS:          0
DTLB WQ TO_CACHE:          0
DTLB WQ MERGED:          0
DTLB WQ FORWARD:          0
L1D TOTAL     ACCESS:  350964651  HIT:  283765335  MISS:   67199316
L1D LOAD      ACCESS:  175626993  HIT:  142587657  MISS:   33039336
L1D RFO       ACCESS:   42020418  HIT:   39215019  MISS:    2805399
L1D PREFETCH  ACCESS:  133317240  HIT:  101962659  MISS:   31354581
L1D WRITEBACK ACCESS:          0  HIT:          0  MISS:          0
L1D PREFETCH  REQUESTED:  176231069  ISSUED:  175292916  USEFUL:    2180675  USELESS:   29173908
L1D TOTAL MSHR MERGED:    1482830
L1D LOAD MSHR MERGED:     704057
L1D RFO MSHR MERGED:     348722
L1D PREFETCH MSHR MERGED:     430051
L1D WRITEBACK MSHR MERGED:          0
L1D TOTAL ACCESSES:  352559500 HITS:  283877354 MISSES:   68682146
L1D LOAD ACCESSES:  176237194 HITS:  142593782 MISSES:   33643412
L1D RFO ACCESSES:   42368479 HITS:   39215019 MISSES:    3153460
L1D PREFETCH ACCESSES:  133953827 HITS:  102068553 MISSES:   31885274
L1D WRITEBACK ACCESSES:          0 HITS:          0 MISSES:          0
L1D RQ ACCESS:  231433889
L1D RQ TO_CACHE:  176231069
L1D RQ MERGED:   55196695
L1D RQ FORWARD:          0
L1D WQ ACCESS:   42638475
L1D WQ TO_CACHE:   42368479
L1D WQ MERGED:     269996
L1D WQ FORWARD:     112019
L1I TOTAL     ACCESS:  109342318  HIT:   77826614  MISS:   31515704
L1I LOAD      ACCESS:  109342318  HIT:   77826614  MISS:   31515704
L1I RFO       ACCESS:          0  HIT:          0  MISS:          0
L1I PREFETCH  ACCESS:          0  HIT:          0  MISS:          0
L1I WRITEBACK ACCESS:          0  HIT:          0  MISS:          0
L1I PREFETCH  REQUESTED:          0  ISSUED:          0  USEFUL:          0  USELESS:          0
L1I TOTAL MSHR MERGED:   30751404
L1I LOAD MSHR MERGED:   30751404
L1I RFO MSHR MERGED:          0
L1I PREFETCH MSHR MERGED:          0
L1I WRITEBACK MSHR MERGED:          0
L1I TOTAL ACCESSES:  140093724 HITS:   77826614 MISSES:   62267110
L1I LOAD ACCESSES:  140093724 HITS:   77826614 MISSES:   62267110
L1I RFO ACCESSES:          0 HITS:          0 MISSES:          0
L1I PREFETCH ACCESSES:          0 HITS:          0 MISSES:          0
L1I WRITEBACK ACCESSES:          0 HITS:          0 MISSES:          0
L1I RQ ACCESS:  500000003
L1I RQ TO_CACHE:  140093724
L1I RQ MERGED:  359906279
L1I RQ FORWARD:          0
L1I WQ ACCESS:          0
L1I WQ TO_CACHE:          0
L1I WQ MERGED:          0
L1I WQ FORWARD:          0
L2C TOTAL     ACCESS:  113704204  HIT:  110701392  MISS:    3002812
L2C LOAD      ACCESS:   64453195  HIT:   63892369  MISS:     560826
L2C RFO       ACCESS:    2802827  HIT:    2193503  MISS:     609324
L2C PREFETCH  ACCESS:   43287241  HIT:   41460837  MISS:    1826404
L2C WRITEBACK ACCESS:    3160941  HIT:    3154683  MISS:       6258
L2C PREFETCH  REQUESTED:   15134424  ISSUED:   14619747  USEFUL:    1701192  USELESS:     125217
L2C TOTAL MSHR MERGED:      12551
L2C LOAD MSHR MERGED:          0
L2C RFO MSHR MERGED:          0
L2C PREFETCH MSHR MERGED:      12551
L2C WRITEBACK MSHR MERGED:          0
L2C TOTAL ACCESSES:  113901293 HITS:  110707286 MISSES:    3194007
L2C LOAD ACCESSES:   64455060 HITS:   63894233 MISSES:     560827
L2C RFO ACCESSES:    2804738 HITS:    2195414 MISSES:     609324
L2C PREFETCH ACCESSES:   43480554 HITS:   41462956 MISSES:    2017598
L2C WRITEBACK ACCESSES:    3160941 HITS:    3154683 MISSES:       6258
L2C RQ ACCESS:   67259799
L2C RQ TO_CACHE:   67256024
L2C RQ MERGED:          0
L2C RQ FORWARD:          0
L2C WQ ACCESS:    3160941
L2C WQ TO_CACHE:    3160941
L2C WQ MERGED:          0
L2C WQ FORWARD:       5894
LLC TOTAL     ACCESS:    3706866  HIT:    1919142  MISS:    1787724
LLC LOAD      ACCESS:     560798  HIT:     499849  MISS:      60949
LLC RFO       ACCESS:     527422  HIT:     238572  MISS:     288850
LLC PREFETCH  ACCESS:    2000320  HIT:     696818  MISS:    1303502
LLC WRITEBACK ACCESS:     618326  HIT:     483903  MISS:     134423
LLC PREFETCH  REQUESTED:          0  ISSUED:          0  USEFUL:      44713  USELESS:    1249965
LLC TOTAL MSHR MERGED:       4066
LLC LOAD MSHR MERGED:          0
LLC RFO MSHR MERGED:          0
LLC PREFETCH MSHR MERGED:       4066
LLC WRITEBACK MSHR MERGED:          0
LLC TOTAL ACCESSES:    3792948 HITS:    2001158 MISSES:    1791790
LLC LOAD ACCESSES:     560826 HITS:     499877 MISSES:      60949
LLC RFO ACCESSES:     609324 HITS:     320474 MISSES:     288850
LLC PREFETCH ACCESSES:    2004472 HITS:     696904 MISSES:    1307568
LLC WRITEBACK ACCESSES:     618326 HITS:     483903 MISSES:     134423
LLC 0 RQ ACCESS:    1170151
LLC 0 RQ TO_CACHE:    1088221
LLC 0 RQ MERGED:          0
LLC 0 RQ FORWARD:          0
LLC WQ ACCESS:     618326
LLC WQ TO_CACHE:     618326
LLC WQ MERGED:          0
LLC WQ FORWARD:      82016
Major fault: 0 Minor fault: 12800
CPU 0 L1D next line prefetcher final stats
CPU 0 L2C PC-based stride prefetcher final stats
All Misses: 2160110
All Hits: 2397730
SD Algo Stats - Switches: 0 SRR-Repls: 77568 BRR-Repls: 0

DRAM Statistics
 CHANNEL 0
 RQ ROW_BUFFER_HIT:     812450  ROW_BUFFER_MISS:     840137
 DBUS_CONGESTED:     905467
 WQ ROW_BUFFER_HIT:      54082  ROW_BUFFER_MISS:     274541  FULL:          0

 AVG_CONGESTED_CYCLE: 13
LOADS RETIRED: 239375970
INSTR RETIRED: 500000000
