
*** ChampSim Multicore Out-of-Order Simulator ***

Warmup Instructions: 100000000
Simulation Instructions: 500000000
Number of CPUs: 1
LLC sets: 2048
LLC ways: 16
Clean RRIP Policies: 1213220112132201 Dirty RRIP Policies: 2213222122132221 PSEL Width: 10 Track Set: 4294967295 PSEL Mask: 1 Demote Mask: 1340014213400142DS Algo: 0Window size: 0
Off-chip DRAM Size: 4096 MB Channels: 1 Width: 64-bit Data Rate: 1600 MT/s

CPU 0 runs /mnt/beegfs/iconst01/spec2017/Fotonik3d.trace.gz
NOT SORTED
TRACE STRING: /mnt/beegfs/iconst01/spec2017/Fotonik3d.trace.gz
SORTED
TRACE STRING: /mnt/beegfs/iconst01/spec2017/Fotonik3d.trace.gz
INITIAL
TRACE STRING: /mnt/beegfs/iconst01/spec2017/Fotonik3d.trace.gz

champsim_seed used: 881

CPU 0 L1D next line prefetcher
CPU 0 L2C IP-based stride prefetcher
Initialize DRRIP state
Assign rand_sets[0]: 454  LLC: 2048
rand_sets[0]: 454
Assign rand_sets[1]: 1662  LLC: 2048
rand_sets[1]: 1662
Assign rand_sets[2]: 1921  LLC: 2048
rand_sets[2]: 1921
Assign rand_sets[3]: 1131  LLC: 2048
rand_sets[3]: 1131
Assign rand_sets[4]: 331  LLC: 2048
rand_sets[4]: 331
Assign rand_sets[5]: 1531  LLC: 2048
rand_sets[5]: 1531
Assign rand_sets[6]: 482  LLC: 2048
rand_sets[6]: 482
Assign rand_sets[7]: 1275  LLC: 2048
rand_sets[7]: 1275
Assign rand_sets[8]: 1876  LLC: 2048
rand_sets[8]: 1876
Assign rand_sets[9]: 2038  LLC: 2048
rand_sets[9]: 2038
Assign rand_sets[10]: 701  LLC: 2048
rand_sets[10]: 701
Assign rand_sets[11]: 479  LLC: 2048
rand_sets[11]: 479
Assign rand_sets[12]: 892  LLC: 2048
rand_sets[12]: 892
Assign rand_sets[13]: 1820  LLC: 2048
rand_sets[13]: 1820
Assign rand_sets[14]: 1505  LLC: 2048
rand_sets[14]: 1505
Assign rand_sets[15]: 1159  LLC: 2048
rand_sets[15]: 1159
Assign rand_sets[16]: 513  LLC: 2048
rand_sets[16]: 513
Assign rand_sets[17]: 703  LLC: 2048
rand_sets[17]: 703
Assign rand_sets[18]: 561  LLC: 2048
rand_sets[18]: 561
Assign rand_sets[19]: 990  LLC: 2048
rand_sets[19]: 990
Assign rand_sets[20]: 342  LLC: 2048
rand_sets[20]: 342
Assign rand_sets[21]: 882  LLC: 2048
rand_sets[21]: 882
Assign rand_sets[22]: 15  LLC: 2048
rand_sets[22]: 15
Assign rand_sets[23]: 71  LLC: 2048
rand_sets[23]: 71
Assign rand_sets[24]: 1127  LLC: 2048
rand_sets[24]: 1127
Assign rand_sets[25]: 1382  LLC: 2048
rand_sets[25]: 1382
Assign rand_sets[26]: 647  LLC: 2048
rand_sets[26]: 647
Assign rand_sets[27]: 857  LLC: 2048
rand_sets[27]: 857
Assign rand_sets[28]: 1450  LLC: 2048
rand_sets[28]: 1450
Assign rand_sets[29]: 1160  LLC: 2048
rand_sets[29]: 1160
Assign rand_sets[30]: 1852  LLC: 2048
rand_sets[30]: 1852
Assign rand_sets[31]: 1881  LLC: 2048
rand_sets[31]: 1881
Assign rand_sets[32]: 1770  LLC: 2048
rand_sets[32]: 1770
Assign rand_sets[33]: 1622  LLC: 2048
rand_sets[33]: 1622
Assign rand_sets[34]: 275  LLC: 2048
rand_sets[34]: 275
Assign rand_sets[35]: 635  LLC: 2048
rand_sets[35]: 635
Assign rand_sets[36]: 466  LLC: 2048
rand_sets[36]: 466
Assign rand_sets[37]: 1413  LLC: 2048
rand_sets[37]: 1413
Assign rand_sets[38]: 417  LLC: 2048
rand_sets[38]: 417
Assign rand_sets[39]: 472  LLC: 2048
rand_sets[39]: 472
Assign rand_sets[40]: 1340  LLC: 2048
rand_sets[40]: 1340
Assign rand_sets[41]: 852  LLC: 2048
rand_sets[41]: 852
Assign rand_sets[42]: 1365  LLC: 2048
rand_sets[42]: 1365
Assign rand_sets[43]: 47  LLC: 2048
rand_sets[43]: 47
Assign rand_sets[44]: 823  LLC: 2048
rand_sets[44]: 823
Assign rand_sets[45]: 686  LLC: 2048
rand_sets[45]: 686
Assign rand_sets[46]: 1637  LLC: 2048
rand_sets[46]: 1637
Assign rand_sets[47]: 1115  LLC: 2048
rand_sets[47]: 1115
Assign rand_sets[48]: 986  LLC: 2048
rand_sets[48]: 986
Assign rand_sets[49]: 258  LLC: 2048
rand_sets[49]: 258
Assign rand_sets[50]: 633  LLC: 2048
rand_sets[50]: 633
Assign rand_sets[51]: 920  LLC: 2048
rand_sets[51]: 920
Assign rand_sets[52]: 204  LLC: 2048
rand_sets[52]: 204
Assign rand_sets[53]: 227  LLC: 2048
rand_sets[53]: 227
Assign rand_sets[54]: 1818  LLC: 2048
rand_sets[54]: 1818
Assign rand_sets[55]: 886  LLC: 2048
rand_sets[55]: 886
Assign rand_sets[56]: 1422  LLC: 2048
rand_sets[56]: 1422
Assign rand_sets[57]: 607  LLC: 2048
rand_sets[57]: 607
Assign rand_sets[58]: 217  LLC: 2048
rand_sets[58]: 217
Assign rand_sets[59]: 1945  LLC: 2048
rand_sets[59]: 1945
Assign rand_sets[60]: 143  LLC: 2048
rand_sets[60]: 143
Assign rand_sets[61]: 1311  LLC: 2048
rand_sets[61]: 1311
Assign rand_sets[62]: 319  LLC: 2048
rand_sets[62]: 319
Assign rand_sets[63]: 1846  LLC: 2048
rand_sets[63]: 1846
 CLEAN-RRIP-POLICY-1: 1-2-1-3-2-2-0-1- CLEAN-RRIP-POLICY-2: 1-2-1-3-2-2-0-1-
 DIRTY-RRIP-POLICY-1: 2-2-1-3-2-2-2-1- DIRTY-RRIP-POLICY-2: 2-2-1-3-2-2-2-1-
 PSEL width: 10
Heartbeat CPU 0 instructions: 10000002 cycles: 7306713 heartbeat IPC: 1.3686 cumulative IPC: 1.3686 (Simulation time: 0 hr 0 min 25 sec) 
Heartbeat CPU 0 instructions: 20000000 cycles: 14613567 heartbeat IPC: 1.36858 cumulative IPC: 1.36859 (Simulation time: 0 hr 0 min 50 sec) 
Heartbeat CPU 0 instructions: 30000001 cycles: 21920308 heartbeat IPC: 1.3686 cumulative IPC: 1.36859 (Simulation time: 0 hr 1 min 15 sec) 
Heartbeat CPU 0 instructions: 40000000 cycles: 29226927 heartbeat IPC: 1.36862 cumulative IPC: 1.3686 (Simulation time: 0 hr 1 min 40 sec) 
Heartbeat CPU 0 instructions: 50000001 cycles: 36533506 heartbeat IPC: 1.36863 cumulative IPC: 1.36861 (Simulation time: 0 hr 2 min 6 sec) 
Heartbeat CPU 0 instructions: 60000000 cycles: 43840338 heartbeat IPC: 1.36858 cumulative IPC: 1.3686 (Simulation time: 0 hr 2 min 31 sec) 
Heartbeat CPU 0 instructions: 70000002 cycles: 51147006 heartbeat IPC: 1.36861 cumulative IPC: 1.3686 (Simulation time: 0 hr 2 min 56 sec) 
Heartbeat CPU 0 instructions: 80000000 cycles: 58453660 heartbeat IPC: 1.36862 cumulative IPC: 1.36861 (Simulation time: 0 hr 3 min 22 sec) 
Heartbeat CPU 0 instructions: 90000003 cycles: 65764071 heartbeat IPC: 1.36791 cumulative IPC: 1.36853 (Simulation time: 0 hr 3 min 47 sec) 
Heartbeat CPU 0 instructions: 100000000 cycles: 73074541 heartbeat IPC: 1.3679 cumulative IPC: 1.36847 (Simulation time: 0 hr 4 min 13 sec) 

Warmup complete CPU 0 instructions: 100000002 cycles: 73074553 (Simulation time: 0 hr 4 min 13 sec) 

Heartbeat CPU 0 instructions: 110000001 cycles: 85452507 heartbeat IPC: 0.807887 cumulative IPC: 0.807888 (Simulation time: 0 hr 4 min 43 sec) 
Heartbeat CPU 0 instructions: 120000000 cycles: 97784614 heartbeat IPC: 0.810891 cumulative IPC: 0.809387 (Simulation time: 0 hr 5 min 14 sec) 
Heartbeat CPU 0 instructions: 130000000 cycles: 110184081 heartbeat IPC: 0.806486 cumulative IPC: 0.808418 (Simulation time: 0 hr 5 min 44 sec) 
Heartbeat CPU 0 instructions: 140000000 cycles: 122556271 heartbeat IPC: 0.808264 cumulative IPC: 0.808379 (Simulation time: 0 hr 6 min 15 sec) 
Heartbeat CPU 0 instructions: 150000000 cycles: 134880631 heartbeat IPC: 0.811401 cumulative IPC: 0.808982 (Simulation time: 0 hr 6 min 45 sec) 
Heartbeat CPU 0 instructions: 160000000 cycles: 147245401 heartbeat IPC: 0.808749 cumulative IPC: 0.808943 (Simulation time: 0 hr 7 min 16 sec) 
Heartbeat CPU 0 instructions: 170000001 cycles: 159612676 heartbeat IPC: 0.808586 cumulative IPC: 0.808892 (Simulation time: 0 hr 7 min 46 sec) 
Heartbeat CPU 0 instructions: 180000000 cycles: 171978824 heartbeat IPC: 0.808659 cumulative IPC: 0.808863 (Simulation time: 0 hr 8 min 17 sec) 
Heartbeat CPU 0 instructions: 190000000 cycles: 184363451 heartbeat IPC: 0.807453 cumulative IPC: 0.808706 (Simulation time: 0 hr 8 min 47 sec) 
Heartbeat CPU 0 instructions: 200000000 cycles: 196715348 heartbeat IPC: 0.809592 cumulative IPC: 0.808794 (Simulation time: 0 hr 9 min 17 sec) 
Heartbeat CPU 0 instructions: 210000002 cycles: 209124389 heartbeat IPC: 0.805864 cumulative IPC: 0.808527 (Simulation time: 0 hr 9 min 48 sec) 
Heartbeat CPU 0 instructions: 220000000 cycles: 221511367 heartbeat IPC: 0.807299 cumulative IPC: 0.808425 (Simulation time: 0 hr 10 min 18 sec) 
Heartbeat CPU 0 instructions: 230000002 cycles: 233873594 heartbeat IPC: 0.808916 cumulative IPC: 0.808463 (Simulation time: 0 hr 10 min 49 sec) 
Heartbeat CPU 0 instructions: 240000000 cycles: 246948882 heartbeat IPC: 0.764801 cumulative IPC: 0.805179 (Simulation time: 0 hr 11 min 20 sec) 
Heartbeat CPU 0 instructions: 250000001 cycles: 264232942 heartbeat IPC: 0.578568 cumulative IPC: 0.78469 (Simulation time: 0 hr 11 min 53 sec) 
Heartbeat CPU 0 instructions: 260000000 cycles: 281407767 heartbeat IPC: 0.582247 cumulative IPC: 0.768 (Simulation time: 0 hr 12 min 26 sec) 
Heartbeat CPU 0 instructions: 270000000 cycles: 298631309 heartbeat IPC: 0.580601 cumulative IPC: 0.753691 (Simulation time: 0 hr 12 min 59 sec) 
Heartbeat CPU 0 instructions: 280000000 cycles: 315826858 heartbeat IPC: 0.581546 cumulative IPC: 0.741497 (Simulation time: 0 hr 13 min 32 sec) 
Heartbeat CPU 0 instructions: 290000000 cycles: 344382620 heartbeat IPC: 0.350192 cumulative IPC: 0.700311 (Simulation time: 0 hr 14 min 13 sec) 
Heartbeat CPU 0 instructions: 300000000 cycles: 381352509 heartbeat IPC: 0.27049 cumulative IPC: 0.648765 (Simulation time: 0 hr 14 min 59 sec) 
Heartbeat CPU 0 instructions: 310000000 cycles: 397922817 heartbeat IPC: 0.603489 cumulative IPC: 0.646456 (Simulation time: 0 hr 15 min 31 sec) 
Heartbeat CPU 0 instructions: 320000000 cycles: 414446152 heartbeat IPC: 0.605205 cumulative IPC: 0.644459 (Simulation time: 0 hr 16 min 3 sec) 
Heartbeat CPU 0 instructions: 330000003 cycles: 431070047 heartbeat IPC: 0.601544 cumulative IPC: 0.642466 (Simulation time: 0 hr 16 min 35 sec) 
Heartbeat CPU 0 instructions: 340000000 cycles: 447654158 heartbeat IPC: 0.602987 cumulative IPC: 0.640718 (Simulation time: 0 hr 17 min 6 sec) 
Heartbeat CPU 0 instructions: 350000001 cycles: 462355224 heartbeat IPC: 0.680223 cumulative IPC: 0.64221 (Simulation time: 0 hr 17 min 36 sec) 
Heartbeat CPU 0 instructions: 360000000 cycles: 474219537 heartbeat IPC: 0.842864 cumulative IPC: 0.648145 (Simulation time: 0 hr 18 min 3 sec) 
Heartbeat CPU 0 instructions: 370000002 cycles: 485893394 heartbeat IPC: 0.856615 cumulative IPC: 0.65404 (Simulation time: 0 hr 18 min 30 sec) 
Heartbeat CPU 0 instructions: 380000000 cycles: 497734473 heartbeat IPC: 0.844517 cumulative IPC: 0.659351 (Simulation time: 0 hr 18 min 58 sec) 
Heartbeat CPU 0 instructions: 390000003 cycles: 511044342 heartbeat IPC: 0.751322 cumulative IPC: 0.662146 (Simulation time: 0 hr 19 min 25 sec) 
Heartbeat CPU 0 instructions: 400000000 cycles: 523274145 heartbeat IPC: 0.817674 cumulative IPC: 0.666371 (Simulation time: 0 hr 19 min 53 sec) 
Heartbeat CPU 0 instructions: 410000001 cycles: 535228690 heartbeat IPC: 0.836502 cumulative IPC: 0.670772 (Simulation time: 0 hr 20 min 21 sec) 
Heartbeat CPU 0 instructions: 420000000 cycles: 548071202 heartbeat IPC: 0.778664 cumulative IPC: 0.673689 (Simulation time: 0 hr 20 min 49 sec) 
Heartbeat CPU 0 instructions: 430000003 cycles: 566684144 heartbeat IPC: 0.537261 cumulative IPC: 0.668545 (Simulation time: 0 hr 21 min 14 sec) 
Heartbeat CPU 0 instructions: 440000000 cycles: 585324390 heartbeat IPC: 0.536473 cumulative IPC: 0.663739 (Simulation time: 0 hr 21 min 40 sec) 
Heartbeat CPU 0 instructions: 450000003 cycles: 603996351 heartbeat IPC: 0.535563 cumulative IPC: 0.659231 (Simulation time: 0 hr 22 min 5 sec) 
Heartbeat CPU 0 instructions: 460000000 cycles: 622627068 heartbeat IPC: 0.536748 cumulative IPC: 0.655078 (Simulation time: 0 hr 22 min 31 sec) 
Heartbeat CPU 0 instructions: 470000003 cycles: 641278729 heartbeat IPC: 0.536145 cumulative IPC: 0.651174 (Simulation time: 0 hr 22 min 56 sec) 
Heartbeat CPU 0 instructions: 480000000 cycles: 659925431 heartbeat IPC: 0.536288 cumulative IPC: 0.647524 (Simulation time: 0 hr 23 min 21 sec) 
Heartbeat CPU 0 instructions: 490000003 cycles: 678610579 heartbeat IPC: 0.535185 cumulative IPC: 0.644057 (Simulation time: 0 hr 23 min 47 sec) 
Heartbeat CPU 0 instructions: 500000000 cycles: 697208285 heartbeat IPC: 0.537701 cumulative IPC: 0.640888 (Simulation time: 0 hr 24 min 12 sec) 
Heartbeat CPU 0 instructions: 510000003 cycles: 715863730 heartbeat IPC: 0.536037 cumulative IPC: 0.637845 (Simulation time: 0 hr 24 min 37 sec) 
Heartbeat CPU 0 instructions: 520000000 cycles: 734491844 heartbeat IPC: 0.536823 cumulative IPC: 0.635 (Simulation time: 0 hr 25 min 3 sec) 
Heartbeat CPU 0 instructions: 530000001 cycles: 753148754 heartbeat IPC: 0.535994 cumulative IPC: 0.632284 (Simulation time: 0 hr 25 min 28 sec) 
Heartbeat CPU 0 instructions: 540000000 cycles: 771753963 heartbeat IPC: 0.537484 cumulative IPC: 0.629759 (Simulation time: 0 hr 25 min 54 sec) 
Heartbeat CPU 0 instructions: 550000001 cycles: 790359815 heartbeat IPC: 0.537465 cumulative IPC: 0.627365 (Simulation time: 0 hr 26 min 19 sec) 
Heartbeat CPU 0 instructions: 560000000 cycles: 808964178 heartbeat IPC: 0.537508 cumulative IPC: 0.625094 (Simulation time: 0 hr 26 min 45 sec) 
Heartbeat CPU 0 instructions: 570000001 cycles: 827556110 heartbeat IPC: 0.537868 cumulative IPC: 0.622944 (Simulation time: 0 hr 27 min 10 sec) 
Heartbeat CPU 0 instructions: 580000000 cycles: 846082752 heartbeat IPC: 0.539763 cumulative IPC: 0.620951 (Simulation time: 0 hr 27 min 35 sec) 
Heartbeat CPU 0 instructions: 590000001 cycles: 864695624 heartbeat IPC: 0.537263 cumulative IPC: 0.618983 (Simulation time: 0 hr 28 min 1 sec) 
Heartbeat CPU 0 instructions: 600000000 cycles: 883304285 heartbeat IPC: 0.537384 cumulative IPC: 0.617109 (Simulation time: 0 hr 28 min 26 sec) 
Finished CPU 0 instructions: 500000002 cycles: 810229746 cumulative IPC: 0.617109 (Simulation time: 0 hr 28 min 26 sec) 

CPU 0 Branch Prediction Accuracy: 99.5931% MPKI: 0.08288
Number of Branches: 10184133 Number of Mispredictions: 41440
Number of LOAD Instructions: 261155957
Number of LOAD Instructions (ROI): 261155957
Number of STORE Instructions: 57884062
Number of STORE Instructions (ROI): 57884062
Total Destination Memory Operands: 83293336
Total Destination Memory Operands (ROI): 83293336
Total Source Memory Operands: 261155957
Total Source Memory Operands (ROI): 261155957
Number of DEPENDED LOADS: 22255468
Number of DEPENDED LOADS (ROI): 22255468
Number of SQ_ADDED: 83293300
Number of SQ_ADDED (ROI): 83293300
Number of LQ_ADDED: 1763650913
Number of LQ_ADDED (ROI): 1763650913
Number of Instructions read from trace: 600000257

ChampSim completed all CPUs

Region of Interest Statistics

CPU 0 cumulative IPC: 0.617109 instructions: 500000002 cycles: 810229746
ITLB TOTAL     ACCESS:   94653735  HIT:   94653697  MISS:         38
ITLB LOAD      ACCESS:   94653735  HIT:   94653697  MISS:         38
ITLB RFO       ACCESS:          0  HIT:          0  MISS:          0
ITLB PREFETCH  ACCESS:          0  HIT:          0  MISS:          0
ITLB WRITEBACK ACCESS:          0  HIT:          0  MISS:          0
ITLB PREFETCH  REQUESTED:          0  ISSUED:          0  USEFUL:          0  USELESS:          0
ITLB TOTAL MSHR MERGED:         93
ITLB LOAD MSHR MERGED:         93
ITLB RFO MSHR MERGED:          0
ITLB PREFETCH MSHR MERGED:          0
ITLB WRITEBACK MSHR MERGED:          0
ITLB TOTAL ACCESSES:   94653828 HITS:   94653697 MISSES:        131
ITLB LOAD ACCESSES:   94653828 HITS:   94653697 MISSES:        131
ITLB RFO ACCESSES:          0 HITS:          0 MISSES:          0
ITLB PREFETCH ACCESSES:          0 HITS:          0 MISSES:          0
ITLB WRITEBACK ACCESSES:          0 HITS:          0 MISSES:          0
ITLB RQ ACCESS:  500000001
ITLB RQ TO_CACHE:   94653829
ITLB RQ MERGED:  405346172
ITLB RQ FORWARD:          0
ITLB WQ ACCESS:          0
ITLB WQ TO_CACHE:          0
ITLB WQ MERGED:          0
ITLB WQ FORWARD:          0
DTLB TOTAL     ACCESS:  149175488  HIT:  148578526  MISS:     596962
DTLB LOAD      ACCESS:  107301163  HIT:  106704212  MISS:     596951
DTLB RFO       ACCESS:   41874325  HIT:   41874314  MISS:         11
DTLB PREFETCH  ACCESS:          0  HIT:          0  MISS:          0
DTLB WRITEBACK ACCESS:          0  HIT:          0  MISS:          0
DTLB PREFETCH  REQUESTED:          0  ISSUED:          0  USEFUL:          0  USELESS:          0
DTLB TOTAL MSHR MERGED:     134142
DTLB LOAD MSHR MERGED:     134142
DTLB RFO MSHR MERGED:          0
DTLB PREFETCH MSHR MERGED:          0
DTLB WRITEBACK MSHR MERGED:          0
DTLB TOTAL ACCESSES:  149309630 HITS:  148578526 MISSES:     731104
DTLB LOAD ACCESSES:  107435305 HITS:  106704212 MISSES:     731093
DTLB RFO ACCESSES:   41874325 HITS:   41874314 MISSES:         11
DTLB PREFETCH ACCESSES:          0 HITS:          0 MISSES:          0
DTLB WRITEBACK ACCESSES:          0 HITS:          0 MISSES:          0
DTLB RQ ACCESS:  259760426
DTLB RQ TO_CACHE:  149309630
DTLB RQ MERGED:  110450796
DTLB RQ FORWARD:          0
DTLB WQ ACCESS:          0
DTLB WQ TO_CACHE:          0
DTLB WQ MERGED:          0
DTLB WQ FORWARD:          0
L1D TOTAL     ACCESS:  261013140  HIT:  245611500  MISS:   15401640
L1D LOAD      ACCESS:  118073007  HIT:  112570431  MISS:    5502576
L1D RFO       ACCESS:   68946731  HIT:   68932326  MISS:      14405
L1D PREFETCH  ACCESS:   73993402  HIT:   64108743  MISS:    9884659
L1D WRITEBACK ACCESS:          0  HIT:          0  MISS:          0
L1D PREFETCH  REQUESTED:  120659101  ISSUED:  119099000  USEFUL:    8010027  USELESS:    1874654
L1D TOTAL MSHR MERGED:   16533931
L1D LOAD MSHR MERGED:    4999454
L1D RFO MSHR MERGED:      21849
L1D PREFETCH MSHR MERGED:   11512628
L1D WRITEBACK MSHR MERGED:          0
L1D TOTAL ACCESSES:  277657223 HITS:  245721652 MISSES:   31935571
L1D LOAD ACCESSES:  120666620 HITS:  112577950 MISSES:    8088670
L1D RFO ACCESSES:   68968579 HITS:   68932326 MISSES:      36253
L1D PREFETCH ACCESSES:   88022024 HITS:   64211376 MISSES:   23810648
L1D WRITEBACK ACCESSES:          0 HITS:          0 MISSES:          0
L1D RQ ACCESS:  190686110
L1D RQ TO_CACHE:  120659101
L1D RQ MERGED:   70019490
L1D RQ FORWARD:          0
L1D WQ ACCESS:   69074336
L1D WQ TO_CACHE:   68968581
L1D WQ MERGED:     105755
L1D WQ FORWARD:     110152
L1I TOTAL     ACCESS:  121568033  HIT:  121566960  MISS:       1073
L1I LOAD      ACCESS:  121568033  HIT:  121566960  MISS:       1073
L1I RFO       ACCESS:          0  HIT:          0  MISS:          0
L1I PREFETCH  ACCESS:          0  HIT:          0  MISS:          0
L1I WRITEBACK ACCESS:          0  HIT:          0  MISS:          0
L1I PREFETCH  REQUESTED:          0  ISSUED:          0  USEFUL:          0  USELESS:          0
L1I TOTAL MSHR MERGED:       1098
L1I LOAD MSHR MERGED:       1098
L1I RFO MSHR MERGED:          0
L1I PREFETCH MSHR MERGED:          0
L1I WRITEBACK MSHR MERGED:          0
L1I TOTAL ACCESSES:  121569131 HITS:  121566960 MISSES:       2171
L1I LOAD ACCESSES:  121569131 HITS:  121566960 MISSES:       2171
L1I RFO ACCESSES:          0 HITS:          0 MISSES:          0
L1I PREFETCH ACCESSES:          0 HITS:          0 MISSES:          0
L1I WRITEBACK ACCESSES:          0 HITS:          0 MISSES:          0
L1I RQ ACCESS:  500000000
L1I RQ TO_CACHE:  121569131
L1I RQ MERGED:  378430869
L1I RQ FORWARD:          0
L1I WQ ACCESS:          0
L1I WQ TO_CACHE:          0
L1I WQ MERGED:          0
L1I WQ FORWARD:          0
L2C TOTAL     ACCESS:   22474188  HIT:    9151757  MISS:   13322431
L2C LOAD      ACCESS:    3090260  HIT:     416454  MISS:    2673806
L2C RFO       ACCESS:      14404  HIT:      13991  MISS:        413
L2C PREFETCH  ACCESS:   12739576  HIT:    2093154  MISS:   10646422
L2C WRITEBACK ACCESS:    6629948  HIT:    6628158  MISS:       1790
L2C PREFETCH  REQUESTED:     694090  ISSUED:     694090  USEFUL:     186253  USELESS:   10460970
L2C TOTAL MSHR MERGED:      71500
L2C LOAD MSHR MERGED:      22491
L2C RFO MSHR MERGED:          0
L2C PREFETCH MSHR MERGED:      49009
L2C WRITEBACK MSHR MERGED:          0
L2C TOTAL ACCESSES:   22687011 HITS:    9151799 MISSES:   13535212
L2C LOAD ACCESSES:    3090289 HITS:     416483 MISSES:    2673806
L2C RFO ACCESSES:      14404 HITS:      13991 MISSES:        413
L2C PREFETCH ACCESSES:   12952370 HITS:    2093167 MISSES:   10859203
L2C WRITEBACK ACCESSES:    6629948 HITS:    6628158 MISSES:       1790
L2C RQ ACCESS:    3104693
L2C RQ TO_CACHE:    3104664
L2C RQ MERGED:          0
L2C RQ FORWARD:          0
L2C WQ ACCESS:    6629948
L2C WQ TO_CACHE:    6629948
L2C WQ MERGED:          0
L2C WQ FORWARD:         42
LLC TOTAL     ACCESS:   20030360  HIT:    1948836  MISS:   18081524
LLC LOAD      ACCESS:    2651314  HIT:     427002  MISS:    2224312
LLC RFO       ACCESS:        413  HIT:         16  MISS:        397
LLC PREFETCH  ACCESS:   10787405  HIT:     113426  MISS:   10673979
LLC WRITEBACK ACCESS:    6591228  HIT:    1408392  MISS:    5182836
LLC PREFETCH  REQUESTED:          0  ISSUED:          0  USEFUL:      46281  USELESS:   10628712
LLC TOTAL MSHR MERGED:      21389
LLC LOAD MSHR MERGED:       9943
LLC RFO MSHR MERGED:          0
LLC PREFETCH MSHR MERGED:      11446
LLC WRITEBACK MSHR MERGED:          0
LLC TOTAL ACCESSES:   20051752 HITS:    1948838 MISSES:   18102914
LLC LOAD ACCESSES:    2651315 HITS:     427003 MISSES:    2224312
LLC RFO ACCESSES:        413 HITS:         16 MISSES:        397
LLC PREFETCH ACCESSES:   10808796 HITS:     113427 MISSES:   10695369
LLC WRITEBACK ACCESSES:    6591228 HITS:    1408392 MISSES:    5182836
LLC 0 RQ ACCESS:    2651728
LLC 0 RQ TO_CACHE:    2651727
LLC 0 RQ MERGED:          0
LLC 0 RQ FORWARD:          0
LLC WQ ACCESS:    6591229
LLC WQ TO_CACHE:    6591229
LLC WQ MERGED:          0
LLC WQ FORWARD:          2
Major fault: 0 Minor fault: 183991
CPU 0 L1D next line prefetcher final stats
CPU 0 L2C PC-based stride prefetcher final stats
All Misses: 20940494
All Hits: 2020912
SD Algo Stats - Switches: 0 SRR-Repls: 2274512 BRR-Repls: 0

DRAM Statistics
 CHANNEL 0
 RQ ROW_BUFFER_HIT:    7164861  ROW_BUFFER_MISS:    5733828
 DBUS_CONGESTED:   11224497
 WQ ROW_BUFFER_HIT:     927152  ROW_BUFFER_MISS:    5656890  FULL:          0

 AVG_CONGESTED_CYCLE: 13
LOADS RETIRED: 204440772
INSTR RETIRED: 500000000
