
*** ChampSim Multicore Out-of-Order Simulator ***

Warmup Instructions: 100000000
Simulation Instructions: 500000000
Number of CPUs: 1
LLC sets: 2048
LLC ways: 16
Clean RRIP Policies: 1213031012130310 Dirty RRIP Policies: 2213130022131300 PSEL Width: 10 Track Set: 4294967295 PSEL Mask: 1 Demote Mask: 3040201030402010DS Algo: 0Window size: 0
Off-chip DRAM Size: 4096 MB Channels: 1 Width: 64-bit Data Rate: 1600 MT/s

CPU 0 runs /mnt/beegfs/iconst01/spec2017/Wrf.trace.gz
NOT SORTED
TRACE STRING: /mnt/beegfs/iconst01/spec2017/Wrf.trace.gz
SORTED
TRACE STRING: /mnt/beegfs/iconst01/spec2017/Wrf.trace.gz
INITIAL
TRACE STRING: /mnt/beegfs/iconst01/spec2017/Wrf.trace.gz

champsim_seed used: 303

CPU 0 L1D next line prefetcher
CPU 0 L2C IP-based stride prefetcher
Initialize DRRIP state
Assign rand_sets[0]: 454  LLC: 2048
rand_sets[0]: 454
Assign rand_sets[1]: 1662  LLC: 2048
rand_sets[1]: 1662
Assign rand_sets[2]: 1921  LLC: 2048
rand_sets[2]: 1921
Assign rand_sets[3]: 1131  LLC: 2048
rand_sets[3]: 1131
Assign rand_sets[4]: 331  LLC: 2048
rand_sets[4]: 331
Assign rand_sets[5]: 1531  LLC: 2048
rand_sets[5]: 1531
Assign rand_sets[6]: 482  LLC: 2048
rand_sets[6]: 482
Assign rand_sets[7]: 1275  LLC: 2048
rand_sets[7]: 1275
Assign rand_sets[8]: 1876  LLC: 2048
rand_sets[8]: 1876
Assign rand_sets[9]: 2038  LLC: 2048
rand_sets[9]: 2038
Assign rand_sets[10]: 701  LLC: 2048
rand_sets[10]: 701
Assign rand_sets[11]: 479  LLC: 2048
rand_sets[11]: 479
Assign rand_sets[12]: 892  LLC: 2048
rand_sets[12]: 892
Assign rand_sets[13]: 1820  LLC: 2048
rand_sets[13]: 1820
Assign rand_sets[14]: 1505  LLC: 2048
rand_sets[14]: 1505
Assign rand_sets[15]: 1159  LLC: 2048
rand_sets[15]: 1159
Assign rand_sets[16]: 513  LLC: 2048
rand_sets[16]: 513
Assign rand_sets[17]: 703  LLC: 2048
rand_sets[17]: 703
Assign rand_sets[18]: 561  LLC: 2048
rand_sets[18]: 561
Assign rand_sets[19]: 990  LLC: 2048
rand_sets[19]: 990
Assign rand_sets[20]: 342  LLC: 2048
rand_sets[20]: 342
Assign rand_sets[21]: 882  LLC: 2048
rand_sets[21]: 882
Assign rand_sets[22]: 15  LLC: 2048
rand_sets[22]: 15
Assign rand_sets[23]: 71  LLC: 2048
rand_sets[23]: 71
Assign rand_sets[24]: 1127  LLC: 2048
rand_sets[24]: 1127
Assign rand_sets[25]: 1382  LLC: 2048
rand_sets[25]: 1382
Assign rand_sets[26]: 647  LLC: 2048
rand_sets[26]: 647
Assign rand_sets[27]: 857  LLC: 2048
rand_sets[27]: 857
Assign rand_sets[28]: 1450  LLC: 2048
rand_sets[28]: 1450
Assign rand_sets[29]: 1160  LLC: 2048
rand_sets[29]: 1160
Assign rand_sets[30]: 1852  LLC: 2048
rand_sets[30]: 1852
Assign rand_sets[31]: 1881  LLC: 2048
rand_sets[31]: 1881
Assign rand_sets[32]: 1770  LLC: 2048
rand_sets[32]: 1770
Assign rand_sets[33]: 1622  LLC: 2048
rand_sets[33]: 1622
Assign rand_sets[34]: 275  LLC: 2048
rand_sets[34]: 275
Assign rand_sets[35]: 635  LLC: 2048
rand_sets[35]: 635
Assign rand_sets[36]: 466  LLC: 2048
rand_sets[36]: 466
Assign rand_sets[37]: 1413  LLC: 2048
rand_sets[37]: 1413
Assign rand_sets[38]: 417  LLC: 2048
rand_sets[38]: 417
Assign rand_sets[39]: 472  LLC: 2048
rand_sets[39]: 472
Assign rand_sets[40]: 1340  LLC: 2048
rand_sets[40]: 1340
Assign rand_sets[41]: 852  LLC: 2048
rand_sets[41]: 852
Assign rand_sets[42]: 1365  LLC: 2048
rand_sets[42]: 1365
Assign rand_sets[43]: 47  LLC: 2048
rand_sets[43]: 47
Assign rand_sets[44]: 823  LLC: 2048
rand_sets[44]: 823
Assign rand_sets[45]: 686  LLC: 2048
rand_sets[45]: 686
Assign rand_sets[46]: 1637  LLC: 2048
rand_sets[46]: 1637
Assign rand_sets[47]: 1115  LLC: 2048
rand_sets[47]: 1115
Assign rand_sets[48]: 986  LLC: 2048
rand_sets[48]: 986
Assign rand_sets[49]: 258  LLC: 2048
rand_sets[49]: 258
Assign rand_sets[50]: 633  LLC: 2048
rand_sets[50]: 633
Assign rand_sets[51]: 920  LLC: 2048
rand_sets[51]: 920
Assign rand_sets[52]: 204  LLC: 2048
rand_sets[52]: 204
Assign rand_sets[53]: 227  LLC: 2048
rand_sets[53]: 227
Assign rand_sets[54]: 1818  LLC: 2048
rand_sets[54]: 1818
Assign rand_sets[55]: 886  LLC: 2048
rand_sets[55]: 886
Assign rand_sets[56]: 1422  LLC: 2048
rand_sets[56]: 1422
Assign rand_sets[57]: 607  LLC: 2048
rand_sets[57]: 607
Assign rand_sets[58]: 217  LLC: 2048
rand_sets[58]: 217
Assign rand_sets[59]: 1945  LLC: 2048
rand_sets[59]: 1945
Assign rand_sets[60]: 143  LLC: 2048
rand_sets[60]: 143
Assign rand_sets[61]: 1311  LLC: 2048
rand_sets[61]: 1311
Assign rand_sets[62]: 319  LLC: 2048
rand_sets[62]: 319
Assign rand_sets[63]: 1846  LLC: 2048
rand_sets[63]: 1846
 CLEAN-RRIP-POLICY-1: 1-2-1-3-0-3-1-0- CLEAN-RRIP-POLICY-2: 1-2-1-3-0-3-1-0-
 DIRTY-RRIP-POLICY-1: 2-2-1-3-1-3-0-0- DIRTY-RRIP-POLICY-2: 2-2-1-3-1-3-0-0-
 PSEL width: 10
Heartbeat CPU 0 instructions: 10000002 cycles: 6559549 heartbeat IPC: 1.5245 cumulative IPC: 1.5245 (Simulation time: 0 hr 0 min 22 sec) 
Heartbeat CPU 0 instructions: 20000000 cycles: 12222143 heartbeat IPC: 1.76597 cumulative IPC: 1.63637 (Simulation time: 0 hr 0 min 43 sec) 
Heartbeat CPU 0 instructions: 30000003 cycles: 18203922 heartbeat IPC: 1.67174 cumulative IPC: 1.648 (Simulation time: 0 hr 1 min 4 sec) 
Heartbeat CPU 0 instructions: 40000000 cycles: 24059281 heartbeat IPC: 1.70784 cumulative IPC: 1.66256 (Simulation time: 0 hr 1 min 25 sec) 
Heartbeat CPU 0 instructions: 50000000 cycles: 29527601 heartbeat IPC: 1.82872 cumulative IPC: 1.69333 (Simulation time: 0 hr 1 min 45 sec) 
Heartbeat CPU 0 instructions: 60000000 cycles: 35640395 heartbeat IPC: 1.63591 cumulative IPC: 1.68348 (Simulation time: 0 hr 2 min 7 sec) 
Heartbeat CPU 0 instructions: 70000000 cycles: 41360080 heartbeat IPC: 1.74835 cumulative IPC: 1.69245 (Simulation time: 0 hr 2 min 28 sec) 
Heartbeat CPU 0 instructions: 80000000 cycles: 47230979 heartbeat IPC: 1.70332 cumulative IPC: 1.6938 (Simulation time: 0 hr 2 min 49 sec) 
Heartbeat CPU 0 instructions: 90000000 cycles: 52984487 heartbeat IPC: 1.73807 cumulative IPC: 1.69861 (Simulation time: 0 hr 3 min 10 sec) 
Heartbeat CPU 0 instructions: 100000000 cycles: 58537498 heartbeat IPC: 1.80082 cumulative IPC: 1.70831 (Simulation time: 0 hr 3 min 31 sec) 

Warmup complete CPU 0 instructions: 100000004 cycles: 58537500 (Simulation time: 0 hr 3 min 31 sec) 

Heartbeat CPU 0 instructions: 110000001 cycles: 72431507 heartbeat IPC: 0.719735 cumulative IPC: 0.719735 (Simulation time: 0 hr 3 min 57 sec) 
Heartbeat CPU 0 instructions: 120000000 cycles: 83242584 heartbeat IPC: 0.924977 cumulative IPC: 0.80955 (Simulation time: 0 hr 4 min 22 sec) 
Heartbeat CPU 0 instructions: 130000000 cycles: 93010594 heartbeat IPC: 1.02375 cumulative IPC: 0.870244 (Simulation time: 0 hr 4 min 45 sec) 
Heartbeat CPU 0 instructions: 140000000 cycles: 103613540 heartbeat IPC: 0.943134 cumulative IPC: 0.887389 (Simulation time: 0 hr 5 min 9 sec) 
Heartbeat CPU 0 instructions: 150000002 cycles: 114562769 heartbeat IPC: 0.913306 cumulative IPC: 0.892454 (Simulation time: 0 hr 5 min 33 sec) 
Heartbeat CPU 0 instructions: 160000000 cycles: 123450140 heartbeat IPC: 1.12519 cumulative IPC: 0.924319 (Simulation time: 0 hr 5 min 56 sec) 
Heartbeat CPU 0 instructions: 170000003 cycles: 133851329 heartbeat IPC: 0.961429 cumulative IPC: 0.929444 (Simulation time: 0 hr 6 min 19 sec) 
Heartbeat CPU 0 instructions: 180000000 cycles: 146406876 heartbeat IPC: 0.796461 cumulative IPC: 0.910442 (Simulation time: 0 hr 6 min 44 sec) 
Heartbeat CPU 0 instructions: 190000000 cycles: 161475787 heartbeat IPC: 0.663618 cumulative IPC: 0.87431 (Simulation time: 0 hr 7 min 9 sec) 
Heartbeat CPU 0 instructions: 200000000 cycles: 176506594 heartbeat IPC: 0.6653 cumulative IPC: 0.84768 (Simulation time: 0 hr 7 min 34 sec) 
Heartbeat CPU 0 instructions: 210000000 cycles: 191543854 heartbeat IPC: 0.665015 cumulative IPC: 0.827028 (Simulation time: 0 hr 7 min 59 sec) 
Heartbeat CPU 0 instructions: 220000000 cycles: 207505102 heartbeat IPC: 0.626517 cumulative IPC: 0.805544 (Simulation time: 0 hr 8 min 26 sec) 
Heartbeat CPU 0 instructions: 230000003 cycles: 225896554 heartbeat IPC: 0.543731 cumulative IPC: 0.776773 (Simulation time: 0 hr 8 min 55 sec) 
Heartbeat CPU 0 instructions: 240000000 cycles: 235038870 heartbeat IPC: 1.09381 cumulative IPC: 0.793195 (Simulation time: 0 hr 9 min 17 sec) 
Heartbeat CPU 0 instructions: 250000000 cycles: 243717216 heartbeat IPC: 1.15229 cumulative IPC: 0.810024 (Simulation time: 0 hr 9 min 39 sec) 
Heartbeat CPU 0 instructions: 260000000 cycles: 252785159 heartbeat IPC: 1.10279 cumulative IPC: 0.823691 (Simulation time: 0 hr 10 min 2 sec) 
Heartbeat CPU 0 instructions: 270000000 cycles: 262391663 heartbeat IPC: 1.04096 cumulative IPC: 0.833929 (Simulation time: 0 hr 10 min 25 sec) 
Heartbeat CPU 0 instructions: 280000000 cycles: 272215232 heartbeat IPC: 1.01796 cumulative IPC: 0.84239 (Simulation time: 0 hr 10 min 49 sec) 
Heartbeat CPU 0 instructions: 290000000 cycles: 282312698 heartbeat IPC: 0.990348 cumulative IPC: 0.849066 (Simulation time: 0 hr 11 min 15 sec) 
Heartbeat CPU 0 instructions: 300000000 cycles: 291103827 heartbeat IPC: 1.13751 cumulative IPC: 0.85997 (Simulation time: 0 hr 11 min 38 sec) 
Heartbeat CPU 0 instructions: 310000002 cycles: 305580832 heartbeat IPC: 0.690751 cumulative IPC: 0.850053 (Simulation time: 0 hr 12 min 5 sec) 
Heartbeat CPU 0 instructions: 320000000 cycles: 321727459 heartbeat IPC: 0.619324 cumulative IPC: 0.835898 (Simulation time: 0 hr 12 min 34 sec) 
Heartbeat CPU 0 instructions: 330000002 cycles: 332442135 heartbeat IPC: 0.9333 cumulative IPC: 0.839708 (Simulation time: 0 hr 12 min 58 sec) 
Heartbeat CPU 0 instructions: 340000000 cycles: 342859711 heartbeat IPC: 0.959916 cumulative IPC: 0.844113 (Simulation time: 0 hr 13 min 22 sec) 
Heartbeat CPU 0 instructions: 350000002 cycles: 355982425 heartbeat IPC: 0.762038 cumulative IPC: 0.840492 (Simulation time: 0 hr 13 min 49 sec) 
Heartbeat CPU 0 instructions: 360000000 cycles: 367125519 heartbeat IPC: 0.897417 cumulative IPC: 0.842547 (Simulation time: 0 hr 14 min 13 sec) 
Heartbeat CPU 0 instructions: 370000002 cycles: 377914226 heartbeat IPC: 0.926895 cumulative IPC: 0.845397 (Simulation time: 0 hr 14 min 37 sec) 
Heartbeat CPU 0 instructions: 380000000 cycles: 388436966 heartbeat IPC: 0.950323 cumulative IPC: 0.848743 (Simulation time: 0 hr 15 min 2 sec) 
Heartbeat CPU 0 instructions: 390000003 cycles: 405743032 heartbeat IPC: 0.577832 cumulative IPC: 0.83524 (Simulation time: 0 hr 15 min 31 sec) 
Heartbeat CPU 0 instructions: 400000000 cycles: 416468924 heartbeat IPC: 0.932323 cumulative IPC: 0.838149 (Simulation time: 0 hr 15 min 54 sec) 
Heartbeat CPU 0 instructions: 410000002 cycles: 426568765 heartbeat IPC: 0.990115 cumulative IPC: 0.84232 (Simulation time: 0 hr 16 min 16 sec) 
Heartbeat CPU 0 instructions: 420000000 cycles: 436348614 heartbeat IPC: 1.02251 cumulative IPC: 0.846984 (Simulation time: 0 hr 16 min 38 sec) 
Heartbeat CPU 0 instructions: 430000001 cycles: 446213674 heartbeat IPC: 1.01368 cumulative IPC: 0.851226 (Simulation time: 0 hr 17 min 0 sec) 
Heartbeat CPU 0 instructions: 440000000 cycles: 457658358 heartbeat IPC: 0.873768 cumulative IPC: 0.851872 (Simulation time: 0 hr 17 min 23 sec) 
Heartbeat CPU 0 instructions: 450000002 cycles: 472746771 heartbeat IPC: 0.66276 cumulative IPC: 0.844984 (Simulation time: 0 hr 17 min 47 sec) 
Heartbeat CPU 0 instructions: 460000000 cycles: 487790753 heartbeat IPC: 0.664717 cumulative IPC: 0.838666 (Simulation time: 0 hr 18 min 11 sec) 
Heartbeat CPU 0 instructions: 470000003 cycles: 502821422 heartbeat IPC: 0.665307 cumulative IPC: 0.832801 (Simulation time: 0 hr 18 min 34 sec) 
Heartbeat CPU 0 instructions: 480000000 cycles: 518731780 heartbeat IPC: 0.628521 cumulative IPC: 0.825738 (Simulation time: 0 hr 19 min 1 sec) 
Heartbeat CPU 0 instructions: 490000000 cycles: 537244013 heartbeat IPC: 0.540183 cumulative IPC: 0.814695 (Simulation time: 0 hr 19 min 29 sec) 
Heartbeat CPU 0 instructions: 500000000 cycles: 546340987 heartbeat IPC: 1.09927 cumulative IPC: 0.820002 (Simulation time: 0 hr 19 min 51 sec) 
Heartbeat CPU 0 instructions: 510000002 cycles: 555090514 heartbeat IPC: 1.14292 cumulative IPC: 0.825692 (Simulation time: 0 hr 20 min 12 sec) 
Heartbeat CPU 0 instructions: 520000000 cycles: 564142221 heartbeat IPC: 1.10476 cumulative IPC: 0.830688 (Simulation time: 0 hr 20 min 34 sec) 
Heartbeat CPU 0 instructions: 530000002 cycles: 573745383 heartbeat IPC: 1.04132 cumulative IPC: 0.834615 (Simulation time: 0 hr 20 min 56 sec) 
Heartbeat CPU 0 instructions: 540000000 cycles: 583508582 heartbeat IPC: 1.02425 cumulative IPC: 0.838141 (Simulation time: 0 hr 21 min 20 sec) 
Heartbeat CPU 0 instructions: 550000002 cycles: 593636559 heartbeat IPC: 0.987364 cumulative IPC: 0.840966 (Simulation time: 0 hr 21 min 44 sec) 
Heartbeat CPU 0 instructions: 560000000 cycles: 602419857 heartbeat IPC: 1.13852 cumulative IPC: 0.845771 (Simulation time: 0 hr 22 min 6 sec) 
Heartbeat CPU 0 instructions: 570000003 cycles: 616753900 heartbeat IPC: 0.69764 cumulative IPC: 0.841967 (Simulation time: 0 hr 22 min 33 sec) 
Heartbeat CPU 0 instructions: 580000000 cycles: 633028253 heartbeat IPC: 0.614464 cumulative IPC: 0.835523 (Simulation time: 0 hr 23 min 1 sec) 
Heartbeat CPU 0 instructions: 590000002 cycles: 643305120 heartbeat IPC: 0.973059 cumulative IPC: 0.83794 (Simulation time: 0 hr 23 min 25 sec) 
Heartbeat CPU 0 instructions: 600000000 cycles: 654156476 heartbeat IPC: 0.921544 cumulative IPC: 0.839463 (Simulation time: 0 hr 23 min 49 sec) 
Finished CPU 0 instructions: 500000000 cycles: 595618995 cumulative IPC: 0.839463 (Simulation time: 0 hr 23 min 49 sec) 

CPU 0 Branch Prediction Accuracy: 99.5219% MPKI: 0.251582
Number of Branches: 26312578 Number of Mispredictions: 125791
Number of LOAD Instructions: 235643083
Number of LOAD Instructions (ROI): 235643083
Number of STORE Instructions: 37593550
Number of STORE Instructions (ROI): 37593550
Total Destination Memory Operands: 40480968
Total Destination Memory Operands (ROI): 40480968
Total Source Memory Operands: 235643083
Total Source Memory Operands (ROI): 235643083
Number of DEPENDED LOADS: 6699729
Number of DEPENDED LOADS (ROI): 6699729
Number of SQ_ADDED: 40480950
Number of SQ_ADDED (ROI): 40480950
Number of LQ_ADDED: 388861175
Number of LQ_ADDED (ROI): 388861175
Number of Instructions read from trace: 600000259

ChampSim completed all CPUs

Region of Interest Statistics

CPU 0 cumulative IPC: 0.839463 instructions: 500000000 cycles: 595618995
ITLB TOTAL     ACCESS:  109326867  HIT:  109326354  MISS:        513
ITLB LOAD      ACCESS:  109326867  HIT:  109326354  MISS:        513
ITLB RFO       ACCESS:          0  HIT:          0  MISS:          0
ITLB PREFETCH  ACCESS:          0  HIT:          0  MISS:          0
ITLB WRITEBACK ACCESS:          0  HIT:          0  MISS:          0
ITLB PREFETCH  REQUESTED:          0  ISSUED:          0  USEFUL:          0  USELESS:          0
ITLB TOTAL MSHR MERGED:        973
ITLB LOAD MSHR MERGED:        973
ITLB RFO MSHR MERGED:          0
ITLB PREFETCH MSHR MERGED:          0
ITLB WRITEBACK MSHR MERGED:          0
ITLB TOTAL ACCESSES:  109327840 HITS:  109326354 MISSES:       1486
ITLB LOAD ACCESSES:  109327840 HITS:  109326354 MISSES:       1486
ITLB RFO ACCESSES:          0 HITS:          0 MISSES:          0
ITLB PREFETCH ACCESSES:          0 HITS:          0 MISSES:          0
ITLB WRITEBACK ACCESSES:          0 HITS:          0 MISSES:          0
ITLB RQ ACCESS:  500000003
ITLB RQ TO_CACHE:  109327840
ITLB RQ MERGED:  390672163
ITLB RQ FORWARD:          0
ITLB WQ ACCESS:          0
ITLB WQ TO_CACHE:          0
ITLB WQ MERGED:          0
ITLB WQ FORWARD:          0
DTLB TOTAL     ACCESS:  130442332  HIT:  130184668  MISS:     257664
DTLB LOAD      ACCESS:  109038468  HIT:  108817658  MISS:     220810
DTLB RFO       ACCESS:   21403864  HIT:   21367010  MISS:      36854
DTLB PREFETCH  ACCESS:          0  HIT:          0  MISS:          0
DTLB WRITEBACK ACCESS:          0  HIT:          0  MISS:          0
DTLB PREFETCH  REQUESTED:          0  ISSUED:          0  USEFUL:          0  USELESS:          0
DTLB TOTAL MSHR MERGED:     121908
DTLB LOAD MSHR MERGED:      83943
DTLB RFO MSHR MERGED:      37965
DTLB PREFETCH MSHR MERGED:          0
DTLB WRITEBACK MSHR MERGED:          0
DTLB TOTAL ACCESSES:  130564240 HITS:  130184668 MISSES:     379572
DTLB LOAD ACCESSES:  109122411 HITS:  108817658 MISSES:     304753
DTLB RFO ACCESSES:   21441829 HITS:   21367010 MISSES:      74819
DTLB PREFETCH ACCESSES:          0 HITS:          0 MISSES:          0
DTLB WRITEBACK ACCESSES:          0 HITS:          0 MISSES:          0
DTLB RQ ACCESS:  218634730
DTLB RQ TO_CACHE:  130564241
DTLB RQ MERGED:   88070489
DTLB RQ FORWARD:          0
DTLB WQ ACCESS:          0
DTLB WQ TO_CACHE:          0
DTLB WQ MERGED:          0
DTLB WQ FORWARD:          0
L1D TOTAL     ACCESS:  204692712  HIT:  193619450  MISS:   11073262
L1D LOAD      ACCESS:  106316152  HIT:  103161398  MISS:    3154754
L1D RFO       ACCESS:   26950681  HIT:   25200645  MISS:    1750036
L1D PREFETCH  ACCESS:   71425879  HIT:   65257407  MISS:    6168472
L1D WRITEBACK ACCESS:          0  HIT:          0  MISS:          0
L1D PREFETCH  REQUESTED:  108922085  ISSUED:  107261121  USEFUL:    5712399  USELESS:     456067
L1D TOTAL MSHR MERGED:   18232904
L1D LOAD MSHR MERGED:    4596236
L1D RFO MSHR MERGED:    6486980
L1D PREFETCH MSHR MERGED:    7149688
L1D WRITEBACK MSHR MERGED:          0
L1D TOTAL ACCESSES:  222986708 HITS:  193680542 MISSES:   29306166
L1D LOAD ACCESSES:  108947556 HITS:  103186869 MISSES:    5760687
L1D RFO ACCESSES:   33435582 HITS:   25200645 MISSES:    8234937
L1D PREFETCH ACCESSES:   80603570 HITS:   65293028 MISSES:   15310542
L1D WRITEBACK ACCESSES:          0 HITS:          0 MISSES:          0
L1D RQ ACCESS:  184991292
L1D RQ TO_CACHE:  108922085
L1D RQ MERGED:   76043736
L1D RQ FORWARD:          0
L1D WQ ACCESS:   33643426
L1D WQ TO_CACHE:   33435581
L1D WQ MERGED:     207845
L1D WQ FORWARD:      61092
L1I TOTAL     ACCESS:  134012587  HIT:  133988010  MISS:      24577
L1I LOAD      ACCESS:  134012587  HIT:  133988010  MISS:      24577
L1I RFO       ACCESS:          0  HIT:          0  MISS:          0
L1I PREFETCH  ACCESS:          0  HIT:          0  MISS:          0
L1I WRITEBACK ACCESS:          0  HIT:          0  MISS:          0
L1I PREFETCH  REQUESTED:          0  ISSUED:          0  USEFUL:          0  USELESS:          0
L1I TOTAL MSHR MERGED:      30380
L1I LOAD MSHR MERGED:      30380
L1I RFO MSHR MERGED:          0
L1I PREFETCH MSHR MERGED:          0
L1I WRITEBACK MSHR MERGED:          0
L1I TOTAL ACCESSES:  134042967 HITS:  133988010 MISSES:      54957
L1I LOAD ACCESSES:  134042967 HITS:  133988010 MISSES:      54957
L1I RFO ACCESSES:          0 HITS:          0 MISSES:          0
L1I PREFETCH ACCESSES:          0 HITS:          0 MISSES:          0
L1I WRITEBACK ACCESSES:          0 HITS:          0 MISSES:          0
L1I RQ ACCESS:  500000005
L1I RQ TO_CACHE:  134042967
L1I RQ MERGED:  365957038
L1I RQ FORWARD:          0
L1I WQ ACCESS:          0
L1I WQ TO_CACHE:          0
L1I WQ MERGED:          0
L1I WQ FORWARD:          0
L2C TOTAL     ACCESS:   14942733  HIT:    6945501  MISS:    7997232
L2C LOAD      ACCESS:    1188836  HIT:     299265  MISS:     889571
L2C RFO       ACCESS:    1747747  HIT:     369117  MISS:    1378630
L2C PREFETCH  ACCESS:    8324281  HIT:    2603952  MISS:    5720329
L2C WRITEBACK ACCESS:    3681869  HIT:    3673167  MISS:       8702
L2C PREFETCH  REQUESTED:     390261  ISSUED:     390249  USEFUL:     114432  USELESS:    5606731
L2C TOTAL MSHR MERGED:      41877
L2C LOAD MSHR MERGED:       2416
L2C RFO MSHR MERGED:       1287
L2C PREFETCH MSHR MERGED:      38174
L2C WRITEBACK MSHR MERGED:          0
L2C TOTAL ACCESSES:   15105990 HITS:    6946198 MISSES:    8159792
L2C LOAD ACCESSES:    1189028 HITS:     299457 MISSES:     889571
L2C RFO ACCESSES:    1747957 HITS:     369327 MISSES:    1378630
L2C PREFETCH ACCESSES:    8487136 HITS:    2604247 MISSES:    5882889
L2C WRITEBACK ACCESSES:    3681869 HITS:    3673167 MISSES:       8702
L2C RQ ACCESS:    2936985
L2C RQ TO_CACHE:    2936583
L2C RQ MERGED:          0
L2C RQ FORWARD:          0
L2C WQ ACCESS:    3681869
L2C WQ TO_CACHE:    3681869
L2C WQ MERGED:          0
L2C WQ FORWARD:        697
LLC TOTAL     ACCESS:   11184453  HIT:    3008697  MISS:    8175756
LLC LOAD      ACCESS:     887149  HIT:     321261  MISS:     565888
LLC RFO       ACCESS:    1377340  HIT:     220105  MISS:    1157235
LLC PREFETCH  ACCESS:    5815472  HIT:    1173780  MISS:    4641692
LLC WRITEBACK ACCESS:    3104492  HIT:    1293551  MISS:    1810941
LLC PREFETCH  REQUESTED:          0  ISSUED:          0  USEFUL:      33422  USELESS:    4607609
LLC TOTAL MSHR MERGED:      22097
LLC LOAD MSHR MERGED:       6729
LLC RFO MSHR MERGED:        580
LLC PREFETCH MSHR MERGED:      14788
LLC WRITEBACK MSHR MERGED:          0
LLC TOTAL ACCESSES:   11206570 HITS:    3008717 MISSES:    8197853
LLC LOAD ACCESSES:     887155 HITS:     321267 MISSES:     565888
LLC RFO ACCESSES:    1377343 HITS:     220108 MISSES:    1157235
LLC PREFETCH ACCESSES:    5837580 HITS:    1173791 MISSES:    4663789
LLC WRITEBACK ACCESSES:    3104492 HITS:    1293551 MISSES:    1810941
LLC 0 RQ ACCESS:    2264498
LLC 0 RQ TO_CACHE:    2264489
LLC 0 RQ MERGED:          0
LLC 0 RQ FORWARD:          0
LLC WQ ACCESS:    3104492
LLC WQ TO_CACHE:    3104492
LLC WQ MERGED:          0
LLC WQ FORWARD:         20
Major fault: 0 Minor fault: 11519
CPU 0 L1D next line prefetcher final stats
CPU 0 L2C PC-based stride prefetcher final stats
All Misses: 10293142
All Hits: 3502398
SD Algo Stats - Switches: 0 SRR-Repls: 637953 BRR-Repls: 0

DRAM Statistics
 CHANNEL 0
 RQ ROW_BUFFER_HIT:    3885712  ROW_BUFFER_MISS:    2478143
 DBUS_CONGESTED:    4400929
 WQ ROW_BUFFER_HIT:     394263  ROW_BUFFER_MISS:    1781951  FULL:         35

 AVG_CONGESTED_CYCLE: 13
LOADS RETIRED: 190375692
INSTR RETIRED: 500000000
