
*** ChampSim Multicore Out-of-Order Simulator ***

Warmup Instructions: 100000000
Simulation Instructions: 500000000
Number of CPUs: 1
LLC sets: 2048
LLC ways: 16
Clean RRIP Policies: 1213232212132322 Dirty RRIP Policies: 2203130222031302 PSEL Width: 10 Track Set: 4294967295 PSEL Mask: 1 Demote Mask: 3010100030101000DS Algo: 0Window size: 0
Off-chip DRAM Size: 4096 MB Channels: 1 Width: 64-bit Data Rate: 1600 MT/s

CPU 0 runs /mnt/beegfs/iconst01/spec2017/Roms.trace.gz
NOT SORTED
TRACE STRING: /mnt/beegfs/iconst01/spec2017/Roms.trace.gz
SORTED
TRACE STRING: /mnt/beegfs/iconst01/spec2017/Roms.trace.gz
INITIAL
TRACE STRING: /mnt/beegfs/iconst01/spec2017/Roms.trace.gz

champsim_seed used: 417

CPU 0 L1D next line prefetcher
CPU 0 L2C IP-based stride prefetcher
Initialize DRRIP state
Assign rand_sets[0]: 454  LLC: 2048
rand_sets[0]: 454
Assign rand_sets[1]: 1662  LLC: 2048
rand_sets[1]: 1662
Assign rand_sets[2]: 1921  LLC: 2048
rand_sets[2]: 1921
Assign rand_sets[3]: 1131  LLC: 2048
rand_sets[3]: 1131
Assign rand_sets[4]: 331  LLC: 2048
rand_sets[4]: 331
Assign rand_sets[5]: 1531  LLC: 2048
rand_sets[5]: 1531
Assign rand_sets[6]: 482  LLC: 2048
rand_sets[6]: 482
Assign rand_sets[7]: 1275  LLC: 2048
rand_sets[7]: 1275
Assign rand_sets[8]: 1876  LLC: 2048
rand_sets[8]: 1876
Assign rand_sets[9]: 2038  LLC: 2048
rand_sets[9]: 2038
Assign rand_sets[10]: 701  LLC: 2048
rand_sets[10]: 701
Assign rand_sets[11]: 479  LLC: 2048
rand_sets[11]: 479
Assign rand_sets[12]: 892  LLC: 2048
rand_sets[12]: 892
Assign rand_sets[13]: 1820  LLC: 2048
rand_sets[13]: 1820
Assign rand_sets[14]: 1505  LLC: 2048
rand_sets[14]: 1505
Assign rand_sets[15]: 1159  LLC: 2048
rand_sets[15]: 1159
Assign rand_sets[16]: 513  LLC: 2048
rand_sets[16]: 513
Assign rand_sets[17]: 703  LLC: 2048
rand_sets[17]: 703
Assign rand_sets[18]: 561  LLC: 2048
rand_sets[18]: 561
Assign rand_sets[19]: 990  LLC: 2048
rand_sets[19]: 990
Assign rand_sets[20]: 342  LLC: 2048
rand_sets[20]: 342
Assign rand_sets[21]: 882  LLC: 2048
rand_sets[21]: 882
Assign rand_sets[22]: 15  LLC: 2048
rand_sets[22]: 15
Assign rand_sets[23]: 71  LLC: 2048
rand_sets[23]: 71
Assign rand_sets[24]: 1127  LLC: 2048
rand_sets[24]: 1127
Assign rand_sets[25]: 1382  LLC: 2048
rand_sets[25]: 1382
Assign rand_sets[26]: 647  LLC: 2048
rand_sets[26]: 647
Assign rand_sets[27]: 857  LLC: 2048
rand_sets[27]: 857
Assign rand_sets[28]: 1450  LLC: 2048
rand_sets[28]: 1450
Assign rand_sets[29]: 1160  LLC: 2048
rand_sets[29]: 1160
Assign rand_sets[30]: 1852  LLC: 2048
rand_sets[30]: 1852
Assign rand_sets[31]: 1881  LLC: 2048
rand_sets[31]: 1881
Assign rand_sets[32]: 1770  LLC: 2048
rand_sets[32]: 1770
Assign rand_sets[33]: 1622  LLC: 2048
rand_sets[33]: 1622
Assign rand_sets[34]: 275  LLC: 2048
rand_sets[34]: 275
Assign rand_sets[35]: 635  LLC: 2048
rand_sets[35]: 635
Assign rand_sets[36]: 466  LLC: 2048
rand_sets[36]: 466
Assign rand_sets[37]: 1413  LLC: 2048
rand_sets[37]: 1413
Assign rand_sets[38]: 417  LLC: 2048
rand_sets[38]: 417
Assign rand_sets[39]: 472  LLC: 2048
rand_sets[39]: 472
Assign rand_sets[40]: 1340  LLC: 2048
rand_sets[40]: 1340
Assign rand_sets[41]: 852  LLC: 2048
rand_sets[41]: 852
Assign rand_sets[42]: 1365  LLC: 2048
rand_sets[42]: 1365
Assign rand_sets[43]: 47  LLC: 2048
rand_sets[43]: 47
Assign rand_sets[44]: 823  LLC: 2048
rand_sets[44]: 823
Assign rand_sets[45]: 686  LLC: 2048
rand_sets[45]: 686
Assign rand_sets[46]: 1637  LLC: 2048
rand_sets[46]: 1637
Assign rand_sets[47]: 1115  LLC: 2048
rand_sets[47]: 1115
Assign rand_sets[48]: 986  LLC: 2048
rand_sets[48]: 986
Assign rand_sets[49]: 258  LLC: 2048
rand_sets[49]: 258
Assign rand_sets[50]: 633  LLC: 2048
rand_sets[50]: 633
Assign rand_sets[51]: 920  LLC: 2048
rand_sets[51]: 920
Assign rand_sets[52]: 204  LLC: 2048
rand_sets[52]: 204
Assign rand_sets[53]: 227  LLC: 2048
rand_sets[53]: 227
Assign rand_sets[54]: 1818  LLC: 2048
rand_sets[54]: 1818
Assign rand_sets[55]: 886  LLC: 2048
rand_sets[55]: 886
Assign rand_sets[56]: 1422  LLC: 2048
rand_sets[56]: 1422
Assign rand_sets[57]: 607  LLC: 2048
rand_sets[57]: 607
Assign rand_sets[58]: 217  LLC: 2048
rand_sets[58]: 217
Assign rand_sets[59]: 1945  LLC: 2048
rand_sets[59]: 1945
Assign rand_sets[60]: 143  LLC: 2048
rand_sets[60]: 143
Assign rand_sets[61]: 1311  LLC: 2048
rand_sets[61]: 1311
Assign rand_sets[62]: 319  LLC: 2048
rand_sets[62]: 319
Assign rand_sets[63]: 1846  LLC: 2048
rand_sets[63]: 1846
 CLEAN-RRIP-POLICY-1: 1-2-1-3-2-3-2-2- CLEAN-RRIP-POLICY-2: 1-2-1-3-2-3-2-2-
 DIRTY-RRIP-POLICY-1: 2-2-0-3-1-3-0-2- DIRTY-RRIP-POLICY-2: 2-2-0-3-1-3-0-2-
 PSEL width: 10
Heartbeat CPU 0 instructions: 10000000 cycles: 4688066 heartbeat IPC: 2.13308 cumulative IPC: 2.13308 (Simulation time: 0 hr 0 min 17 sec) 
Heartbeat CPU 0 instructions: 20000000 cycles: 9325334 heartbeat IPC: 2.15644 cumulative IPC: 2.1447 (Simulation time: 0 hr 0 min 34 sec) 
Heartbeat CPU 0 instructions: 30000003 cycles: 14019724 heartbeat IPC: 2.1302 cumulative IPC: 2.13984 (Simulation time: 0 hr 0 min 51 sec) 
Heartbeat CPU 0 instructions: 40000000 cycles: 18670147 heartbeat IPC: 2.15034 cumulative IPC: 2.14246 (Simulation time: 0 hr 1 min 8 sec) 
Heartbeat CPU 0 instructions: 50000003 cycles: 23323527 heartbeat IPC: 2.14898 cumulative IPC: 2.14376 (Simulation time: 0 hr 1 min 25 sec) 
Heartbeat CPU 0 instructions: 60000000 cycles: 27976194 heartbeat IPC: 2.1493 cumulative IPC: 2.14468 (Simulation time: 0 hr 1 min 42 sec) 
Heartbeat CPU 0 instructions: 70000002 cycles: 32367398 heartbeat IPC: 2.27728 cumulative IPC: 2.16267 (Simulation time: 0 hr 1 min 56 sec) 
Heartbeat CPU 0 instructions: 80000000 cycles: 36304184 heartbeat IPC: 2.54014 cumulative IPC: 2.2036 (Simulation time: 0 hr 2 min 8 sec) 
Heartbeat CPU 0 instructions: 90000000 cycles: 40249426 heartbeat IPC: 2.5347 cumulative IPC: 2.23606 (Simulation time: 0 hr 2 min 20 sec) 
Heartbeat CPU 0 instructions: 100000000 cycles: 44211685 heartbeat IPC: 2.52381 cumulative IPC: 2.26185 (Simulation time: 0 hr 2 min 32 sec) 

Warmup complete CPU 0 instructions: 100000002 cycles: 44211686 (Simulation time: 0 hr 2 min 32 sec) 

Heartbeat CPU 0 instructions: 110000000 cycles: 52828916 heartbeat IPC: 1.16047 cumulative IPC: 1.16047 (Simulation time: 0 hr 2 min 51 sec) 
Heartbeat CPU 0 instructions: 120000000 cycles: 61483174 heartbeat IPC: 1.1555 cumulative IPC: 1.15798 (Simulation time: 0 hr 3 min 9 sec) 
Heartbeat CPU 0 instructions: 130000002 cycles: 70181770 heartbeat IPC: 1.14961 cumulative IPC: 1.15518 (Simulation time: 0 hr 3 min 28 sec) 
Heartbeat CPU 0 instructions: 140000000 cycles: 78749802 heartbeat IPC: 1.16713 cumulative IPC: 1.15814 (Simulation time: 0 hr 3 min 47 sec) 
Heartbeat CPU 0 instructions: 150000003 cycles: 87474860 heartbeat IPC: 1.14612 cumulative IPC: 1.15572 (Simulation time: 0 hr 4 min 5 sec) 
Heartbeat CPU 0 instructions: 160000000 cycles: 97744411 heartbeat IPC: 0.973752 cumulative IPC: 1.12081 (Simulation time: 0 hr 4 min 26 sec) 
Heartbeat CPU 0 instructions: 170000000 cycles: 110196471 heartbeat IPC: 0.80308 cumulative IPC: 1.06085 (Simulation time: 0 hr 4 min 50 sec) 
Heartbeat CPU 0 instructions: 180000000 cycles: 122664727 heartbeat IPC: 0.802037 cumulative IPC: 1.01972 (Simulation time: 0 hr 5 min 13 sec) 
Heartbeat CPU 0 instructions: 190000000 cycles: 135398898 heartbeat IPC: 0.785289 cumulative IPC: 0.98698 (Simulation time: 0 hr 5 min 37 sec) 
Heartbeat CPU 0 instructions: 200000000 cycles: 149274156 heartbeat IPC: 0.720707 cumulative IPC: 0.951815 (Simulation time: 0 hr 6 min 1 sec) 
Heartbeat CPU 0 instructions: 210000003 cycles: 163163129 heartbeat IPC: 0.719996 cumulative IPC: 0.924747 (Simulation time: 0 hr 6 min 24 sec) 
Heartbeat CPU 0 instructions: 220000000 cycles: 176877742 heartbeat IPC: 0.729149 cumulative IPC: 0.904527 (Simulation time: 0 hr 6 min 48 sec) 
Heartbeat CPU 0 instructions: 230000000 cycles: 190377458 heartbeat IPC: 0.740756 cumulative IPC: 0.889401 (Simulation time: 0 hr 7 min 13 sec) 
Heartbeat CPU 0 instructions: 240000000 cycles: 203972095 heartbeat IPC: 0.735584 cumulative IPC: 0.876312 (Simulation time: 0 hr 7 min 38 sec) 
Heartbeat CPU 0 instructions: 250000003 cycles: 215048327 heartbeat IPC: 0.902834 cumulative IPC: 0.878032 (Simulation time: 0 hr 8 min 0 sec) 
Heartbeat CPU 0 instructions: 260000000 cycles: 222910804 heartbeat IPC: 1.27186 cumulative IPC: 0.89536 (Simulation time: 0 hr 8 min 20 sec) 
Heartbeat CPU 0 instructions: 270000003 cycles: 231231696 heartbeat IPC: 1.20179 cumulative IPC: 0.908994 (Simulation time: 0 hr 8 min 40 sec) 
Heartbeat CPU 0 instructions: 280000000 cycles: 239691095 heartbeat IPC: 1.18212 cumulative IPC: 0.920813 (Simulation time: 0 hr 9 min 0 sec) 
Heartbeat CPU 0 instructions: 290000000 cycles: 248294542 heartbeat IPC: 1.16232 cumulative IPC: 0.930994 (Simulation time: 0 hr 9 min 21 sec) 
Heartbeat CPU 0 instructions: 300000000 cycles: 256910767 heartbeat IPC: 1.1606 cumulative IPC: 0.940296 (Simulation time: 0 hr 9 min 41 sec) 
Heartbeat CPU 0 instructions: 310000000 cycles: 265598020 heartbeat IPC: 1.15111 cumulative IPC: 0.948568 (Simulation time: 0 hr 10 min 2 sec) 
Heartbeat CPU 0 instructions: 320000000 cycles: 274340778 heartbeat IPC: 1.1438 cumulative IPC: 0.955985 (Simulation time: 0 hr 10 min 24 sec) 
Heartbeat CPU 0 instructions: 330000002 cycles: 283043452 heartbeat IPC: 1.14907 cumulative IPC: 0.963021 (Simulation time: 0 hr 10 min 45 sec) 
Heartbeat CPU 0 instructions: 340000000 cycles: 293040273 heartbeat IPC: 1.00032 cumulative IPC: 0.964519 (Simulation time: 0 hr 11 min 8 sec) 
Heartbeat CPU 0 instructions: 350000001 cycles: 301430504 heartbeat IPC: 1.19186 cumulative IPC: 0.971935 (Simulation time: 0 hr 11 min 28 sec) 
Heartbeat CPU 0 instructions: 360000000 cycles: 309838744 heartbeat IPC: 1.18931 cumulative IPC: 0.978816 (Simulation time: 0 hr 11 min 49 sec) 
Heartbeat CPU 0 instructions: 370000001 cycles: 318242971 heartbeat IPC: 1.18988 cumulative IPC: 0.985289 (Simulation time: 0 hr 12 min 9 sec) 
Heartbeat CPU 0 instructions: 380000000 cycles: 326623103 heartbeat IPC: 1.1933 cumulative IPC: 0.991461 (Simulation time: 0 hr 12 min 30 sec) 
Heartbeat CPU 0 instructions: 390000001 cycles: 334834808 heartbeat IPC: 1.21777 cumulative IPC: 0.997856 (Simulation time: 0 hr 12 min 50 sec) 
Heartbeat CPU 0 instructions: 400000000 cycles: 343115425 heartbeat IPC: 1.20764 cumulative IPC: 1.00367 (Simulation time: 0 hr 13 min 10 sec) 
Heartbeat CPU 0 instructions: 410000003 cycles: 351340501 heartbeat IPC: 1.21579 cumulative IPC: 1.00935 (Simulation time: 0 hr 13 min 30 sec) 
Heartbeat CPU 0 instructions: 420000000 cycles: 359652080 heartbeat IPC: 1.20314 cumulative IPC: 1.01445 (Simulation time: 0 hr 13 min 51 sec) 
Heartbeat CPU 0 instructions: 430000001 cycles: 367884895 heartbeat IPC: 1.21465 cumulative IPC: 1.01955 (Simulation time: 0 hr 14 min 11 sec) 
Heartbeat CPU 0 instructions: 440000000 cycles: 376066232 heartbeat IPC: 1.22229 cumulative IPC: 1.02455 (Simulation time: 0 hr 14 min 31 sec) 
Heartbeat CPU 0 instructions: 450000001 cycles: 385514657 heartbeat IPC: 1.05838 cumulative IPC: 1.02548 (Simulation time: 0 hr 14 min 53 sec) 
Heartbeat CPU 0 instructions: 460000000 cycles: 393737208 heartbeat IPC: 1.21617 cumulative IPC: 1.02997 (Simulation time: 0 hr 15 min 13 sec) 
Heartbeat CPU 0 instructions: 470000003 cycles: 401824579 heartbeat IPC: 1.2365 cumulative IPC: 1.03464 (Simulation time: 0 hr 15 min 33 sec) 
Heartbeat CPU 0 instructions: 480000000 cycles: 409946690 heartbeat IPC: 1.23121 cumulative IPC: 1.039 (Simulation time: 0 hr 15 min 54 sec) 
Heartbeat CPU 0 instructions: 490000000 cycles: 418055390 heartbeat IPC: 1.23324 cumulative IPC: 1.04322 (Simulation time: 0 hr 16 min 14 sec) 
Heartbeat CPU 0 instructions: 500000000 cycles: 426172876 heartbeat IPC: 1.23191 cumulative IPC: 1.04723 (Simulation time: 0 hr 16 min 34 sec) 
Heartbeat CPU 0 instructions: 510000001 cycles: 434252566 heartbeat IPC: 1.23767 cumulative IPC: 1.05117 (Simulation time: 0 hr 16 min 54 sec) 
Heartbeat CPU 0 instructions: 520000000 cycles: 442363094 heartbeat IPC: 1.23297 cumulative IPC: 1.05488 (Simulation time: 0 hr 17 min 14 sec) 
Heartbeat CPU 0 instructions: 530000001 cycles: 450485906 heartbeat IPC: 1.2311 cumulative IPC: 1.0584 (Simulation time: 0 hr 17 min 34 sec) 
Heartbeat CPU 0 instructions: 540000000 cycles: 458758585 heartbeat IPC: 1.2088 cumulative IPC: 1.0614 (Simulation time: 0 hr 17 min 54 sec) 
Heartbeat CPU 0 instructions: 550000000 cycles: 467092539 heartbeat IPC: 1.19991 cumulative IPC: 1.06413 (Simulation time: 0 hr 18 min 14 sec) 
Heartbeat CPU 0 instructions: 560000000 cycles: 475199203 heartbeat IPC: 1.23355 cumulative IPC: 1.06732 (Simulation time: 0 hr 18 min 34 sec) 
Heartbeat CPU 0 instructions: 570000001 cycles: 486318084 heartbeat IPC: 0.899371 cumulative IPC: 1.06309 (Simulation time: 0 hr 18 min 57 sec) 
Heartbeat CPU 0 instructions: 580000000 cycles: 497102133 heartbeat IPC: 0.927295 cumulative IPC: 1.05986 (Simulation time: 0 hr 19 min 18 sec) 
Heartbeat CPU 0 instructions: 590000001 cycles: 508153423 heartbeat IPC: 0.904872 cumulative IPC: 1.05617 (Simulation time: 0 hr 19 min 40 sec) 
Heartbeat CPU 0 instructions: 600000000 cycles: 518936316 heartbeat IPC: 0.927395 cumulative IPC: 1.05324 (Simulation time: 0 hr 20 min 2 sec) 
Finished CPU 0 instructions: 500000001 cycles: 474724643 cumulative IPC: 1.05324 (Simulation time: 0 hr 20 min 2 sec) 

CPU 0 Branch Prediction Accuracy: 99.7422% MPKI: 0.173296
Number of Branches: 33608403 Number of Mispredictions: 86648
Number of LOAD Instructions: 180215231
Number of LOAD Instructions (ROI): 180215231
Number of STORE Instructions: 36067263
Number of STORE Instructions (ROI): 36067263
Total Destination Memory Operands: 38428915
Total Destination Memory Operands (ROI): 38428915
Total Source Memory Operands: 180215231
Total Source Memory Operands (ROI): 180215231
Number of DEPENDED LOADS: 3041450
Number of DEPENDED LOADS (ROI): 3041450
Number of SQ_ADDED: 38428892
Number of SQ_ADDED (ROI): 38428892
Number of LQ_ADDED: 207627033
Number of LQ_ADDED (ROI): 207627033
Number of Instructions read from trace: 600000257

ChampSim completed all CPUs

Region of Interest Statistics

CPU 0 cumulative IPC: 1.05324 instructions: 500000001 cycles: 474724643
ITLB TOTAL     ACCESS:   91783849  HIT:   91783830  MISS:         19
ITLB LOAD      ACCESS:   91783849  HIT:   91783830  MISS:         19
ITLB RFO       ACCESS:          0  HIT:          0  MISS:          0
ITLB PREFETCH  ACCESS:          0  HIT:          0  MISS:          0
ITLB WRITEBACK ACCESS:          0  HIT:          0  MISS:          0
ITLB PREFETCH  REQUESTED:          0  ISSUED:          0  USEFUL:          0  USELESS:          0
ITLB TOTAL MSHR MERGED:         40
ITLB LOAD MSHR MERGED:         40
ITLB RFO MSHR MERGED:          0
ITLB PREFETCH MSHR MERGED:          0
ITLB WRITEBACK MSHR MERGED:          0
ITLB TOTAL ACCESSES:   91783889 HITS:   91783830 MISSES:         59
ITLB LOAD ACCESSES:   91783889 HITS:   91783830 MISSES:         59
ITLB RFO ACCESSES:          0 HITS:          0 MISSES:          0
ITLB PREFETCH ACCESSES:          0 HITS:          0 MISSES:          0
ITLB WRITEBACK ACCESSES:          0 HITS:          0 MISSES:          0
ITLB RQ ACCESS:  500000003
ITLB RQ TO_CACHE:   91783889
ITLB RQ MERGED:  408216114
ITLB RQ FORWARD:          0
ITLB WQ ACCESS:          0
ITLB WQ TO_CACHE:          0
ITLB WQ MERGED:          0
ITLB WQ FORWARD:          0
DTLB TOTAL     ACCESS:  142059049  HIT:  141692587  MISS:     366462
DTLB LOAD      ACCESS:  119415927  HIT:  119102341  MISS:     313586
DTLB RFO       ACCESS:   22643122  HIT:   22590246  MISS:      52876
DTLB PREFETCH  ACCESS:          0  HIT:          0  MISS:          0
DTLB WRITEBACK ACCESS:          0  HIT:          0  MISS:          0
DTLB PREFETCH  REQUESTED:          0  ISSUED:          0  USEFUL:          0  USELESS:          0
DTLB TOTAL MSHR MERGED:     287999
DTLB LOAD MSHR MERGED:     240039
DTLB RFO MSHR MERGED:      47960
DTLB PREFETCH MSHR MERGED:          0
DTLB WRITEBACK MSHR MERGED:          0
DTLB TOTAL ACCESSES:  142347048 HITS:  141692587 MISSES:     654461
DTLB LOAD ACCESSES:  119655966 HITS:  119102341 MISSES:     553625
DTLB RFO ACCESSES:   22691082 HITS:   22590246 MISSES:     100836
DTLB PREFETCH ACCESSES:          0 HITS:          0 MISSES:          0
DTLB WRITEBACK ACCESSES:          0 HITS:          0 MISSES:          0
DTLB RQ ACCESS:  184791527
DTLB RQ TO_CACHE:  142347048
DTLB RQ MERGED:   42444479
DTLB RQ FORWARD:          0
DTLB WQ ACCESS:          0
DTLB WQ TO_CACHE:          0
DTLB WQ MERGED:          0
DTLB WQ FORWARD:          0
L1D TOTAL     ACCESS:  190327756  HIT:  176876010  MISS:   13451746
L1D LOAD      ACCESS:  111978863  HIT:  108743026  MISS:    3235837
L1D RFO       ACCESS:   19043428  HIT:   16261687  MISS:    2781741
L1D PREFETCH  ACCESS:   59305465  HIT:   51871297  MISS:    7434168
L1D WRITEBACK ACCESS:          0  HIT:          0  MISS:          0
L1D PREFETCH  REQUESTED:  116513857  ISSUED:  115153731  USEFUL:    7224411  USELESS:     209758
L1D TOTAL MSHR MERGED:   31329387
L1D LOAD MSHR MERGED:    7214093
L1D RFO MSHR MERGED:    9209354
L1D PREFETCH MSHR MERGED:   14905940
L1D WRITEBACK MSHR MERGED:          0
L1D TOTAL ACCESSES:  221657531 HITS:  176876396 MISSES:   44781135
L1D LOAD ACCESSES:  116513879 HITS:  108743048 MISSES:    7770831
L1D RFO ACCESSES:   28252736 HITS:   16261687 MISSES:   11991049
L1D PREFETCH ACCESSES:   76890916 HITS:   51871661 MISSES:   25019255
L1D WRITEBACK ACCESSES:          0 HITS:          0 MISSES:          0
L1D RQ ACCESS:  156535461
L1D RQ TO_CACHE:  116513860
L1D RQ MERGED:   40021579
L1D RQ FORWARD:          0
L1D WQ ACCESS:   28256066
L1D WQ TO_CACHE:   28252736
L1D WQ MERGED:       3330
L1D WQ FORWARD:        386
L1I TOTAL     ACCESS:  115778957  HIT:  115778009  MISS:        948
L1I LOAD      ACCESS:  115778957  HIT:  115778009  MISS:        948
L1I RFO       ACCESS:          0  HIT:          0  MISS:          0
L1I PREFETCH  ACCESS:          0  HIT:          0  MISS:          0
L1I WRITEBACK ACCESS:          0  HIT:          0  MISS:          0
L1I PREFETCH  REQUESTED:          0  ISSUED:          0  USEFUL:          0  USELESS:          0
L1I TOTAL MSHR MERGED:       1558
L1I LOAD MSHR MERGED:       1558
L1I RFO MSHR MERGED:          0
L1I PREFETCH MSHR MERGED:          0
L1I WRITEBACK MSHR MERGED:          0
L1I TOTAL ACCESSES:  115780515 HITS:  115778009 MISSES:       2506
L1I LOAD ACCESSES:  115780515 HITS:  115778009 MISSES:       2506
L1I RFO ACCESSES:          0 HITS:          0 MISSES:          0
L1I PREFETCH ACCESSES:          0 HITS:          0 MISSES:          0
L1I WRITEBACK ACCESSES:          0 HITS:          0 MISSES:          0
L1I RQ ACCESS:  500000007
L1I RQ TO_CACHE:  115780515
L1I RQ MERGED:  384219492
L1I RQ FORWARD:          0
L1I WQ ACCESS:          0
L1I WQ TO_CACHE:          0
L1I WQ MERGED:          0
L1I WQ FORWARD:          0
L2C TOTAL     ACCESS:   16697672  HIT:    4852783  MISS:   11844889
L2C LOAD      ACCESS:     557655  HIT:      95576  MISS:     462079
L2C RFO       ACCESS:    2781695  HIT:     266612  MISS:    2515083
L2C PREFETCH  ACCESS:   10137670  HIT:    1272230  MISS:    8865440
L2C WRITEBACK ACCESS:    3220652  HIT:    3218365  MISS:       2287
L2C PREFETCH  REQUESTED:      26317  ISSUED:      26317  USEFUL:      93101  USELESS:    8770414
L2C TOTAL MSHR MERGED:        482
L2C LOAD MSHR MERGED:          4
L2C RFO MSHR MERGED:          0
L2C PREFETCH MSHR MERGED:        478
L2C WRITEBACK MSHR MERGED:          0
L2C TOTAL ACCESSES:   16698262 HITS:    4852833 MISSES:   11845429
L2C LOAD ACCESSES:     557686 HITS:      95607 MISSES:     462079
L2C RFO ACCESSES:    2781695 HITS:     266612 MISSES:    2515083
L2C PREFETCH ACCESSES:   10138229 HITS:    1272249 MISSES:    8865980
L2C WRITEBACK ACCESSES:    3220652 HITS:    3218365 MISSES:       2287
L2C RQ ACCESS:    3339381
L2C RQ TO_CACHE:    3339350
L2C RQ MERGED:          0
L2C RQ FORWARD:          0
L2C WQ ACCESS:    3220652
L2C WQ TO_CACHE:    3220652
L2C WQ MERGED:          0
L2C WQ FORWARD:         50
LLC TOTAL     ACCESS:   14743016  HIT:    7654563  MISS:    7088453
LLC LOAD      ACCESS:     462071  HIT:     224196  MISS:     237875
LLC RFO       ACCESS:    2515058  HIT:    1901394  MISS:     613664
LLC PREFETCH  ACCESS:    8865450  HIT:    3310028  MISS:    5555422
LLC WRITEBACK ACCESS:    2900437  HIT:    2218945  MISS:     681492
LLC PREFETCH  REQUESTED:          0  ISSUED:          0  USEFUL:       3610  USELESS:    5556857
LLC TOTAL MSHR MERGED:          1
LLC LOAD MSHR MERGED:          0
LLC RFO MSHR MERGED:          0
LLC PREFETCH MSHR MERGED:          1
LLC WRITEBACK MSHR MERGED:          0
LLC TOTAL ACCESSES:   14743095 HITS:    7654639 MISSES:    7088456
LLC LOAD ACCESSES:     462075 HITS:     224200 MISSES:     237875
LLC RFO ACCESSES:    2515083 HITS:    1901419 MISSES:     613664
LLC PREFETCH ACCESSES:    8865500 HITS:    3310075 MISSES:    5555425
LLC WRITEBACK ACCESSES:    2900437 HITS:    2218945 MISSES:     681492
LLC 0 RQ ACCESS:    2977158
LLC 0 RQ TO_CACHE:    2977129
LLC 0 RQ MERGED:          0
LLC 0 RQ FORWARD:          0
LLC WQ ACCESS:    2900437
LLC WQ TO_CACHE:    2900437
LLC WQ MERGED:          0
LLC WQ FORWARD:         76
Major fault: 0 Minor fault: 57518
CPU 0 L1D next line prefetcher final stats
CPU 0 L2C PC-based stride prefetcher final stats
All Misses: 7687572
All Hits: 8551625
SD Algo Stats - Switches: 0 SRR-Repls: 244359 BRR-Repls: 0

DRAM Statistics
 CHANNEL 0
 RQ ROW_BUFFER_HIT:    3667020  ROW_BUFFER_MISS:    2736689
 DBUS_CONGESTED:    2888416
 WQ ROW_BUFFER_HIT:      83888  ROW_BUFFER_MISS:     791923  FULL:          0

 AVG_CONGESTED_CYCLE: 12
LOADS RETIRED: 157818985
INSTR RETIRED: 500000000
