
*** ChampSim Multicore Out-of-Order Simulator ***

Warmup Instructions: 100000000
Simulation Instructions: 500000000
Number of CPUs: 1
LLC sets: 2048
LLC ways: 16
Clean RRIP Policies: 1213232212132322 Dirty RRIP Policies: 2203130222031302 PSEL Width: 10 Track Set: 4294967295 PSEL Mask: 1 Demote Mask: 3010100030101000DS Algo: 0Window size: 0
Off-chip DRAM Size: 4096 MB Channels: 1 Width: 64-bit Data Rate: 1600 MT/s

CPU 0 runs /mnt/beegfs/iconst01/spec2017/Xz.trace.gz
NOT SORTED
TRACE STRING: /mnt/beegfs/iconst01/spec2017/Xz.trace.gz
SORTED
TRACE STRING: /mnt/beegfs/iconst01/spec2017/Xz.trace.gz
INITIAL
TRACE STRING: /mnt/beegfs/iconst01/spec2017/Xz.trace.gz

champsim_seed used: 210

CPU 0 L1D next line prefetcher
CPU 0 L2C IP-based stride prefetcher
Initialize DRRIP state
Assign rand_sets[0]: 454  LLC: 2048
rand_sets[0]: 454
Assign rand_sets[1]: 1662  LLC: 2048
rand_sets[1]: 1662
Assign rand_sets[2]: 1921  LLC: 2048
rand_sets[2]: 1921
Assign rand_sets[3]: 1131  LLC: 2048
rand_sets[3]: 1131
Assign rand_sets[4]: 331  LLC: 2048
rand_sets[4]: 331
Assign rand_sets[5]: 1531  LLC: 2048
rand_sets[5]: 1531
Assign rand_sets[6]: 482  LLC: 2048
rand_sets[6]: 482
Assign rand_sets[7]: 1275  LLC: 2048
rand_sets[7]: 1275
Assign rand_sets[8]: 1876  LLC: 2048
rand_sets[8]: 1876
Assign rand_sets[9]: 2038  LLC: 2048
rand_sets[9]: 2038
Assign rand_sets[10]: 701  LLC: 2048
rand_sets[10]: 701
Assign rand_sets[11]: 479  LLC: 2048
rand_sets[11]: 479
Assign rand_sets[12]: 892  LLC: 2048
rand_sets[12]: 892
Assign rand_sets[13]: 1820  LLC: 2048
rand_sets[13]: 1820
Assign rand_sets[14]: 1505  LLC: 2048
rand_sets[14]: 1505
Assign rand_sets[15]: 1159  LLC: 2048
rand_sets[15]: 1159
Assign rand_sets[16]: 513  LLC: 2048
rand_sets[16]: 513
Assign rand_sets[17]: 703  LLC: 2048
rand_sets[17]: 703
Assign rand_sets[18]: 561  LLC: 2048
rand_sets[18]: 561
Assign rand_sets[19]: 990  LLC: 2048
rand_sets[19]: 990
Assign rand_sets[20]: 342  LLC: 2048
rand_sets[20]: 342
Assign rand_sets[21]: 882  LLC: 2048
rand_sets[21]: 882
Assign rand_sets[22]: 15  LLC: 2048
rand_sets[22]: 15
Assign rand_sets[23]: 71  LLC: 2048
rand_sets[23]: 71
Assign rand_sets[24]: 1127  LLC: 2048
rand_sets[24]: 1127
Assign rand_sets[25]: 1382  LLC: 2048
rand_sets[25]: 1382
Assign rand_sets[26]: 647  LLC: 2048
rand_sets[26]: 647
Assign rand_sets[27]: 857  LLC: 2048
rand_sets[27]: 857
Assign rand_sets[28]: 1450  LLC: 2048
rand_sets[28]: 1450
Assign rand_sets[29]: 1160  LLC: 2048
rand_sets[29]: 1160
Assign rand_sets[30]: 1852  LLC: 2048
rand_sets[30]: 1852
Assign rand_sets[31]: 1881  LLC: 2048
rand_sets[31]: 1881
Assign rand_sets[32]: 1770  LLC: 2048
rand_sets[32]: 1770
Assign rand_sets[33]: 1622  LLC: 2048
rand_sets[33]: 1622
Assign rand_sets[34]: 275  LLC: 2048
rand_sets[34]: 275
Assign rand_sets[35]: 635  LLC: 2048
rand_sets[35]: 635
Assign rand_sets[36]: 466  LLC: 2048
rand_sets[36]: 466
Assign rand_sets[37]: 1413  LLC: 2048
rand_sets[37]: 1413
Assign rand_sets[38]: 417  LLC: 2048
rand_sets[38]: 417
Assign rand_sets[39]: 472  LLC: 2048
rand_sets[39]: 472
Assign rand_sets[40]: 1340  LLC: 2048
rand_sets[40]: 1340
Assign rand_sets[41]: 852  LLC: 2048
rand_sets[41]: 852
Assign rand_sets[42]: 1365  LLC: 2048
rand_sets[42]: 1365
Assign rand_sets[43]: 47  LLC: 2048
rand_sets[43]: 47
Assign rand_sets[44]: 823  LLC: 2048
rand_sets[44]: 823
Assign rand_sets[45]: 686  LLC: 2048
rand_sets[45]: 686
Assign rand_sets[46]: 1637  LLC: 2048
rand_sets[46]: 1637
Assign rand_sets[47]: 1115  LLC: 2048
rand_sets[47]: 1115
Assign rand_sets[48]: 986  LLC: 2048
rand_sets[48]: 986
Assign rand_sets[49]: 258  LLC: 2048
rand_sets[49]: 258
Assign rand_sets[50]: 633  LLC: 2048
rand_sets[50]: 633
Assign rand_sets[51]: 920  LLC: 2048
rand_sets[51]: 920
Assign rand_sets[52]: 204  LLC: 2048
rand_sets[52]: 204
Assign rand_sets[53]: 227  LLC: 2048
rand_sets[53]: 227
Assign rand_sets[54]: 1818  LLC: 2048
rand_sets[54]: 1818
Assign rand_sets[55]: 886  LLC: 2048
rand_sets[55]: 886
Assign rand_sets[56]: 1422  LLC: 2048
rand_sets[56]: 1422
Assign rand_sets[57]: 607  LLC: 2048
rand_sets[57]: 607
Assign rand_sets[58]: 217  LLC: 2048
rand_sets[58]: 217
Assign rand_sets[59]: 1945  LLC: 2048
rand_sets[59]: 1945
Assign rand_sets[60]: 143  LLC: 2048
rand_sets[60]: 143
Assign rand_sets[61]: 1311  LLC: 2048
rand_sets[61]: 1311
Assign rand_sets[62]: 319  LLC: 2048
rand_sets[62]: 319
Assign rand_sets[63]: 1846  LLC: 2048
rand_sets[63]: 1846
 CLEAN-RRIP-POLICY-1: 1-2-1-3-2-3-2-2- CLEAN-RRIP-POLICY-2: 1-2-1-3-2-3-2-2-
 DIRTY-RRIP-POLICY-1: 2-2-0-3-1-3-0-2- DIRTY-RRIP-POLICY-2: 2-2-0-3-1-3-0-2-
 PSEL width: 10
Heartbeat CPU 0 instructions: 10000000 cycles: 4305270 heartbeat IPC: 2.32273 cumulative IPC: 2.32273 (Simulation time: 0 hr 0 min 11 sec) 
Heartbeat CPU 0 instructions: 20000000 cycles: 8617102 heartbeat IPC: 2.3192 cumulative IPC: 2.32097 (Simulation time: 0 hr 0 min 23 sec) 
Heartbeat CPU 0 instructions: 30000003 cycles: 13160991 heartbeat IPC: 2.20076 cumulative IPC: 2.27946 (Simulation time: 0 hr 0 min 36 sec) 
Heartbeat CPU 0 instructions: 40000000 cycles: 17515489 heartbeat IPC: 2.29648 cumulative IPC: 2.28369 (Simulation time: 0 hr 0 min 48 sec) 
Heartbeat CPU 0 instructions: 50000001 cycles: 21878349 heartbeat IPC: 2.29207 cumulative IPC: 2.28536 (Simulation time: 0 hr 0 min 59 sec) 
Heartbeat CPU 0 instructions: 60000000 cycles: 26178596 heartbeat IPC: 2.32545 cumulative IPC: 2.29195 (Simulation time: 0 hr 1 min 11 sec) 
Heartbeat CPU 0 instructions: 70000001 cycles: 30244509 heartbeat IPC: 2.45947 cumulative IPC: 2.31447 (Simulation time: 0 hr 1 min 22 sec) 
Heartbeat CPU 0 instructions: 80000000 cycles: 34523309 heartbeat IPC: 2.3371 cumulative IPC: 2.31728 (Simulation time: 0 hr 1 min 33 sec) 
Heartbeat CPU 0 instructions: 90000001 cycles: 38739970 heartbeat IPC: 2.37154 cumulative IPC: 2.32318 (Simulation time: 0 hr 1 min 44 sec) 
Heartbeat CPU 0 instructions: 100000000 cycles: 42980407 heartbeat IPC: 2.35825 cumulative IPC: 2.32664 (Simulation time: 0 hr 1 min 56 sec) 

Warmup complete CPU 0 instructions: 100000001 cycles: 42980408 (Simulation time: 0 hr 1 min 56 sec) 

Heartbeat CPU 0 instructions: 110000000 cycles: 53132822 heartbeat IPC: 0.984987 cumulative IPC: 0.984987 (Simulation time: 0 hr 2 min 13 sec) 
Heartbeat CPU 0 instructions: 120000000 cycles: 63792029 heartbeat IPC: 0.938156 cumulative IPC: 0.961002 (Simulation time: 0 hr 2 min 30 sec) 
Heartbeat CPU 0 instructions: 130000001 cycles: 74419759 heartbeat IPC: 0.940935 cumulative IPC: 0.954218 (Simulation time: 0 hr 2 min 48 sec) 
Heartbeat CPU 0 instructions: 140000000 cycles: 84120250 heartbeat IPC: 1.03088 cumulative IPC: 0.972293 (Simulation time: 0 hr 3 min 4 sec) 
Heartbeat CPU 0 instructions: 150000001 cycles: 94457957 heartbeat IPC: 0.967333 cumulative IPC: 0.971297 (Simulation time: 0 hr 3 min 22 sec) 
Heartbeat CPU 0 instructions: 160000000 cycles: 104530451 heartbeat IPC: 0.992803 cumulative IPC: 0.974817 (Simulation time: 0 hr 3 min 39 sec) 
Heartbeat CPU 0 instructions: 170000000 cycles: 114221948 heartbeat IPC: 1.03183 cumulative IPC: 0.982573 (Simulation time: 0 hr 3 min 56 sec) 
Heartbeat CPU 0 instructions: 180000000 cycles: 124795720 heartbeat IPC: 0.945736 cumulative IPC: 0.977812 (Simulation time: 0 hr 4 min 13 sec) 
Heartbeat CPU 0 instructions: 190000001 cycles: 135086291 heartbeat IPC: 0.971763 cumulative IPC: 0.977136 (Simulation time: 0 hr 4 min 30 sec) 
Heartbeat CPU 0 instructions: 200000000 cycles: 145678643 heartbeat IPC: 0.944077 cumulative IPC: 0.973727 (Simulation time: 0 hr 4 min 47 sec) 
Heartbeat CPU 0 instructions: 210000002 cycles: 158172466 heartbeat IPC: 0.800396 cumulative IPC: 0.954927 (Simulation time: 0 hr 5 min 6 sec) 
Heartbeat CPU 0 instructions: 220000000 cycles: 170737386 heartbeat IPC: 0.795866 cumulative IPC: 0.939283 (Simulation time: 0 hr 5 min 25 sec) 
Heartbeat CPU 0 instructions: 230000000 cycles: 182943309 heartbeat IPC: 0.819274 cumulative IPC: 0.928818 (Simulation time: 0 hr 5 min 43 sec) 
Heartbeat CPU 0 instructions: 240000000 cycles: 195109484 heartbeat IPC: 0.821951 cumulative IPC: 0.920271 (Simulation time: 0 hr 6 min 1 sec) 
Heartbeat CPU 0 instructions: 250000000 cycles: 207115278 heartbeat IPC: 0.832931 cumulative IPC: 0.913883 (Simulation time: 0 hr 6 min 20 sec) 
Heartbeat CPU 0 instructions: 260000000 cycles: 218717703 heartbeat IPC: 0.861889 cumulative IPC: 0.91045 (Simulation time: 0 hr 6 min 38 sec) 
Heartbeat CPU 0 instructions: 270000003 cycles: 230632501 heartbeat IPC: 0.839293 cumulative IPC: 0.905932 (Simulation time: 0 hr 6 min 56 sec) 
Heartbeat CPU 0 instructions: 280000000 cycles: 242213950 heartbeat IPC: 0.86345 cumulative IPC: 0.903462 (Simulation time: 0 hr 7 min 14 sec) 
Heartbeat CPU 0 instructions: 290000002 cycles: 253777051 heartbeat IPC: 0.86482 cumulative IPC: 0.901343 (Simulation time: 0 hr 7 min 32 sec) 
Heartbeat CPU 0 instructions: 300000000 cycles: 266292288 heartbeat IPC: 0.799026 cumulative IPC: 0.895608 (Simulation time: 0 hr 7 min 51 sec) 
Heartbeat CPU 0 instructions: 310000000 cycles: 278515699 heartbeat IPC: 0.818102 cumulative IPC: 0.891586 (Simulation time: 0 hr 8 min 9 sec) 
Heartbeat CPU 0 instructions: 320000000 cycles: 291228949 heartbeat IPC: 0.786581 cumulative IPC: 0.886209 (Simulation time: 0 hr 8 min 28 sec) 
Heartbeat CPU 0 instructions: 330000003 cycles: 303233591 heartbeat IPC: 0.833011 cumulative IPC: 0.883755 (Simulation time: 0 hr 8 min 46 sec) 
Heartbeat CPU 0 instructions: 340000000 cycles: 315390332 heartbeat IPC: 0.822589 cumulative IPC: 0.881025 (Simulation time: 0 hr 9 min 5 sec) 
Heartbeat CPU 0 instructions: 350000001 cycles: 326411450 heartbeat IPC: 0.907349 cumulative IPC: 0.882049 (Simulation time: 0 hr 9 min 22 sec) 
Heartbeat CPU 0 instructions: 360000000 cycles: 338252086 heartbeat IPC: 0.844549 cumulative IPC: 0.880545 (Simulation time: 0 hr 9 min 41 sec) 
Heartbeat CPU 0 instructions: 370000001 cycles: 349692193 heartbeat IPC: 0.874118 cumulative IPC: 0.880305 (Simulation time: 0 hr 9 min 59 sec) 
Heartbeat CPU 0 instructions: 380000000 cycles: 360719342 heartbeat IPC: 0.906853 cumulative IPC: 0.881227 (Simulation time: 0 hr 10 min 16 sec) 
Heartbeat CPU 0 instructions: 390000003 cycles: 371379497 heartbeat IPC: 0.938073 cumulative IPC: 0.883072 (Simulation time: 0 hr 10 min 34 sec) 
Heartbeat CPU 0 instructions: 400000000 cycles: 381626161 heartbeat IPC: 0.975927 cumulative IPC: 0.885881 (Simulation time: 0 hr 10 min 52 sec) 
Heartbeat CPU 0 instructions: 410000000 cycles: 392165316 heartbeat IPC: 0.948843 cumulative IPC: 0.887782 (Simulation time: 0 hr 11 min 9 sec) 
Heartbeat CPU 0 instructions: 420000000 cycles: 401563165 heartbeat IPC: 1.06407 cumulative IPC: 0.892402 (Simulation time: 0 hr 11 min 26 sec) 
Heartbeat CPU 0 instructions: 430000002 cycles: 410654458 heartbeat IPC: 1.09995 cumulative IPC: 0.897534 (Simulation time: 0 hr 11 min 43 sec) 
Heartbeat CPU 0 instructions: 440000000 cycles: 420943017 heartbeat IPC: 0.971953 cumulative IPC: 0.89956 (Simulation time: 0 hr 12 min 1 sec) 
Heartbeat CPU 0 instructions: 450000002 cycles: 432049372 heartbeat IPC: 0.900386 cumulative IPC: 0.899583 (Simulation time: 0 hr 12 min 19 sec) 
Heartbeat CPU 0 instructions: 460000000 cycles: 443623387 heartbeat IPC: 0.864004 cumulative IPC: 0.898556 (Simulation time: 0 hr 12 min 36 sec) 
Heartbeat CPU 0 instructions: 470000003 cycles: 453839410 heartbeat IPC: 0.978855 cumulative IPC: 0.900552 (Simulation time: 0 hr 12 min 54 sec) 
Heartbeat CPU 0 instructions: 480000000 cycles: 464402534 heartbeat IPC: 0.946689 cumulative IPC: 0.901709 (Simulation time: 0 hr 13 min 11 sec) 
Heartbeat CPU 0 instructions: 490000000 cycles: 474375286 heartbeat IPC: 1.00273 cumulative IPC: 0.904044 (Simulation time: 0 hr 13 min 29 sec) 
Heartbeat CPU 0 instructions: 500000000 cycles: 486189966 heartbeat IPC: 0.846405 cumulative IPC: 0.902508 (Simulation time: 0 hr 13 min 47 sec) 
Heartbeat CPU 0 instructions: 510000002 cycles: 498622934 heartbeat IPC: 0.804313 cumulative IPC: 0.899828 (Simulation time: 0 hr 14 min 5 sec) 
Heartbeat CPU 0 instructions: 520000000 cycles: 510507709 heartbeat IPC: 0.841412 cumulative IPC: 0.898343 (Simulation time: 0 hr 14 min 23 sec) 
Heartbeat CPU 0 instructions: 530000001 cycles: 522367584 heartbeat IPC: 0.843179 cumulative IPC: 0.896978 (Simulation time: 0 hr 14 min 41 sec) 
Heartbeat CPU 0 instructions: 540000000 cycles: 534004626 heartbeat IPC: 0.859325 cumulative IPC: 0.896086 (Simulation time: 0 hr 14 min 59 sec) 
Heartbeat CPU 0 instructions: 550000001 cycles: 545425805 heartbeat IPC: 0.875566 cumulative IPC: 0.89562 (Simulation time: 0 hr 15 min 17 sec) 
Heartbeat CPU 0 instructions: 560000000 cycles: 557020397 heartbeat IPC: 0.862471 cumulative IPC: 0.894872 (Simulation time: 0 hr 15 min 35 sec) 
Heartbeat CPU 0 instructions: 570000000 cycles: 568450239 heartbeat IPC: 0.874903 cumulative IPC: 0.894438 (Simulation time: 0 hr 15 min 53 sec) 
Heartbeat CPU 0 instructions: 580000000 cycles: 579225684 heartbeat IPC: 0.928036 cumulative IPC: 0.895113 (Simulation time: 0 hr 16 min 10 sec) 
Heartbeat CPU 0 instructions: 590000003 cycles: 590662438 heartbeat IPC: 0.874374 cumulative IPC: 0.89468 (Simulation time: 0 hr 16 min 28 sec) 
Heartbeat CPU 0 instructions: 600000000 cycles: 601266635 heartbeat IPC: 0.943023 cumulative IPC: 0.895598 (Simulation time: 0 hr 16 min 45 sec) 
Finished CPU 0 instructions: 500000001 cycles: 558286235 cumulative IPC: 0.895598 (Simulation time: 0 hr 16 min 45 sec) 

CPU 0 Branch Prediction Accuracy: 93.0095% MPKI: 10.0046
Number of Branches: 71558147 Number of Mispredictions: 5002285
Number of LOAD Instructions: 145708893
Number of LOAD Instructions (ROI): 145708893
Number of STORE Instructions: 40463820
Number of STORE Instructions (ROI): 40463820
Total Destination Memory Operands: 45240498
Total Destination Memory Operands (ROI): 45240498
Total Source Memory Operands: 145708893
Total Source Memory Operands (ROI): 145708893
Number of DEPENDED LOADS: 10667930
Number of DEPENDED LOADS (ROI): 10667930
Number of SQ_ADDED: 45240498
Number of SQ_ADDED (ROI): 45240498
Number of LQ_ADDED: 193329596
Number of LQ_ADDED (ROI): 193329596
Number of Instructions read from trace: 600000002

ChampSim completed all CPUs

Region of Interest Statistics

CPU 0 cumulative IPC: 0.895598 instructions: 500000001 cycles: 558286235
ITLB TOTAL     ACCESS:   77991717  HIT:   77991716  MISS:          1
ITLB LOAD      ACCESS:   77991717  HIT:   77991716  MISS:          1
ITLB RFO       ACCESS:          0  HIT:          0  MISS:          0
ITLB PREFETCH  ACCESS:          0  HIT:          0  MISS:          0
ITLB WRITEBACK ACCESS:          0  HIT:          0  MISS:          0
ITLB PREFETCH  REQUESTED:          0  ISSUED:          0  USEFUL:          0  USELESS:          0
ITLB TOTAL MSHR MERGED:          0
ITLB LOAD MSHR MERGED:          0
ITLB RFO MSHR MERGED:          0
ITLB PREFETCH MSHR MERGED:          0
ITLB WRITEBACK MSHR MERGED:          0
ITLB TOTAL ACCESSES:   77991717 HITS:   77991716 MISSES:          1
ITLB LOAD ACCESSES:   77991717 HITS:   77991716 MISSES:          1
ITLB RFO ACCESSES:          0 HITS:          0 MISSES:          0
ITLB PREFETCH ACCESSES:          0 HITS:          0 MISSES:          0
ITLB WRITEBACK ACCESSES:          0 HITS:          0 MISSES:          0
ITLB RQ ACCESS:  499999995
ITLB RQ TO_CACHE:   77991717
ITLB RQ MERGED:  422008278
ITLB RQ FORWARD:          0
ITLB WQ ACCESS:          0
ITLB WQ TO_CACHE:          0
ITLB WQ MERGED:          0
ITLB WQ FORWARD:          0
DTLB TOTAL     ACCESS:   98672627  HIT:   97791291  MISS:     881336
DTLB LOAD      ACCESS:   70893163  HIT:   70031630  MISS:     861533
DTLB RFO       ACCESS:   27779464  HIT:   27759661  MISS:      19803
DTLB PREFETCH  ACCESS:          0  HIT:          0  MISS:          0
DTLB WRITEBACK ACCESS:          0  HIT:          0  MISS:          0
DTLB PREFETCH  REQUESTED:          0  ISSUED:          0  USEFUL:          0  USELESS:          0
DTLB TOTAL MSHR MERGED:      87386
DTLB LOAD MSHR MERGED:      65637
DTLB RFO MSHR MERGED:      21749
DTLB PREFETCH MSHR MERGED:          0
DTLB WRITEBACK MSHR MERGED:          0
DTLB TOTAL ACCESSES:   98760013 HITS:   97791291 MISSES:     968722
DTLB LOAD ACCESSES:   70958800 HITS:   70031630 MISSES:     927170
DTLB RFO ACCESSES:   27801213 HITS:   27759661 MISSES:      41552
DTLB PREFETCH ACCESSES:          0 HITS:          0 MISSES:          0
DTLB WRITEBACK ACCESSES:          0 HITS:          0 MISSES:          0
DTLB RQ ACCESS:  150277125
DTLB RQ TO_CACHE:   98760013
DTLB RQ MERGED:   51517112
DTLB RQ FORWARD:          0
DTLB WQ ACCESS:          0
DTLB WQ TO_CACHE:          0
DTLB WQ MERGED:          0
DTLB WQ FORWARD:          0
L1D TOTAL     ACCESS:  173337604  HIT:  169168973  MISS:    4168631
L1D LOAD      ACCESS:   75285947  HIT:   73404562  MISS:    1881385
L1D RFO       ACCESS:   36778448  HIT:   36571835  MISS:     206613
L1D PREFETCH  ACCESS:   61273209  HIT:   59192576  MISS:    2080633
L1D WRITEBACK ACCESS:          0  HIT:          0  MISS:          0
L1D PREFETCH  REQUESTED:   75390125  ISSUED:   74825936  USEFUL:     415073  USELESS:    1665549
L1D TOTAL MSHR MERGED:     375451
L1D LOAD MSHR MERGED:     113008
L1D RFO MSHR MERGED:     132933
L1D PREFETCH MSHR MERGED:     129510
L1D WRITEBACK MSHR MERGED:          0
L1D TOTAL ACCESSES:  173864526 HITS:  169320444 MISSES:    4544082
L1D LOAD ACCESSES:   75392922 HITS:   73407359 MISSES:    1985563
L1D RFO ACCESSES:   36909983 HITS:   36571835 MISSES:     338148
L1D PREFETCH ACCESSES:   61561621 HITS:   59341250 MISSES:    2220371
L1D WRITEBACK ACCESSES:          0 HITS:          0 MISSES:          0
L1D RQ ACCESS:  112614722
L1D RQ TO_CACHE:   75390125
L1D RQ MERGED:   37221800
L1D RQ FORWARD:          0
L1D WQ ACCESS:   37662403
L1D WQ TO_CACHE:   36909983
L1D WQ MERGED:     752420
L1D WQ FORWARD:     151471
L1I TOTAL     ACCESS:  100699819  HIT:  100699794  MISS:         25
L1I LOAD      ACCESS:  100699819  HIT:  100699794  MISS:         25
L1I RFO       ACCESS:          0  HIT:          0  MISS:          0
L1I PREFETCH  ACCESS:          0  HIT:          0  MISS:          0
L1I WRITEBACK ACCESS:          0  HIT:          0  MISS:          0
L1I PREFETCH  REQUESTED:          0  ISSUED:          0  USEFUL:          0  USELESS:          0
L1I TOTAL MSHR MERGED:         10
L1I LOAD MSHR MERGED:         10
L1I RFO MSHR MERGED:          0
L1I PREFETCH MSHR MERGED:          0
L1I WRITEBACK MSHR MERGED:          0
L1I TOTAL ACCESSES:  100699829 HITS:  100699794 MISSES:         35
L1I LOAD ACCESSES:  100699829 HITS:  100699794 MISSES:         35
L1I RFO ACCESSES:          0 HITS:          0 MISSES:          0
L1I PREFETCH ACCESSES:          0 HITS:          0 MISSES:          0
L1I WRITEBACK ACCESSES:          0 HITS:          0 MISSES:          0
L1I RQ ACCESS:  499999995
L1I RQ TO_CACHE:  100699829
L1I RQ MERGED:  399300166
L1I RQ FORWARD:          0
L1I WQ ACCESS:          0
L1I WQ TO_CACHE:          0
L1I WQ MERGED:          0
L1I WQ FORWARD:          0
L2C TOTAL     ACCESS:    5852610  HIT:    4009417  MISS:    1843193
L2C LOAD      ACCESS:    1872455  HIT:    1061507  MISS:     810948
L2C RFO       ACCESS:     205209  HIT:     100568  MISS:     104641
L2C PREFETCH  ACCESS:    2169313  HIT:    1246128  MISS:     923185
L2C WRITEBACK ACCESS:    1605633  HIT:    1601214  MISS:       4419
L2C PREFETCH  REQUESTED:      91703  ISSUED:      91703  USEFUL:      86459  USELESS:     836749
L2C TOTAL MSHR MERGED:       1016
L2C LOAD MSHR MERGED:        257
L2C RFO MSHR MERGED:          0
L2C PREFETCH MSHR MERGED:        759
L2C WRITEBACK MSHR MERGED:          0
L2C TOTAL ACCESSES:    5853944 HITS:    4009585 MISSES:    1844359
L2C LOAD ACCESSES:    1872580 HITS:    1061632 MISSES:     810948
L2C RFO ACCESSES:     205215 HITS:     100574 MISSES:     104641
L2C PREFETCH ACCESSES:    2170516 HITS:    1246165 MISSES:     924351
L2C WRITEBACK ACCESSES:    1605633 HITS:    1601214 MISSES:       4419
L2C RQ ACCESS:    2077795
L2C RQ TO_CACHE:    2077664
L2C RQ MERGED:          0
L2C RQ FORWARD:          0
L2C WQ ACCESS:    1605633
L2C WQ TO_CACHE:    1605633
L2C WQ MERGED:          0
L2C WQ FORWARD:        168
LLC TOTAL     ACCESS:    2673571  HIT:    2158288  MISS:     515283
LLC LOAD      ACCESS:     810682  HIT:     623509  MISS:     187173
LLC RFO       ACCESS:     104641  HIT:      59559  MISS:      45082
LLC PREFETCH  ACCESS:     923572  HIT:     672224  MISS:     251348
LLC WRITEBACK ACCESS:     834676  HIT:     802996  MISS:      31680
LLC PREFETCH  REQUESTED:          0  ISSUED:          0  USEFUL:       9666  USELESS:     241747
LLC TOTAL MSHR MERGED:          7
LLC LOAD MSHR MERGED:          1
LLC RFO MSHR MERGED:          0
LLC PREFETCH MSHR MERGED:          6
LLC WRITEBACK MSHR MERGED:          0
LLC TOTAL ACCESSES:    2673589 HITS:    2158299 MISSES:     515290
LLC LOAD ACCESSES:     810691 HITS:     623518 MISSES:     187173
LLC RFO ACCESSES:     104641 HITS:      59559 MISSES:      45082
LLC PREFETCH ACCESSES:     923581 HITS:     672226 MISSES:     251355
LLC WRITEBACK ACCESSES:     834676 HITS:     802996 MISSES:      31680
LLC 0 RQ ACCESS:     915332
LLC 0 RQ TO_CACHE:     915323
LLC 0 RQ MERGED:          0
LLC 0 RQ FORWARD:          0
LLC WQ ACCESS:     834676
LLC WQ TO_CACHE:     834676
LLC WQ MERGED:          0
LLC WQ FORWARD:         11
Major fault: 0 Minor fault: 11278
CPU 0 L1D next line prefetcher final stats
CPU 0 L2C PC-based stride prefetcher final stats
All Misses: 631485
All Hits: 2423104
SD Algo Stats - Switches: 0 SRR-Repls: 221446 BRR-Repls: 0

DRAM Statistics
 CHANNEL 0
 RQ ROW_BUFFER_HIT:      30951  ROW_BUFFER_MISS:     452200
 DBUS_CONGESTED:     365535
 WQ ROW_BUFFER_HIT:      15201  ROW_BUFFER_MISS:     210881  FULL:          0

 AVG_CONGESTED_CYCLE: 13
LOADS RETIRED: 121769268
INSTR RETIRED: 500000000
