
*** ChampSim Multicore Out-of-Order Simulator ***

Warmup Instructions: 100000000
Simulation Instructions: 500000000
Number of CPUs: 1
LLC sets: 2048
LLC ways: 16
Clean RRIP Policies: 2010011320100113 Dirty RRIP Policies: 1000110310001103 PSEL Width: 10 Track Set: 4294967295 PSEL Mask: 1 Demote Mask: 1214204312142043DS Algo: 0Window size: 0
Off-chip DRAM Size: 4096 MB Channels: 1 Width: 64-bit Data Rate: 1600 MT/s

CPU 0 runs /mnt/beegfs/iconst01/spec2017/Lbm.trace.gz
NOT SORTED
TRACE STRING: /mnt/beegfs/iconst01/spec2017/Lbm.trace.gz
SORTED
TRACE STRING: /mnt/beegfs/iconst01/spec2017/Lbm.trace.gz
INITIAL
TRACE STRING: /mnt/beegfs/iconst01/spec2017/Lbm.trace.gz

champsim_seed used: 283

CPU 0 L1D next line prefetcher
CPU 0 L2C IP-based stride prefetcher
Initialize DRRIP state
Assign rand_sets[0]: 454  LLC: 2048
rand_sets[0]: 454
Assign rand_sets[1]: 1662  LLC: 2048
rand_sets[1]: 1662
Assign rand_sets[2]: 1921  LLC: 2048
rand_sets[2]: 1921
Assign rand_sets[3]: 1131  LLC: 2048
rand_sets[3]: 1131
Assign rand_sets[4]: 331  LLC: 2048
rand_sets[4]: 331
Assign rand_sets[5]: 1531  LLC: 2048
rand_sets[5]: 1531
Assign rand_sets[6]: 482  LLC: 2048
rand_sets[6]: 482
Assign rand_sets[7]: 1275  LLC: 2048
rand_sets[7]: 1275
Assign rand_sets[8]: 1876  LLC: 2048
rand_sets[8]: 1876
Assign rand_sets[9]: 2038  LLC: 2048
rand_sets[9]: 2038
Assign rand_sets[10]: 701  LLC: 2048
rand_sets[10]: 701
Assign rand_sets[11]: 479  LLC: 2048
rand_sets[11]: 479
Assign rand_sets[12]: 892  LLC: 2048
rand_sets[12]: 892
Assign rand_sets[13]: 1820  LLC: 2048
rand_sets[13]: 1820
Assign rand_sets[14]: 1505  LLC: 2048
rand_sets[14]: 1505
Assign rand_sets[15]: 1159  LLC: 2048
rand_sets[15]: 1159
Assign rand_sets[16]: 513  LLC: 2048
rand_sets[16]: 513
Assign rand_sets[17]: 703  LLC: 2048
rand_sets[17]: 703
Assign rand_sets[18]: 561  LLC: 2048
rand_sets[18]: 561
Assign rand_sets[19]: 990  LLC: 2048
rand_sets[19]: 990
Assign rand_sets[20]: 342  LLC: 2048
rand_sets[20]: 342
Assign rand_sets[21]: 882  LLC: 2048
rand_sets[21]: 882
Assign rand_sets[22]: 15  LLC: 2048
rand_sets[22]: 15
Assign rand_sets[23]: 71  LLC: 2048
rand_sets[23]: 71
Assign rand_sets[24]: 1127  LLC: 2048
rand_sets[24]: 1127
Assign rand_sets[25]: 1382  LLC: 2048
rand_sets[25]: 1382
Assign rand_sets[26]: 647  LLC: 2048
rand_sets[26]: 647
Assign rand_sets[27]: 857  LLC: 2048
rand_sets[27]: 857
Assign rand_sets[28]: 1450  LLC: 2048
rand_sets[28]: 1450
Assign rand_sets[29]: 1160  LLC: 2048
rand_sets[29]: 1160
Assign rand_sets[30]: 1852  LLC: 2048
rand_sets[30]: 1852
Assign rand_sets[31]: 1881  LLC: 2048
rand_sets[31]: 1881
Assign rand_sets[32]: 1770  LLC: 2048
rand_sets[32]: 1770
Assign rand_sets[33]: 1622  LLC: 2048
rand_sets[33]: 1622
Assign rand_sets[34]: 275  LLC: 2048
rand_sets[34]: 275
Assign rand_sets[35]: 635  LLC: 2048
rand_sets[35]: 635
Assign rand_sets[36]: 466  LLC: 2048
rand_sets[36]: 466
Assign rand_sets[37]: 1413  LLC: 2048
rand_sets[37]: 1413
Assign rand_sets[38]: 417  LLC: 2048
rand_sets[38]: 417
Assign rand_sets[39]: 472  LLC: 2048
rand_sets[39]: 472
Assign rand_sets[40]: 1340  LLC: 2048
rand_sets[40]: 1340
Assign rand_sets[41]: 852  LLC: 2048
rand_sets[41]: 852
Assign rand_sets[42]: 1365  LLC: 2048
rand_sets[42]: 1365
Assign rand_sets[43]: 47  LLC: 2048
rand_sets[43]: 47
Assign rand_sets[44]: 823  LLC: 2048
rand_sets[44]: 823
Assign rand_sets[45]: 686  LLC: 2048
rand_sets[45]: 686
Assign rand_sets[46]: 1637  LLC: 2048
rand_sets[46]: 1637
Assign rand_sets[47]: 1115  LLC: 2048
rand_sets[47]: 1115
Assign rand_sets[48]: 986  LLC: 2048
rand_sets[48]: 986
Assign rand_sets[49]: 258  LLC: 2048
rand_sets[49]: 258
Assign rand_sets[50]: 633  LLC: 2048
rand_sets[50]: 633
Assign rand_sets[51]: 920  LLC: 2048
rand_sets[51]: 920
Assign rand_sets[52]: 204  LLC: 2048
rand_sets[52]: 204
Assign rand_sets[53]: 227  LLC: 2048
rand_sets[53]: 227
Assign rand_sets[54]: 1818  LLC: 2048
rand_sets[54]: 1818
Assign rand_sets[55]: 886  LLC: 2048
rand_sets[55]: 886
Assign rand_sets[56]: 1422  LLC: 2048
rand_sets[56]: 1422
Assign rand_sets[57]: 607  LLC: 2048
rand_sets[57]: 607
Assign rand_sets[58]: 217  LLC: 2048
rand_sets[58]: 217
Assign rand_sets[59]: 1945  LLC: 2048
rand_sets[59]: 1945
Assign rand_sets[60]: 143  LLC: 2048
rand_sets[60]: 143
Assign rand_sets[61]: 1311  LLC: 2048
rand_sets[61]: 1311
Assign rand_sets[62]: 319  LLC: 2048
rand_sets[62]: 319
Assign rand_sets[63]: 1846  LLC: 2048
rand_sets[63]: 1846
 CLEAN-RRIP-POLICY-1: 2-0-1-0-0-1-1-3- CLEAN-RRIP-POLICY-2: 2-0-1-0-0-1-1-3-
 DIRTY-RRIP-POLICY-1: 1-0-0-0-1-1-0-3- DIRTY-RRIP-POLICY-2: 1-0-0-0-1-1-0-3-
 PSEL width: 10
Heartbeat CPU 0 instructions: 10000000 cycles: 4321570 heartbeat IPC: 2.31397 cumulative IPC: 2.31397 (Simulation time: 0 hr 0 min 18 sec) 
Heartbeat CPU 0 instructions: 20000000 cycles: 8643636 heartbeat IPC: 2.31371 cumulative IPC: 2.31384 (Simulation time: 0 hr 0 min 36 sec) 
Heartbeat CPU 0 instructions: 30000000 cycles: 12965438 heartbeat IPC: 2.31385 cumulative IPC: 2.31384 (Simulation time: 0 hr 0 min 54 sec) 
Heartbeat CPU 0 instructions: 40000000 cycles: 17291286 heartbeat IPC: 2.31169 cumulative IPC: 2.3133 (Simulation time: 0 hr 1 min 12 sec) 
Heartbeat CPU 0 instructions: 50000000 cycles: 21613260 heartbeat IPC: 2.31376 cumulative IPC: 2.31339 (Simulation time: 0 hr 1 min 30 sec) 
Heartbeat CPU 0 instructions: 60000000 cycles: 25935159 heartbeat IPC: 2.3138 cumulative IPC: 2.31346 (Simulation time: 0 hr 1 min 48 sec) 
Heartbeat CPU 0 instructions: 70000000 cycles: 30256706 heartbeat IPC: 2.31399 cumulative IPC: 2.31354 (Simulation time: 0 hr 2 min 6 sec) 
Heartbeat CPU 0 instructions: 80000000 cycles: 34582849 heartbeat IPC: 2.31153 cumulative IPC: 2.31329 (Simulation time: 0 hr 2 min 25 sec) 
Heartbeat CPU 0 instructions: 90000003 cycles: 38904862 heartbeat IPC: 2.31374 cumulative IPC: 2.31334 (Simulation time: 0 hr 2 min 43 sec) 
Heartbeat CPU 0 instructions: 100000000 cycles: 43226390 heartbeat IPC: 2.314 cumulative IPC: 2.3134 (Simulation time: 0 hr 3 min 1 sec) 

Warmup complete CPU 0 instructions: 100000001 cycles: 43226391 (Simulation time: 0 hr 3 min 1 sec) 

Heartbeat CPU 0 instructions: 110000000 cycles: 57613154 heartbeat IPC: 0.695083 cumulative IPC: 0.695083 (Simulation time: 0 hr 3 min 27 sec) 
Heartbeat CPU 0 instructions: 120000000 cycles: 72219118 heartbeat IPC: 0.684652 cumulative IPC: 0.689828 (Simulation time: 0 hr 3 min 53 sec) 
Heartbeat CPU 0 instructions: 130000000 cycles: 86631381 heartbeat IPC: 0.693854 cumulative IPC: 0.691165 (Simulation time: 0 hr 4 min 19 sec) 
Heartbeat CPU 0 instructions: 140000000 cycles: 101019710 heartbeat IPC: 0.695008 cumulative IPC: 0.692122 (Simulation time: 0 hr 4 min 45 sec) 
Heartbeat CPU 0 instructions: 150000003 cycles: 115131396 heartbeat IPC: 0.708633 cumulative IPC: 0.695362 (Simulation time: 0 hr 5 min 11 sec) 
Heartbeat CPU 0 instructions: 160000000 cycles: 129576742 heartbeat IPC: 0.692264 cumulative IPC: 0.694844 (Simulation time: 0 hr 5 min 37 sec) 
Heartbeat CPU 0 instructions: 170000002 cycles: 144066702 heartbeat IPC: 0.690133 cumulative IPC: 0.694167 (Simulation time: 0 hr 6 min 3 sec) 
Heartbeat CPU 0 instructions: 180000000 cycles: 158416434 heartbeat IPC: 0.696877 cumulative IPC: 0.694504 (Simulation time: 0 hr 6 min 29 sec) 
Heartbeat CPU 0 instructions: 190000003 cycles: 175833144 heartbeat IPC: 0.574161 cumulative IPC: 0.678698 (Simulation time: 0 hr 6 min 58 sec) 
Heartbeat CPU 0 instructions: 200000000 cycles: 196813432 heartbeat IPC: 0.476638 cumulative IPC: 0.651097 (Simulation time: 0 hr 7 min 30 sec) 
Heartbeat CPU 0 instructions: 210000001 cycles: 211173372 heartbeat IPC: 0.696382 cumulative IPC: 0.654969 (Simulation time: 0 hr 7 min 56 sec) 
Heartbeat CPU 0 instructions: 220000000 cycles: 225525679 heartbeat IPC: 0.696752 cumulative IPC: 0.658258 (Simulation time: 0 hr 8 min 22 sec) 
Heartbeat CPU 0 instructions: 230000001 cycles: 240054255 heartbeat IPC: 0.688299 cumulative IPC: 0.660476 (Simulation time: 0 hr 8 min 48 sec) 
Heartbeat CPU 0 instructions: 240000000 cycles: 254676369 heartbeat IPC: 0.683896 cumulative IPC: 0.662095 (Simulation time: 0 hr 9 min 15 sec) 
Heartbeat CPU 0 instructions: 250000000 cycles: 269523742 heartbeat IPC: 0.67352 cumulative IPC: 0.662845 (Simulation time: 0 hr 9 min 41 sec) 
Heartbeat CPU 0 instructions: 260000000 cycles: 284342723 heartbeat IPC: 0.67481 cumulative IPC: 0.66358 (Simulation time: 0 hr 10 min 8 sec) 
Heartbeat CPU 0 instructions: 270000002 cycles: 299752413 heartbeat IPC: 0.648942 cumulative IPC: 0.662701 (Simulation time: 0 hr 10 min 34 sec) 
Heartbeat CPU 0 instructions: 280000000 cycles: 315094751 heartbeat IPC: 0.651791 cumulative IPC: 0.662085 (Simulation time: 0 hr 11 min 1 sec) 
Heartbeat CPU 0 instructions: 290000003 cycles: 331255416 heartbeat IPC: 0.618787 cumulative IPC: 0.659656 (Simulation time: 0 hr 11 min 29 sec) 
Heartbeat CPU 0 instructions: 300000000 cycles: 347035903 heartbeat IPC: 0.633694 cumulative IPC: 0.658307 (Simulation time: 0 hr 11 min 56 sec) 
Heartbeat CPU 0 instructions: 310000000 cycles: 363400807 heartbeat IPC: 0.611064 cumulative IPC: 0.655892 (Simulation time: 0 hr 12 min 24 sec) 
Heartbeat CPU 0 instructions: 320000000 cycles: 379277076 heartbeat IPC: 0.629871 cumulative IPC: 0.654663 (Simulation time: 0 hr 12 min 51 sec) 
Heartbeat CPU 0 instructions: 330000002 cycles: 394756254 heartbeat IPC: 0.646029 cumulative IPC: 0.654283 (Simulation time: 0 hr 13 min 17 sec) 
Heartbeat CPU 0 instructions: 340000000 cycles: 410956915 heartbeat IPC: 0.617259 cumulative IPC: 0.652652 (Simulation time: 0 hr 13 min 44 sec) 
Heartbeat CPU 0 instructions: 350000001 cycles: 426217108 heartbeat IPC: 0.6553 cumulative IPC: 0.652757 (Simulation time: 0 hr 14 min 10 sec) 
Heartbeat CPU 0 instructions: 360000000 cycles: 441839423 heartbeat IPC: 0.64011 cumulative IPC: 0.652262 (Simulation time: 0 hr 14 min 37 sec) 
Heartbeat CPU 0 instructions: 370000000 cycles: 457096243 heartbeat IPC: 0.655445 cumulative IPC: 0.652379 (Simulation time: 0 hr 15 min 3 sec) 
Heartbeat CPU 0 instructions: 380000000 cycles: 472294558 heartbeat IPC: 0.657968 cumulative IPC: 0.652577 (Simulation time: 0 hr 15 min 30 sec) 
Heartbeat CPU 0 instructions: 390000000 cycles: 486927929 heartbeat IPC: 0.68337 cumulative IPC: 0.653593 (Simulation time: 0 hr 15 min 55 sec) 
Heartbeat CPU 0 instructions: 400000000 cycles: 501685158 heartbeat IPC: 0.677634 cumulative IPC: 0.654366 (Simulation time: 0 hr 16 min 21 sec) 
Heartbeat CPU 0 instructions: 410000000 cycles: 516197907 heartbeat IPC: 0.689049 cumulative IPC: 0.655431 (Simulation time: 0 hr 16 min 47 sec) 
Heartbeat CPU 0 instructions: 420000000 cycles: 530568960 heartbeat IPC: 0.695843 cumulative IPC: 0.656622 (Simulation time: 0 hr 17 min 12 sec) 
Heartbeat CPU 0 instructions: 430000002 cycles: 544692738 heartbeat IPC: 0.708026 cumulative IPC: 0.65807 (Simulation time: 0 hr 17 min 37 sec) 
Heartbeat CPU 0 instructions: 440000000 cycles: 558692245 heartbeat IPC: 0.714311 cumulative IPC: 0.659598 (Simulation time: 0 hr 18 min 2 sec) 
Heartbeat CPU 0 instructions: 450000000 cycles: 573079036 heartbeat IPC: 0.695082 cumulative IPC: 0.660561 (Simulation time: 0 hr 18 min 28 sec) 
Heartbeat CPU 0 instructions: 460000000 cycles: 587898450 heartbeat IPC: 0.674791 cumulative IPC: 0.660948 (Simulation time: 0 hr 18 min 54 sec) 
Heartbeat CPU 0 instructions: 470000000 cycles: 602202729 heartbeat IPC: 0.699091 cumulative IPC: 0.661924 (Simulation time: 0 hr 19 min 19 sec) 
Heartbeat CPU 0 instructions: 480000000 cycles: 616558959 heartbeat IPC: 0.696562 cumulative IPC: 0.662792 (Simulation time: 0 hr 19 min 44 sec) 
Heartbeat CPU 0 instructions: 490000001 cycles: 631195675 heartbeat IPC: 0.683213 cumulative IPC: 0.6633 (Simulation time: 0 hr 20 min 10 sec) 
Heartbeat CPU 0 instructions: 500000000 cycles: 645452965 heartbeat IPC: 0.701396 cumulative IPC: 0.664202 (Simulation time: 0 hr 20 min 35 sec) 
Heartbeat CPU 0 instructions: 510000002 cycles: 659631786 heartbeat IPC: 0.705277 cumulative IPC: 0.665147 (Simulation time: 0 hr 21 min 0 sec) 
Heartbeat CPU 0 instructions: 520000000 cycles: 674095220 heartbeat IPC: 0.691399 cumulative IPC: 0.665749 (Simulation time: 0 hr 21 min 26 sec) 
Heartbeat CPU 0 instructions: 530000001 cycles: 688614700 heartbeat IPC: 0.68873 cumulative IPC: 0.666266 (Simulation time: 0 hr 21 min 51 sec) 
Heartbeat CPU 0 instructions: 540000000 cycles: 702990739 heartbeat IPC: 0.695602 cumulative IPC: 0.666905 (Simulation time: 0 hr 22 min 17 sec) 
Heartbeat CPU 0 instructions: 550000003 cycles: 717159554 heartbeat IPC: 0.705776 cumulative IPC: 0.667722 (Simulation time: 0 hr 22 min 42 sec) 
Heartbeat CPU 0 instructions: 560000000 cycles: 731758382 heartbeat IPC: 0.684986 cumulative IPC: 0.668088 (Simulation time: 0 hr 23 min 8 sec) 
Heartbeat CPU 0 instructions: 570000001 cycles: 745897863 heartbeat IPC: 0.70724 cumulative IPC: 0.668876 (Simulation time: 0 hr 23 min 33 sec) 
Heartbeat CPU 0 instructions: 580000000 cycles: 759946148 heartbeat IPC: 0.711831 cumulative IPC: 0.669718 (Simulation time: 0 hr 23 min 58 sec) 
Heartbeat CPU 0 instructions: 590000003 cycles: 773359289 heartbeat IPC: 0.745538 cumulative IPC: 0.671111 (Simulation time: 0 hr 24 min 23 sec) 
Heartbeat CPU 0 instructions: 600000000 cycles: 787991612 heartbeat IPC: 0.683418 cumulative IPC: 0.671353 (Simulation time: 0 hr 24 min 48 sec) 
Finished CPU 0 instructions: 500000000 cycles: 744765229 cumulative IPC: 0.671353 (Simulation time: 0 hr 24 min 48 sec) 

CPU 0 Branch Prediction Accuracy: 99.5915% MPKI: 0.037126
Number of Branches: 4544106 Number of Mispredictions: 18563
Number of LOAD Instructions: 149787067
Number of LOAD Instructions (ROI): 149787067
Number of STORE Instructions: 77239062
Number of STORE Instructions (ROI): 77239062
Total Destination Memory Operands: 77239062
Total Destination Memory Operands (ROI): 77239062
Total Source Memory Operands: 149787067
Total Source Memory Operands (ROI): 149787067
Number of DEPENDED LOADS: 19252699
Number of DEPENDED LOADS (ROI): 19252699
Number of SQ_ADDED: 77239036
Number of SQ_ADDED (ROI): 77239036
Number of LQ_ADDED: 149787020
Number of LQ_ADDED (ROI): 149787020
Number of Instructions read from trace: 600000256

ChampSim completed all CPUs

Region of Interest Statistics

CPU 0 cumulative IPC: 0.671353 instructions: 500000000 cycles: 744765229
ITLB TOTAL     ACCESS:   86463365  HIT:   86463364  MISS:          1
ITLB LOAD      ACCESS:   86463365  HIT:   86463364  MISS:          1
ITLB RFO       ACCESS:          0  HIT:          0  MISS:          0
ITLB PREFETCH  ACCESS:          0  HIT:          0  MISS:          0
ITLB WRITEBACK ACCESS:          0  HIT:          0  MISS:          0
ITLB PREFETCH  REQUESTED:          0  ISSUED:          0  USEFUL:          0  USELESS:          0
ITLB TOTAL MSHR MERGED:          1
ITLB LOAD MSHR MERGED:          1
ITLB RFO MSHR MERGED:          0
ITLB PREFETCH MSHR MERGED:          0
ITLB WRITEBACK MSHR MERGED:          0
ITLB TOTAL ACCESSES:   86463366 HITS:   86463364 MISSES:          2
ITLB LOAD ACCESSES:   86463366 HITS:   86463364 MISSES:          2
ITLB RFO ACCESSES:          0 HITS:          0 MISSES:          0
ITLB PREFETCH ACCESSES:          0 HITS:          0 MISSES:          0
ITLB WRITEBACK ACCESSES:          0 HITS:          0 MISSES:          0
ITLB RQ ACCESS:  500000002
ITLB RQ TO_CACHE:   86463366
ITLB RQ MERGED:  413536636
ITLB RQ FORWARD:          0
ITLB WQ ACCESS:          0
ITLB WQ TO_CACHE:          0
ITLB WQ MERGED:          0
ITLB WQ FORWARD:          0
DTLB TOTAL     ACCESS:   98102830  HIT:   97917569  MISS:     185261
DTLB LOAD      ACCESS:   55037851  HIT:   54991540  MISS:      46311
DTLB RFO       ACCESS:   43064979  HIT:   42926029  MISS:     138950
DTLB PREFETCH  ACCESS:          0  HIT:          0  MISS:          0
DTLB WRITEBACK ACCESS:          0  HIT:          0  MISS:          0
DTLB PREFETCH  REQUESTED:          0  ISSUED:          0  USEFUL:          0  USELESS:          0
DTLB TOTAL MSHR MERGED:      83513
DTLB LOAD MSHR MERGED:      83507
DTLB RFO MSHR MERGED:          6
DTLB PREFETCH MSHR MERGED:          0
DTLB WRITEBACK MSHR MERGED:          0
DTLB TOTAL ACCESSES:   98186343 HITS:   97917569 MISSES:     268774
DTLB LOAD ACCESSES:   55121358 HITS:   54991540 MISSES:     129818
DTLB RFO ACCESSES:   43064985 HITS:   42926029 MISSES:     138956
DTLB PREFETCH ACCESSES:          0 HITS:          0 MISSES:          0
DTLB WRITEBACK ACCESSES:          0 HITS:          0 MISSES:          0
DTLB RQ ACCESS:  173629828
DTLB RQ TO_CACHE:   98186343
DTLB RQ MERGED:   75443485
DTLB RQ FORWARD:          0
DTLB WQ ACCESS:          0
DTLB WQ TO_CACHE:          0
DTLB WQ MERGED:          0
DTLB WQ FORWARD:          0
L1D TOTAL     ACCESS:  164492570  HIT:  144920007  MISS:   19572563
L1D LOAD      ACCESS:   60484065  HIT:   58632562  MISS:    1851503
L1D RFO       ACCESS:   64512363  HIT:   47910219  MISS:   16602144
L1D PREFETCH  ACCESS:   39496142  HIT:   38377226  MISS:    1118916
L1D WRITEBACK ACCESS:          0  HIT:          0  MISS:          0
L1D PREFETCH  REQUESTED:   61638559  ISSUED:   61346952  USEFUL:    1116994  USELESS:       1922
L1D TOTAL MSHR MERGED:    3486431
L1D LOAD MSHR MERGED:    1224542
L1D RFO MSHR MERGED:      10963
L1D PREFETCH MSHR MERGED:    2250926
L1D WRITEBACK MSHR MERGED:          0
L1D TOTAL ACCESSES:  168582008 HITS:  145523015 MISSES:   23058993
L1D LOAD ACCESSES:   61934891 HITS:   58928894 MISSES:    3005997
L1D RFO ACCESSES:   64523287 HITS:   47910219 MISSES:   16613068
L1D PREFETCH ACCESSES:   42123830 HITS:   38683902 MISSES:    3439928
L1D WRITEBACK ACCESSES:          0 HITS:          0 MISSES:          0
L1D RQ ACCESS:  109088513
L1D RQ TO_CACHE:   61638559
L1D RQ MERGED:   47153622
L1D RQ FORWARD:          0
L1D WQ ACCESS:   64541313
L1D WQ TO_CACHE:   64523288
L1D WQ MERGED:      18025
L1D WQ FORWARD:     603008
L1I TOTAL     ACCESS:  107772406  HIT:  107772398  MISS:          8
L1I LOAD      ACCESS:  107772406  HIT:  107772398  MISS:          8
L1I RFO       ACCESS:          0  HIT:          0  MISS:          0
L1I PREFETCH  ACCESS:          0  HIT:          0  MISS:          0
L1I WRITEBACK ACCESS:          0  HIT:          0  MISS:          0
L1I PREFETCH  REQUESTED:          0  ISSUED:          0  USEFUL:          0  USELESS:          0
L1I TOTAL MSHR MERGED:          3
L1I LOAD MSHR MERGED:          3
L1I RFO MSHR MERGED:          0
L1I PREFETCH MSHR MERGED:          0
L1I WRITEBACK MSHR MERGED:          0
L1I TOTAL ACCESSES:  107772409 HITS:  107772398 MISSES:         11
L1I LOAD ACCESSES:  107772409 HITS:  107772398 MISSES:         11
L1I RFO ACCESSES:          0 HITS:          0 MISSES:          0
L1I PREFETCH ACCESSES:          0 HITS:          0 MISSES:          0
L1I WRITEBACK ACCESSES:          0 HITS:          0 MISSES:          0
L1I RQ ACCESS:  500000007
L1I RQ TO_CACHE:  107772409
L1I RQ MERGED:  392227598
L1I RQ FORWARD:          0
L1I WQ ACCESS:          0
L1I WQ TO_CACHE:          0
L1I WQ MERGED:          0
L1I WQ FORWARD:          0
L2C TOTAL     ACCESS:   36801756  HIT:   24844173  MISS:   11957583
L2C LOAD      ACCESS:    1781463  HIT:     253268  MISS:    1528195
L2C RFO       ACCESS:   16602102  HIT:    7610725  MISS:    8991377
L2C PREFETCH  ACCESS:    1816002  HIT:     379219  MISS:    1436783
L2C WRITEBACK ACCESS:   16602189  HIT:   16600961  MISS:       1228
L2C PREFETCH  REQUESTED:     815821  ISSUED:     815821  USEFUL:     250960  USELESS:    1186104
L2C TOTAL MSHR MERGED:       2752
L2C LOAD MSHR MERGED:        640
L2C RFO MSHR MERGED:          0
L2C PREFETCH MSHR MERGED:       2112
L2C WRITEBACK MSHR MERGED:          0
L2C TOTAL ACCESSES:   36990509 HITS:   24844177 MISSES:   12146332
L2C LOAD ACCESSES:    1781463 HITS:     253268 MISSES:    1528195
L2C RFO ACCESSES:   16602105 HITS:    7610729 MISSES:    8991376
L2C PREFETCH ACCESSES:    2004752 HITS:     379219 MISSES:    1625533
L2C WRITEBACK ACCESSES:   16602189 HITS:   16600961 MISSES:       1228
L2C RQ ACCESS:   18383568
L2C RQ TO_CACHE:   18383564
L2C RQ MERGED:          0
L2C RQ FORWARD:          0
L2C WQ ACCESS:   16602189
L2C WQ TO_CACHE:   16602189
L2C WQ MERGED:          0
L2C WQ FORWARD:          4
LLC TOTAL     ACCESS:   21131233  HIT:    8545243  MISS:   12585990
LLC LOAD      ACCESS:    1527555  HIT:      67348  MISS:    1460207
LLC RFO       ACCESS:    8991355  HIT:     530505  MISS:    8460850
LLC PREFETCH  ACCESS:    1620123  HIT:     115597  MISS:    1504526
LLC WRITEBACK ACCESS:    8992200  HIT:    7831793  MISS:    1160407
LLC PREFETCH  REQUESTED:          0  ISSUED:          0  USEFUL:      67339  USELESS:    1437876
LLC TOTAL MSHR MERGED:       2900
LLC LOAD MSHR MERGED:        249
LLC RFO MSHR MERGED:          0
LLC PREFETCH MSHR MERGED:       2651
LLC WRITEBACK MSHR MERGED:          0
LLC TOTAL ACCESSES:   21134154 HITS:    8545265 MISSES:   12588889
LLC LOAD ACCESSES:    1527555 HITS:      67348 MISSES:    1460207
LLC RFO ACCESSES:    8991376 HITS:     530527 MISSES:    8460849
LLC PREFETCH ACCESSES:    1623023 HITS:     115597 MISSES:    1507426
LLC WRITEBACK ACCESSES:    8992200 HITS:    7831793 MISSES:    1160407
LLC 0 RQ ACCESS:   10518931
LLC 0 RQ TO_CACHE:   10518909
LLC 0 RQ MERGED:          0
LLC 0 RQ FORWARD:          0
LLC WQ ACCESS:    8992200
LLC WQ TO_CACHE:    8992200
LLC WQ MERGED:          0
LLC WQ FORWARD:         22
Major fault: 0 Minor fault: 102360
CPU 0 L1D next line prefetcher final stats
CPU 0 L2C PC-based stride prefetcher final stats
All Misses: 14967227
All Hits: 10139517
SD Algo Stats - Switches: 0 SRR-Repls: 1638821 BRR-Repls: 0

DRAM Statistics
 CHANNEL 0
 RQ ROW_BUFFER_HIT:    3203443  ROW_BUFFER_MISS:    8221568
 DBUS_CONGESTED:   13759029
 WQ ROW_BUFFER_HIT:    1176514  ROW_BUFFER_MISS:    7285743  FULL:          0

 AVG_CONGESTED_CYCLE: 13
LOADS RETIRED: 124982196
INSTR RETIRED: 500000000
