
*** ChampSim Multicore Out-of-Order Simulator ***

Warmup Instructions: 100000000
Simulation Instructions: 500000000
Number of CPUs: 1
LLC sets: 2048
LLC ways: 16
Clean RRIP Policies: 1312222013122220 Dirty RRIP Policies: 1302022013020220 PSEL Width: 10 Track Set: 4294967295 PSEL Mask: 1 Demote Mask: 3044414030444140DS Algo: 0Window size: 0
Off-chip DRAM Size: 4096 MB Channels: 1 Width: 64-bit Data Rate: 1600 MT/s

CPU 0 runs /mnt/beegfs/iconst01/spec2017/Mcf.trace.gz
NOT SORTED
TRACE STRING: /mnt/beegfs/iconst01/spec2017/Mcf.trace.gz
SORTED
TRACE STRING: /mnt/beegfs/iconst01/spec2017/Mcf.trace.gz
INITIAL
TRACE STRING: /mnt/beegfs/iconst01/spec2017/Mcf.trace.gz

champsim_seed used: 278

CPU 0 L1D next line prefetcher
CPU 0 L2C IP-based stride prefetcher
Initialize DRRIP state
Assign rand_sets[0]: 454  LLC: 2048
rand_sets[0]: 454
Assign rand_sets[1]: 1662  LLC: 2048
rand_sets[1]: 1662
Assign rand_sets[2]: 1921  LLC: 2048
rand_sets[2]: 1921
Assign rand_sets[3]: 1131  LLC: 2048
rand_sets[3]: 1131
Assign rand_sets[4]: 331  LLC: 2048
rand_sets[4]: 331
Assign rand_sets[5]: 1531  LLC: 2048
rand_sets[5]: 1531
Assign rand_sets[6]: 482  LLC: 2048
rand_sets[6]: 482
Assign rand_sets[7]: 1275  LLC: 2048
rand_sets[7]: 1275
Assign rand_sets[8]: 1876  LLC: 2048
rand_sets[8]: 1876
Assign rand_sets[9]: 2038  LLC: 2048
rand_sets[9]: 2038
Assign rand_sets[10]: 701  LLC: 2048
rand_sets[10]: 701
Assign rand_sets[11]: 479  LLC: 2048
rand_sets[11]: 479
Assign rand_sets[12]: 892  LLC: 2048
rand_sets[12]: 892
Assign rand_sets[13]: 1820  LLC: 2048
rand_sets[13]: 1820
Assign rand_sets[14]: 1505  LLC: 2048
rand_sets[14]: 1505
Assign rand_sets[15]: 1159  LLC: 2048
rand_sets[15]: 1159
Assign rand_sets[16]: 513  LLC: 2048
rand_sets[16]: 513
Assign rand_sets[17]: 703  LLC: 2048
rand_sets[17]: 703
Assign rand_sets[18]: 561  LLC: 2048
rand_sets[18]: 561
Assign rand_sets[19]: 990  LLC: 2048
rand_sets[19]: 990
Assign rand_sets[20]: 342  LLC: 2048
rand_sets[20]: 342
Assign rand_sets[21]: 882  LLC: 2048
rand_sets[21]: 882
Assign rand_sets[22]: 15  LLC: 2048
rand_sets[22]: 15
Assign rand_sets[23]: 71  LLC: 2048
rand_sets[23]: 71
Assign rand_sets[24]: 1127  LLC: 2048
rand_sets[24]: 1127
Assign rand_sets[25]: 1382  LLC: 2048
rand_sets[25]: 1382
Assign rand_sets[26]: 647  LLC: 2048
rand_sets[26]: 647
Assign rand_sets[27]: 857  LLC: 2048
rand_sets[27]: 857
Assign rand_sets[28]: 1450  LLC: 2048
rand_sets[28]: 1450
Assign rand_sets[29]: 1160  LLC: 2048
rand_sets[29]: 1160
Assign rand_sets[30]: 1852  LLC: 2048
rand_sets[30]: 1852
Assign rand_sets[31]: 1881  LLC: 2048
rand_sets[31]: 1881
Assign rand_sets[32]: 1770  LLC: 2048
rand_sets[32]: 1770
Assign rand_sets[33]: 1622  LLC: 2048
rand_sets[33]: 1622
Assign rand_sets[34]: 275  LLC: 2048
rand_sets[34]: 275
Assign rand_sets[35]: 635  LLC: 2048
rand_sets[35]: 635
Assign rand_sets[36]: 466  LLC: 2048
rand_sets[36]: 466
Assign rand_sets[37]: 1413  LLC: 2048
rand_sets[37]: 1413
Assign rand_sets[38]: 417  LLC: 2048
rand_sets[38]: 417
Assign rand_sets[39]: 472  LLC: 2048
rand_sets[39]: 472
Assign rand_sets[40]: 1340  LLC: 2048
rand_sets[40]: 1340
Assign rand_sets[41]: 852  LLC: 2048
rand_sets[41]: 852
Assign rand_sets[42]: 1365  LLC: 2048
rand_sets[42]: 1365
Assign rand_sets[43]: 47  LLC: 2048
rand_sets[43]: 47
Assign rand_sets[44]: 823  LLC: 2048
rand_sets[44]: 823
Assign rand_sets[45]: 686  LLC: 2048
rand_sets[45]: 686
Assign rand_sets[46]: 1637  LLC: 2048
rand_sets[46]: 1637
Assign rand_sets[47]: 1115  LLC: 2048
rand_sets[47]: 1115
Assign rand_sets[48]: 986  LLC: 2048
rand_sets[48]: 986
Assign rand_sets[49]: 258  LLC: 2048
rand_sets[49]: 258
Assign rand_sets[50]: 633  LLC: 2048
rand_sets[50]: 633
Assign rand_sets[51]: 920  LLC: 2048
rand_sets[51]: 920
Assign rand_sets[52]: 204  LLC: 2048
rand_sets[52]: 204
Assign rand_sets[53]: 227  LLC: 2048
rand_sets[53]: 227
Assign rand_sets[54]: 1818  LLC: 2048
rand_sets[54]: 1818
Assign rand_sets[55]: 886  LLC: 2048
rand_sets[55]: 886
Assign rand_sets[56]: 1422  LLC: 2048
rand_sets[56]: 1422
Assign rand_sets[57]: 607  LLC: 2048
rand_sets[57]: 607
Assign rand_sets[58]: 217  LLC: 2048
rand_sets[58]: 217
Assign rand_sets[59]: 1945  LLC: 2048
rand_sets[59]: 1945
Assign rand_sets[60]: 143  LLC: 2048
rand_sets[60]: 143
Assign rand_sets[61]: 1311  LLC: 2048
rand_sets[61]: 1311
Assign rand_sets[62]: 319  LLC: 2048
rand_sets[62]: 319
Assign rand_sets[63]: 1846  LLC: 2048
rand_sets[63]: 1846
 CLEAN-RRIP-POLICY-1: 1-3-1-2-2-2-2-0- CLEAN-RRIP-POLICY-2: 1-3-1-2-2-2-2-0-
 DIRTY-RRIP-POLICY-1: 1-3-0-2-0-2-2-0- DIRTY-RRIP-POLICY-2: 1-3-0-2-0-2-2-0-
 PSEL width: 10
Heartbeat CPU 0 instructions: 10000002 cycles: 6250103 heartbeat IPC: 1.59997 cumulative IPC: 1.59997 (Simulation time: 0 hr 0 min 12 sec) 
Heartbeat CPU 0 instructions: 20000000 cycles: 12473412 heartbeat IPC: 1.60686 cumulative IPC: 1.60341 (Simulation time: 0 hr 0 min 25 sec) 
Heartbeat CPU 0 instructions: 30000000 cycles: 18686833 heartbeat IPC: 1.60942 cumulative IPC: 1.60541 (Simulation time: 0 hr 0 min 37 sec) 
Heartbeat CPU 0 instructions: 40000000 cycles: 24900191 heartbeat IPC: 1.60944 cumulative IPC: 1.60641 (Simulation time: 0 hr 0 min 49 sec) 
Heartbeat CPU 0 instructions: 50000003 cycles: 31115357 heartbeat IPC: 1.60897 cumulative IPC: 1.60692 (Simulation time: 0 hr 1 min 2 sec) 
Heartbeat CPU 0 instructions: 60000000 cycles: 37313915 heartbeat IPC: 1.61328 cumulative IPC: 1.60798 (Simulation time: 0 hr 1 min 15 sec) 
Heartbeat CPU 0 instructions: 70000003 cycles: 43534936 heartbeat IPC: 1.60745 cumulative IPC: 1.6079 (Simulation time: 0 hr 1 min 27 sec) 
Heartbeat CPU 0 instructions: 80000000 cycles: 49768108 heartbeat IPC: 1.60432 cumulative IPC: 1.60746 (Simulation time: 0 hr 1 min 40 sec) 
Heartbeat CPU 0 instructions: 90000000 cycles: 55999780 heartbeat IPC: 1.60471 cumulative IPC: 1.60715 (Simulation time: 0 hr 1 min 52 sec) 
Heartbeat CPU 0 instructions: 100000000 cycles: 62221422 heartbeat IPC: 1.60729 cumulative IPC: 1.60716 (Simulation time: 0 hr 2 min 5 sec) 

Warmup complete CPU 0 instructions: 100000001 cycles: 62221423 (Simulation time: 0 hr 2 min 5 sec) 

Heartbeat CPU 0 instructions: 110000000 cycles: 87421313 heartbeat IPC: 0.396827 cumulative IPC: 0.396827 (Simulation time: 0 hr 2 min 28 sec) 
Heartbeat CPU 0 instructions: 120000000 cycles: 112672848 heartbeat IPC: 0.396016 cumulative IPC: 0.396421 (Simulation time: 0 hr 2 min 52 sec) 
Heartbeat CPU 0 instructions: 130000000 cycles: 138082272 heartbeat IPC: 0.393555 cumulative IPC: 0.395461 (Simulation time: 0 hr 3 min 15 sec) 
Heartbeat CPU 0 instructions: 140000000 cycles: 163420812 heartbeat IPC: 0.394656 cumulative IPC: 0.395259 (Simulation time: 0 hr 3 min 39 sec) 
Heartbeat CPU 0 instructions: 150000003 cycles: 188682676 heartbeat IPC: 0.395854 cumulative IPC: 0.395378 (Simulation time: 0 hr 4 min 2 sec) 
Heartbeat CPU 0 instructions: 160000000 cycles: 214315543 heartbeat IPC: 0.390124 cumulative IPC: 0.394493 (Simulation time: 0 hr 4 min 26 sec) 
Heartbeat CPU 0 instructions: 170000001 cycles: 239786049 heartbeat IPC: 0.392611 cumulative IPC: 0.394223 (Simulation time: 0 hr 4 min 50 sec) 
Heartbeat CPU 0 instructions: 180000000 cycles: 265260649 heartbeat IPC: 0.392548 cumulative IPC: 0.394013 (Simulation time: 0 hr 5 min 14 sec) 
Heartbeat CPU 0 instructions: 190000003 cycles: 290718508 heartbeat IPC: 0.392806 cumulative IPC: 0.393878 (Simulation time: 0 hr 5 min 37 sec) 
Heartbeat CPU 0 instructions: 200000000 cycles: 316207050 heartbeat IPC: 0.392333 cumulative IPC: 0.393723 (Simulation time: 0 hr 6 min 1 sec) 
Heartbeat CPU 0 instructions: 210000003 cycles: 341752124 heartbeat IPC: 0.391465 cumulative IPC: 0.393517 (Simulation time: 0 hr 6 min 25 sec) 
Heartbeat CPU 0 instructions: 220000000 cycles: 367577936 heartbeat IPC: 0.387209 cumulative IPC: 0.392983 (Simulation time: 0 hr 6 min 49 sec) 
Heartbeat CPU 0 instructions: 230000002 cycles: 392971549 heartbeat IPC: 0.3938 cumulative IPC: 0.393046 (Simulation time: 0 hr 7 min 13 sec) 
Heartbeat CPU 0 instructions: 240000000 cycles: 418749875 heartbeat IPC: 0.387923 cumulative IPC: 0.392676 (Simulation time: 0 hr 7 min 36 sec) 
Heartbeat CPU 0 instructions: 250000000 cycles: 444331293 heartbeat IPC: 0.390909 cumulative IPC: 0.392557 (Simulation time: 0 hr 8 min 0 sec) 
Heartbeat CPU 0 instructions: 260000000 cycles: 469962203 heartbeat IPC: 0.390154 cumulative IPC: 0.392406 (Simulation time: 0 hr 8 min 24 sec) 
Heartbeat CPU 0 instructions: 270000001 cycles: 495638574 heartbeat IPC: 0.389463 cumulative IPC: 0.392232 (Simulation time: 0 hr 8 min 48 sec) 
Heartbeat CPU 0 instructions: 280000000 cycles: 521279601 heartbeat IPC: 0.39 cumulative IPC: 0.392107 (Simulation time: 0 hr 9 min 12 sec) 
Heartbeat CPU 0 instructions: 290000001 cycles: 546971279 heartbeat IPC: 0.389231 cumulative IPC: 0.391955 (Simulation time: 0 hr 9 min 36 sec) 
Heartbeat CPU 0 instructions: 300000000 cycles: 572916148 heartbeat IPC: 0.385433 cumulative IPC: 0.391623 (Simulation time: 0 hr 10 min 0 sec) 
Heartbeat CPU 0 instructions: 310000003 cycles: 598467814 heartbeat IPC: 0.391364 cumulative IPC: 0.391611 (Simulation time: 0 hr 10 min 24 sec) 
Heartbeat CPU 0 instructions: 320000000 cycles: 624436782 heartbeat IPC: 0.385075 cumulative IPC: 0.391309 (Simulation time: 0 hr 10 min 48 sec) 
Heartbeat CPU 0 instructions: 330000003 cycles: 650068597 heartbeat IPC: 0.39014 cumulative IPC: 0.391258 (Simulation time: 0 hr 11 min 11 sec) 
Heartbeat CPU 0 instructions: 340000000 cycles: 676062092 heartbeat IPC: 0.384712 cumulative IPC: 0.390981 (Simulation time: 0 hr 11 min 35 sec) 
Heartbeat CPU 0 instructions: 350000002 cycles: 702067833 heartbeat IPC: 0.384531 cumulative IPC: 0.390719 (Simulation time: 0 hr 11 min 59 sec) 
Heartbeat CPU 0 instructions: 360000000 cycles: 728246866 heartbeat IPC: 0.381985 cumulative IPC: 0.390375 (Simulation time: 0 hr 12 min 23 sec) 
Heartbeat CPU 0 instructions: 370000000 cycles: 754149088 heartbeat IPC: 0.386067 cumulative IPC: 0.390214 (Simulation time: 0 hr 12 min 47 sec) 
Heartbeat CPU 0 instructions: 380000000 cycles: 779908596 heartbeat IPC: 0.388206 cumulative IPC: 0.390142 (Simulation time: 0 hr 13 min 11 sec) 
Heartbeat CPU 0 instructions: 390000002 cycles: 805676622 heartbeat IPC: 0.388078 cumulative IPC: 0.390071 (Simulation time: 0 hr 13 min 34 sec) 
Heartbeat CPU 0 instructions: 400000000 cycles: 831679580 heartbeat IPC: 0.384572 cumulative IPC: 0.389885 (Simulation time: 0 hr 13 min 58 sec) 
Heartbeat CPU 0 instructions: 410000002 cycles: 857511181 heartbeat IPC: 0.387123 cumulative IPC: 0.389795 (Simulation time: 0 hr 14 min 22 sec) 
Heartbeat CPU 0 instructions: 420000000 cycles: 883193543 heartbeat IPC: 0.389372 cumulative IPC: 0.389782 (Simulation time: 0 hr 14 min 45 sec) 
Heartbeat CPU 0 instructions: 430000000 cycles: 909225039 heartbeat IPC: 0.38415 cumulative IPC: 0.389609 (Simulation time: 0 hr 15 min 9 sec) 
Heartbeat CPU 0 instructions: 440000000 cycles: 934862177 heartbeat IPC: 0.390059 cumulative IPC: 0.389622 (Simulation time: 0 hr 15 min 33 sec) 
Heartbeat CPU 0 instructions: 450000000 cycles: 961328649 heartbeat IPC: 0.377837 cumulative IPC: 0.389275 (Simulation time: 0 hr 15 min 58 sec) 
Heartbeat CPU 0 instructions: 460000000 cycles: 987729386 heartbeat IPC: 0.378777 cumulative IPC: 0.388976 (Simulation time: 0 hr 16 min 23 sec) 
Heartbeat CPU 0 instructions: 470000001 cycles: 1013869643 heartbeat IPC: 0.382552 cumulative IPC: 0.388799 (Simulation time: 0 hr 16 min 48 sec) 
Heartbeat CPU 0 instructions: 480000000 cycles: 1040255298 heartbeat IPC: 0.378994 cumulative IPC: 0.388535 (Simulation time: 0 hr 17 min 13 sec) 
Heartbeat CPU 0 instructions: 490000000 cycles: 1066747437 heartbeat IPC: 0.37747 cumulative IPC: 0.388243 (Simulation time: 0 hr 17 min 38 sec) 
Heartbeat CPU 0 instructions: 500000000 cycles: 1093500976 heartbeat IPC: 0.373782 cumulative IPC: 0.387868 (Simulation time: 0 hr 18 min 2 sec) 
Heartbeat CPU 0 instructions: 510000003 cycles: 1120182271 heartbeat IPC: 0.374795 cumulative IPC: 0.387538 (Simulation time: 0 hr 18 min 27 sec) 
Heartbeat CPU 0 instructions: 520000000 cycles: 1147087267 heartbeat IPC: 0.371678 cumulative IPC: 0.387145 (Simulation time: 0 hr 18 min 52 sec) 
Heartbeat CPU 0 instructions: 530000001 cycles: 1173999213 heartbeat IPC: 0.371582 cumulative IPC: 0.386768 (Simulation time: 0 hr 19 min 17 sec) 
Heartbeat CPU 0 instructions: 540000000 cycles: 1200796533 heartbeat IPC: 0.373172 cumulative IPC: 0.386448 (Simulation time: 0 hr 19 min 42 sec) 
Heartbeat CPU 0 instructions: 550000000 cycles: 1227615041 heartbeat IPC: 0.372877 cumulative IPC: 0.386136 (Simulation time: 0 hr 20 min 6 sec) 
Heartbeat CPU 0 instructions: 560000000 cycles: 1254826893 heartbeat IPC: 0.367487 cumulative IPC: 0.38571 (Simulation time: 0 hr 20 min 31 sec) 
Heartbeat CPU 0 instructions: 570000001 cycles: 1281975675 heartbeat IPC: 0.368341 cumulative IPC: 0.385324 (Simulation time: 0 hr 20 min 56 sec) 
Heartbeat CPU 0 instructions: 580000000 cycles: 1309075110 heartbeat IPC: 0.369011 cumulative IPC: 0.384969 (Simulation time: 0 hr 21 min 21 sec) 
Heartbeat CPU 0 instructions: 590000000 cycles: 1336390494 heartbeat IPC: 0.366094 cumulative IPC: 0.384564 (Simulation time: 0 hr 21 min 46 sec) 
Heartbeat CPU 0 instructions: 600000000 cycles: 1363824739 heartbeat IPC: 0.364508 cumulative IPC: 0.384142 (Simulation time: 0 hr 22 min 12 sec) 
Finished CPU 0 instructions: 500000003 cycles: 1301603329 cumulative IPC: 0.384142 (Simulation time: 0 hr 22 min 12 sec) 

CPU 0 Branch Prediction Accuracy: 91.1342% MPKI: 18.7968
Number of Branches: 106006945 Number of Mispredictions: 9398408
Number of LOAD Instructions: 207894007
Number of LOAD Instructions (ROI): 207894007
Number of STORE Instructions: 54285997
Number of STORE Instructions (ROI): 54285997
Total Destination Memory Operands: 57463404
Total Destination Memory Operands (ROI): 57463404
Total Source Memory Operands: 207894007
Total Source Memory Operands (ROI): 207894007
Number of DEPENDED LOADS: 18031036
Number of DEPENDED LOADS (ROI): 18031036
Number of SQ_ADDED: 57463404
Number of SQ_ADDED (ROI): 57463404
Number of LQ_ADDED: 209506359
Number of LQ_ADDED (ROI): 209506359
Number of Instructions read from trace: 600000039

ChampSim completed all CPUs

Region of Interest Statistics

CPU 0 cumulative IPC: 0.384142 instructions: 500000003 cycles: 1301603329
ITLB TOTAL     ACCESS:   96387437  HIT:   96387437  MISS:          0
ITLB LOAD      ACCESS:   96387437  HIT:   96387437  MISS:          0
ITLB RFO       ACCESS:          0  HIT:          0  MISS:          0
ITLB PREFETCH  ACCESS:          0  HIT:          0  MISS:          0
ITLB WRITEBACK ACCESS:          0  HIT:          0  MISS:          0
ITLB PREFETCH  REQUESTED:          0  ISSUED:          0  USEFUL:          0  USELESS:          0
ITLB TOTAL MSHR MERGED:          0
ITLB LOAD MSHR MERGED:          0
ITLB RFO MSHR MERGED:          0
ITLB PREFETCH MSHR MERGED:          0
ITLB WRITEBACK MSHR MERGED:          0
ITLB TOTAL ACCESSES:   96387437 HITS:   96387437 MISSES:          0
ITLB LOAD ACCESSES:   96387437 HITS:   96387437 MISSES:          0
ITLB RFO ACCESSES:          0 HITS:          0 MISSES:          0
ITLB PREFETCH ACCESSES:          0 HITS:          0 MISSES:          0
ITLB WRITEBACK ACCESSES:          0 HITS:          0 MISSES:          0
ITLB RQ ACCESS:  499999980
ITLB RQ TO_CACHE:   96387437
ITLB RQ MERGED:  403612543
ITLB RQ FORWARD:          0
ITLB WQ ACCESS:          0
ITLB WQ TO_CACHE:          0
ITLB WQ MERGED:          0
ITLB WQ FORWARD:          0
DTLB TOTAL     ACCESS:  155211583  HIT:  150299441  MISS:    4912142
DTLB LOAD      ACCESS:  117771022  HIT:  113380472  MISS:    4390550
DTLB RFO       ACCESS:   37440561  HIT:   36918969  MISS:     521592
DTLB PREFETCH  ACCESS:          0  HIT:          0  MISS:          0
DTLB WRITEBACK ACCESS:          0  HIT:          0  MISS:          0
DTLB PREFETCH  REQUESTED:          0  ISSUED:          0  USEFUL:          0  USELESS:          0
DTLB TOTAL MSHR MERGED:     449160
DTLB LOAD MSHR MERGED:     157302
DTLB RFO MSHR MERGED:     291858
DTLB PREFETCH MSHR MERGED:          0
DTLB WRITEBACK MSHR MERGED:          0
DTLB TOTAL ACCESSES:  155660743 HITS:  150299441 MISSES:    5361302
DTLB LOAD ACCESSES:  117928324 HITS:  113380472 MISSES:    4547852
DTLB RFO ACCESSES:   37732419 HITS:   36918969 MISSES:     813450
DTLB PREFETCH ACCESSES:          0 HITS:          0 MISSES:          0
DTLB WRITEBACK ACCESSES:          0 HITS:          0 MISSES:          0
DTLB RQ ACCESS:  206048287
DTLB RQ TO_CACHE:  155660743
DTLB RQ MERGED:   50387544
DTLB RQ FORWARD:          0
DTLB WQ ACCESS:          0
DTLB WQ TO_CACHE:          0
DTLB WQ MERGED:          0
DTLB WQ FORWARD:          0
L1D TOTAL     ACCESS:  277493048  HIT:  242668412  MISS:   34824636
L1D LOAD      ACCESS:  125536810  HIT:  107988183  MISS:   17548627
L1D RFO       ACCESS:   41149302  HIT:   38837468  MISS:    2311834
L1D PREFETCH  ACCESS:  110806936  HIT:   95842761  MISS:   14964175
L1D WRITEBACK ACCESS:          0  HIT:          0  MISS:          0
L1D PREFETCH  REQUESTED:  126333275  ISSUED:  124813935  USEFUL:    2795966  USELESS:   12168234
L1D TOTAL MSHR MERGED:    8336409
L1D LOAD MSHR MERGED:    1446097
L1D RFO MSHR MERGED:    3767530
L1D PREFETCH MSHR MERGED:    3122782
L1D WRITEBACK MSHR MERGED:          0
L1D TOTAL ACCESSES:  285917034 HITS:  242755989 MISSES:   43161045
L1D LOAD ACCESSES:  126333286 HITS:  107988194 MISSES:   18345092
L1D RFO ACCESSES:   44916326 HITS:   38837468 MISSES:    6078858
L1D PREFETCH ACCESSES:  114667422 HITS:   95930327 MISSES:   18737095
L1D WRITEBACK ACCESSES:          0 HITS:          0 MISSES:          0
L1D RQ ACCESS:  158501406
L1D RQ TO_CACHE:  126333275
L1D RQ MERGED:   32168120
L1D RQ FORWARD:          0
L1D WQ ACCESS:   47546882
L1D WQ TO_CACHE:   44916326
L1D WQ MERGED:    2630556
L1D WQ FORWARD:      87577
L1I TOTAL     ACCESS:  132796304  HIT:  132796304  MISS:          0
L1I LOAD      ACCESS:  132796304  HIT:  132796304  MISS:          0
L1I RFO       ACCESS:          0  HIT:          0  MISS:          0
L1I PREFETCH  ACCESS:          0  HIT:          0  MISS:          0
L1I WRITEBACK ACCESS:          0  HIT:          0  MISS:          0
L1I PREFETCH  REQUESTED:          0  ISSUED:          0  USEFUL:          0  USELESS:          0
L1I TOTAL MSHR MERGED:          0
L1I LOAD MSHR MERGED:          0
L1I RFO MSHR MERGED:          0
L1I PREFETCH MSHR MERGED:          0
L1I WRITEBACK MSHR MERGED:          0
L1I TOTAL ACCESSES:  132796304 HITS:  132796304 MISSES:          0
L1I LOAD ACCESSES:  132796304 HITS:  132796304 MISSES:          0
L1I RFO ACCESSES:          0 HITS:          0 MISSES:          0
L1I PREFETCH ACCESSES:          0 HITS:          0 MISSES:          0
L1I WRITEBACK ACCESSES:          0 HITS:          0 MISSES:          0
L1I RQ ACCESS:  499999980
L1I RQ TO_CACHE:  132796304
L1I RQ MERGED:  367203676
L1I RQ FORWARD:          0
L1I WQ ACCESS:          0
L1I WQ TO_CACHE:          0
L1I WQ MERGED:          0
L1I WQ FORWARD:          0
L2C TOTAL     ACCESS:   39595165  HIT:   20625808  MISS:   18969357
L2C LOAD      ACCESS:   16898933  HIT:    8568024  MISS:    8330909
L2C RFO       ACCESS:    2311281  HIT:     630783  MISS:    1680498
L2C PREFETCH  ACCESS:   17162517  HIT:    8208314  MISS:    8954203
L2C WRITEBACK ACCESS:    3222434  HIT:    3218687  MISS:       3747
L2C PREFETCH  REQUESTED:    2748128  ISSUED:    2748128  USEFUL:    1306873  USELESS:    7647045
L2C TOTAL MSHR MERGED:     460515
L2C LOAD MSHR MERGED:      53701
L2C RFO MSHR MERGED:          0
L2C PREFETCH MSHR MERGED:     406814
L2C WRITEBACK MSHR MERGED:          0
L2C TOTAL ACCESSES:   40104637 HITS:   20625964 MISSES:   19478673
L2C LOAD ACCESSES:   16898995 HITS:    8568086 MISSES:    8330909
L2C RFO ACCESSES:    2311328 HITS:     630830 MISSES:    1680498
L2C PREFETCH ACCESSES:   17671880 HITS:    8208361 MISSES:    9463519
L2C WRITEBACK ACCESSES:    3222434 HITS:    3218687 MISSES:       3747
L2C RQ ACCESS:   19210323
L2C RQ TO_CACHE:   19210214
L2C RQ MERGED:          0
L2C RQ FORWARD:          0
L2C WQ ACCESS:    3222434
L2C WQ TO_CACHE:    3222434
L2C WQ MERGED:          0
L2C WQ FORWARD:        156
LLC TOTAL     ACCESS:   21170954  HIT:   14870192  MISS:    6300762
LLC LOAD      ACCESS:    8277183  HIT:    5364159  MISS:    2913024
LLC RFO       ACCESS:    1680453  HIT:    1577941  MISS:     102512
LLC PREFETCH  ACCESS:    9037635  HIT:    5806652  MISS:    3230983
LLC WRITEBACK ACCESS:    2175683  HIT:    2121440  MISS:      54243
LLC PREFETCH  REQUESTED:          0  ISSUED:          0  USEFUL:     490807  USELESS:    2746481
LLC TOTAL MSHR MERGED:      16673
LLC LOAD MSHR MERGED:       3928
LLC RFO MSHR MERGED:          0
LLC PREFETCH MSHR MERGED:      12745
LLC WRITEBACK MSHR MERGED:          0
LLC TOTAL ACCESSES:   21187727 HITS:   14870292 MISSES:    6317435
LLC LOAD ACCESSES:    8277208 HITS:    5364184 MISSES:    2913024
LLC RFO ACCESSES:    1680498 HITS:    1577986 MISSES:     102512
LLC PREFETCH ACCESSES:    9054338 HITS:    5806682 MISSES:    3247656
LLC WRITEBACK ACCESSES:    2175683 HITS:    2121440 MISSES:      54243
LLC 0 RQ ACCESS:    9957706
LLC 0 RQ TO_CACHE:    9957636
LLC 0 RQ MERGED:          0
LLC 0 RQ FORWARD:          0
LLC WQ ACCESS:    2175684
LLC WQ TO_CACHE:    2175684
LLC WQ MERGED:          0
LLC WQ FORWARD:        100
Major fault: 0 Minor fault: 56391
CPU 0 L1D next line prefetcher final stats
CPU 0 L2C PC-based stride prefetcher final stats
All Misses: 7287279
All Hits: 17260527
SD Algo Stats - Switches: 0 SRR-Repls: 3023825 BRR-Repls: 0

DRAM Statistics
 CHANNEL 0
 RQ ROW_BUFFER_HIT:    4079840  ROW_BUFFER_MISS:    2125187
 DBUS_CONGESTED:    3032409
 WQ ROW_BUFFER_HIT:      15266  ROW_BUFFER_MISS:     152490  FULL:          0

 AVG_CONGESTED_CYCLE: 13
LOADS RETIRED: 173631671
INSTR RETIRED: 500000000
